MODEL 1
REMARK VINA RESULT:     -11.1      0.000      0.000
REMARK SMILES CC(C)CN(C(=O)NC(=O)CCCC(=O)OCCOCCOC(=O)c1ccc(-c2c3nc(c(-c4ccccc4)c4ccc([nH]4)c(-c4ccccc4)c4nc(c(-c5ccccc5)c5ccc2[nH]5)C=C4)C=C3)cc1)C1CCCC1
REMARK SMILES IDX 17 1 16 2 14 3 15 4 13 5 12 6 11 7 9 8 6 9 7 10 8 11 10 13
REMARK SMILES IDX 5 14 4 15 2 16 1 17 3 18 73 19 74 20 77 21 75 22 76 23 18 24
REMARK SMILES IDX 19 25 20 26 21 27 22 28 23 29 24 30 25 31 26 32 72 33 27 34
REMARK SMILES IDX 71 35 28 36 29 37 30 38 65 39 31 40 70 41 64 42 66 43 32 44
REMARK SMILES IDX 69 45 63 46 62 47 33 49 55 50 40 51 54 52 41 53 44 54 53 55
REMARK SMILES IDX 67 56 42 57 43 58 52 60 68 61 45 62 34 63 35 64 39 65 36 66
REMARK SMILES IDX 38 67 37 68 56 69 57 70 61 71 58 72 60 73 59 74 46 75 47 76
REMARK SMILES IDX 51 77 48 78 50 79 49 80
REMARK H PARENT 8 12 66 48 44 59
REMARK Flexibility Score: inf
ROOT
ATOM      1  C   UNL A   1      41.675  21.333  26.415  1.00  0.00     0.261 C 
ENDROOT
BRANCH   1   2
ATOM      2  O   UNL A   1      40.190  21.544  26.758  1.00  0.00    -0.463 OA
BRANCH   2   3
ATOM      3  C   UNL A   1      38.974  21.725  26.057  1.00  0.00     0.305 C 
ATOM      4  O   UNL A   1      38.644  20.831  25.263  1.00  0.00    -0.252 OA
BRANCH   3   5
ATOM      5  C   UNL A   1      37.823  22.971  26.264  1.00  0.00     0.123 C 
BRANCH   5   6
ATOM      6  C   UNL A   1      36.356  23.514  25.846  1.00  0.00     0.022 C 
BRANCH   6   7
ATOM      7  C   UNL A   1      35.720  24.228  24.597  1.00  0.00     0.101 C 
BRANCH   7   8
ATOM      8  C   UNL A   1      35.079  23.577  23.386  1.00  0.00     0.228 C 
ATOM      9  C   UNL A   1      32.870  24.225  23.714  1.00  0.00     0.324 C 
ATOM     10  O   UNL A   1      32.388  24.873  22.782  1.00  0.00    -0.248 OA
ATOM     11  N   UNL A   1      33.759  23.279  23.395  1.00  0.00    -0.278 N 
ATOM     12  H   UNL A   1      33.455  22.371  23.167  1.00  0.00     0.174 HD
ATOM     13  O   UNL A   1      35.760  23.177  22.440  1.00  0.00    -0.275 OA
BRANCH   9  14
ATOM     14  N   UNL A   1      32.504  24.369  25.072  1.00  0.00    -0.321 N 
BRANCH  14  15
ATOM     15  C   UNL A   1      32.066  22.882  25.910  1.00  0.00     0.124 C 
BRANCH  15  16
ATOM     16  C   UNL A   1      32.973  21.446  26.367  1.00  0.00     0.002 C 
ATOM     17  C   UNL A   1      34.002  20.609  25.553  1.00  0.00     0.009 C 
ATOM     18  C   UNL A   1      33.712  21.734  27.692  1.00  0.00     0.009 C 
ENDBRANCH  15  16
ENDBRANCH  14  15
BRANCH  14  19
ATOM     19  C   UNL A   1      32.521  26.070  25.373  1.00  0.00     0.087 C 
ATOM     20  C   UNL A   1      31.604  26.556  26.546  1.00  0.00     0.025 C 
ATOM     21  C   UNL A   1      33.631  27.251  25.347  1.00  0.00     0.025 C 
ATOM     22  C   UNL A   1      31.960  28.029  26.819  1.00  0.00     0.002 C 
ATOM     23  C   UNL A   1      33.446  28.082  26.633  1.00  0.00     0.002 C 
ENDBRANCH  14  19
ENDBRANCH   9  14
ENDBRANCH   7   8
ENDBRANCH   6   7
ENDBRANCH   5   6
ENDBRANCH   3   5
ENDBRANCH   2   3
ENDBRANCH   1   2
BRANCH   1  24
ATOM     24  C   UNL A   1      42.311  20.027  25.917  1.00  0.00     0.202 C 
BRANCH  24  25
ATOM     25  O   UNL A   1      43.376  20.048  25.001  1.00  0.00    -0.374 OA
BRANCH  25  26
ATOM     26  C   UNL A   1      44.405  20.970  25.297  1.00  0.00     0.202 C 
BRANCH  26  27
ATOM     27  C   UNL A   1      44.675  22.089  24.272  1.00  0.00     0.261 C 
BRANCH  27  28
ATOM     28  O   UNL A   1      43.808  23.244  24.343  1.00  0.00    -0.460 OA
BRANCH  28  29
ATOM     29  C   UNL A   1      44.382  24.349  24.840  1.00  0.00     0.338 C 
ATOM     30  O   UNL A   1      45.586  24.687  24.711  1.00  0.00    -0.246 OA
BRANCH  29  31
ATOM     31  C   UNL A   1      43.432  25.259  25.486  1.00  0.00     0.060 A 
ATOM     32  C   UNL A   1      43.852  26.580  25.715  1.00  0.00     0.016 A 
ATOM     33  C   UNL A   1      42.245  24.787  26.059  1.00  0.00     0.016 A 
ATOM     34  C   UNL A   1      43.151  27.393  26.596  1.00  0.00     0.010 A 
ATOM     35  C   UNL A   1      41.543  25.609  26.951  1.00  0.00     0.010 A 
ATOM     36  C   UNL A   1      42.035  26.887  27.275  1.00  0.00    -0.014 A 
BRANCH  36  37
ATOM     37  C   UNL A   1      41.564  27.603  28.487  1.00  0.00     0.031 A 
ATOM     38  C   UNL A   1      42.345  27.440  29.766  1.00  0.00     0.074 A 
ATOM     39  C   UNL A   1      40.521  28.448  28.432  1.00  0.00     0.049 A 
ATOM     40  N   UNL A   1      42.153  27.995  30.936  1.00  0.00    -0.248 NA
ATOM     41  C   UNL A   1      43.502  26.530  29.717  1.00  0.00     0.031 C 
ATOM     42  C   UNL A   1      39.726  28.730  27.239  1.00  0.00     0.029 A 
ATOM     43  N   UNL A   1      39.958  29.232  29.408  1.00  0.00    -0.354 N 
ATOM     44  C   UNL A   1      43.153  27.491  31.761  1.00  0.00     0.074 A 
ATOM     45  C   UNL A   1      43.933  26.568  30.968  1.00  0.00     0.031 C 
ATOM     46  C   UNL A   1      38.771  29.620  27.553  1.00  0.00     0.029 A 
ATOM     47  C   UNL A   1      38.871  29.948  28.974  1.00  0.00     0.049 A 
ATOM     48  H   UNL A   1      40.301  29.275  30.329  1.00  0.00     0.167 HD
ATOM     49  C   UNL A   1      43.404  27.774  33.062  1.00  0.00     0.031 A 
ATOM     50  C   UNL A   1      38.039  30.761  29.654  1.00  0.00     0.031 A 
ATOM     51  C   UNL A   1      42.618  28.687  33.848  1.00  0.00     0.049 A 
ATOM     52  C   UNL A   1      38.299  31.019  31.113  1.00  0.00     0.074 A 
ATOM     53  C   UNL A   1      42.791  29.061  35.169  1.00  0.00     0.029 A 
ATOM     54  N   UNL A   1      41.498  29.361  33.382  1.00  0.00    -0.354 N 
ATOM     55  N   UNL A   1      39.263  30.557  31.874  1.00  0.00    -0.248 NA
ATOM     56  C   UNL A   1      37.363  31.917  31.804  1.00  0.00     0.031 C 
ATOM     57  C   UNL A   1      41.738  29.914  35.519  1.00  0.00     0.029 A 
ATOM     58  C   UNL A   1      40.948  30.121  34.399  1.00  0.00     0.049 A 
ATOM     59  H   UNL A   1      41.147  29.306  32.464  1.00  0.00     0.167 HD
ATOM     60  C   UNL A   1      39.062  31.121  33.128  1.00  0.00     0.074 A 
ATOM     61  C   UNL A   1      37.895  31.975  33.018  1.00  0.00     0.031 C 
ATOM     62  C   UNL A   1      39.777  30.951  34.268  1.00  0.00     0.031 A 
BRANCH  49  63
ATOM     63  C   UNL A   1      44.538  27.039  33.724  1.00  0.00    -0.014 A 
ATOM     64  C   UNL A   1      45.843  27.561  33.752  1.00  0.00     0.009 A 
ATOM     65  C   UNL A   1      44.296  25.797  34.333  1.00  0.00     0.009 A 
ATOM     66  C   UNL A   1      46.884  26.834  34.334  1.00  0.00     0.001 A 
ATOM     67  C   UNL A   1      45.332  25.087  34.940  1.00  0.00     0.001 A 
ATOM     68  C   UNL A   1      46.628  25.599  34.929  1.00  0.00     0.000 A 
ENDBRANCH  49  63
BRANCH  50  69
ATOM     69  C   UNL A   1      36.870  31.363  28.959  1.00  0.00    -0.014 A 
ATOM     70  C   UNL A   1      35.749  30.591  28.619  1.00  0.00     0.009 A 
ATOM     71  C   UNL A   1      36.866  32.733  28.649  1.00  0.00     0.009 A 
ATOM     72  C   UNL A   1      34.655  31.177  27.975  1.00  0.00     0.001 A 
ATOM     73  C   UNL A   1      35.761  33.322  28.034  1.00  0.00     0.001 A 
ATOM     74  C   UNL A   1      34.658  32.543  27.692  1.00  0.00     0.000 A 
ENDBRANCH  50  69
BRANCH  62  75
ATOM     75  C   UNL A   1      39.327  31.718  35.480  1.00  0.00    -0.014 A 
ATOM     76  C   UNL A   1      38.287  31.245  36.297  1.00  0.00     0.009 A 
ATOM     77  C   UNL A   1      39.981  32.908  35.832  1.00  0.00     0.009 A 
ATOM     78  C   UNL A   1      37.890  31.970  37.421  1.00  0.00     0.001 A 
ATOM     79  C   UNL A   1      39.602  33.613  36.974  1.00  0.00     0.001 A 
ATOM     80  C   UNL A   1      38.550  33.150  37.763  1.00  0.00     0.000 A 
ENDBRANCH  62  75
ENDBRANCH  36  37
ENDBRANCH  29  31
ENDBRANCH  28  29
ENDBRANCH  27  28
ENDBRANCH  26  27
ENDBRANCH  25  26
ENDBRANCH  24  25
ENDBRANCH   1  24
TORSDOF 21
ENDMDL
MODEL 2
REMARK VINA RESULT:     -11.0      1.491      2.447
REMARK SMILES CC(C)CN(C(=O)NC(=O)CCCC(=O)OCCOCCOC(=O)c1ccc(-c2c3nc(c(-c4ccccc4)c4ccc([nH]4)c(-c4ccccc4)c4nc(c(-c5ccccc5)c5ccc2[nH]5)C=C4)C=C3)cc1)C1CCCC1
REMARK SMILES IDX 17 1 16 2 14 3 15 4 13 5 12 6 11 7 9 8 6 9 7 10 8 11 10 13
REMARK SMILES IDX 5 14 4 15 2 16 1 17 3 18 73 19 74 20 77 21 75 22 76 23 18 24
REMARK SMILES IDX 19 25 20 26 21 27 22 28 23 29 24 30 25 31 26 32 72 33 27 34
REMARK SMILES IDX 71 35 28 36 29 37 30 38 65 39 31 40 70 41 64 42 66 43 32 44
REMARK SMILES IDX 69 45 63 46 62 47 33 49 55 50 40 51 54 52 41 53 44 54 53 55
REMARK SMILES IDX 67 56 42 57 43 58 52 60 68 61 45 62 34 63 35 64 39 65 36 66
REMARK SMILES IDX 38 67 37 68 56 69 57 70 61 71 58 72 60 73 59 74 46 75 47 76
REMARK SMILES IDX 51 77 48 78 50 79 49 80
REMARK H PARENT 8 12 66 48 44 59
REMARK Flexibility Score: inf
ROOT
ATOM      1  C   UNL A   1      40.138  21.125  26.696  1.00  0.00     0.261 C 
ENDROOT
BRANCH   1   2
ATOM      2  O   UNL A   1      39.254  21.592  25.526  1.00  0.00    -0.463 OA
BRANCH   2   3
ATOM      3  C   UNL A   1      37.875  21.789  25.275  1.00  0.00     0.305 C 
ATOM      4  O   UNL A   1      37.240  20.818  24.837  1.00  0.00    -0.252 OA
BRANCH   3   5
ATOM      5  C   UNL A   1      36.935  23.172  25.626  1.00  0.00     0.123 C 
BRANCH   5   6
ATOM      6  C   UNL A   1      35.436  23.755  25.803  1.00  0.00     0.022 C 
BRANCH   6   7
ATOM      7  C   UNL A   1      34.385  24.489  24.890  1.00  0.00     0.101 C 
BRANCH   7   8
ATOM      8  C   UNL A   1      34.228  24.378  23.386  1.00  0.00     0.228 C 
ATOM      9  C   UNL A   1      33.360  26.486  22.925  1.00  0.00     0.324 C 
ATOM     10  O   UNL A   1      34.031  27.148  22.130  1.00  0.00    -0.248 OA
ATOM     11  N   UNL A   1      33.335  25.162  22.738  1.00  0.00    -0.278 N 
ATOM     12  H   UNL A   1      32.672  24.760  22.131  1.00  0.00     0.174 HD
ATOM     13  O   UNL A   1      34.791  23.486  22.749  1.00  0.00    -0.275 OA
BRANCH   9  14
ATOM     14  N   UNL A   1      32.574  27.029  23.966  1.00  0.00    -0.321 N 
BRANCH  14  15
ATOM     15  C   UNL A   1      33.403  27.279  25.501  1.00  0.00     0.124 C 
BRANCH  15  16
ATOM     16  C   UNL A   1      33.626  28.686  26.534  1.00  0.00     0.002 C 
ATOM     17  C   UNL A   1      34.934  29.374  27.023  1.00  0.00     0.009 C 
ATOM     18  C   UNL A   1      32.800  29.856  25.953  1.00  0.00     0.009 C 
ENDBRANCH  15  16
ENDBRANCH  14  15
BRANCH  14  19
ATOM     19  C   UNL A   1      30.975  27.140  23.324  1.00  0.00     0.087 C 
ATOM     20  C   UNL A   1      29.837  26.586  24.247  1.00  0.00     0.025 C 
ATOM     21  C   UNL A   1      30.145  28.208  22.430  1.00  0.00     0.025 C 
ATOM     22  C   UNL A   1      28.496  27.014  23.621  1.00  0.00     0.002 C 
ATOM     23  C   UNL A   1      28.767  28.390  23.096  1.00  0.00     0.002 C 
ENDBRANCH  14  19
ENDBRANCH   9  14
ENDBRANCH   7   8
ENDBRANCH   6   7
ENDBRANCH   5   6
ENDBRANCH   3   5
ENDBRANCH   2   3
ENDBRANCH   1   2
BRANCH   1  24
ATOM     24  C   UNL A   1      41.410  20.272  26.584  1.00  0.00     0.202 C 
BRANCH  24  25
ATOM     25  O   UNL A   1      42.240  20.359  25.454  1.00  0.00    -0.374 OA
BRANCH  25  26
ATOM     26  C   UNL A   1      43.567  20.772  25.714  1.00  0.00     0.202 C 
BRANCH  26  27
ATOM     27  C   UNL A   1      43.959  22.206  25.308  1.00  0.00     0.261 C 
BRANCH  27  28
ATOM     28  O   UNL A   1      42.922  23.207  25.418  1.00  0.00    -0.460 OA
BRANCH  28  29
ATOM     29  C   UNL A   1      43.340  24.472  25.261  1.00  0.00     0.338 C 
ATOM     30  O   UNL A   1      44.303  24.856  24.551  1.00  0.00    -0.246 OA
BRANCH  29  31
ATOM     31  C   UNL A   1      42.477  25.457  25.919  1.00  0.00     0.060 A 
ATOM     32  C   UNL A   1      42.952  26.775  26.012  1.00  0.00     0.016 A 
ATOM     33  C   UNL A   1      41.334  25.067  26.628  1.00  0.00     0.016 A 
ATOM     34  C   UNL A   1      42.355  27.673  26.888  1.00  0.00     0.010 A 
ATOM     35  C   UNL A   1      40.738  25.974  27.514  1.00  0.00     0.010 A 
ATOM     36  C   UNL A   1      41.292  27.254  27.699  1.00  0.00    -0.014 A 
BRANCH  36  37
ATOM     37  C   UNL A   1      40.952  28.071  28.891  1.00  0.00     0.031 A 
ATOM     38  C   UNL A   1      41.805  27.929  30.125  1.00  0.00     0.074 A 
ATOM     39  C   UNL A   1      39.965  28.982  28.849  1.00  0.00     0.049 A 
ATOM     40  N   UNL A   1      41.730  28.563  31.267  1.00  0.00    -0.248 NA
ATOM     41  C   UNL A   1      42.894  26.939  30.060  1.00  0.00     0.031 C 
ATOM     42  C   UNL A   1      39.112  29.248  27.693  1.00  0.00     0.029 A 
ATOM     43  N   UNL A   1      39.523  29.858  29.807  1.00  0.00    -0.354 N 
ATOM     44  C   UNL A   1      42.748  28.040  32.058  1.00  0.00     0.074 A 
ATOM     45  C   UNL A   1      43.410  27.020  31.276  1.00  0.00     0.031 C 
ATOM     46  C   UNL A   1      38.240  30.219  28.011  1.00  0.00     0.029 A 
ATOM     47  C   UNL A   1      38.458  30.622  29.399  1.00  0.00     0.049 A 
ATOM     48  H   UNL A   1      39.929  29.931  30.700  1.00  0.00     0.167 HD
ATOM     49  C   UNL A   1      43.104  28.379  33.320  1.00  0.00     0.031 A 
ATOM     50  C   UNL A   1      37.728  31.529  30.078  1.00  0.00     0.031 A 
ATOM     51  C   UNL A   1      42.434  29.389  34.095  1.00  0.00     0.049 A 
ATOM     52  C   UNL A   1      38.102  31.853  31.499  1.00  0.00     0.074 A 
ATOM     53  C   UNL A   1      42.721  29.827  35.376  1.00  0.00     0.029 A 
ATOM     54  N   UNL A   1      41.332  30.111  33.660  1.00  0.00    -0.354 N 
ATOM     55  N   UNL A   1      39.084  31.370  32.225  1.00  0.00    -0.248 NA
ATOM     56  C   UNL A   1      37.277  32.852  32.191  1.00  0.00     0.031 C 
ATOM     57  C   UNL A   1      41.751  30.770  35.739  1.00  0.00     0.029 A 
ATOM     58  C   UNL A   1      40.903  30.966  34.660  1.00  0.00     0.049 A 
ATOM     59  H   UNL A   1      40.918  30.028  32.771  1.00  0.00     0.167 HD
ATOM     60  C   UNL A   1      39.005  32.018  33.451  1.00  0.00     0.074 A 
ATOM     61  C   UNL A   1      37.892  32.944  33.362  1.00  0.00     0.031 C 
ATOM     62  C   UNL A   1      39.783  31.866  34.552  1.00  0.00     0.031 A 
BRANCH  49  63
ATOM     63  C   UNL A   1      44.230  27.607  33.953  1.00  0.00    -0.014 A 
ATOM     64  C   UNL A   1      44.006  26.404  34.644  1.00  0.00     0.009 A 
ATOM     65  C   UNL A   1      45.543  28.094  33.854  1.00  0.00     0.009 A 
ATOM     66  C   UNL A   1      45.067  25.734  35.259  1.00  0.00     0.001 A 
ATOM     67  C   UNL A   1      46.605  27.406  34.444  1.00  0.00     0.001 A 
ATOM     68  C   UNL A   1      46.364  26.234  35.157  1.00  0.00     0.000 A 
ENDBRANCH  49  63
BRANCH  50  69
ATOM     69  C   UNL A   1      36.557  32.169  29.422  1.00  0.00    -0.014 A 
ATOM     70  C   UNL A   1      35.266  31.639  29.561  1.00  0.00     0.009 A 
ATOM     71  C   UNL A   1      36.730  33.339  28.664  1.00  0.00     0.009 A 
ATOM     72  C   UNL A   1      34.175  32.261  28.946  1.00  0.00     0.001 A 
ATOM     73  C   UNL A   1      35.636  33.975  28.076  1.00  0.00     0.001 A 
ATOM     74  C   UNL A   1      34.360  33.432  28.212  1.00  0.00     0.000 A 
ENDBRANCH  50  69
BRANCH  62  75
ATOM     75  C   UNL A   1      39.467  32.732  35.739  1.00  0.00    -0.014 A 
ATOM     76  C   UNL A   1      40.164  33.927  35.975  1.00  0.00     0.009 A 
ATOM     77  C   UNL A   1      38.428  32.367  36.609  1.00  0.00     0.009 A 
ATOM     78  C   UNL A   1      39.849  34.720  37.080  1.00  0.00     0.001 A 
ATOM     79  C   UNL A   1      38.095  33.178  37.694  1.00  0.00     0.001 A 
ATOM     80  C   UNL A   1      38.812  34.348  37.936  1.00  0.00     0.000 A 
ENDBRANCH  62  75
ENDBRANCH  36  37
ENDBRANCH  29  31
ENDBRANCH  28  29
ENDBRANCH  27  28
ENDBRANCH  26  27
ENDBRANCH  25  26
ENDBRANCH  24  25
ENDBRANCH   1  24
TORSDOF 21
ENDMDL
MODEL 3
REMARK VINA RESULT:     -10.9      1.335      1.913
REMARK SMILES CC(C)CN(C(=O)NC(=O)CCCC(=O)OCCOCCOC(=O)c1ccc(-c2c3nc(c(-c4ccccc4)c4ccc([nH]4)c(-c4ccccc4)c4nc(c(-c5ccccc5)c5ccc2[nH]5)C=C4)C=C3)cc1)C1CCCC1
REMARK SMILES IDX 17 1 16 2 14 3 15 4 13 5 12 6 11 7 9 8 6 9 7 10 8 11 10 13
REMARK SMILES IDX 5 14 4 15 2 16 1 17 3 18 73 19 74 20 77 21 75 22 76 23 18 24
REMARK SMILES IDX 19 25 20 26 21 27 22 28 23 29 24 30 25 31 26 32 72 33 27 34
REMARK SMILES IDX 71 35 28 36 29 37 30 38 65 39 31 40 70 41 64 42 66 43 32 44
REMARK SMILES IDX 69 45 63 46 62 47 33 49 55 50 40 51 54 52 41 53 44 54 53 55
REMARK SMILES IDX 67 56 42 57 43 58 52 60 68 61 45 62 34 63 35 64 39 65 36 66
REMARK SMILES IDX 38 67 37 68 56 69 57 70 61 71 58 72 60 73 59 74 46 75 47 76
REMARK SMILES IDX 51 77 48 78 50 79 49 80
REMARK H PARENT 8 12 66 48 44 59
REMARK Flexibility Score: inf
ROOT
ATOM      1  C   UNL A   1      40.610  21.211  26.753  1.00  0.00     0.261 C 
ENDROOT
BRANCH   1   2
ATOM      2  O   UNL A   1      39.787  22.336  26.103  1.00  0.00    -0.463 OA
BRANCH   2   3
ATOM      3  C   UNL A   1      38.783  23.254  26.495  1.00  0.00     0.305 C 
ATOM      4  O   UNL A   1      39.006  23.930  27.511  1.00  0.00    -0.252 OA
BRANCH   3   5
ATOM      5  C   UNL A   1      37.343  23.647  25.665  1.00  0.00     0.123 C 
BRANCH   5   6
ATOM      6  C   UNL A   1      35.726  23.668  25.736  1.00  0.00     0.022 C 
BRANCH   6   7
ATOM      7  C   UNL A   1      34.590  22.651  26.126  1.00  0.00     0.101 C 
BRANCH   7   8
ATOM      8  C   UNL A   1      33.593  22.768  27.262  1.00  0.00     0.228 C 
ATOM      9  C   UNL A   1      31.717  23.454  26.070  1.00  0.00     0.324 C 
ATOM     10  O   UNL A   1      30.742  22.707  26.185  1.00  0.00    -0.248 OA
ATOM     11  N   UNL A   1      32.514  23.575  27.137  1.00  0.00    -0.278 N 
ATOM     12  H   UNL A   1      32.316  24.249  27.828  1.00  0.00     0.174 HD
ATOM     13  O   UNL A   1      33.813  22.257  28.362  1.00  0.00    -0.275 OA
BRANCH   9  14
ATOM     14  N   UNL A   1      32.011  24.228  24.924  1.00  0.00    -0.321 N 
BRANCH  14  15
ATOM     15  C   UNL A   1      32.226  23.327  23.425  1.00  0.00     0.124 C 
BRANCH  15  16
ATOM     16  C   UNL A   1      32.640  21.653  23.075  1.00  0.00     0.002 C 
ATOM     17  C   UNL A   1      32.608  20.398  23.995  1.00  0.00     0.009 C 
ATOM     18  C   UNL A   1      31.848  21.204  21.827  1.00  0.00     0.009 C 
ENDBRANCH  15  16
ENDBRANCH  14  15
BRANCH  14  19
ATOM     19  C   UNL A   1      32.165  25.850  25.494  1.00  0.00     0.087 C 
ATOM     20  C   UNL A   1      33.503  26.574  25.118  1.00  0.00     0.025 C 
ATOM     21  C   UNL A   1      31.177  27.122  25.684  1.00  0.00     0.025 C 
ATOM     22  C   UNL A   1      33.332  28.060  25.480  1.00  0.00     0.002 C 
ATOM     23  C   UNL A   1      31.908  28.357  25.121  1.00  0.00     0.002 C 
ENDBRANCH  14  19
ENDBRANCH   9  14
ENDBRANCH   7   8
ENDBRANCH   6   7
ENDBRANCH   5   6
ENDBRANCH   3   5
ENDBRANCH   2   3
ENDBRANCH   1   2
BRANCH   1  24
ATOM     24  C   UNL A   1      41.890  20.581  26.182  1.00  0.00     0.202 C 
BRANCH  24  25
ATOM     25  O   UNL A   1      42.774  21.335  25.394  1.00  0.00    -0.374 OA
BRANCH  25  26
ATOM     26  C   UNL A   1      44.109  20.870  25.378  1.00  0.00     0.202 C 
BRANCH  26  27
ATOM     27  C   UNL A   1      45.230  21.920  25.508  1.00  0.00     0.261 C 
BRANCH  27  28
ATOM     28  O   UNL A   1      44.939  23.064  26.343  1.00  0.00    -0.460 OA
BRANCH  28  29
ATOM     29  C   UNL A   1      44.833  24.229  25.687  1.00  0.00     0.338 C 
ATOM     30  O   UNL A   1      45.431  24.545  24.628  1.00  0.00    -0.246 OA
BRANCH  29  31
ATOM     31  C   UNL A   1      43.823  25.127  26.254  1.00  0.00     0.060 A 
ATOM     32  C   UNL A   1      44.169  26.480  26.402  1.00  0.00     0.016 A 
ATOM     33  C   UNL A   1      42.650  24.631  26.835  1.00  0.00     0.016 A 
ATOM     34  C   UNL A   1      43.407  27.312  27.214  1.00  0.00     0.010 A 
ATOM     35  C   UNL A   1      41.887  25.471  27.657  1.00  0.00     0.010 A 
ATOM     36  C   UNL A   1      42.305  26.792  27.904  1.00  0.00    -0.014 A 
BRANCH  36  37
ATOM     37  C   UNL A   1      41.771  27.561  29.057  1.00  0.00     0.031 A 
ATOM     38  C   UNL A   1      42.501  27.481  30.373  1.00  0.00     0.074 A 
ATOM     39  C   UNL A   1      40.715  28.379  28.915  1.00  0.00     0.049 A 
ATOM     40  N   UNL A   1      42.251  28.091  31.503  1.00  0.00    -0.248 NA
ATOM     41  C   UNL A   1      43.676  26.594  30.418  1.00  0.00     0.031 C 
ATOM     42  C   UNL A   1      39.965  28.582  27.677  1.00  0.00     0.029 A 
ATOM     43  N   UNL A   1      40.098  29.201  29.824  1.00  0.00    -0.354 N 
ATOM     44  C   UNL A   1      43.226  27.653  32.393  1.00  0.00     0.074 A 
ATOM     45  C   UNL A   1      44.055  26.706  31.682  1.00  0.00     0.031 C 
ATOM     46  C   UNL A   1      38.981  29.467  27.906  1.00  0.00     0.029 A 
ATOM     47  C   UNL A   1      39.016  29.870  29.310  1.00  0.00     0.049 A 
ATOM     48  H   UNL A   1      40.402  29.299  30.755  1.00  0.00     0.167 HD
ATOM     49  C   UNL A   1      43.417  28.008  33.687  1.00  0.00     0.031 A 
ATOM     50  C   UNL A   1      38.142  30.700  29.912  1.00  0.00     0.031 A 
ATOM     51  C   UNL A   1      42.582  28.944  34.391  1.00  0.00     0.049 A 
ATOM     52  C   UNL A   1      38.336  31.039  31.365  1.00  0.00     0.074 A 
ATOM     53  C   UNL A   1      42.694  29.390  35.695  1.00  0.00     0.029 A 
ATOM     54  N   UNL A   1      41.470  29.569  33.845  1.00  0.00    -0.354 N 
ATOM     55  N   UNL A   1      39.277  30.638  32.187  1.00  0.00    -0.248 NA
ATOM     56  C   UNL A   1      37.356  31.952  31.970  1.00  0.00     0.031 C 
ATOM     57  C   UNL A   1      41.611  30.238  35.958  1.00  0.00     0.029 A 
ATOM     58  C   UNL A   1      40.864  30.369  34.798  1.00  0.00     0.049 A 
ATOM     59  H   UNL A   1      41.159  29.459  32.918  1.00  0.00     0.167 HD
ATOM     60  C   UNL A   1      39.013  31.262  33.400  1.00  0.00     0.074 A 
ATOM     61  C   UNL A   1      37.836  32.084  33.199  1.00  0.00     0.031 C 
ATOM     62  C   UNL A   1      39.684  31.166  34.576  1.00  0.00     0.031 A 
BRANCH  49  63
ATOM     63  C   UNL A   1      44.537  27.333  34.431  1.00  0.00    -0.014 A 
ATOM     64  C   UNL A   1      44.344  26.126  35.124  1.00  0.00     0.009 A 
ATOM     65  C   UNL A   1      45.814  27.916  34.437  1.00  0.00     0.009 A 
ATOM     66  C   UNL A   1      45.392  25.547  35.844  1.00  0.00     0.001 A 
ATOM     67  C   UNL A   1      46.867  27.320  35.131  1.00  0.00     0.001 A 
ATOM     68  C   UNL A   1      46.653  26.142  35.845  1.00  0.00     0.000 A 
ENDBRANCH  49  63
BRANCH  50  69
ATOM     69  C   UNL A   1      36.991  31.240  29.140  1.00  0.00    -0.014 A 
ATOM     70  C   UNL A   1      35.869  30.447  28.855  1.00  0.00     0.009 A 
ATOM     71  C   UNL A   1      37.005  32.574  28.700  1.00  0.00     0.009 A 
ATOM     72  C   UNL A   1      34.792  30.976  28.136  1.00  0.00     0.001 A 
ATOM     73  C   UNL A   1      35.916  33.108  28.009  1.00  0.00     0.001 A 
ATOM     74  C   UNL A   1      34.813  32.307  27.722  1.00  0.00     0.000 A 
ENDBRANCH  50  69
BRANCH  62  75
ATOM     75  C   UNL A   1      39.170  31.986  35.726  1.00  0.00    -0.014 A 
ATOM     76  C   UNL A   1      39.595  33.309  35.926  1.00  0.00     0.009 A 
ATOM     77  C   UNL A   1      38.214  31.440  36.596  1.00  0.00     0.009 A 
ATOM     78  C   UNL A   1      39.099  34.054  36.997  1.00  0.00     0.001 A 
ATOM     79  C   UNL A   1      37.697  32.199  37.646  1.00  0.00     0.001 A 
ATOM     80  C   UNL A   1      38.147  33.501  37.853  1.00  0.00     0.000 A 
ENDBRANCH  62  75
ENDBRANCH  36  37
ENDBRANCH  29  31
ENDBRANCH  28  29
ENDBRANCH  27  28
ENDBRANCH  26  27
ENDBRANCH  25  26
ENDBRANCH  24  25
ENDBRANCH   1  24
TORSDOF 21
ENDMDL
