MODEL 1
REMARK VINA RESULT:     -10.1      0.000      0.000
REMARK SMILES CCOc1ccc(C(=O)NCC(=O)OCCOCCOC(=O)c2ccc(-c3c4nc(c(-c5ccccc5)c5ccc([nH]5)c(-c5ccccc5)c5nc(c(-c6ccccc6)c6ccc3[nH]6)C=C5)C=C4)cc2)c2ccccc12
REMARK SMILES IDX 16 1 15 2 14 3 12 4 13 5 11 6 10 7 8 8 9 9 7 11 4 12 5 13
REMARK SMILES IDX 76 14 6 15 71 16 75 17 72 18 74 19 73 20 3 21 2 22 1 23
REMARK SMILES IDX 17 24 18 25 19 26 20 27 21 28 22 29 23 30 24 31 70 32 25 33
REMARK SMILES IDX 69 34 26 35 27 36 28 37 63 38 29 39 68 40 62 41 64 42 30 43
REMARK SMILES IDX 67 44 61 45 60 46 31 48 53 49 38 50 52 51 39 52 42 53 51 54
REMARK SMILES IDX 65 55 40 56 41 57 50 59 66 60 43 61 32 62 33 63 37 64 34 65
REMARK SMILES IDX 36 66 35 67 54 68 55 69 59 70 56 71 58 72 57 73 44 74 45 75
REMARK SMILES IDX 49 76 46 77 48 78 47 79
REMARK H PARENT 10 10 64 47 42 58
REMARK Flexibility Score: inf
ROOT
ATOM      1  C   UNL A   1      36.721  22.680  23.739  1.00  0.00     0.202 C 
ENDROOT
BRANCH   1   2
ATOM      2  C   UNL A   1      35.286  23.203  23.635  1.00  0.00     0.261 C 
BRANCH   2   3
ATOM      3  O   UNL A   1      34.461  22.589  24.639  1.00  0.00    -0.462 OA
BRANCH   3   4
ATOM      4  C   UNL A   1      33.719  23.417  25.426  1.00  0.00     0.325 C 
ATOM      5  O   UNL A   1      34.080  23.879  26.501  1.00  0.00    -0.250 OA
BRANCH   4   6
ATOM      6  C   UNL A   1      32.360  23.742  24.782  1.00  0.00     0.239 C 
BRANCH   6   7
ATOM      7  N   UNL A   1      31.246  23.889  25.723  1.00  0.00    -0.341 N 
ATOM      8  C   UNL A   1      30.390  24.932  25.990  1.00  0.00     0.252 C 
ATOM      9  O   UNL A   1      29.552  24.751  26.870  1.00  0.00    -0.269 OA
ATOM     10  H   UNL A   1      31.077  23.086  26.268  1.00  0.00     0.164 HD
BRANCH   8  11
ATOM     11  C   UNL A   1      30.469  26.227  25.244  1.00  0.00     0.047 A 
ATOM     12  C   UNL A   1      30.359  28.629  23.813  1.00  0.00     0.127 A 
ATOM     13  C   UNL A   1      29.785  27.484  23.284  1.00  0.00     0.048 A 
ATOM     14  C   UNL A   1      31.156  28.567  24.974  1.00  0.00     0.025 A 
ATOM     15  C   UNL A   1      29.863  26.294  23.985  1.00  0.00     0.018 A 
ATOM     16  C   UNL A   1      31.211  27.352  25.722  1.00  0.00    -0.002 A 
ATOM     17  C   UNL A   1      31.930  29.673  25.383  1.00  0.00     0.012 A 
ATOM     18  C   UNL A   1      32.036  27.345  26.877  1.00  0.00     0.010 A 
ATOM     19  C   UNL A   1      32.774  29.605  26.490  1.00  0.00     0.001 A 
ATOM     20  C   UNL A   1      32.824  28.442  27.239  1.00  0.00     0.001 A 
BRANCH  12  21
ATOM     21  O   UNL A   1      30.242  29.790  23.087  1.00  0.00    -0.493 OA
BRANCH  21  22
ATOM     22  C   UNL A   1      28.882  30.258  23.035  1.00  0.00     0.226 C 
ATOM     23  C   UNL A   1      28.742  31.700  23.508  1.00  0.00     0.049 C 
ENDBRANCH  21  22
ENDBRANCH  12  21
ENDBRANCH   8  11
ENDBRANCH   6   7
ENDBRANCH   4   6
ENDBRANCH   3   4
ENDBRANCH   2   3
ENDBRANCH   1   2
BRANCH   1  24
ATOM     24  O   UNL A   1      36.892  21.472  24.481  1.00  0.00    -0.374 OA
BRANCH  24  25
ATOM     25  C   UNL A   1      38.045  21.357  25.312  1.00  0.00     0.202 C 
BRANCH  25  26
ATOM     26  C   UNL A   1      38.825  20.039  25.245  1.00  0.00     0.261 C 
BRANCH  26  27
ATOM     27  O   UNL A   1      39.622  19.807  26.417  1.00  0.00    -0.460 OA
BRANCH  27  28
ATOM     28  C   UNL A   1      40.954  19.738  26.189  1.00  0.00     0.338 C 
ATOM     29  O   UNL A   1      41.559  18.850  25.601  1.00  0.00    -0.246 OA
BRANCH  28  30
ATOM     30  C   UNL A   1      41.617  20.983  26.612  1.00  0.00     0.060 A 
ATOM     31  C   UNL A   1      41.501  21.358  27.958  1.00  0.00     0.016 A 
ATOM     32  C   UNL A   1      42.252  21.821  25.693  1.00  0.00     0.016 A 
ATOM     33  C   UNL A   1      41.966  22.602  28.381  1.00  0.00     0.010 A 
ATOM     34  C   UNL A   1      42.706  23.073  26.116  1.00  0.00     0.010 A 
ATOM     35  C   UNL A   1      42.529  23.483  27.451  1.00  0.00    -0.014 A 
BRANCH  35  36
ATOM     36  C   UNL A   1      42.775  24.898  27.816  1.00  0.00     0.031 A 
ATOM     37  C   UNL A   1      44.183  25.327  28.118  1.00  0.00     0.074 A 
ATOM     38  C   UNL A   1      41.766  25.782  27.895  1.00  0.00     0.049 A 
ATOM     39  N   UNL A   1      44.621  26.464  28.595  1.00  0.00    -0.248 NA
ATOM     40  C   UNL A   1      45.241  24.338  27.848  1.00  0.00     0.031 C 
ATOM     41  C   UNL A   1      40.370  25.506  27.563  1.00  0.00     0.029 A 
ATOM     42  N   UNL A   1      41.766  27.092  28.303  1.00  0.00    -0.354 N 
ATOM     43  C   UNL A   1      45.998  26.319  28.706  1.00  0.00     0.074 A 
ATOM     44  C   UNL A   1      46.323  24.982  28.257  1.00  0.00     0.031 C 
ATOM     45  C   UNL A   1      39.641  26.610  27.805  1.00  0.00     0.029 A 
ATOM     46  C   UNL A   1      40.512  27.649  28.350  1.00  0.00     0.049 A 
ATOM     47  H   UNL A   1      42.586  27.584  28.539  1.00  0.00     0.167 HD
ATOM     48  C   UNL A   1      46.910  27.217  29.147  1.00  0.00     0.031 A 
ATOM     49  C   UNL A   1      40.110  28.846  28.820  1.00  0.00     0.031 A 
ATOM     50  C   UNL A   1      46.581  28.540  29.603  1.00  0.00     0.049 A 
ATOM     51  C   UNL A   1      41.130  29.796  29.395  1.00  0.00     0.074 A 
ATOM     52  C   UNL A   1      47.432  29.528  30.066  1.00  0.00     0.029 A 
ATOM     53  N   UNL A   1      45.296  29.056  29.658  1.00  0.00    -0.354 N 
ATOM     54  N   UNL A   1      42.429  29.651  29.494  1.00  0.00    -0.248 NA
ATOM     55  C   UNL A   1      40.626  31.072  29.923  1.00  0.00     0.031 C 
ATOM     56  C   UNL A   1      46.656  30.625  30.449  1.00  0.00     0.029 A 
ATOM     57  C   UNL A   1      45.329  30.340  30.169  1.00  0.00     0.049 A 
ATOM     58  H   UNL A   1      44.483  28.579  29.376  1.00  0.00     0.167 HD
ATOM     59  C   UNL A   1      42.900  30.830  30.060  1.00  0.00     0.074 A 
ATOM     60  C   UNL A   1      41.749  31.679  30.283  1.00  0.00     0.031 C 
ATOM     61  C   UNL A   1      44.174  31.179  30.363  1.00  0.00     0.031 A 
BRANCH  48  62
ATOM     62  C   UNL A   1      48.345  26.779  29.200  1.00  0.00    -0.014 A 
ATOM     63  C   UNL A   1      48.860  26.091  30.309  1.00  0.00     0.009 A 
ATOM     64  C   UNL A   1      49.188  27.034  28.106  1.00  0.00     0.009 A 
ATOM     65  C   UNL A   1      50.199  25.693  30.334  1.00  0.00     0.001 A 
ATOM     66  C   UNL A   1      50.518  26.612  28.122  1.00  0.00     0.001 A 
ATOM     67  C   UNL A   1      51.024  25.950  29.240  1.00  0.00     0.000 A 
ENDBRANCH  48  62
BRANCH  49  68
ATOM     68  C   UNL A   1      38.668  29.206  28.805  1.00  0.00    -0.014 A 
ATOM     69  C   UNL A   1      37.876  29.029  29.949  1.00  0.00     0.009 A 
ATOM     70  C   UNL A   1      38.073  29.717  27.640  1.00  0.00     0.009 A 
ATOM     71  C   UNL A   1      36.513  29.333  29.919  1.00  0.00     0.001 A 
ATOM     72  C   UNL A   1      36.717  30.047  27.622  1.00  0.00     0.001 A 
ATOM     73  C   UNL A   1      35.936  29.847  28.759  1.00  0.00     0.000 A 
ENDBRANCH  49  68
BRANCH  61  74
ATOM     74  C   UNL A   1      44.410  32.560  30.907  1.00  0.00    -0.014 A 
ATOM     75  C   UNL A   1      44.622  32.780  32.275  1.00  0.00     0.009 A 
ATOM     76  C   UNL A   1      44.508  33.642  30.017  1.00  0.00     0.009 A 
ATOM     77  C   UNL A   1      44.913  34.064  32.744  1.00  0.00     0.001 A 
ATOM     78  C   UNL A   1      44.824  34.917  30.485  1.00  0.00     0.001 A 
ATOM     79  C   UNL A   1      45.022  35.128  31.848  1.00  0.00     0.000 A 
ENDBRANCH  61  74
ENDBRANCH  35  36
ENDBRANCH  28  30
ENDBRANCH  27  28
ENDBRANCH  26  27
ENDBRANCH  25  26
ENDBRANCH  24  25
ENDBRANCH   1  24
TORSDOF 18
ENDMDL
MODEL 2
REMARK VINA RESULT:      -9.8      5.313     10.106
REMARK SMILES CCOc1ccc(C(=O)NCC(=O)OCCOCCOC(=O)c2ccc(-c3c4nc(c(-c5ccccc5)c5ccc([nH]5)c(-c5ccccc5)c5nc(c(-c6ccccc6)c6ccc3[nH]6)C=C5)C=C4)cc2)c2ccccc12
REMARK SMILES IDX 16 1 15 2 14 3 12 4 13 5 11 6 10 7 8 8 9 9 7 11 4 12 5 13
REMARK SMILES IDX 76 14 6 15 71 16 75 17 72 18 74 19 73 20 3 21 2 22 1 23
REMARK SMILES IDX 17 24 18 25 19 26 20 27 21 28 22 29 23 30 24 31 70 32 25 33
REMARK SMILES IDX 69 34 26 35 27 36 28 37 63 38 29 39 68 40 62 41 64 42 30 43
REMARK SMILES IDX 67 44 61 45 60 46 31 48 53 49 38 50 52 51 39 52 42 53 51 54
REMARK SMILES IDX 65 55 40 56 41 57 50 59 66 60 43 61 32 62 33 63 37 64 34 65
REMARK SMILES IDX 36 66 35 67 54 68 55 69 59 70 56 71 58 72 57 73 44 74 45 75
REMARK SMILES IDX 49 76 46 77 48 78 47 79
REMARK H PARENT 10 10 64 47 42 58
REMARK Flexibility Score: inf
ROOT
ATOM      1  C   UNL A   1      35.370  33.477  27.996  1.00  0.00     0.202 C 
ENDROOT
BRANCH   1   2
ATOM      2  C   UNL A   1      34.880  32.037  28.174  1.00  0.00     0.261 C 
BRANCH   2   3
ATOM      3  O   UNL A   1      35.992  31.128  28.144  1.00  0.00    -0.462 OA
BRANCH   3   4
ATOM      4  C   UNL A   1      35.750  29.863  27.699  1.00  0.00     0.325 C 
ATOM      5  O   UNL A   1      36.440  28.883  27.950  1.00  0.00    -0.250 OA
BRANCH   4   6
ATOM      6  C   UNL A   1      34.466  29.797  26.855  1.00  0.00     0.239 C 
BRANCH   6   7
ATOM      7  N   UNL A   1      33.391  28.979  27.422  1.00  0.00    -0.341 N 
ATOM      8  C   UNL A   1      32.606  27.982  26.890  1.00  0.00     0.252 C 
ATOM      9  O   UNL A   1      31.757  27.490  27.630  1.00  0.00    -0.269 OA
ATOM     10  H   UNL A   1      33.192  29.182  28.365  1.00  0.00     0.164 HD
BRANCH   8  11
ATOM     11  C   UNL A   1      32.778  27.511  25.480  1.00  0.00     0.047 A 
ATOM     12  C   UNL A   1      33.153  26.878  22.780  1.00  0.00     0.127 A 
ATOM     13  C   UNL A   1      32.309  27.918  23.134  1.00  0.00     0.048 A 
ATOM     14  C   UNL A   1      33.686  26.016  23.760  1.00  0.00     0.025 A 
ATOM     15  C   UNL A   1      32.108  28.212  24.471  1.00  0.00     0.018 A 
ATOM     16  C   UNL A   1      33.514  26.333  25.141  1.00  0.00    -0.002 A 
ATOM     17  C   UNL A   1      34.349  24.825  23.395  1.00  0.00     0.012 A 
ATOM     18  C   UNL A   1      34.064  25.424  26.083  1.00  0.00     0.010 A 
ATOM     19  C   UNL A   1      34.821  23.929  24.352  1.00  0.00     0.001 A 
ATOM     20  C   UNL A   1      34.682  24.231  25.696  1.00  0.00     0.001 A 
BRANCH  12  21
ATOM     21  O   UNL A   1      33.332  26.636  21.440  1.00  0.00    -0.493 OA
BRANCH  21  22
ATOM     22  C   UNL A   1      32.219  25.929  20.865  1.00  0.00     0.226 C 
ATOM     23  C   UNL A   1      32.521  25.400  19.468  1.00  0.00     0.049 C 
ENDBRANCH  21  22
ENDBRANCH  12  21
ENDBRANCH   8  11
ENDBRANCH   6   7
ENDBRANCH   4   6
ENDBRANCH   3   4
ENDBRANCH   2   3
ENDBRANCH   1   2
BRANCH   1  24
ATOM     24  O   UNL A   1      34.374  34.432  27.629  1.00  0.00    -0.374 OA
BRANCH  24  25
ATOM     25  C   UNL A   1      33.157  34.448  28.371  1.00  0.00     0.202 C 
BRANCH  25  26
ATOM     26  C   UNL A   1      32.974  35.582  29.387  1.00  0.00     0.261 C 
BRANCH  26  27
ATOM     27  O   UNL A   1      32.428  35.125  30.635  1.00  0.00    -0.460 OA
BRANCH  27  28
ATOM     28  C   UNL A   1      32.849  35.814  31.720  1.00  0.00     0.338 C 
ATOM     29  O   UNL A   1      32.363  36.840  32.180  1.00  0.00    -0.246 OA
BRANCH  28  30
ATOM     30  C   UNL A   1      33.918  35.078  32.417  1.00  0.00     0.060 A 
ATOM     31  C   UNL A   1      35.190  35.666  32.464  1.00  0.00     0.016 A 
ATOM     32  C   UNL A   1      33.709  33.795  32.926  1.00  0.00     0.016 A 
ATOM     33  C   UNL A   1      36.275  34.949  32.965  1.00  0.00     0.010 A 
ATOM     34  C   UNL A   1      34.800  33.073  33.417  1.00  0.00     0.010 A 
ATOM     35  C   UNL A   1      36.092  33.631  33.401  1.00  0.00    -0.014 A 
BRANCH  35  36
ATOM     36  C   UNL A   1      37.263  32.766  33.675  1.00  0.00     0.031 A 
ATOM     37  C   UNL A   1      38.034  32.984  34.947  1.00  0.00     0.074 A 
ATOM     38  C   UNL A   1      37.644  31.815  32.806  1.00  0.00     0.049 A 
ATOM     39  N   UNL A   1      39.166  32.454  35.333  1.00  0.00    -0.248 NA
ATOM     40  C   UNL A   1      37.450  33.931  35.912  1.00  0.00     0.031 C 
ATOM     41  C   UNL A   1      36.943  31.463  31.574  1.00  0.00     0.029 A 
ATOM     42  N   UNL A   1      38.738  30.986  32.824  1.00  0.00    -0.354 N 
ATOM     43  C   UNL A   1      39.443  33.020  36.571  1.00  0.00     0.074 A 
ATOM     44  C   UNL A   1      38.368  33.942  36.868  1.00  0.00     0.031 C 
ATOM     45  C   UNL A   1      37.639  30.503  30.939  1.00  0.00     0.029 A 
ATOM     46  C   UNL A   1      38.853  30.210  31.697  1.00  0.00     0.049 A 
ATOM     47  H   UNL A   1      39.377  30.952  33.572  1.00  0.00     0.167 HD
ATOM     48  C   UNL A   1      40.501  32.797  37.385  1.00  0.00     0.031 A 
ATOM     49  C   UNL A   1      39.848  29.390  31.305  1.00  0.00     0.031 A 
ATOM     50  C   UNL A   1      41.573  31.889  37.080  1.00  0.00     0.049 A 
ATOM     51  C   UNL A   1      41.062  29.227  32.183  1.00  0.00     0.074 A 
ATOM     52  C   UNL A   1      42.689  31.589  37.840  1.00  0.00     0.029 A 
ATOM     53  N   UNL A   1      41.664  31.142  35.918  1.00  0.00    -0.354 N 
ATOM     54  N   UNL A   1      41.314  29.764  33.352  1.00  0.00    -0.248 NA
ATOM     55  C   UNL A   1      42.128  28.345  31.685  1.00  0.00     0.031 C 
ATOM     56  C   UNL A   1      43.482  30.695  37.114  1.00  0.00     0.029 A 
ATOM     57  C   UNL A   1      42.829  30.397  35.929  1.00  0.00     0.049 A 
ATOM     58  H   UNL A   1      40.999  31.141  35.192  1.00  0.00     0.167 HD
ATOM     59  C   UNL A   1      42.547  29.258  33.744  1.00  0.00     0.074 A 
ATOM     60  C   UNL A   1      42.993  28.371  32.690  1.00  0.00     0.031 C 
ATOM     61  C   UNL A   1      43.246  29.502  34.880  1.00  0.00     0.031 A 
BRANCH  48  62
ATOM     62  C   UNL A   1      40.571  33.582  38.663  1.00  0.00    -0.014 A 
ATOM     63  C   UNL A   1      41.202  34.834  38.719  1.00  0.00     0.009 A 
ATOM     64  C   UNL A   1      39.966  33.073  39.823  1.00  0.00     0.009 A 
ATOM     65  C   UNL A   1      41.253  35.546  39.919  1.00  0.00     0.001 A 
ATOM     66  C   UNL A   1      39.995  33.799  41.015  1.00  0.00     0.001 A 
ATOM     67  C   UNL A   1      40.646  35.030  41.064  1.00  0.00     0.000 A 
ENDBRANCH  48  62
BRANCH  49  68
ATOM     68  C   UNL A   1      39.760  28.685  30.000  1.00  0.00    -0.014 A 
ATOM     69  C   UNL A   1      39.275  27.371  29.929  1.00  0.00     0.009 A 
ATOM     70  C   UNL A   1      40.175  29.320  28.817  1.00  0.00     0.009 A 
ATOM     71  C   UNL A   1      39.230  26.699  28.705  1.00  0.00     0.001 A 
ATOM     72  C   UNL A   1      40.102  28.656  27.591  1.00  0.00     0.001 A 
ATOM     73  C   UNL A   1      39.638  27.343  27.538  1.00  0.00     0.000 A 
ENDBRANCH  49  68
BRANCH  61  74
ATOM     74  C   UNL A   1      44.534  28.756  35.083  1.00  0.00    -0.014 A 
ATOM     75  C   UNL A   1      44.546  27.415  35.490  1.00  0.00     0.009 A 
ATOM     76  C   UNL A   1      45.750  29.388  34.776  1.00  0.00     0.009 A 
ATOM     77  C   UNL A   1      45.756  26.724  35.601  1.00  0.00     0.001 A 
ATOM     78  C   UNL A   1      46.953  28.688  34.861  1.00  0.00     0.001 A 
ATOM     79  C   UNL A   1      46.955  27.359  35.278  1.00  0.00     0.000 A 
ENDBRANCH  61  74
ENDBRANCH  35  36
ENDBRANCH  28  30
ENDBRANCH  27  28
ENDBRANCH  26  27
ENDBRANCH  25  26
ENDBRANCH  24  25
ENDBRANCH   1  24
TORSDOF 18
ENDMDL
MODEL 3
REMARK VINA RESULT:      -9.8      0.745      5.894
REMARK SMILES CCOc1ccc(C(=O)NCC(=O)OCCOCCOC(=O)c2ccc(-c3c4nc(c(-c5ccccc5)c5ccc([nH]5)c(-c5ccccc5)c5nc(c(-c6ccccc6)c6ccc3[nH]6)C=C5)C=C4)cc2)c2ccccc12
REMARK SMILES IDX 16 1 15 2 14 3 12 4 13 5 11 6 10 7 8 8 9 9 7 11 4 12 5 13
REMARK SMILES IDX 76 14 6 15 71 16 75 17 72 18 74 19 73 20 3 21 2 22 1 23
REMARK SMILES IDX 17 24 18 25 19 26 20 27 21 28 22 29 23 30 24 31 70 32 25 33
REMARK SMILES IDX 69 34 26 35 27 36 28 37 63 38 29 39 68 40 62 41 64 42 30 43
REMARK SMILES IDX 67 44 61 45 60 46 31 48 53 49 38 50 52 51 39 52 42 53 51 54
REMARK SMILES IDX 65 55 40 56 41 57 50 59 66 60 43 61 32 62 33 63 37 64 34 65
REMARK SMILES IDX 36 66 35 67 54 68 55 69 59 70 56 71 58 72 57 73 44 74 45 75
REMARK SMILES IDX 49 76 46 77 48 78 47 79
REMARK H PARENT 10 10 64 47 42 58
REMARK Flexibility Score: inf
ROOT
ATOM      1  C   UNL A   1      36.272  22.666  25.810  1.00  0.00     0.202 C 
ENDROOT
BRANCH   1   2
ATOM      2  C   UNL A   1      35.029  23.482  25.443  1.00  0.00     0.261 C 
BRANCH   2   3
ATOM      3  O   UNL A   1      33.839  22.739  25.752  1.00  0.00    -0.462 OA
BRANCH   3   4
ATOM      4  C   UNL A   1      33.022  22.413  24.711  1.00  0.00     0.325 C 
ATOM      5  O   UNL A   1      33.082  21.374  24.067  1.00  0.00    -0.250 OA
BRANCH   4   6
ATOM      6  C   UNL A   1      31.971  23.506  24.453  1.00  0.00     0.239 C 
BRANCH   6   7
ATOM      7  N   UNL A   1      31.008  23.712  25.538  1.00  0.00    -0.341 N 
ATOM      8  C   UNL A   1      30.277  24.808  25.932  1.00  0.00     0.252 C 
ATOM      9  O   UNL A   1      29.554  24.669  26.916  1.00  0.00    -0.269 OA
ATOM     10  H   UNL A   1      30.855  22.911  26.091  1.00  0.00     0.164 HD
BRANCH   8  11
ATOM     11  C   UNL A   1      30.351  26.111  25.198  1.00  0.00     0.047 A 
ATOM     12  C   UNL A   1      30.229  28.553  23.837  1.00  0.00     0.127 A 
ATOM     13  C   UNL A   1      29.454  27.486  23.411  1.00  0.00     0.048 A 
ATOM     14  C   UNL A   1      31.213  28.378  24.832  1.00  0.00     0.025 A 
ATOM     15  C   UNL A   1      29.536  26.274  24.072  1.00  0.00     0.018 A 
ATOM     16  C   UNL A   1      31.278  27.143  25.544  1.00  0.00    -0.002 A 
ATOM     17  C   UNL A   1      32.157  29.390  25.104  1.00  0.00     0.012 A 
ATOM     18  C   UNL A   1      32.295  27.020  26.528  1.00  0.00     0.010 A 
ATOM     19  C   UNL A   1      33.177  29.207  26.036  1.00  0.00     0.001 A 
ATOM     20  C   UNL A   1      33.243  28.023  26.751  1.00  0.00     0.001 A 
BRANCH  12  21
ATOM     21  O   UNL A   1      30.101  29.740  23.158  1.00  0.00    -0.493 OA
BRANCH  21  22
ATOM     22  C   UNL A   1      28.999  29.717  22.234  1.00  0.00     0.226 C 
ATOM     23  C   UNL A   1      27.699  30.207  22.860  1.00  0.00     0.049 C 
ENDBRANCH  21  22
ENDBRANCH  12  21
ENDBRANCH   8  11
ENDBRANCH   6   7
ENDBRANCH   4   6
ENDBRANCH   3   4
ENDBRANCH   2   3
ENDBRANCH   1   2
BRANCH   1  24
ATOM     24  O   UNL A   1      36.352  21.361  25.237  1.00  0.00    -0.374 OA
BRANCH  24  25
ATOM     25  C   UNL A   1      37.646  20.836  24.947  1.00  0.00     0.202 C 
BRANCH  25  26
ATOM     26  C   UNL A   1      38.822  21.391  25.759  1.00  0.00     0.261 C 
BRANCH  26  27
ATOM     27  O   UNL A   1      39.524  20.370  26.485  1.00  0.00    -0.460 OA
BRANCH  27  28
ATOM     28  C   UNL A   1      40.836  20.259  26.176  1.00  0.00     0.338 C 
ATOM     29  O   UNL A   1      41.356  19.423  25.447  1.00  0.00    -0.246 OA
BRANCH  28  30
ATOM     30  C   UNL A   1      41.594  21.399  26.718  1.00  0.00     0.060 A 
ATOM     31  C   UNL A   1      41.634  21.552  28.111  1.00  0.00     0.016 A 
ATOM     32  C   UNL A   1      42.168  22.358  25.881  1.00  0.00     0.016 A 
ATOM     33  C   UNL A   1      42.196  22.697  28.674  1.00  0.00     0.010 A 
ATOM     34  C   UNL A   1      42.719  23.511  26.446  1.00  0.00     0.010 A 
ATOM     35  C   UNL A   1      42.698  23.703  27.840  1.00  0.00    -0.014 A 
BRANCH  35  36
ATOM     36  C   UNL A   1      43.044  25.032  28.397  1.00  0.00     0.031 A 
ATOM     37  C   UNL A   1      41.943  26.037  28.592  1.00  0.00     0.074 A 
ATOM     38  C   UNL A   1      44.312  25.347  28.710  1.00  0.00     0.049 A 
ATOM     39  N   UNL A   1      42.021  27.300  28.924  1.00  0.00    -0.248 NA
ATOM     40  C   UNL A   1      40.569  25.552  28.378  1.00  0.00     0.031 C 
ATOM     41  C   UNL A   1      45.455  24.440  28.630  1.00  0.00     0.029 A 
ATOM     42  N   UNL A   1      44.849  26.534  29.139  1.00  0.00    -0.354 N 
ATOM     43  C   UNL A   1      40.712  27.766  28.935  1.00  0.00     0.074 A 
ATOM     44  C   UNL A   1      39.861  26.656  28.567  1.00  0.00     0.031 C 
ATOM     45  C   UNL A   1      46.567  25.113  28.976  1.00  0.00     0.029 A 
ATOM     46  C   UNL A   1      46.217  26.505  29.255  1.00  0.00     0.049 A 
ATOM     47  H   UNL A   1      44.307  27.331  29.344  1.00  0.00     0.167 HD
ATOM     48  C   UNL A   1      40.261  29.009  29.222  1.00  0.00     0.031 A 
ATOM     49  C   UNL A   1      47.089  27.498  29.515  1.00  0.00     0.031 A 
ATOM     50  C   UNL A   1      41.112  30.113  29.575  1.00  0.00     0.049 A 
ATOM     51  C   UNL A   1      46.573  28.896  29.738  1.00  0.00     0.074 A 
ATOM     52  C   UNL A   1      40.752  31.412  29.888  1.00  0.00     0.029 A 
ATOM     53  N   UNL A   1      42.493  30.047  29.657  1.00  0.00    -0.354 N 
ATOM     54  N   UNL A   1      45.335  29.327  29.749  1.00  0.00    -0.248 NA
ATOM     55  C   UNL A   1      47.576  29.944  29.984  1.00  0.00     0.031 C 
ATOM     56  C   UNL A   1      41.921  32.145  30.110  1.00  0.00     0.029 A 
ATOM     57  C   UNL A   1      43.003  31.287  29.993  1.00  0.00     0.049 A 
ATOM     58  H   UNL A   1      43.030  29.237  29.500  1.00  0.00     0.167 HD
ATOM     59  C   UNL A   1      45.408  30.685  30.038  1.00  0.00     0.074 A 
ATOM     60  C   UNL A   1      46.811  31.007  30.196  1.00  0.00     0.031 C 
ATOM     61  C   UNL A   1      44.402  31.583  30.167  1.00  0.00     0.031 A 
BRANCH  48  62
ATOM     62  C   UNL A   1      38.783  29.251  29.118  1.00  0.00    -0.014 A 
ATOM     63  C   UNL A   1      37.943  29.138  30.236  1.00  0.00     0.009 A 
ATOM     64  C   UNL A   1      38.227  29.630  27.886  1.00  0.00     0.009 A 
ATOM     65  C   UNL A   1      36.570  29.369  30.115  1.00  0.00     0.001 A 
ATOM     66  C   UNL A   1      36.860  29.887  27.773  1.00  0.00     0.001 A 
ATOM     67  C   UNL A   1      36.032  29.748  28.886  1.00  0.00     0.000 A 
ENDBRANCH  48  62
BRANCH  49  68
ATOM     68  C   UNL A   1      48.549  27.220  29.542  1.00  0.00    -0.014 A 
ATOM     69  C   UNL A   1      49.184  26.850  30.736  1.00  0.00     0.009 A 
ATOM     70  C   UNL A   1      49.318  27.336  28.372  1.00  0.00     0.009 A 
ATOM     71  C   UNL A   1      50.562  26.626  30.764  1.00  0.00     0.001 A 
ATOM     72  C   UNL A   1      50.691  27.084  28.397  1.00  0.00     0.001 A 
ATOM     73  C   UNL A   1      51.313  26.738  29.595  1.00  0.00     0.000 A 
ENDBRANCH  49  68
BRANCH  61  74
ATOM     74  C   UNL A   1      44.764  32.988  30.559  1.00  0.00    -0.014 A 
ATOM     75  C   UNL A   1      44.908  33.358  31.903  1.00  0.00     0.009 A 
ATOM     76  C   UNL A   1      45.049  33.929  29.557  1.00  0.00     0.009 A 
ATOM     77  C   UNL A   1      45.317  34.652  32.237  1.00  0.00     0.001 A 
ATOM     78  C   UNL A   1      45.482  35.212  29.893  1.00  0.00     0.001 A 
ATOM     79  C   UNL A   1      45.611  35.573  31.232  1.00  0.00     0.000 A 
ENDBRANCH  61  74
ENDBRANCH  35  36
ENDBRANCH  28  30
ENDBRANCH  27  28
ENDBRANCH  26  27
ENDBRANCH  25  26
ENDBRANCH  24  25
ENDBRANCH   1  24
TORSDOF 18
ENDMDL
