MODEL 1
REMARK VINA RESULT:     -10.3      0.000      0.000
REMARK SMILES O=C(OCCOCCOC(=O)c1cc(-c2cccc(Cl)c2)oc1C(F)(F)F)c1ccc(-c2c3nc(c(-c4ccccc4)c4ccc([nH]4)c(-c4ccccc4)c4nc(c(-c5ccccc5)c5ccc2[nH]5)C=C4)C=C3)cc1
REMARK SMILES IDX 5 1 4 2 3 3 2 4 1 5 28 6 29 7 75 8 30 9 74 10 31 11 32 12
REMARK SMILES IDX 33 13 68 14 34 15 73 16 67 17 69 18 35 19 72 20 66 21 65 22
REMARK SMILES IDX 36 24 58 25 43 26 57 27 44 28 47 29 56 30 70 31 45 32 46 33
REMARK SMILES IDX 55 35 71 36 48 37 37 38 38 39 42 40 39 41 41 42 40 43 59 44
REMARK SMILES IDX 60 45 64 46 61 47 63 48 62 49 49 50 50 51 54 52 51 53 53 54
REMARK SMILES IDX 52 55 6 56 7 57 8 58 9 59 10 60 11 61 12 62 13 63 23 64
REMARK SMILES IDX 14 65 22 66 24 67 25 68 26 69 27 70 15 71 16 72 21 73 17 74
REMARK SMILES IDX 19 75 18 76 20 77
REMARK H PARENT 69 23 47 34
REMARK Flexibility Score: inf
ROOT
ATOM      1  C   UNL A   1      34.653  34.752  32.465  1.00  0.00     0.202 C 
ENDROOT
BRANCH   1   2
ATOM      2  C   UNL A   1      34.403  33.715  33.558  1.00  0.00     0.261 C 
BRANCH   2   3
ATOM      3  O   UNL A   1      35.200  32.545  33.321  1.00  0.00    -0.460 OA
BRANCH   3   4
ATOM      4  C   UNL A   1      36.500  32.340  33.634  1.00  0.00     0.338 C 
ATOM      5  O   UNL A   1      36.873  32.619  34.774  1.00  0.00    -0.246 OA
BRANCH   4   6
ATOM      6  C   UNL A   1      37.513  31.748  32.704  1.00  0.00     0.060 A 
ATOM      7  C   UNL A   1      38.375  30.689  32.997  1.00  0.00     0.016 A 
ATOM      8  C   UNL A   1      37.533  32.262  31.394  1.00  0.00     0.016 A 
ATOM      9  C   UNL A   1      39.260  30.186  32.053  1.00  0.00     0.010 A 
ATOM     10  C   UNL A   1      38.406  31.750  30.427  1.00  0.00     0.010 A 
ATOM     11  C   UNL A   1      39.288  30.723  30.770  1.00  0.00    -0.014 A 
BRANCH  11  12
ATOM     12  C   UNL A   1      40.363  30.271  29.872  1.00  0.00     0.031 A 
ATOM     13  C   UNL A   1      41.578  31.135  29.741  1.00  0.00     0.074 A 
ATOM     14  C   UNL A   1      40.309  29.038  29.339  1.00  0.00     0.049 A 
ATOM     15  N   UNL A   1      42.675  30.922  29.067  1.00  0.00    -0.248 NA
ATOM     16  C   UNL A   1      41.563  32.403  30.492  1.00  0.00     0.031 C 
ATOM     17  C   UNL A   1      39.218  28.081  29.536  1.00  0.00     0.029 A 
ATOM     18  N   UNL A   1      41.215  28.361  28.570  1.00  0.00    -0.354 N 
ATOM     19  C   UNL A   1      43.470  32.037  29.293  1.00  0.00     0.074 A 
ATOM     20  C   UNL A   1      42.734  32.925  30.163  1.00  0.00     0.031 C 
ATOM     21  C   UNL A   1      39.540  26.923  28.936  1.00  0.00     0.029 A 
ATOM     22  C   UNL A   1      40.828  27.077  28.270  1.00  0.00     0.049 A 
ATOM     23  H   UNL A   1      42.063  28.755  28.261  1.00  0.00     0.167 HD
ATOM     24  C   UNL A   1      44.703  32.299  28.803  1.00  0.00     0.031 A 
ATOM     25  C   UNL A   1      41.451  26.144  27.527  1.00  0.00     0.031 A 
ATOM     26  C   UNL A   1      45.407  31.410  27.923  1.00  0.00     0.049 A 
ATOM     27  C   UNL A   1      42.780  26.498  26.918  1.00  0.00     0.074 A 
ATOM     28  C   UNL A   1      46.622  31.592  27.291  1.00  0.00     0.029 A 
ATOM     29  N   UNL A   1      44.942  30.154  27.554  1.00  0.00    -0.354 N 
ATOM     30  N   UNL A   1      43.495  27.587  27.073  1.00  0.00    -0.248 NA
ATOM     31  C   UNL A   1      43.382  25.501  26.024  1.00  0.00     0.031 C 
ATOM     32  C   UNL A   1      46.872  30.462  26.505  1.00  0.00     0.029 A 
ATOM     33  C   UNL A   1      45.839  29.555  26.690  1.00  0.00     0.049 A 
ATOM     34  H   UNL A   1      44.099  29.751  27.862  1.00  0.00     0.167 HD
ATOM     35  C   UNL A   1      44.641  27.401  26.313  1.00  0.00     0.074 A 
ATOM     36  C   UNL A   1      44.531  26.085  25.713  1.00  0.00     0.031 C 
ATOM     37  C   UNL A   1      45.689  28.240  26.121  1.00  0.00     0.031 A 
BRANCH  24  38
ATOM     38  C   UNL A   1      45.293  33.637  29.144  1.00  0.00    -0.014 A 
ATOM     39  C   UNL A   1      46.086  33.825  30.287  1.00  0.00     0.009 A 
ATOM     40  C   UNL A   1      44.995  34.744  28.334  1.00  0.00     0.009 A 
ATOM     41  C   UNL A   1      46.530  35.104  30.635  1.00  0.00     0.001 A 
ATOM     42  C   UNL A   1      45.459  36.016  28.672  1.00  0.00     0.001 A 
ATOM     43  C   UNL A   1      46.216  36.197  29.828  1.00  0.00     0.000 A 
ENDBRANCH  24  38
BRANCH  25  44
ATOM     44  C   UNL A   1      40.818  24.819  27.292  1.00  0.00    -0.014 A 
ATOM     45  C   UNL A   1      39.665  24.698  26.503  1.00  0.00     0.009 A 
ATOM     46  C   UNL A   1      41.363  23.659  27.869  1.00  0.00     0.009 A 
ATOM     47  C   UNL A   1      39.060  23.452  26.316  1.00  0.00     0.001 A 
ATOM     48  C   UNL A   1      40.774  22.411  27.658  1.00  0.00     0.001 A 
ATOM     49  C   UNL A   1      39.617  22.309  26.889  1.00  0.00     0.000 A 
ENDBRANCH  25  44
BRANCH  37  50
ATOM     50  C   UNL A   1      46.807  27.732  25.259  1.00  0.00    -0.014 A 
ATOM     51  C   UNL A   1      47.853  26.970  25.798  1.00  0.00     0.009 A 
ATOM     52  C   UNL A   1      46.785  27.990  23.879  1.00  0.00     0.009 A 
ATOM     53  C   UNL A   1      48.878  26.503  24.974  1.00  0.00     0.001 A 
ATOM     54  C   UNL A   1      47.796  27.498  23.054  1.00  0.00     0.001 A 
ATOM     55  C   UNL A   1      48.845  26.763  23.604  1.00  0.00     0.000 A 
ENDBRANCH  37  50
ENDBRANCH  11  12
ENDBRANCH   4   6
ENDBRANCH   3   4
ENDBRANCH   2   3
ENDBRANCH   1   2
BRANCH   1  56
ATOM     56  O   UNL A   1      33.449  35.224  31.864  1.00  0.00    -0.374 OA
BRANCH  56  57
ATOM     57  C   UNL A   1      33.318  35.033  30.455  1.00  0.00     0.202 C 
BRANCH  57  58
ATOM     58  C   UNL A   1      34.459  34.132  29.981  1.00  0.00     0.261 C 
BRANCH  58  59
ATOM     59  O   UNL A   1      33.906  33.079  29.178  1.00  0.00    -0.460 OA
BRANCH  59  60
ATOM     60  C   UNL A   1      34.651  32.699  28.100  1.00  0.00     0.342 C 
ATOM     61  O   UNL A   1      35.587  33.323  27.623  1.00  0.00    -0.246 OA
BRANCH  60  62
ATOM     62  C   UNL A   1      34.217  31.404  27.625  1.00  0.00     0.111 A 
ATOM     63  C   UNL A   1      32.943  31.105  27.072  1.00  0.00     0.067 A 
ATOM     64  C   UNL A   1      34.919  30.207  27.645  1.00  0.00     0.223 A 
ATOM     65  C   UNL A   1      32.975  29.788  26.693  1.00  0.00     0.135 A 
ATOM     66  O   UNL A   1      34.144  29.215  27.083  1.00  0.00    -0.451 OA
BRANCH  64  67
ATOM     67  C   UNL A   1      36.249  29.777  28.158  1.00  0.00     0.450 C 
ATOM     68  F   UNL A   1      36.227  29.655  29.516  1.00  0.00    -0.163 F 
ATOM     69  F   UNL A   1      36.622  28.568  27.666  1.00  0.00    -0.163 F 
ATOM     70  F   UNL A   1      37.255  30.638  27.880  1.00  0.00    -0.163 F 
ENDBRANCH  64  67
BRANCH  65  71
ATOM     71  C   UNL A   1      32.078  28.997  25.880  1.00  0.00     0.019 A 
ATOM     72  C   UNL A   1      31.528  29.599  24.737  1.00  0.00     0.012 A 
ATOM     73  C   UNL A   1      31.724  27.688  26.209  1.00  0.00     0.032 A 
ATOM     74  C   UNL A   1      30.634  28.906  23.926  1.00  0.00     0.002 A 
ATOM     75  C   UNL A   1      30.817  27.002  25.398  1.00  0.00     0.041 A 
ATOM     76  C   UNL A   1      30.275  27.604  24.261  1.00  0.00     0.020 A 
ATOM     77  Cl  UNL A   1      30.347  25.399  25.810  1.00  0.00    -0.084 Cl
ENDBRANCH  65  71
ENDBRANCH  60  62
ENDBRANCH  59  60
ENDBRANCH  58  59
ENDBRANCH  57  58
ENDBRANCH  56  57
ENDBRANCH   1  56
TORSDOF 16
ENDMDL
MODEL 2
REMARK VINA RESULT:     -10.2      4.305      6.507
REMARK SMILES O=C(OCCOCCOC(=O)c1cc(-c2cccc(Cl)c2)oc1C(F)(F)F)c1ccc(-c2c3nc(c(-c4ccccc4)c4ccc([nH]4)c(-c4ccccc4)c4nc(c(-c5ccccc5)c5ccc2[nH]5)C=C4)C=C3)cc1
REMARK SMILES IDX 5 1 4 2 3 3 2 4 1 5 28 6 29 7 75 8 30 9 74 10 31 11 32 12
REMARK SMILES IDX 33 13 68 14 34 15 73 16 67 17 69 18 35 19 72 20 66 21 65 22
REMARK SMILES IDX 36 24 58 25 43 26 57 27 44 28 47 29 56 30 70 31 45 32 46 33
REMARK SMILES IDX 55 35 71 36 48 37 37 38 38 39 42 40 39 41 41 42 40 43 59 44
REMARK SMILES IDX 60 45 64 46 61 47 63 48 62 49 49 50 50 51 54 52 51 53 53 54
REMARK SMILES IDX 52 55 6 56 7 57 8 58 9 59 10 60 11 61 12 62 13 63 23 64
REMARK SMILES IDX 14 65 22 66 24 67 25 68 26 69 27 70 15 71 16 72 21 73 17 74
REMARK SMILES IDX 19 75 18 76 20 77
REMARK H PARENT 69 23 47 34
REMARK Flexibility Score: inf
ROOT
ATOM      1  C   UNL A   1      31.798  29.795  25.318  1.00  0.00     0.202 C 
ENDROOT
BRANCH   1   2
ATOM      2  C   UNL A   1      32.131  29.686  26.805  1.00  0.00     0.261 C 
BRANCH   2   3
ATOM      3  O   UNL A   1      33.551  29.564  26.985  1.00  0.00    -0.460 OA
BRANCH   3   4
ATOM      4  C   UNL A   1      34.385  30.393  27.653  1.00  0.00     0.338 C 
ATOM      5  O   UNL A   1      33.956  31.495  27.994  1.00  0.00    -0.246 OA
BRANCH   4   6
ATOM      6  C   UNL A   1      35.785  30.044  28.053  1.00  0.00     0.060 A 
ATOM      7  C   UNL A   1      36.925  30.193  27.260  1.00  0.00     0.016 A 
ATOM      8  C   UNL A   1      35.965  29.600  29.376  1.00  0.00     0.016 A 
ATOM      9  C   UNL A   1      38.189  29.871  27.733  1.00  0.00     0.010 A 
ATOM     10  C   UNL A   1      37.236  29.291  29.871  1.00  0.00     0.010 A 
ATOM     11  C   UNL A   1      38.349  29.407  29.035  1.00  0.00    -0.014 A 
BRANCH  11  12
ATOM     12  C   UNL A   1      39.682  28.917  29.419  1.00  0.00     0.031 A 
ATOM     13  C   UNL A   1      40.418  29.655  30.493  1.00  0.00     0.074 A 
ATOM     14  C   UNL A   1      40.124  27.745  28.934  1.00  0.00     0.049 A 
ATOM     15  N   UNL A   1      41.569  29.381  31.044  1.00  0.00    -0.248 NA
ATOM     16  C   UNL A   1      39.754  30.852  31.038  1.00  0.00     0.031 C 
ATOM     17  C   UNL A   1      39.398  26.896  27.986  1.00  0.00     0.029 A 
ATOM     18  N   UNL A   1      41.262  27.039  29.212  1.00  0.00    -0.354 N 
ATOM     19  C   UNL A   1      41.778  30.383  31.982  1.00  0.00     0.074 A 
ATOM     20  C   UNL A   1      40.640  31.271  31.928  1.00  0.00     0.031 C 
ATOM     21  C   UNL A   1      40.093  25.763  27.793  1.00  0.00     0.029 A 
ATOM     22  C   UNL A   1      41.333  25.833  28.558  1.00  0.00     0.049 A 
ATOM     23  H   UNL A   1      41.964  27.364  29.821  1.00  0.00     0.167 HD
ATOM     24  C   UNL A   1      42.837  30.551  32.806  1.00  0.00     0.031 A 
ATOM     25  C   UNL A   1      42.303  24.901  28.577  1.00  0.00     0.031 A 
ATOM     26  C   UNL A   1      43.967  29.665  32.827  1.00  0.00     0.049 A 
ATOM     27  C   UNL A   1      43.514  25.159  29.432  1.00  0.00     0.074 A 
ATOM     28  C   UNL A   1      45.140  29.767  33.551  1.00  0.00     0.029 A 
ATOM     29  N   UNL A   1      44.055  28.500  32.076  1.00  0.00    -0.354 N 
ATOM     30  N   UNL A   1      43.741  26.150  30.262  1.00  0.00    -0.248 NA
ATOM     31  C   UNL A   1      44.603  24.180  29.345  1.00  0.00     0.031 C 
ATOM     32  C   UNL A   1      45.955  28.684  33.205  1.00  0.00     0.029 A 
ATOM     33  C   UNL A   1      45.268  27.880  32.307  1.00  0.00     0.049 A 
ATOM     34  H   UNL A   1      43.357  28.165  31.469  1.00  0.00     0.167 HD
ATOM     35  C   UNL A   1      44.991  25.905  30.813  1.00  0.00     0.074 A 
ATOM     36  C   UNL A   1      45.462  24.660  30.234  1.00  0.00     0.031 C 
ATOM     37  C   UNL A   1      45.692  26.639  31.711  1.00  0.00     0.031 A 
BRANCH  24  38
ATOM     38  C   UNL A   1      42.838  31.786  33.659  1.00  0.00    -0.014 A 
ATOM     39  C   UNL A   1      43.399  32.992  33.211  1.00  0.00     0.009 A 
ATOM     40  C   UNL A   1      42.321  31.720  34.962  1.00  0.00     0.009 A 
ATOM     41  C   UNL A   1      43.482  34.093  34.068  1.00  0.00     0.001 A 
ATOM     42  C   UNL A   1      42.384  32.828  35.807  1.00  0.00     0.001 A 
ATOM     43  C   UNL A   1      42.975  34.010  35.364  1.00  0.00     0.000 A 
ENDBRANCH  24  38
BRANCH  25  44
ATOM     44  C   UNL A   1      42.190  23.674  27.743  1.00  0.00    -0.014 A 
ATOM     45  C   UNL A   1      42.560  23.683  26.390  1.00  0.00     0.009 A 
ATOM     46  C   UNL A   1      41.697  22.482  28.299  1.00  0.00     0.009 A 
ATOM     47  C   UNL A   1      42.418  22.532  25.609  1.00  0.00     0.001 A 
ATOM     48  C   UNL A   1      41.583  21.325  27.524  1.00  0.00     0.001 A 
ATOM     49  C   UNL A   1      41.935  21.354  26.176  1.00  0.00     0.000 A 
ENDBRANCH  25  44
BRANCH  37  50
ATOM     50  C   UNL A   1      47.019  26.087  32.143  1.00  0.00    -0.014 A 
ATOM     51  C   UNL A   1      47.131  25.267  33.275  1.00  0.00     0.009 A 
ATOM     52  C   UNL A   1      48.162  26.361  31.376  1.00  0.00     0.009 A 
ATOM     53  C   UNL A   1      48.375  24.759  33.652  1.00  0.00     0.001 A 
ATOM     54  C   UNL A   1      49.399  25.829  31.740  1.00  0.00     0.001 A 
ATOM     55  C   UNL A   1      49.505  25.036  32.881  1.00  0.00     0.000 A 
ENDBRANCH  37  50
ENDBRANCH  11  12
ENDBRANCH   4   6
ENDBRANCH   3   4
ENDBRANCH   2   3
ENDBRANCH   1   2
BRANCH   1  56
ATOM     56  O   UNL A   1      31.851  28.539  24.646  1.00  0.00    -0.374 OA
BRANCH  56  57
ATOM     57  C   UNL A   1      30.635  28.071  24.062  1.00  0.00     0.202 C 
BRANCH  57  58
ATOM     58  C   UNL A   1      30.286  26.720  24.689  1.00  0.00     0.261 C 
BRANCH  58  59
ATOM     59  O   UNL A   1      31.263  26.418  25.696  1.00  0.00    -0.460 OA
BRANCH  59  60
ATOM     60  C   UNL A   1      31.339  25.110  26.078  1.00  0.00     0.342 C 
ATOM     61  O   UNL A   1      30.518  24.518  26.761  1.00  0.00    -0.246 OA
BRANCH  60  62
ATOM     62  C   UNL A   1      32.512  24.490  25.503  1.00  0.00     0.111 A 
ATOM     63  C   UNL A   1      33.785  24.383  26.124  1.00  0.00     0.067 A 
ATOM     64  C   UNL A   1      32.647  23.919  24.245  1.00  0.00     0.223 A 
ATOM     65  C   UNL A   1      34.584  23.670  25.268  1.00  0.00     0.135 A 
ATOM     66  O   UNL A   1      33.928  23.430  24.103  1.00  0.00    -0.451 OA
BRANCH  64  67
ATOM     67  C   UNL A   1      31.761  23.768  23.059  1.00  0.00     0.450 C 
ATOM     68  F   UNL A   1      32.138  22.697  22.306  1.00  0.00    -0.163 F 
ATOM     69  F   UNL A   1      30.465  23.560  23.408  1.00  0.00    -0.163 F 
ATOM     70  F   UNL A   1      31.772  24.831  22.221  1.00  0.00    -0.163 F 
ENDBRANCH  64  67
BRANCH  65  71
ATOM     71  C   UNL A   1      35.882  23.058  25.446  1.00  0.00     0.019 A 
ATOM     72  C   UNL A   1      36.919  23.859  25.951  1.00  0.00     0.012 A 
ATOM     73  C   UNL A   1      36.138  21.729  25.107  1.00  0.00     0.032 A 
ATOM     74  C   UNL A   1      38.201  23.343  26.120  1.00  0.00     0.002 A 
ATOM     75  C   UNL A   1      37.429  21.220  25.267  1.00  0.00     0.041 A 
ATOM     76  C   UNL A   1      38.456  22.020  25.772  1.00  0.00     0.020 A 
ATOM     77  Cl  UNL A   1      37.767  19.593  24.822  1.00  0.00    -0.084 Cl
ENDBRANCH  65  71
ENDBRANCH  60  62
ENDBRANCH  59  60
ENDBRANCH  58  59
ENDBRANCH  57  58
ENDBRANCH  56  57
ENDBRANCH   1  56
TORSDOF 16
ENDMDL
MODEL 3
REMARK VINA RESULT:     -10.0      4.420      7.033
REMARK SMILES O=C(OCCOCCOC(=O)c1cc(-c2cccc(Cl)c2)oc1C(F)(F)F)c1ccc(-c2c3nc(c(-c4ccccc4)c4ccc([nH]4)c(-c4ccccc4)c4nc(c(-c5ccccc5)c5ccc2[nH]5)C=C4)C=C3)cc1
REMARK SMILES IDX 5 1 4 2 3 3 2 4 1 5 28 6 29 7 75 8 30 9 74 10 31 11 32 12
REMARK SMILES IDX 33 13 68 14 34 15 73 16 67 17 69 18 35 19 72 20 66 21 65 22
REMARK SMILES IDX 36 24 58 25 43 26 57 27 44 28 47 29 56 30 70 31 45 32 46 33
REMARK SMILES IDX 55 35 71 36 48 37 37 38 38 39 42 40 39 41 41 42 40 43 59 44
REMARK SMILES IDX 60 45 64 46 61 47 63 48 62 49 49 50 50 51 54 52 51 53 53 54
REMARK SMILES IDX 52 55 6 56 7 57 8 58 9 59 10 60 11 61 12 62 13 63 23 64
REMARK SMILES IDX 14 65 22 66 24 67 25 68 26 69 27 70 15 71 16 72 21 73 17 74
REMARK SMILES IDX 19 75 18 76 20 77
REMARK H PARENT 69 23 47 34
REMARK Flexibility Score: inf
ROOT
ATOM      1  C   UNL A   1      31.156  32.039  26.148  1.00  0.00     0.202 C 
ENDROOT
BRANCH   1   2
ATOM      2  C   UNL A   1      32.132  32.376  27.274  1.00  0.00     0.261 C 
BRANCH   2   3
ATOM      3  O   UNL A   1      32.153  33.794  27.501  1.00  0.00    -0.460 OA
BRANCH   3   4
ATOM      4  C   UNL A   1      32.927  34.493  28.363  1.00  0.00     0.338 C 
ATOM      5  O   UNL A   1      32.533  35.600  28.730  1.00  0.00    -0.246 OA
BRANCH   4   6
ATOM      6  C   UNL A   1      34.214  33.992  28.943  1.00  0.00     0.060 A 
ATOM      7  C   UNL A   1      35.494  34.272  28.461  1.00  0.00     0.016 A 
ATOM      8  C   UNL A   1      34.113  33.237  30.126  1.00  0.00     0.016 A 
ATOM      9  C   UNL A   1      36.632  33.786  29.089  1.00  0.00     0.010 A 
ATOM     10  C   UNL A   1      35.253  32.758  30.781  1.00  0.00     0.010 A 
ATOM     11  C   UNL A   1      36.516  33.018  30.243  1.00  0.00    -0.014 A 
BRANCH  11  12
ATOM     12  C   UNL A   1      37.741  32.387  30.760  1.00  0.00     0.031 A 
ATOM     13  C   UNL A   1      38.285  32.877  32.066  1.00  0.00     0.074 A 
ATOM     14  C   UNL A   1      38.233  31.294  30.154  1.00  0.00     0.049 A 
ATOM     15  N   UNL A   1      39.305  32.441  32.753  1.00  0.00    -0.248 NA
ATOM     16  C   UNL A   1      37.564  33.998  32.696  1.00  0.00     0.031 C 
ATOM     17  C   UNL A   1      37.672  30.672  28.951  1.00  0.00     0.029 A 
ATOM     18  N   UNL A   1      39.279  30.482  30.494  1.00  0.00    -0.354 N 
ATOM     19  C   UNL A   1      39.364  33.247  33.882  1.00  0.00     0.074 A 
ATOM     20  C   UNL A   1      38.281  34.198  33.791  1.00  0.00     0.031 C 
ATOM     21  C   UNL A   1      38.359  29.551  28.679  1.00  0.00     0.029 A 
ATOM     22  C   UNL A   1      39.437  29.408  29.652  1.00  0.00     0.049 A 
ATOM     23  H   UNL A   1      39.865  30.651  31.268  1.00  0.00     0.167 HD
ATOM     24  C   UNL A   1      40.256  33.201  34.897  1.00  0.00     0.031 A 
ATOM     25  C   UNL A   1      40.361  28.431  29.670  1.00  0.00     0.031 A 
ATOM     26  C   UNL A   1      41.337  32.258  34.954  1.00  0.00     0.049 A 
ATOM     27  C   UNL A   1      41.398  28.459  30.759  1.00  0.00     0.074 A 
ATOM     28  C   UNL A   1      42.357  32.159  35.881  1.00  0.00     0.029 A 
ATOM     29  N   UNL A   1      41.531  31.241  34.028  1.00  0.00    -0.354 N 
ATOM     30  N   UNL A   1      41.495  29.272  31.785  1.00  0.00    -0.248 NA
ATOM     31  C   UNL A   1      42.457  27.445  30.688  1.00  0.00     0.031 C 
ATOM     32  C   UNL A   1      43.192  31.106  35.492  1.00  0.00     0.029 A 
ATOM     33  C   UNL A   1      42.663  30.517  34.353  1.00  0.00     0.049 A 
ATOM     34  H   UNL A   1      40.949  31.062  33.256  1.00  0.00     0.167 HD
ATOM     35  C   UNL A   1      42.613  28.857  32.494  1.00  0.00     0.074 A 
ATOM     36  C   UNL A   1      43.148  27.708  31.789  1.00  0.00     0.031 C 
ATOM     37  C   UNL A   1      43.155  29.377  33.623  1.00  0.00     0.031 A 
BRANCH  24  38
ATOM     38  C   UNL A   1      40.133  34.264  35.949  1.00  0.00    -0.014 A 
ATOM     39  C   UNL A   1      40.809  35.490  35.845  1.00  0.00     0.009 A 
ATOM     40  C   UNL A   1      39.371  34.005  37.099  1.00  0.00     0.009 A 
ATOM     41  C   UNL A   1      40.761  36.414  36.891  1.00  0.00     0.001 A 
ATOM     42  C   UNL A   1      39.305  34.940  38.133  1.00  0.00     0.001 A 
ATOM     43  C   UNL A   1      40.010  36.138  38.034  1.00  0.00     0.000 A 
ENDBRANCH  24  38
BRANCH  25  44
ATOM     44  C   UNL A   1      40.371  27.379  28.618  1.00  0.00    -0.014 A 
ATOM     45  C   UNL A   1      41.085  27.558  27.424  1.00  0.00     0.009 A 
ATOM     46  C   UNL A   1      39.650  26.186  28.799  1.00  0.00     0.009 A 
ATOM     47  C   UNL A   1      41.060  26.577  26.428  1.00  0.00     0.001 A 
ATOM     48  C   UNL A   1      39.650  25.195  27.815  1.00  0.00     0.001 A 
ATOM     49  C   UNL A   1      40.347  25.395  26.626  1.00  0.00     0.000 A 
ENDBRANCH  25  44
BRANCH  37  50
ATOM     50  C   UNL A   1      44.363  28.677  34.174  1.00  0.00    -0.014 A 
ATOM     51  C   UNL A   1      44.237  27.608  35.072  1.00  0.00     0.009 A 
ATOM     52  C   UNL A   1      45.641  29.073  33.750  1.00  0.00     0.009 A 
ATOM     53  C   UNL A   1      45.375  26.969  35.564  1.00  0.00     0.001 A 
ATOM     54  C   UNL A   1      46.775  28.413  34.222  1.00  0.00     0.001 A 
ATOM     55  C   UNL A   1      46.641  27.368  35.135  1.00  0.00     0.000 A 
ENDBRANCH  37  50
ENDBRANCH  11  12
ENDBRANCH   4   6
ENDBRANCH   3   4
ENDBRANCH   2   3
ENDBRANCH   1   2
BRANCH   1  56
ATOM     56  O   UNL A   1      31.353  30.730  25.619  1.00  0.00    -0.374 OA
BRANCH  56  57
ATOM     57  C   UNL A   1      32.539  30.046  26.024  1.00  0.00     0.202 C 
BRANCH  57  58
ATOM     58  C   UNL A   1      32.136  28.714  26.660  1.00  0.00     0.261 C 
BRANCH  58  59
ATOM     59  O   UNL A   1      31.265  28.022  25.754  1.00  0.00    -0.460 OA
BRANCH  59  60
ATOM     60  C   UNL A   1      31.186  26.670  25.922  1.00  0.00     0.342 C 
ATOM     61  O   UNL A   1      30.236  26.064  26.393  1.00  0.00    -0.246 OA
BRANCH  60  62
ATOM     62  C   UNL A   1      32.375  26.032  25.401  1.00  0.00     0.111 A 
ATOM     63  C   UNL A   1      33.243  25.173  26.125  1.00  0.00     0.067 A 
ATOM     64  C   UNL A   1      32.922  26.152  24.131  1.00  0.00     0.223 A 
ATOM     65  C   UNL A   1      34.197  24.738  25.242  1.00  0.00     0.135 A 
ATOM     66  O   UNL A   1      34.050  25.365  24.045  1.00  0.00    -0.451 OA
BRANCH  64  67
ATOM     67  C   UNL A   1      32.591  26.944  22.915  1.00  0.00     0.450 C 
ATOM     68  F   UNL A   1      32.857  28.267  23.112  1.00  0.00    -0.163 F 
ATOM     69  F   UNL A   1      33.321  26.558  21.837  1.00  0.00    -0.163 F 
ATOM     70  F   UNL A   1      31.290  26.880  22.548  1.00  0.00    -0.163 F 
ENDBRANCH  64  67
BRANCH  65  71
ATOM     71  C   UNL A   1      35.189  23.690  25.333  1.00  0.00     0.019 A 
ATOM     72  C   UNL A   1      36.522  24.067  25.564  1.00  0.00     0.012 A 
ATOM     73  C   UNL A   1      34.872  22.340  25.169  1.00  0.00     0.032 A 
ATOM     74  C   UNL A   1      37.532  23.113  25.634  1.00  0.00     0.002 A 
ATOM     75  C   UNL A   1      35.892  21.388  25.228  1.00  0.00     0.041 A 
ATOM     76  C   UNL A   1      37.215  21.768  25.461  1.00  0.00     0.020 A 
ATOM     77  Cl  UNL A   1      35.521  19.724  24.995  1.00  0.00    -0.084 Cl
ENDBRANCH  65  71
ENDBRANCH  60  62
ENDBRANCH  59  60
ENDBRANCH  58  59
ENDBRANCH  57  58
ENDBRANCH  56  57
ENDBRANCH   1  56
TORSDOF 16
ENDMDL
