MODEL 1
REMARK VINA RESULT:     -11.2      0.000      0.000
REMARK SMILES CCc1ncc(C[N@H+]2CCC[C@@H](c3cccc(C(=O)OCCOCCOC(=O)c4ccc(-c5c6nc(c(-c7ccccc7)c7ccc([nH]7)c(-c7ccccc7)c7nc(c(-c8ccccc8)c8ccc5[nH]8)C=C7)C=C6)cc4)c3)C2)cn1
REMARK SMILES IDX 22 1 21 2 20 3 18 4 19 5 17 6 13 7 14 8 77 9 15 10 16 11
REMARK SMILES IDX 12 12 8 13 9 14 78 15 10 17 11 18 7 19 6 20 3 21 4 22 80 23
REMARK SMILES IDX 5 24 79 25 2 26 1 27 23 28 24 29 25 30 26 31 27 32 28 33
REMARK SMILES IDX 29 34 30 35 76 36 31 37 75 38 32 39 33 40 34 41 69 42 35 43
REMARK SMILES IDX 74 44 68 45 70 46 36 47 73 48 67 49 66 50 37 52 59 53 44 54
REMARK SMILES IDX 58 55 45 56 48 57 57 58 71 59 46 60 47 61 56 63 72 64 49 65
REMARK SMILES IDX 38 66 39 67 43 68 40 69 42 70 41 71 60 72 61 73 65 74 62 75
REMARK SMILES IDX 64 76 63 77 50 78 51 79 55 80 52 81 54 82 53 83
REMARK H PARENT 8 16 70 51 48 62
REMARK Flexibility Score: inf
ROOT
ATOM      1  C   UNL A   1      43.421  19.170  25.718  1.00  0.00     0.202 C 
ENDROOT
BRANCH   1   2
ATOM      2  C   UNL A   1      42.252  19.545  26.636  1.00  0.00     0.261 C 
BRANCH   2   3
ATOM      3  O   UNL A   1      41.453  20.583  26.045  1.00  0.00    -0.460 OA
BRANCH   3   4
ATOM      4  C   UNL A   1      40.156  20.258  25.832  1.00  0.00     0.338 C 
ATOM      5  O   UNL A   1      39.696  19.134  25.688  1.00  0.00    -0.246 OA
BRANCH   4   6
ATOM      6  C   UNL A   1      39.308  21.461  26.001  1.00  0.00     0.060 A 
ATOM      7  C   UNL A   1      37.246  22.714  25.692  1.00  0.00    -0.038 A 
ATOM      8  C   UNL A   1      37.847  23.803  26.351  1.00  0.00     0.004 A 
ATOM      9  C   UNL A   1      37.998  21.541  25.506  1.00  0.00     0.020 A 
ATOM     10  C   UNL A   1      39.157  23.727  26.824  1.00  0.00     0.001 A 
ATOM     11  C   UNL A   1      39.883  22.554  26.660  1.00  0.00     0.016 A 
BRANCH   7  12
ATOM     12  C   UNL A   1      35.763  22.736  25.329  1.00  0.00     0.074 C 
ATOM     13  N   UNL A   1      34.166  24.021  23.839  1.00  0.00    -0.331 N 
ATOM     14  C   UNL A   1      33.726  22.767  23.215  1.00  0.00     0.262 C 
ATOM     15  C   UNL A   1      35.536  23.915  24.359  1.00  0.00     0.270 C 
ATOM     16  H   UNL A   1      33.547  24.178  24.635  1.00  0.00     0.348 HD
ATOM     17  C   UNL A   1      33.822  21.595  24.194  1.00  0.00     0.062 C 
ATOM     18  C   UNL A   1      35.248  21.423  24.716  1.00  0.00     0.020 C 
BRANCH  13  19
ATOM     19  C   UNL A   1      33.996  25.198  22.957  1.00  0.00     0.302 C 
BRANCH  19  20
ATOM     20  C   UNL A   1      33.375  26.414  23.586  1.00  0.00     0.043 A 
ATOM     21  C   UNL A   1      31.999  28.547  24.570  1.00  0.00     0.127 A 
ATOM     22  N   UNL A   1      31.941  27.388  25.253  1.00  0.00    -0.241 NA
ATOM     23  N   UNL A   1      32.736  28.733  23.460  1.00  0.00    -0.241 NA
ATOM     24  C   UNL A   1      32.642  26.352  24.750  1.00  0.00     0.124 A 
ATOM     25  C   UNL A   1      33.417  27.665  23.004  1.00  0.00     0.124 A 
BRANCH  21  26
ATOM     26  C   UNL A   1      31.080  29.671  24.966  1.00  0.00     0.074 C 
ATOM     27  C   UNL A   1      31.710  30.701  25.891  1.00  0.00     0.012 C 
ENDBRANCH  21  26
ENDBRANCH  19  20
ENDBRANCH  13  19
ENDBRANCH   7  12
ENDBRANCH   4   6
ENDBRANCH   3   4
ENDBRANCH   2   3
ENDBRANCH   1   2
BRANCH   1  28
ATOM     28  O   UNL A   1      43.672  20.045  24.618  1.00  0.00    -0.374 OA
BRANCH  28  29
ATOM     29  C   UNL A   1      44.727  20.996  24.766  1.00  0.00     0.202 C 
BRANCH  29  30
ATOM     30  C   UNL A   1      44.674  22.235  23.863  1.00  0.00     0.261 C 
BRANCH  30  31
ATOM     31  O   UNL A   1      43.893  23.298  24.440  1.00  0.00    -0.460 OA
BRANCH  31  32
ATOM     32  C   UNL A   1      44.617  24.342  24.908  1.00  0.00     0.338 C 
ATOM     33  O   UNL A   1      45.723  24.706  24.537  1.00  0.00    -0.246 OA
BRANCH  32  34
ATOM     34  C   UNL A   1      43.805  25.133  25.850  1.00  0.00     0.060 A 
ATOM     35  C   UNL A   1      44.026  26.515  25.893  1.00  0.00     0.016 A 
ATOM     36  C   UNL A   1      42.896  24.531  26.723  1.00  0.00     0.016 A 
ATOM     37  C   UNL A   1      43.373  27.297  26.843  1.00  0.00     0.010 A 
ATOM     38  C   UNL A   1      42.248  25.317  27.681  1.00  0.00     0.010 A 
ATOM     39  C   UNL A   1      42.508  26.698  27.768  1.00  0.00    -0.014 A 
BRANCH  39  40
ATOM     40  C   UNL A   1      41.978  27.493  28.902  1.00  0.00     0.031 A 
ATOM     41  C   UNL A   1      42.691  27.448  30.226  1.00  0.00     0.074 A 
ATOM     42  C   UNL A   1      40.886  28.265  28.748  1.00  0.00     0.049 A 
ATOM     43  N   UNL A   1      42.380  28.034  31.354  1.00  0.00    -0.248 NA
ATOM     44  C   UNL A   1      43.916  26.633  30.288  1.00  0.00     0.031 C 
ATOM     45  C   UNL A   1      40.132  28.430  27.506  1.00  0.00     0.029 A 
ATOM     46  N   UNL A   1      40.220  29.053  29.654  1.00  0.00    -0.354 N 
ATOM     47  C   UNL A   1      43.358  27.648  32.262  1.00  0.00     0.074 A 
ATOM     48  C   UNL A   1      44.263  26.762  31.561  1.00  0.00     0.031 C 
ATOM     49  C   UNL A   1      39.102  29.265  27.730  1.00  0.00     0.029 A 
ATOM     50  C   UNL A   1      39.102  29.662  29.136  1.00  0.00     0.049 A 
ATOM     51  H   UNL A   1      40.515  29.171  30.585  1.00  0.00     0.167 HD
ATOM     52  C   UNL A   1      43.494  28.002  33.562  1.00  0.00     0.031 A 
ATOM     53  C   UNL A   1      38.175  30.433  29.735  1.00  0.00     0.031 A 
ATOM     54  C   UNL A   1      42.598  28.886  34.259  1.00  0.00     0.049 A 
ATOM     55  C   UNL A   1      38.311  30.748  31.202  1.00  0.00     0.074 A 
ATOM     56  C   UNL A   1      42.674  29.330  35.568  1.00  0.00     0.029 A 
ATOM     57  N   UNL A   1      41.460  29.452  33.708  1.00  0.00    -0.354 N 
ATOM     58  N   UNL A   1      39.264  30.411  32.037  1.00  0.00    -0.248 NA
ATOM     59  C   UNL A   1      37.244  31.559  31.806  1.00  0.00     0.031 C 
ATOM     60  C   UNL A   1      41.548  30.116  35.828  1.00  0.00     0.029 A 
ATOM     61  C   UNL A   1      40.807  30.214  34.662  1.00  0.00     0.049 A 
ATOM     62  H   UNL A   1      41.161  29.331  32.778  1.00  0.00     0.167 HD
ATOM     63  C   UNL A   1      38.929  30.997  33.251  1.00  0.00     0.074 A 
ATOM     64  C   UNL A   1      37.695  31.723  33.042  1.00  0.00     0.031 C 
ATOM     65  C   UNL A   1      39.586  30.940  34.436  1.00  0.00     0.031 A 
BRANCH  52  66
ATOM     66  C   UNL A   1      44.636  27.408  34.336  1.00  0.00    -0.014 A 
ATOM     67  C   UNL A   1      45.873  28.063  34.434  1.00  0.00     0.009 A 
ATOM     68  C   UNL A   1      44.444  26.209  35.041  1.00  0.00     0.009 A 
ATOM     69  C   UNL A   1      46.900  27.518  35.208  1.00  0.00     0.001 A 
ATOM     70  C   UNL A   1      45.463  25.680  35.834  1.00  0.00     0.001 A 
ATOM     71  C   UNL A   1      46.692  26.333  35.913  1.00  0.00     0.000 A 
ENDBRANCH  52  66
BRANCH  53  72
ATOM     72  C   UNL A   1      37.006  30.942  28.968  1.00  0.00    -0.014 A 
ATOM     73  C   UNL A   1      36.907  32.300  28.632  1.00  0.00     0.009 A 
ATOM     74  C   UNL A   1      35.955  30.080  28.619  1.00  0.00     0.009 A 
ATOM     75  C   UNL A   1      35.762  32.792  27.999  1.00  0.00     0.001 A 
ATOM     76  C   UNL A   1      34.826  30.567  27.956  1.00  0.00     0.001 A 
ATOM     77  C   UNL A   1      34.724  31.924  27.660  1.00  0.00     0.000 A 
ENDBRANCH  53  72
BRANCH  65  78
ATOM     78  C   UNL A   1      39.011  31.725  35.584  1.00  0.00    -0.014 A 
ATOM     79  C   UNL A   1      38.168  31.125  36.532  1.00  0.00     0.009 A 
ATOM     80  C   UNL A   1      39.356  33.077  35.739  1.00  0.00     0.009 A 
ATOM     81  C   UNL A   1      37.653  31.874  37.592  1.00  0.00     0.001 A 
ATOM     82  C   UNL A   1      38.865  33.814  36.818  1.00  0.00     0.001 A 
ATOM     83  C   UNL A   1      38.006  33.215  37.737  1.00  0.00     0.000 A 
ENDBRANCH  65  78
ENDBRANCH  39  40
ENDBRANCH  32  34
ENDBRANCH  31  32
ENDBRANCH  30  31
ENDBRANCH  29  30
ENDBRANCH  28  29
ENDBRANCH   1  28
TORSDOF 18
ENDMDL
MODEL 2
REMARK VINA RESULT:     -11.0      1.724      3.681
REMARK SMILES CCc1ncc(C[N@H+]2CCC[C@@H](c3cccc(C(=O)OCCOCCOC(=O)c4ccc(-c5c6nc(c(-c7ccccc7)c7ccc([nH]7)c(-c7ccccc7)c7nc(c(-c8ccccc8)c8ccc5[nH]8)C=C7)C=C6)cc4)c3)C2)cn1
REMARK SMILES IDX 22 1 21 2 20 3 18 4 19 5 17 6 13 7 14 8 77 9 15 10 16 11
REMARK SMILES IDX 12 12 8 13 9 14 78 15 10 17 11 18 7 19 6 20 3 21 4 22 80 23
REMARK SMILES IDX 5 24 79 25 2 26 1 27 23 28 24 29 25 30 26 31 27 32 28 33
REMARK SMILES IDX 29 34 30 35 76 36 31 37 75 38 32 39 33 40 34 41 69 42 35 43
REMARK SMILES IDX 74 44 68 45 70 46 36 47 73 48 67 49 66 50 37 52 59 53 44 54
REMARK SMILES IDX 58 55 45 56 48 57 57 58 71 59 46 60 47 61 56 63 72 64 49 65
REMARK SMILES IDX 38 66 39 67 43 68 40 69 42 70 41 71 60 72 61 73 65 74 62 75
REMARK SMILES IDX 64 76 63 77 50 78 51 79 55 80 52 81 54 82 53 83
REMARK H PARENT 8 16 70 51 48 62
REMARK Flexibility Score: inf
ROOT
ATOM      1  C   UNL A   1      42.842  19.103  26.071  1.00  0.00     0.202 C 
ENDROOT
BRANCH   1   2
ATOM      2  C   UNL A   1      41.612  19.485  26.902  1.00  0.00     0.261 C 
BRANCH   2   3
ATOM      3  O   UNL A   1      40.907  20.581  26.295  1.00  0.00    -0.460 OA
BRANCH   3   4
ATOM      4  C   UNL A   1      39.709  20.260  25.750  1.00  0.00     0.338 C 
ATOM      5  O   UNL A   1      39.291  19.137  25.507  1.00  0.00    -0.246 OA
BRANCH   4   6
ATOM      6  C   UNL A   1      38.860  21.471  25.668  1.00  0.00     0.060 A 
ATOM      7  C   UNL A   1      37.016  22.761  24.745  1.00  0.00    -0.038 A 
ATOM      8  C   UNL A   1      37.382  23.827  25.588  1.00  0.00     0.004 A 
ATOM      9  C   UNL A   1      37.779  21.581  24.782  1.00  0.00     0.020 A 
ATOM     10  C   UNL A   1      38.470  23.722  26.453  1.00  0.00     0.001 A 
ATOM     11  C   UNL A   1      39.202  22.542  26.502  1.00  0.00     0.016 A 
BRANCH   7  12
ATOM     12  C   UNL A   1      35.727  22.811  23.928  1.00  0.00     0.074 C 
ATOM     13  N   UNL A   1      33.305  22.086  24.109  1.00  0.00    -0.331 N 
ATOM     14  C   UNL A   1      32.865  23.462  23.846  1.00  0.00     0.262 C 
ATOM     15  C   UNL A   1      34.641  22.053  24.720  1.00  0.00     0.270 C 
ATOM     16  H   UNL A   1      33.373  21.628  23.200  1.00  0.00     0.348 HD
ATOM     17  C   UNL A   1      33.864  24.205  22.956  1.00  0.00     0.062 C 
ATOM     18  C   UNL A   1      35.255  24.235  23.588  1.00  0.00     0.020 C 
BRANCH  13  19
ATOM     19  C   UNL A   1      32.319  21.300  24.885  1.00  0.00     0.302 C 
BRANCH  19  20
ATOM     20  C   UNL A   1      32.432  19.805  24.780  1.00  0.00     0.043 A 
ATOM     21  C   UNL A   1      32.936  17.137  24.592  1.00  0.00     0.127 A 
ATOM     22  N   UNL A   1      32.820  17.672  25.822  1.00  0.00    -0.241 NA
ATOM     23  N   UNL A   1      32.768  17.826  23.449  1.00  0.00    -0.241 NA
ATOM     24  C   UNL A   1      32.557  18.993  25.885  1.00  0.00     0.124 A 
ATOM     25  C   UNL A   1      32.505  19.141  23.573  1.00  0.00     0.124 A 
BRANCH  21  26
ATOM     26  C   UNL A   1      33.430  15.720  24.460  1.00  0.00     0.074 C 
ATOM     27  C   UNL A   1      32.842  14.754  25.476  1.00  0.00     0.012 C 
ENDBRANCH  21  26
ENDBRANCH  19  20
ENDBRANCH  13  19
ENDBRANCH   7  12
ENDBRANCH   4   6
ENDBRANCH   3   4
ENDBRANCH   2   3
ENDBRANCH   1   2
BRANCH   1  28
ATOM     28  O   UNL A   1      43.178  19.977  24.993  1.00  0.00    -0.374 OA
BRANCH  28  29
ATOM     29  C   UNL A   1      44.134  21.004  25.256  1.00  0.00     0.202 C 
BRANCH  29  30
ATOM     30  C   UNL A   1      44.458  21.961  24.101  1.00  0.00     0.261 C 
BRANCH  30  31
ATOM     31  O   UNL A   1      43.830  23.246  24.265  1.00  0.00    -0.460 OA
BRANCH  31  32
ATOM     32  C   UNL A   1      44.605  24.183  24.861  1.00  0.00     0.338 C 
ATOM     33  O   UNL A   1      45.765  24.463  24.601  1.00  0.00    -0.246 OA
BRANCH  32  34
ATOM     34  C   UNL A   1      43.794  24.984  25.796  1.00  0.00     0.060 A 
ATOM     35  C   UNL A   1      44.005  26.368  25.813  1.00  0.00     0.016 A 
ATOM     36  C   UNL A   1      42.897  24.390  26.686  1.00  0.00     0.016 A 
ATOM     37  C   UNL A   1      43.353  27.162  26.755  1.00  0.00     0.010 A 
ATOM     38  C   UNL A   1      42.251  25.188  27.636  1.00  0.00     0.010 A 
ATOM     39  C   UNL A   1      42.500  26.572  27.697  1.00  0.00    -0.014 A 
BRANCH  39  40
ATOM     40  C   UNL A   1      41.973  27.383  28.821  1.00  0.00     0.031 A 
ATOM     41  C   UNL A   1      42.704  27.374  30.136  1.00  0.00     0.074 A 
ATOM     42  C   UNL A   1      40.869  28.136  28.665  1.00  0.00     0.049 A 
ATOM     43  N   UNL A   1      42.398  27.979  31.257  1.00  0.00    -0.248 NA
ATOM     44  C   UNL A   1      43.940  26.578  30.200  1.00  0.00     0.031 C 
ATOM     45  C   UNL A   1      40.097  28.265  27.430  1.00  0.00     0.029 A 
ATOM     46  N   UNL A   1      40.203  28.933  29.564  1.00  0.00    -0.354 N 
ATOM     47  C   UNL A   1      43.393  27.625  32.160  1.00  0.00     0.074 A 
ATOM     48  C   UNL A   1      44.301  26.737  31.466  1.00  0.00     0.031 C 
ATOM     49  C   UNL A   1      39.058  29.090  27.650  1.00  0.00     0.029 A 
ATOM     50  C   UNL A   1      39.070  29.515  29.048  1.00  0.00     0.049 A 
ATOM     51  H   UNL A   1      40.508  29.074  30.488  1.00  0.00     0.167 HD
ATOM     52  C   UNL A   1      43.539  28.007  33.451  1.00  0.00     0.031 A 
ATOM     53  C   UNL A   1      38.139  30.285  29.643  1.00  0.00     0.031 A 
ATOM     54  C   UNL A   1      42.640  28.892  34.140  1.00  0.00     0.049 A 
ATOM     55  C   UNL A   1      38.290  30.632  31.102  1.00  0.00     0.074 A 
ATOM     56  C   UNL A   1      42.725  29.364  35.440  1.00  0.00     0.029 A 
ATOM     57  N   UNL A   1      41.487  29.432  33.593  1.00  0.00    -0.354 N 
ATOM     58  N   UNL A   1      39.257  30.325  31.931  1.00  0.00    -0.248 NA
ATOM     59  C   UNL A   1      37.218  31.441  31.703  1.00  0.00     0.031 C 
ATOM     60  C   UNL A   1      41.592  30.139  35.698  1.00  0.00     0.029 A 
ATOM     61  C   UNL A   1      40.835  30.203  34.540  1.00  0.00     0.049 A 
ATOM     62  H   UNL A   1      41.179  29.288  32.670  1.00  0.00     0.167 HD
ATOM     63  C   UNL A   1      38.929  30.932  33.137  1.00  0.00     0.074 A 
ATOM     64  C   UNL A   1      37.682  31.636  32.929  1.00  0.00     0.031 C 
ATOM     65  C   UNL A   1      39.601  30.908  34.315  1.00  0.00     0.031 A 
BRANCH  52  66
ATOM     66  C   UNL A   1      44.699  27.445  34.222  1.00  0.00    -0.014 A 
ATOM     67  C   UNL A   1      44.677  26.138  34.731  1.00  0.00     0.009 A 
ATOM     68  C   UNL A   1      45.863  28.216  34.377  1.00  0.00     0.009 A 
ATOM     69  C   UNL A   1      45.791  25.621  35.396  1.00  0.00     0.001 A 
ATOM     70  C   UNL A   1      46.985  27.687  35.018  1.00  0.00     0.001 A 
ATOM     71  C   UNL A   1      46.946  26.391  35.531  1.00  0.00     0.000 A 
ENDBRANCH  52  66
BRANCH  53  72
ATOM     72  C   UNL A   1      36.954  30.763  28.881  1.00  0.00    -0.014 A 
ATOM     73  C   UNL A   1      36.816  32.118  28.546  1.00  0.00     0.009 A 
ATOM     74  C   UNL A   1      35.926  29.872  28.535  1.00  0.00     0.009 A 
ATOM     75  C   UNL A   1      35.655  32.578  27.918  1.00  0.00     0.001 A 
ATOM     76  C   UNL A   1      34.782  30.328  27.876  1.00  0.00     0.001 A 
ATOM     77  C   UNL A   1      34.641  31.683  27.582  1.00  0.00     0.000 A 
ENDBRANCH  53  72
BRANCH  65  78
ATOM     78  C   UNL A   1      39.029  31.708  35.454  1.00  0.00    -0.014 A 
ATOM     79  C   UNL A   1      39.260  33.087  35.569  1.00  0.00     0.009 A 
ATOM     80  C   UNL A   1      38.211  31.073  36.402  1.00  0.00     0.009 A 
ATOM     81  C   UNL A   1      38.712  33.807  36.632  1.00  0.00     0.001 A 
ATOM     82  C   UNL A   1      37.638  31.802  37.445  1.00  0.00     0.001 A 
ATOM     83  C   UNL A   1      37.898  33.166  37.566  1.00  0.00     0.000 A 
ENDBRANCH  65  78
ENDBRANCH  39  40
ENDBRANCH  32  34
ENDBRANCH  31  32
ENDBRANCH  30  31
ENDBRANCH  29  30
ENDBRANCH  28  29
ENDBRANCH   1  28
TORSDOF 18
ENDMDL
MODEL 3
REMARK VINA RESULT:     -10.6      0.859      5.815
REMARK SMILES CCc1ncc(C[N@H+]2CCC[C@@H](c3cccc(C(=O)OCCOCCOC(=O)c4ccc(-c5c6nc(c(-c7ccccc7)c7ccc([nH]7)c(-c7ccccc7)c7nc(c(-c8ccccc8)c8ccc5[nH]8)C=C7)C=C6)cc4)c3)C2)cn1
REMARK SMILES IDX 22 1 21 2 20 3 18 4 19 5 17 6 13 7 14 8 77 9 15 10 16 11
REMARK SMILES IDX 12 12 8 13 9 14 78 15 10 17 11 18 7 19 6 20 3 21 4 22 80 23
REMARK SMILES IDX 5 24 79 25 2 26 1 27 23 28 24 29 25 30 26 31 27 32 28 33
REMARK SMILES IDX 29 34 30 35 76 36 31 37 75 38 32 39 33 40 34 41 69 42 35 43
REMARK SMILES IDX 74 44 68 45 70 46 36 47 73 48 67 49 66 50 37 52 59 53 44 54
REMARK SMILES IDX 58 55 45 56 48 57 57 58 71 59 46 60 47 61 56 63 72 64 49 65
REMARK SMILES IDX 38 66 39 67 43 68 40 69 42 70 41 71 60 72 61 73 65 74 62 75
REMARK SMILES IDX 64 76 63 77 50 78 51 79 55 80 52 81 54 82 53 83
REMARK H PARENT 8 16 70 51 48 62
REMARK Flexibility Score: inf
ROOT
ATOM      1  C   UNL A   1      43.358  19.894  25.414  1.00  0.00     0.202 C 
ENDROOT
BRANCH   1   2
ATOM      2  C   UNL A   1      42.474  20.548  26.481  1.00  0.00     0.261 C 
BRANCH   2   3
ATOM      3  O   UNL A   1      41.450  21.352  25.872  1.00  0.00    -0.460 OA
BRANCH   3   4
ATOM      4  C   UNL A   1      40.194  20.855  25.973  1.00  0.00     0.338 C 
ATOM      5  O   UNL A   1      39.879  19.683  26.115  1.00  0.00    -0.246 OA
BRANCH   4   6
ATOM      6  C   UNL A   1      39.227  21.970  26.094  1.00  0.00     0.060 A 
ATOM      7  C   UNL A   1      37.053  22.998  25.724  1.00  0.00    -0.038 A 
ATOM      8  C   UNL A   1      37.532  24.163  26.353  1.00  0.00     0.004 A 
ATOM      9  C   UNL A   1      37.922  21.902  25.584  1.00  0.00     0.020 A 
ATOM     10  C   UNL A   1      38.837  24.235  26.840  1.00  0.00     0.001 A 
ATOM     11  C   UNL A   1      39.680  23.137  26.722  1.00  0.00     0.016 A 
BRANCH   7  12
ATOM     12  C   UNL A   1      35.580  22.857  25.347  1.00  0.00     0.074 C 
ATOM     13  N   UNL A   1      33.922  23.807  23.682  1.00  0.00    -0.331 N 
ATOM     14  C   UNL A   1      33.590  22.451  23.226  1.00  0.00     0.262 C 
ATOM     15  C   UNL A   1      35.285  23.876  24.225  1.00  0.00     0.270 C 
ATOM     16  H   UNL A   1      33.278  24.020  24.443  1.00  0.00     0.348 HD
ATOM     17  C   UNL A   1      33.754  21.430  24.355  1.00  0.00     0.062 C 
ATOM     18  C   UNL A   1      35.177  21.439  24.910  1.00  0.00     0.020 C 
BRANCH  13  19
ATOM     19  C   UNL A   1      33.683  24.840  22.648  1.00  0.00     0.302 C 
BRANCH  19  20
ATOM     20  C   UNL A   1      32.919  26.057  23.091  1.00  0.00     0.043 A 
ATOM     21  C   UNL A   1      31.368  28.224  23.646  1.00  0.00     0.127 A 
ATOM     22  N   UNL A   1      30.978  27.029  24.128  1.00  0.00    -0.241 NA
ATOM     23  N   UNL A   1      32.503  28.425  22.952  1.00  0.00    -0.241 NA
ATOM     24  C   UNL A   1      31.772  25.976  23.849  1.00  0.00     0.124 A 
ATOM     25  C   UNL A   1      33.258  27.338  22.705  1.00  0.00     0.124 A 
BRANCH  21  26
ATOM     26  C   UNL A   1      30.423  29.392  23.748  1.00  0.00     0.074 C 
ATOM     27  C   UNL A   1      29.656  29.692  22.469  1.00  0.00     0.012 C 
ENDBRANCH  21  26
ENDBRANCH  19  20
ENDBRANCH  13  19
ENDBRANCH   7  12
ENDBRANCH   4   6
ENDBRANCH   3   4
ENDBRANCH   2   3
ENDBRANCH   1   2
BRANCH   1  28
ATOM     28  O   UNL A   1      44.238  20.761  24.698  1.00  0.00    -0.374 OA
BRANCH  28  29
ATOM     29  C   UNL A   1      45.564  20.912  25.205  1.00  0.00     0.202 C 
BRANCH  29  30
ATOM     30  C   UNL A   1      46.052  22.345  25.454  1.00  0.00     0.261 C 
BRANCH  30  31
ATOM     31  O   UNL A   1      45.127  23.106  26.252  1.00  0.00    -0.460 OA
BRANCH  31  32
ATOM     32  C   UNL A   1      44.488  24.097  25.588  1.00  0.00     0.338 C 
ATOM     33  O   UNL A   1      44.416  24.255  24.379  1.00  0.00    -0.246 OA
BRANCH  32  34
ATOM     34  C   UNL A   1      43.708  24.914  26.535  1.00  0.00     0.060 A 
ATOM     35  C   UNL A   1      43.988  26.285  26.592  1.00  0.00     0.016 A 
ATOM     36  C   UNL A   1      42.772  24.344  27.400  1.00  0.00     0.016 A 
ATOM     37  C   UNL A   1      43.367  27.086  27.547  1.00  0.00     0.010 A 
ATOM     38  C   UNL A   1      42.156  25.148  28.364  1.00  0.00     0.010 A 
ATOM     39  C   UNL A   1      42.474  26.516  28.464  1.00  0.00    -0.014 A 
BRANCH  39  40
ATOM     40  C   UNL A   1      41.975  27.322  29.604  1.00  0.00     0.031 A 
ATOM     41  C   UNL A   1      40.701  28.106  29.445  1.00  0.00     0.074 A 
ATOM     42  C   UNL A   1      42.637  27.338  30.776  1.00  0.00     0.049 A 
ATOM     43  N   UNL A   1      40.107  28.902  30.299  1.00  0.00    -0.248 NA
ATOM     44  C   UNL A   1      40.003  27.978  28.156  1.00  0.00     0.031 C 
ATOM     45  C   UNL A   1      43.857  26.588  31.070  1.00  0.00     0.029 A 
ATOM     46  N   UNL A   1      42.373  28.021  31.937  1.00  0.00    -0.354 N 
ATOM     47  C   UNL A   1      38.978  29.381  29.645  1.00  0.00     0.074 A 
ATOM     48  C   UNL A   1      38.978  28.803  28.318  1.00  0.00     0.031 C 
ATOM     49  C   UNL A   1      44.239  26.856  32.332  1.00  0.00     0.029 A 
ATOM     50  C   UNL A   1      43.315  27.823  32.918  1.00  0.00     0.049 A 
ATOM     51  H   UNL A   1      41.584  28.597  32.056  1.00  0.00     0.167 HD
ATOM     52  C   UNL A   1      38.025  30.224  30.109  1.00  0.00     0.031 A 
ATOM     53  C   UNL A   1      43.427  28.377  34.141  1.00  0.00     0.031 A 
ATOM     54  C   UNL A   1      38.022  30.795  31.429  1.00  0.00     0.049 A 
ATOM     55  C   UNL A   1      42.391  29.369  34.601  1.00  0.00     0.074 A 
ATOM     56  C   UNL A   1      37.079  31.633  32.001  1.00  0.00     0.029 A 
ATOM     57  N   UNL A   1      39.010  30.597  32.379  1.00  0.00    -0.354 N 
ATOM     58  N   UNL A   1      41.307  29.780  33.989  1.00  0.00    -0.248 NA
ATOM     59  C   UNL A   1      42.594  29.969  35.928  1.00  0.00     0.031 C 
ATOM     60  C   UNL A   1      37.529  31.991  33.274  1.00  0.00     0.029 A 
ATOM     61  C   UNL A   1      38.718  31.324  33.519  1.00  0.00     0.049 A 
ATOM     62  H   UNL A   1      39.802  30.024  32.259  1.00  0.00     0.167 HD
ATOM     63  C   UNL A   1      40.683  30.655  34.869  1.00  0.00     0.074 A 
ATOM     64  C   UNL A   1      41.500  30.706  36.062  1.00  0.00     0.031 C 
ATOM     65  C   UNL A   1      39.534  31.356  34.704  1.00  0.00     0.031 A 
BRANCH  52  66
ATOM     66  C   UNL A   1      36.915  30.612  29.174  1.00  0.00    -0.014 A 
ATOM     67  C   UNL A   1      35.913  29.700  28.809  1.00  0.00     0.009 A 
ATOM     68  C   UNL A   1      36.832  31.935  28.712  1.00  0.00     0.009 A 
ATOM     69  C   UNL A   1      34.860  30.103  27.983  1.00  0.00     0.001 A 
ATOM     70  C   UNL A   1      35.765  32.342  27.909  1.00  0.00     0.001 A 
ATOM     71  C   UNL A   1      34.783  31.424  27.542  1.00  0.00     0.000 A 
ENDBRANCH  52  66
BRANCH  53  72
ATOM     72  C   UNL A   1      44.580  28.041  35.019  1.00  0.00    -0.014 A 
ATOM     73  C   UNL A   1      44.449  27.088  36.041  1.00  0.00     0.009 A 
ATOM     74  C   UNL A   1      45.803  28.715  34.875  1.00  0.00     0.009 A 
ATOM     75  C   UNL A   1      45.504  26.848  36.925  1.00  0.00     0.001 A 
ATOM     76  C   UNL A   1      46.867  28.449  35.739  1.00  0.00     0.001 A 
ATOM     77  C   UNL A   1      46.712  27.527  36.772  1.00  0.00     0.000 A 
ENDBRANCH  53  72
BRANCH  65  78
ATOM     78  C   UNL A   1      39.065  32.197  35.860  1.00  0.00    -0.014 A 
ATOM     79  C   UNL A   1      39.460  33.536  36.000  1.00  0.00     0.009 A 
ATOM     80  C   UNL A   1      38.178  31.647  36.799  1.00  0.00     0.009 A 
ATOM     81  C   UNL A   1      39.005  34.296  37.078  1.00  0.00     0.001 A 
ATOM     82  C   UNL A   1      37.699  32.420  37.858  1.00  0.00     0.001 A 
ATOM     83  C   UNL A   1      38.121  33.740  38.003  1.00  0.00     0.000 A 
ENDBRANCH  65  78
ENDBRANCH  39  40
ENDBRANCH  32  34
ENDBRANCH  31  32
ENDBRANCH  30  31
ENDBRANCH  29  30
ENDBRANCH  28  29
ENDBRANCH   1  28
TORSDOF 18
ENDMDL
