MODEL 1
REMARK VINA RESULT:     -10.3      0.000      0.000
REMARK SMILES N#CCCn1cc(C(=O)OCCOCCOC(=O)c2ccc(-c3c4nc(c(-c5ccccc5)c5ccc([nH]5)c(-c5ccccc5)c5nc(c(-c6ccccc6)c6ccc3[nH]6)C=C5)C=C4)cc2)c(-c2cccc([N+](=O)[O-])c2)n1
REMARK SMILES IDX 12 1 11 2 10 3 8 4 9 5 7 6 5 7 6 8 77 9 67 10 4 11 3 12 2 13
REMARK SMILES IDX 1 14 68 15 69 16 76 17 70 18 72 19 71 20 73 21 74 22 75 23
REMARK SMILES IDX 13 24 14 25 15 26 16 27 17 28 18 29 19 30 20 31 66 32 21 33
REMARK SMILES IDX 65 34 22 35 23 36 24 37 59 38 25 39 64 40 58 41 60 42 26 43
REMARK SMILES IDX 63 44 57 45 56 46 27 48 49 49 34 50 48 51 35 52 38 53 47 54
REMARK SMILES IDX 61 55 36 56 37 57 46 59 62 60 39 61 28 62 29 63 33 64 30 65
REMARK SMILES IDX 32 66 31 67 50 68 51 69 55 70 52 71 54 72 53 73 40 74 41 75
REMARK SMILES IDX 45 76 42 77 44 78 43 79
REMARK H PARENT 60 47 38 58
REMARK Flexibility Score: inf
ROOT
ATOM      1  C   UNL A   1      32.577  30.480  26.518  1.00  0.00     0.202 C 
ENDROOT
BRANCH   1   2
ATOM      2  C   UNL A   1      32.138  29.017  26.424  1.00  0.00     0.261 C 
BRANCH   2   3
ATOM      3  O   UNL A   1      32.895  28.288  25.444  1.00  0.00    -0.460 OA
BRANCH   3   4
ATOM      4  C   UNL A   1      32.617  28.595  24.145  1.00  0.00     0.342 C 
ATOM      5  O   UNL A   1      33.463  28.770  23.271  1.00  0.00    -0.246 OA
BRANCH   4   6
ATOM      6  C   UNL A   1      31.200  28.559  23.864  1.00  0.00     0.106 A 
ATOM      7  N   UNL A   1      29.182  29.099  23.242  1.00  0.00    -0.270 N 
ATOM      8  C   UNL A   1      30.354  29.632  23.688  1.00  0.00     0.125 A 
ATOM      9  N   UNL A   1      29.112  27.764  23.396  1.00  0.00    -0.172 NA
ATOM     10  C   UNL A   1      30.356  27.416  23.751  1.00  0.00     0.107 A 
BRANCH   7  11
ATOM     11  C   UNL A   1      28.117  29.790  22.537  1.00  0.00     0.159 C 
BRANCH  11  12
ATOM     12  C   UNL A   1      27.484  30.920  23.341  1.00  0.00     0.144 C 
BRANCH  12  13
ATOM     13  C   UNL A   1      27.989  32.275  22.873  1.00  0.00     0.064 C 
ATOM     14  N   UNL A   1      28.408  33.400  22.485  1.00  0.00    -0.198 NA
ENDBRANCH  12  13
ENDBRANCH  11  12
ENDBRANCH   7  11
BRANCH  10  15
ATOM     15  C   UNL A   1      30.727  26.041  24.055  1.00  0.00     0.010 A 
ATOM     16  C   UNL A   1      31.034  25.168  23.000  1.00  0.00     0.011 A 
ATOM     17  C   UNL A   1      30.633  25.549  25.356  1.00  0.00     0.096 A 
ATOM     18  C   UNL A   1      31.128  23.793  23.214  1.00  0.00     0.008 A 
ATOM     19  C   UNL A   1      30.768  24.170  25.572  1.00  0.00     0.270 A 
ATOM     20  C   UNL A   1      30.981  23.287  24.502  1.00  0.00     0.085 A 
BRANCH  19  21
ATOM     21  N   UNL A   1      30.676  23.639  26.935  1.00  0.00     0.062 N 
ATOM     22  O   UNL A   1      31.716  23.594  27.608  1.00  0.00    -0.258 OA
ATOM     23  O   UNL A   1      29.561  23.285  27.342  1.00  0.00    -0.258 OA
ENDBRANCH  19  21
ENDBRANCH  10  15
ENDBRANCH   4   6
ENDBRANCH   3   4
ENDBRANCH   2   3
ENDBRANCH   1   2
BRANCH   1  24
ATOM     24  O   UNL A   1      33.176  30.933  27.733  1.00  0.00    -0.374 OA
BRANCH  24  25
ATOM     25  C   UNL A   1      34.470  31.511  27.715  1.00  0.00     0.202 C 
BRANCH  25  26
ATOM     26  C   UNL A   1      34.802  32.654  28.665  1.00  0.00     0.261 C 
BRANCH  26  27
ATOM     27  O   UNL A   1      35.720  32.296  29.677  1.00  0.00    -0.460 OA
BRANCH  27  28
ATOM     28  C   UNL A   1      36.999  32.530  29.307  1.00  0.00     0.338 C 
ATOM     29  O   UNL A   1      37.401  33.326  28.476  1.00  0.00    -0.246 OA
BRANCH  28  30
ATOM     30  C   UNL A   1      37.849  31.513  29.920  1.00  0.00     0.060 A 
ATOM     31  C   UNL A   1      39.167  31.887  30.187  1.00  0.00     0.016 A 
ATOM     32  C   UNL A   1      37.434  30.173  29.900  1.00  0.00     0.016 A 
ATOM     33  C   UNL A   1      40.122  30.901  30.234  1.00  0.00     0.010 A 
ATOM     34  C   UNL A   1      38.389  29.193  29.919  1.00  0.00     0.010 A 
ATOM     35  C   UNL A   1      39.725  29.578  30.010  1.00  0.00    -0.014 A 
BRANCH  35  36
ATOM     36  C   UNL A   1      40.733  28.549  30.027  1.00  0.00     0.031 A 
ATOM     37  C   UNL A   1      41.288  28.349  31.379  1.00  0.00     0.074 A 
ATOM     38  C   UNL A   1      41.026  27.805  28.945  1.00  0.00     0.049 A 
ATOM     39  N   UNL A   1      42.476  28.658  31.770  1.00  0.00    -0.248 NA
ATOM     40  C   UNL A   1      40.372  27.970  32.470  1.00  0.00     0.031 C 
ATOM     41  C   UNL A   1      40.362  27.782  27.641  1.00  0.00     0.029 A 
ATOM     42  N   UNL A   1      41.937  26.806  28.837  1.00  0.00    -0.354 N 
ATOM     43  C   UNL A   1      42.528  28.314  33.112  1.00  0.00     0.074 A 
ATOM     44  C   UNL A   1      41.167  28.102  33.532  1.00  0.00     0.031 C 
ATOM     45  C   UNL A   1      40.723  26.655  26.981  1.00  0.00     0.029 A 
ATOM     46  C   UNL A   1      41.724  25.949  27.767  1.00  0.00     0.049 A 
ATOM     47  H   UNL A   1      42.687  26.698  29.465  1.00  0.00     0.167 HD
ATOM     48  C   UNL A   1      43.704  27.953  33.689  1.00  0.00     0.031 A 
ATOM     49  C   UNL A   1      42.282  24.722  27.598  1.00  0.00     0.031 A 
ATOM     50  C   UNL A   1      44.827  28.318  32.865  1.00  0.00     0.049 A 
ATOM     51  C   UNL A   1      43.483  24.660  28.471  1.00  0.00     0.074 A 
ATOM     52  C   UNL A   1      45.312  29.513  32.369  1.00  0.00     0.029 A 
ATOM     53  N   UNL A   1      45.371  27.325  32.082  1.00  0.00    -0.354 N 
ATOM     54  N   UNL A   1      44.556  25.362  28.243  1.00  0.00    -0.248 NA
ATOM     55  C   UNL A   1      43.313  24.214  29.848  1.00  0.00     0.031 C 
ATOM     56  C   UNL A   1      45.738  29.212  31.044  1.00  0.00     0.029 A 
ATOM     57  C   UNL A   1      45.580  27.842  30.831  1.00  0.00     0.049 A 
ATOM     58  H   UNL A   1      45.574  26.406  32.371  1.00  0.00     0.167 HD
ATOM     59  C   UNL A   1      44.927  25.845  29.489  1.00  0.00     0.074 A 
ATOM     60  C   UNL A   1      44.193  25.022  30.452  1.00  0.00     0.031 C 
ATOM     61  C   UNL A   1      45.540  27.059  29.616  1.00  0.00     0.031 A 
BRANCH  48  62
ATOM     62  C   UNL A   1      43.804  26.884  34.743  1.00  0.00    -0.014 A 
ATOM     63  C   UNL A   1      44.644  27.113  35.845  1.00  0.00     0.009 A 
ATOM     64  C   UNL A   1      43.347  25.565  34.554  1.00  0.00     0.009 A 
ATOM     65  C   UNL A   1      45.070  26.062  36.662  1.00  0.00     0.001 A 
ATOM     66  C   UNL A   1      43.737  24.520  35.393  1.00  0.00     0.001 A 
ATOM     67  C   UNL A   1      44.624  24.764  36.429  1.00  0.00     0.000 A 
ENDBRANCH  48  62
BRANCH  49  68
ATOM     68  C   UNL A   1      41.713  23.513  26.956  1.00  0.00    -0.014 A 
ATOM     69  C   UNL A   1      42.545  22.584  26.307  1.00  0.00     0.009 A 
ATOM     70  C   UNL A   1      40.385  23.125  27.210  1.00  0.00     0.009 A 
ATOM     71  C   UNL A   1      42.079  21.303  25.974  1.00  0.00     0.001 A 
ATOM     72  C   UNL A   1      39.918  21.849  26.872  1.00  0.00     0.001 A 
ATOM     73  C   UNL A   1      40.771  20.932  26.270  1.00  0.00     0.000 A 
ENDBRANCH  49  68
BRANCH  61  74
ATOM     74  C   UNL A   1      45.995  27.759  28.358  1.00  0.00    -0.014 A 
ATOM     75  C   UNL A   1      45.160  28.588  27.588  1.00  0.00     0.009 A 
ATOM     76  C   UNL A   1      47.361  27.715  28.040  1.00  0.00     0.009 A 
ATOM     77  C   UNL A   1      45.674  29.327  26.516  1.00  0.00     0.001 A 
ATOM     78  C   UNL A   1      47.877  28.469  26.986  1.00  0.00     0.001 A 
ATOM     79  C   UNL A   1      47.033  29.271  26.220  1.00  0.00     0.000 A 
ENDBRANCH  61  74
ENDBRANCH  35  36
ENDBRANCH  28  30
ENDBRANCH  27  28
ENDBRANCH  26  27
ENDBRANCH  25  26
ENDBRANCH  24  25
ENDBRANCH   1  24
TORSDOF 19
ENDMDL
MODEL 2
REMARK VINA RESULT:     -10.2      2.419      4.766
REMARK SMILES N#CCCn1cc(C(=O)OCCOCCOC(=O)c2ccc(-c3c4nc(c(-c5ccccc5)c5ccc([nH]5)c(-c5ccccc5)c5nc(c(-c6ccccc6)c6ccc3[nH]6)C=C5)C=C4)cc2)c(-c2cccc([N+](=O)[O-])c2)n1
REMARK SMILES IDX 12 1 11 2 10 3 8 4 9 5 7 6 5 7 6 8 77 9 67 10 4 11 3 12 2 13
REMARK SMILES IDX 1 14 68 15 69 16 76 17 70 18 72 19 71 20 73 21 74 22 75 23
REMARK SMILES IDX 13 24 14 25 15 26 16 27 17 28 18 29 19 30 20 31 66 32 21 33
REMARK SMILES IDX 65 34 22 35 23 36 24 37 59 38 25 39 64 40 58 41 60 42 26 43
REMARK SMILES IDX 63 44 57 45 56 46 27 48 49 49 34 50 48 51 35 52 38 53 47 54
REMARK SMILES IDX 61 55 36 56 37 57 46 59 62 60 39 61 28 62 29 63 33 64 30 65
REMARK SMILES IDX 32 66 31 67 50 68 51 69 55 70 52 71 54 72 53 73 40 74 41 75
REMARK SMILES IDX 45 76 42 77 44 78 43 79
REMARK H PARENT 60 47 38 58
REMARK Flexibility Score: inf
ROOT
ATOM      1  C   UNL A   1      32.088  27.833  26.386  1.00  0.00     0.202 C 
ENDROOT
BRANCH   1   2
ATOM      2  C   UNL A   1      31.236  26.562  26.435  1.00  0.00     0.261 C 
BRANCH   2   3
ATOM      3  O   UNL A   1      32.023  25.378  26.227  1.00  0.00    -0.460 OA
BRANCH   3   4
ATOM      4  C   UNL A   1      31.314  24.221  26.095  1.00  0.00     0.342 C 
ATOM      5  O   UNL A   1      30.305  23.941  26.737  1.00  0.00    -0.246 OA
BRANCH   4   6
ATOM      6  C   UNL A   1      31.802  23.401  25.009  1.00  0.00     0.106 A 
ATOM      7  N   UNL A   1      32.311  21.701  23.744  1.00  0.00    -0.270 N 
ATOM      8  C   UNL A   1      32.098  22.056  25.042  1.00  0.00     0.125 A 
ATOM      9  N   UNL A   1      32.464  22.755  22.922  1.00  0.00    -0.172 NA
ATOM     10  C   UNL A   1      32.125  23.806  23.680  1.00  0.00     0.107 A 
BRANCH   7  11
ATOM     11  C   UNL A   1      32.263  20.362  23.183  1.00  0.00     0.159 C 
BRANCH  11  12
ATOM     12  C   UNL A   1      32.612  19.266  24.182  1.00  0.00     0.144 C 
BRANCH  12  13
ATOM     13  C   UNL A   1      33.068  18.002  23.473  1.00  0.00     0.064 C 
ATOM     14  N   UNL A   1      33.446  16.952  22.884  1.00  0.00    -0.198 NA
ENDBRANCH  12  13
ENDBRANCH  11  12
ENDBRANCH   7  11
BRANCH  10  15
ATOM     15  C   UNL A   1      32.178  25.176  23.189  1.00  0.00     0.010 A 
ATOM     16  C   UNL A   1      33.425  25.805  23.057  1.00  0.00     0.011 A 
ATOM     17  C   UNL A   1      31.008  25.910  22.997  1.00  0.00     0.096 A 
ATOM     18  C   UNL A   1      33.514  27.182  22.856  1.00  0.00     0.008 A 
ATOM     19  C   UNL A   1      31.104  27.287  22.755  1.00  0.00     0.270 A 
ATOM     20  C   UNL A   1      32.350  27.932  22.718  1.00  0.00     0.085 A 
BRANCH  19  21
ATOM     21  N   UNL A   1      29.883  28.071  22.547  1.00  0.00     0.062 N 
ATOM     22  O   UNL A   1      28.878  27.757  23.202  1.00  0.00    -0.258 OA
ATOM     23  O   UNL A   1      29.931  29.014  21.745  1.00  0.00    -0.258 OA
ENDBRANCH  19  21
ENDBRANCH  10  15
ENDBRANCH   4   6
ENDBRANCH   3   4
ENDBRANCH   2   3
ENDBRANCH   1   2
BRANCH   1  24
ATOM     24  O   UNL A   1      32.104  28.685  27.532  1.00  0.00    -0.374 OA
BRANCH  24  25
ATOM     25  C   UNL A   1      32.041  30.092  27.373  1.00  0.00     0.202 C 
BRANCH  25  26
ATOM     26  C   UNL A   1      33.073  30.802  26.506  1.00  0.00     0.261 C 
BRANCH  26  27
ATOM     27  O   UNL A   1      34.407  30.530  26.882  1.00  0.00    -0.460 OA
BRANCH  27  28
ATOM     28  C   UNL A   1      34.912  31.489  27.690  1.00  0.00     0.338 C 
ATOM     29  O   UNL A   1      34.655  32.680  27.684  1.00  0.00    -0.246 OA
BRANCH  28  30
ATOM     30  C   UNL A   1      36.004  30.908  28.467  1.00  0.00     0.060 A 
ATOM     31  C   UNL A   1      37.026  31.780  28.845  1.00  0.00     0.016 A 
ATOM     32  C   UNL A   1      36.148  29.513  28.507  1.00  0.00     0.016 A 
ATOM     33  C   UNL A   1      38.275  31.253  29.071  1.00  0.00     0.010 A 
ATOM     34  C   UNL A   1      37.398  28.991  28.704  1.00  0.00     0.010 A 
ATOM     35  C   UNL A   1      38.454  29.875  28.908  1.00  0.00    -0.014 A 
BRANCH  35  36
ATOM     36  C   UNL A   1      39.772  29.328  29.112  1.00  0.00     0.031 A 
ATOM     37  C   UNL A   1      40.074  29.150  30.546  1.00  0.00     0.074 A 
ATOM     38  C   UNL A   1      40.559  28.936  28.094  1.00  0.00     0.049 A 
ATOM     39  N   UNL A   1      40.921  29.830  31.238  1.00  0.00    -0.248 NA
ATOM     40  C   UNL A   1      39.197  28.279  31.349  1.00  0.00     0.031 C 
ATOM     41  C   UNL A   1      40.244  28.863  26.667  1.00  0.00     0.029 A 
ATOM     42  N   UNL A   1      41.803  28.399  28.155  1.00  0.00    -0.354 N 
ATOM     43  C   UNL A   1      40.838  29.326  32.527  1.00  0.00     0.074 A 
ATOM     44  C   UNL A   1      39.633  28.541  32.581  1.00  0.00     0.031 C 
ATOM     45  C   UNL A   1      41.164  28.083  26.050  1.00  0.00     0.029 A 
ATOM     46  C   UNL A   1      42.186  27.706  27.016  1.00  0.00     0.049 A 
ATOM     47  H   UNL A   1      42.387  28.493  28.943  1.00  0.00     0.167 HD
ATOM     48  C   UNL A   1      41.914  29.364  33.356  1.00  0.00     0.031 A 
ATOM     49  C   UNL A   1      43.223  26.835  26.917  1.00  0.00     0.031 A 
ATOM     50  C   UNL A   1      42.927  30.261  32.861  1.00  0.00     0.049 A 
ATOM     51  C   UNL A   1      44.138  27.107  28.056  1.00  0.00     0.074 A 
ATOM     52  C   UNL A   1      42.963  31.612  32.575  1.00  0.00     0.029 A 
ATOM     53  N   UNL A   1      43.979  29.693  32.179  1.00  0.00    -0.354 N 
ATOM     54  N   UNL A   1      44.846  28.197  28.145  1.00  0.00    -0.248 NA
ATOM     55  C   UNL A   1      43.893  26.421  29.318  1.00  0.00     0.031 C 
ATOM     56  C   UNL A   1      43.734  31.713  31.381  1.00  0.00     0.029 A 
ATOM     57  C   UNL A   1      44.204  30.440  31.053  1.00  0.00     0.049 A 
ATOM     58  H   UNL A   1      44.481  28.891  32.452  1.00  0.00     0.167 HD
ATOM     59  C   UNL A   1      44.722  28.584  29.471  1.00  0.00     0.074 A 
ATOM     60  C   UNL A   1      44.217  27.400  30.169  1.00  0.00     0.031 C 
ATOM     61  C   UNL A   1      44.739  29.904  29.821  1.00  0.00     0.031 A 
BRANCH  48  62
ATOM     62  C   UNL A   1      42.232  28.267  34.334  1.00  0.00    -0.014 A 
ATOM     63  C   UNL A   1      42.831  27.094  33.846  1.00  0.00     0.009 A 
ATOM     64  C   UNL A   1      41.707  28.217  35.640  1.00  0.00     0.009 A 
ATOM     65  C   UNL A   1      42.828  25.913  34.594  1.00  0.00     0.001 A 
ATOM     66  C   UNL A   1      41.739  27.051  36.406  1.00  0.00     0.001 A 
ATOM     67  C   UNL A   1      42.273  25.890  35.870  1.00  0.00     0.000 A 
ENDBRANCH  48  62
BRANCH  49  68
ATOM     68  C   UNL A   1      43.349  25.617  26.081  1.00  0.00    -0.014 A 
ATOM     69  C   UNL A   1      44.532  25.351  25.371  1.00  0.00     0.009 A 
ATOM     70  C   UNL A   1      42.412  24.574  26.190  1.00  0.00     0.009 A 
ATOM     71  C   UNL A   1      44.786  24.078  24.837  1.00  0.00     0.001 A 
ATOM     72  C   UNL A   1      42.662  23.306  25.653  1.00  0.00     0.001 A 
ATOM     73  C   UNL A   1      43.858  23.053  24.992  1.00  0.00     0.000 A 
ENDBRANCH  49  68
BRANCH  61  74
ATOM     74  C   UNL A   1      45.107  30.914  28.760  1.00  0.00    -0.014 A 
ATOM     75  C   UNL A   1      46.425  31.346  28.527  1.00  0.00     0.009 A 
ATOM     76  C   UNL A   1      44.110  31.307  27.855  1.00  0.00     0.009 A 
ATOM     77  C   UNL A   1      46.727  32.170  27.437  1.00  0.00     0.001 A 
ATOM     78  C   UNL A   1      44.416  32.110  26.755  1.00  0.00     0.001 A 
ATOM     79  C   UNL A   1      45.723  32.546  26.549  1.00  0.00     0.000 A 
ENDBRANCH  61  74
ENDBRANCH  35  36
ENDBRANCH  28  30
ENDBRANCH  27  28
ENDBRANCH  26  27
ENDBRANCH  25  26
ENDBRANCH  24  25
ENDBRANCH   1  24
TORSDOF 19
ENDMDL
MODEL 3
REMARK VINA RESULT:     -10.2      2.140      2.910
REMARK SMILES N#CCCn1cc(C(=O)OCCOCCOC(=O)c2ccc(-c3c4nc(c(-c5ccccc5)c5ccc([nH]5)c(-c5ccccc5)c5nc(c(-c6ccccc6)c6ccc3[nH]6)C=C5)C=C4)cc2)c(-c2cccc([N+](=O)[O-])c2)n1
REMARK SMILES IDX 12 1 11 2 10 3 8 4 9 5 7 6 5 7 6 8 77 9 67 10 4 11 3 12 2 13
REMARK SMILES IDX 1 14 68 15 69 16 76 17 70 18 72 19 71 20 73 21 74 22 75 23
REMARK SMILES IDX 13 24 14 25 15 26 16 27 17 28 18 29 19 30 20 31 66 32 21 33
REMARK SMILES IDX 65 34 22 35 23 36 24 37 59 38 25 39 64 40 58 41 60 42 26 43
REMARK SMILES IDX 63 44 57 45 56 46 27 48 49 49 34 50 48 51 35 52 38 53 47 54
REMARK SMILES IDX 61 55 36 56 37 57 46 59 62 60 39 61 28 62 29 63 33 64 30 65
REMARK SMILES IDX 32 66 31 67 50 68 51 69 55 70 52 71 54 72 53 73 40 74 41 75
REMARK SMILES IDX 45 76 42 77 44 78 43 79
REMARK H PARENT 60 47 38 58
REMARK Flexibility Score: inf
ROOT
ATOM      1  C   UNL A   1      32.726  28.340  27.209  1.00  0.00     0.202 C 
ENDROOT
BRANCH   1   2
ATOM      2  C   UNL A   1      32.484  27.090  26.358  1.00  0.00     0.261 C 
BRANCH   2   3
ATOM      3  O   UNL A   1      31.512  26.214  26.952  1.00  0.00    -0.460 OA
BRANCH   3   4
ATOM      4  C   UNL A   1      30.817  25.433  26.077  1.00  0.00     0.342 C 
ATOM      5  O   UNL A   1      30.247  24.386  26.374  1.00  0.00    -0.246 OA
BRANCH   4   6
ATOM      6  C   UNL A   1      30.703  26.042  24.771  1.00  0.00     0.106 A 
ATOM      7  N   UNL A   1      30.294  27.439  23.148  1.00  0.00    -0.270 N 
ATOM      8  C   UNL A   1      29.896  27.097  24.406  1.00  0.00     0.125 A 
ATOM      9  N   UNL A   1      31.080  26.513  22.569  1.00  0.00    -0.172 NA
ATOM     10  C   UNL A   1      31.363  25.662  23.565  1.00  0.00     0.107 A 
BRANCH   7  11
ATOM     11  C   UNL A   1      30.062  28.701  22.468  1.00  0.00     0.159 C 
BRANCH  11  12
ATOM     12  C   UNL A   1      29.900  29.885  23.414  1.00  0.00     0.144 C 
BRANCH  12  13
ATOM     13  C   UNL A   1      28.463  30.382  23.429  1.00  0.00     0.064 C 
ATOM     14  N   UNL A   1      27.272  30.794  23.442  1.00  0.00    -0.198 NA
ENDBRANCH  12  13
ENDBRANCH  11  12
ENDBRANCH   7  11
BRANCH  10  15
ATOM     15  C   UNL A   1      32.176  24.470  23.369  1.00  0.00     0.010 A 
ATOM     16  C   UNL A   1      31.541  23.226  23.234  1.00  0.00     0.011 A 
ATOM     17  C   UNL A   1      33.565  24.531  23.467  1.00  0.00     0.096 A 
ATOM     18  C   UNL A   1      32.267  22.039  23.318  1.00  0.00     0.008 A 
ATOM     19  C   UNL A   1      34.296  23.335  23.510  1.00  0.00     0.270 A 
ATOM     20  C   UNL A   1      33.650  22.090  23.471  1.00  0.00     0.085 A 
BRANCH  19  21
ATOM     21  N   UNL A   1      35.757  23.384  23.609  1.00  0.00     0.062 N 
ATOM     22  O   UNL A   1      36.414  23.003  22.629  1.00  0.00    -0.258 OA
ATOM     23  O   UNL A   1      36.251  23.822  24.657  1.00  0.00    -0.258 OA
ENDBRANCH  19  21
ENDBRANCH  10  15
ENDBRANCH   4   6
ENDBRANCH   3   4
ENDBRANCH   2   3
ENDBRANCH   1   2
BRANCH   1  24
ATOM     24  O   UNL A   1      31.719  29.351  27.232  1.00  0.00    -0.374 OA
BRANCH  24  25
ATOM     25  C   UNL A   1      32.000  30.645  26.723  1.00  0.00     0.202 C 
BRANCH  25  26
ATOM     26  C   UNL A   1      32.875  31.600  27.525  1.00  0.00     0.261 C 
BRANCH  26  27
ATOM     27  O   UNL A   1      34.258  31.391  27.333  1.00  0.00    -0.460 OA
BRANCH  27  28
ATOM     28  C   UNL A   1      34.967  31.624  28.462  1.00  0.00     0.338 C 
ATOM     29  O   UNL A   1      34.611  32.242  29.451  1.00  0.00    -0.246 OA
BRANCH  28  30
ATOM     30  C   UNL A   1      36.343  31.192  28.239  1.00  0.00     0.060 A 
ATOM     31  C   UNL A   1      36.512  29.915  27.700  1.00  0.00     0.016 A 
ATOM     32  C   UNL A   1      37.389  31.894  28.857  1.00  0.00     0.016 A 
ATOM     33  C   UNL A   1      37.686  29.252  27.964  1.00  0.00     0.010 A 
ATOM     34  C   UNL A   1      38.547  31.223  29.144  1.00  0.00     0.010 A 
ATOM     35  C   UNL A   1      38.646  29.888  28.758  1.00  0.00    -0.014 A 
BRANCH  35  36
ATOM     36  C   UNL A   1      39.862  29.178  29.061  1.00  0.00     0.031 A 
ATOM     37  C   UNL A   1      39.999  28.920  30.508  1.00  0.00     0.074 A 
ATOM     38  C   UNL A   1      40.693  28.724  28.106  1.00  0.00     0.049 A 
ATOM     39  N   UNL A   1      40.849  29.469  31.304  1.00  0.00    -0.248 NA
ATOM     40  C   UNL A   1      38.950  28.139  31.188  1.00  0.00     0.031 C 
ATOM     41  C   UNL A   1      40.512  28.734  26.653  1.00  0.00     0.029 A 
ATOM     42  N   UNL A   1      41.852  28.037  28.260  1.00  0.00    -0.354 N 
ATOM     43  C   UNL A   1      40.580  28.940  32.557  1.00  0.00     0.074 A 
ATOM     44  C   UNL A   1      39.291  28.307  32.466  1.00  0.00     0.031 C 
ATOM     45  C   UNL A   1      41.390  27.866  26.093  1.00  0.00     0.029 A 
ATOM     46  C   UNL A   1      42.259  27.338  27.133  1.00  0.00     0.049 A 
ATOM     47  H   UNL A   1      42.362  28.034  29.103  1.00  0.00     0.167 HD
ATOM     48  C   UNL A   1      41.567  28.820  33.484  1.00  0.00     0.031 A 
ATOM     49  C   UNL A   1      43.190  26.349  27.095  1.00  0.00     0.031 A 
ATOM     50  C   UNL A   1      42.723  29.601  33.125  1.00  0.00     0.049 A 
ATOM     51  C   UNL A   1      44.014  26.472  28.325  1.00  0.00     0.074 A 
ATOM     52  C   UNL A   1      42.947  30.945  32.901  1.00  0.00     0.029 A 
ATOM     53  N   UNL A   1      43.762  28.929  32.521  1.00  0.00    -0.354 N 
ATOM     54  N   UNL A   1      44.835  27.463  28.527  1.00  0.00    -0.248 NA
ATOM     55  C   UNL A   1      43.567  25.782  29.528  1.00  0.00     0.031 C 
ATOM     56  C   UNL A   1      43.838  30.987  31.791  1.00  0.00     0.029 A 
ATOM     57  C   UNL A   1      44.183  29.677  31.454  1.00  0.00     0.049 A 
ATOM     58  H   UNL A   1      44.135  28.064  32.806  1.00  0.00     0.167 HD
ATOM     59  C   UNL A   1      44.629  27.821  29.850  1.00  0.00     0.074 A 
ATOM     60  C   UNL A   1      43.921  26.687  30.447  1.00  0.00     0.031 C 
ATOM     61  C   UNL A   1      44.768  29.118  30.256  1.00  0.00     0.031 A 
BRANCH  48  62
ATOM     62  C   UNL A   1      41.654  27.662  34.441  1.00  0.00    -0.014 A 
ATOM     63  C   UNL A   1      41.616  27.933  35.818  1.00  0.00     0.009 A 
ATOM     64  C   UNL A   1      42.063  26.370  34.057  1.00  0.00     0.009 A 
ATOM     65  C   UNL A   1      42.046  26.988  36.754  1.00  0.00     0.001 A 
ATOM     66  C   UNL A   1      42.453  25.409  34.992  1.00  0.00     0.001 A 
ATOM     67  C   UNL A   1      42.473  25.730  36.340  1.00  0.00     0.000 A 
ENDBRANCH  48  62
BRANCH  49  68
ATOM     68  C   UNL A   1      43.251  25.152  26.223  1.00  0.00    -0.014 A 
ATOM     69  C   UNL A   1      44.285  24.998  25.284  1.00  0.00     0.009 A 
ATOM     70  C   UNL A   1      42.452  24.027  26.495  1.00  0.00     0.009 A 
ATOM     71  C   UNL A   1      44.537  23.756  24.680  1.00  0.00     0.001 A 
ATOM     72  C   UNL A   1      42.700  22.789  25.890  1.00  0.00     0.001 A 
ATOM     73  C   UNL A   1      43.755  22.649  24.996  1.00  0.00     0.000 A 
ENDBRANCH  49  68
BRANCH  61  74
ATOM     74  C   UNL A   1      45.357  30.107  29.278  1.00  0.00    -0.014 A 
ATOM     75  C   UNL A   1      44.597  30.775  28.300  1.00  0.00     0.009 A 
ATOM     76  C   UNL A   1      46.689  30.504  29.469  1.00  0.00     0.009 A 
ATOM     77  C   UNL A   1      45.166  31.789  27.520  1.00  0.00     0.001 A 
ATOM     78  C   UNL A   1      47.248  31.530  28.706  1.00  0.00     0.001 A 
ATOM     79  C   UNL A   1      46.488  32.169  27.728  1.00  0.00     0.000 A 
ENDBRANCH  61  74
ENDBRANCH  35  36
ENDBRANCH  28  30
ENDBRANCH  27  28
ENDBRANCH  26  27
ENDBRANCH  25  26
ENDBRANCH  24  25
ENDBRANCH   1  24
TORSDOF 19
ENDMDL
