MODEL 1
REMARK VINA RESULT:      -9.5      0.000      0.000
REMARK SMILES Cc1ccc(C(=O)OCCOCCOC(=O)c2ccc(-c3c4nc(c(-c5ccccc5)c5ccc([nH]5)c(-c5ccccc5)c5nc(c(-c6ccccc6)c6ccc3[nH]6)C=C5)C=C4)cc2)c2c1N[C@H](c1ccccc1F)[C@H]1CC=C[C@@H]21
REMARK SMILES IDX 12 1 11 2 10 3 9 4 8 5 6 6 7 7 5 8 1 9 2 10 3 11 66 12 4 13
REMARK SMILES IDX 65 14 67 15 80 16 68 17 76 19 79 20 77 21 78 22 69 23 70 24
REMARK SMILES IDX 74 25 71 26 73 27 75 28 72 29 13 30 14 31 15 32 16 33 17 34
REMARK SMILES IDX 18 35 64 36 19 37 63 38 20 39 21 40 22 41 57 42 23 43 62 44
REMARK SMILES IDX 56 45 58 46 24 47 61 48 55 49 54 50 25 52 47 53 32 54 46 55
REMARK SMILES IDX 33 56 36 57 45 58 59 59 34 60 35 61 44 63 60 64 37 65 26 66
REMARK SMILES IDX 27 67 31 68 28 69 30 70 29 71 48 72 49 73 53 74 50 75 52 76
REMARK SMILES IDX 51 77 38 78 39 79 43 80 40 81 42 82 41 83
REMARK H PARENT 67 18 58 51 36 62
REMARK Flexibility Score: inf
ROOT
ATOM      1  C   UNL A   1      33.831  34.348  28.167  1.00  0.00     0.202 C 
ENDROOT
BRANCH   1   2
ATOM      2  O   UNL A   1      33.840  35.696  28.646  1.00  0.00    -0.374 OA
BRANCH   2   3
ATOM      3  C   UNL A   1      33.065  35.998  29.802  1.00  0.00     0.202 C 
BRANCH   3   4
ATOM      4  C   UNL A   1      33.122  35.007  30.968  1.00  0.00     0.261 C 
BRANCH   4   5
ATOM      5  O   UNL A   1      34.406  35.004  31.602  1.00  0.00    -0.460 OA
BRANCH   5   6
ATOM      6  C   UNL A   1      34.817  33.789  32.038  1.00  0.00     0.338 C 
ATOM      7  O   UNL A   1      34.382  32.703  31.683  1.00  0.00    -0.246 OA
BRANCH   6   8
ATOM      8  C   UNL A   1      35.904  33.958  33.025  1.00  0.00     0.065 A 
ATOM      9  C   UNL A   1      38.846  34.059  36.163  1.00  0.00     0.046 C 
ATOM     10  C   UNL A   1      37.870  34.094  35.016  1.00  0.00    -0.028 A 
ATOM     11  C   UNL A   1      36.508  34.003  35.356  1.00  0.00     0.006 A 
ATOM     12  C   UNL A   1      38.253  34.190  33.658  1.00  0.00     0.042 A 
ATOM     13  C   UNL A   1      35.533  33.933  34.372  1.00  0.00     0.016 A 
ATOM     14  C   UNL A   1      37.260  34.116  32.645  1.00  0.00    -0.003 A 
ATOM     15  N   UNL A   1      39.591  34.320  33.307  1.00  0.00    -0.377 N 
ATOM     16  C   UNL A   1      37.651  34.355  31.194  1.00  0.00     0.050 C 
ATOM     17  C   UNL A   1      40.016  34.011  31.950  1.00  0.00     0.117 C 
ATOM     18  H   UNL A   1      40.249  34.620  33.975  1.00  0.00     0.161 HD
ATOM     19  C   UNL A   1      39.120  34.806  30.979  1.00  0.00     0.031 C 
ATOM     20  C   UNL A   1      37.580  33.186  30.247  1.00  0.00    -0.023 C 
ATOM     21  C   UNL A   1      39.386  34.465  29.501  1.00  0.00     0.034 C 
ATOM     22  C   UNL A   1      38.511  33.275  29.290  1.00  0.00    -0.030 C 
BRANCH  17  23
ATOM     23  C   UNL A   1      41.524  34.155  31.851  1.00  0.00     0.010 A 
ATOM     24  C   UNL A   1      42.148  35.142  32.642  1.00  0.00     0.009 A 
ATOM     25  C   UNL A   1      42.349  33.342  31.067  1.00  0.00     0.128 A 
ATOM     26  C   UNL A   1      43.539  35.268  32.684  1.00  0.00     0.001 A 
ATOM     27  C   UNL A   1      43.738  33.456  31.112  1.00  0.00     0.039 A 
ATOM     28  F   UNL A   1      41.827  32.401  30.269  1.00  0.00    -0.207 F 
ATOM     29  C   UNL A   1      44.336  34.414  31.929  1.00  0.00     0.003 A 
ENDBRANCH  17  23
ENDBRANCH   6   8
ENDBRANCH   5   6
ENDBRANCH   4   5
ENDBRANCH   3   4
ENDBRANCH   2   3
ENDBRANCH   1   2
BRANCH   1  30
ATOM     30  C   UNL A   1      35.107  33.517  28.338  1.00  0.00     0.261 C 
BRANCH  30  31
ATOM     31  O   UNL A   1      35.201  32.455  27.372  1.00  0.00    -0.460 OA
BRANCH  31  32
ATOM     32  C   UNL A   1      34.765  31.249  27.803  1.00  0.00     0.338 C 
ATOM     33  O   UNL A   1      33.625  30.812  27.781  1.00  0.00    -0.246 OA
BRANCH  32  34
ATOM     34  C   UNL A   1      35.919  30.416  28.168  1.00  0.00     0.060 A 
ATOM     35  C   UNL A   1      35.901  29.770  29.412  1.00  0.00     0.016 A 
ATOM     36  C   UNL A   1      37.047  30.364  27.349  1.00  0.00     0.016 A 
ATOM     37  C   UNL A   1      37.031  29.094  29.858  1.00  0.00     0.010 A 
ATOM     38  C   UNL A   1      38.189  29.707  27.809  1.00  0.00     0.010 A 
ATOM     39  C   UNL A   1      38.194  29.101  29.078  1.00  0.00    -0.014 A 
BRANCH  39  40
ATOM     40  C   UNL A   1      39.463  28.636  29.674  1.00  0.00     0.031 A 
ATOM     41  C   UNL A   1      40.195  27.505  29.010  1.00  0.00     0.074 A 
ATOM     42  C   UNL A   1      39.973  29.237  30.762  1.00  0.00     0.049 A 
ATOM     43  N   UNL A   1      41.309  26.921  29.369  1.00  0.00    -0.248 NA
ATOM     44  C   UNL A   1      39.602  26.966  27.774  1.00  0.00     0.031 C 
ATOM     45  C   UNL A   1      39.386  30.387  31.447  1.00  0.00     0.029 A 
ATOM     46  N   UNL A   1      41.111  28.960  31.475  1.00  0.00    -0.354 N 
ATOM     47  C   UNL A   1      41.549  25.952  28.404  1.00  0.00     0.074 A 
ATOM     48  C   UNL A   1      40.461  26.008  27.455  1.00  0.00     0.031 C 
ATOM     49  C   UNL A   1      40.171  30.719  32.486  1.00  0.00     0.029 A 
ATOM     50  C   UNL A   1      41.295  29.786  32.555  1.00  0.00     0.049 A 
ATOM     51  H   UNL A   1      41.736  28.238  31.236  1.00  0.00     0.167 HD
ATOM     52  C   UNL A   1      42.593  25.097  28.315  1.00  0.00     0.031 A 
ATOM     53  C   UNL A   1      42.254  29.779  33.501  1.00  0.00     0.031 A 
ATOM     54  C   UNL A   1      43.668  25.035  29.264  1.00  0.00     0.049 A 
ATOM     55  C   UNL A   1      43.349  28.750  33.437  1.00  0.00     0.074 A 
ATOM     56  C   UNL A   1      44.769  24.197  29.258  1.00  0.00     0.029 A 
ATOM     57  N   UNL A   1      43.776  25.839  30.386  1.00  0.00    -0.354 N 
ATOM     58  N   UNL A   1      43.561  27.832  32.527  1.00  0.00    -0.248 NA
ATOM     59  C   UNL A   1      44.331  28.752  34.531  1.00  0.00     0.031 C 
ATOM     60  C   UNL A   1      45.521  24.462  30.405  1.00  0.00     0.029 A 
ATOM     61  C   UNL A   1      44.913  25.499  31.096  1.00  0.00     0.049 A 
ATOM     62  H   UNL A   1      43.140  26.545  30.640  1.00  0.00     0.167 HD
ATOM     63  C   UNL A   1      44.709  27.158  32.926  1.00  0.00     0.074 A 
ATOM     64  C   UNL A   1      45.152  27.777  34.157  1.00  0.00     0.031 C 
ATOM     65  C   UNL A   1      45.338  26.123  32.320  1.00  0.00     0.031 A 
BRANCH  52  66
ATOM     66  C   UNL A   1      42.624  24.144  27.158  1.00  0.00    -0.014 A 
ATOM     67  C   UNL A   1      43.298  24.474  25.973  1.00  0.00     0.009 A 
ATOM     68  C   UNL A   1      42.054  22.869  27.290  1.00  0.00     0.009 A 
ATOM     69  C   UNL A   1      43.401  23.541  24.940  1.00  0.00     0.001 A 
ATOM     70  C   UNL A   1      42.174  21.932  26.263  1.00  0.00     0.001 A 
ATOM     71  C   UNL A   1      42.846  22.270  25.089  1.00  0.00     0.000 A 
ENDBRANCH  52  66
BRANCH  53  72
ATOM     72  C   UNL A   1      42.211  30.783  34.592  1.00  0.00    -0.014 A 
ATOM     73  C   UNL A   1      41.480  30.531  35.762  1.00  0.00     0.009 A 
ATOM     74  C   UNL A   1      42.930  31.985  34.484  1.00  0.00     0.009 A 
ATOM     75  C   UNL A   1      41.470  31.462  36.803  1.00  0.00     0.001 A 
ATOM     76  C   UNL A   1      42.934  32.904  35.535  1.00  0.00     0.001 A 
ATOM     77  C   UNL A   1      42.202  32.644  36.692  1.00  0.00     0.000 A 
ENDBRANCH  53  72
BRANCH  65  78
ATOM     78  C   UNL A   1      46.583  25.583  32.960  1.00  0.00    -0.014 A 
ATOM     79  C   UNL A   1      47.839  26.132  32.662  1.00  0.00     0.009 A 
ATOM     80  C   UNL A   1      46.481  24.610  33.967  1.00  0.00     0.009 A 
ATOM     81  C   UNL A   1      48.972  25.713  33.361  1.00  0.00     0.001 A 
ATOM     82  C   UNL A   1      47.613  24.209  34.679  1.00  0.00     0.001 A 
ATOM     83  C   UNL A   1      48.856  24.760  34.374  1.00  0.00     0.000 A 
ENDBRANCH  65  78
ENDBRANCH  39  40
ENDBRANCH  32  34
ENDBRANCH  31  32
ENDBRANCH  30  31
ENDBRANCH   1  30
TORSDOF 15
ENDMDL
MODEL 2
REMARK VINA RESULT:      -9.4      2.934      6.409
REMARK SMILES Cc1ccc(C(=O)OCCOCCOC(=O)c2ccc(-c3c4nc(c(-c5ccccc5)c5ccc([nH]5)c(-c5ccccc5)c5nc(c(-c6ccccc6)c6ccc3[nH]6)C=C5)C=C4)cc2)c2c1N[C@H](c1ccccc1F)[C@H]1CC=C[C@@H]21
REMARK SMILES IDX 12 1 11 2 10 3 9 4 8 5 6 6 7 7 5 8 1 9 2 10 3 11 66 12 4 13
REMARK SMILES IDX 65 14 67 15 80 16 68 17 76 19 79 20 77 21 78 22 69 23 70 24
REMARK SMILES IDX 74 25 71 26 73 27 75 28 72 29 13 30 14 31 15 32 16 33 17 34
REMARK SMILES IDX 18 35 64 36 19 37 63 38 20 39 21 40 22 41 57 42 23 43 62 44
REMARK SMILES IDX 56 45 58 46 24 47 61 48 55 49 54 50 25 52 47 53 32 54 46 55
REMARK SMILES IDX 33 56 36 57 45 58 59 59 34 60 35 61 44 63 60 64 37 65 26 66
REMARK SMILES IDX 27 67 31 68 28 69 30 70 29 71 48 72 49 73 53 74 50 75 52 76
REMARK SMILES IDX 51 77 38 78 39 79 43 80 40 81 42 82 41 83
REMARK H PARENT 67 18 58 51 36 62
REMARK Flexibility Score: inf
ROOT
ATOM      1  C   UNL A   1      33.967  33.407  33.156  1.00  0.00     0.202 C 
ENDROOT
BRANCH   1   2
ATOM      2  O   UNL A   1      33.258  34.464  32.503  1.00  0.00    -0.374 OA
BRANCH   2   3
ATOM      3  C   UNL A   1      33.926  35.172  31.465  1.00  0.00     0.202 C 
BRANCH   3   4
ATOM      4  C   UNL A   1      33.113  35.527  30.217  1.00  0.00     0.261 C 
BRANCH   4   5
ATOM      5  O   UNL A   1      32.865  34.378  29.398  1.00  0.00    -0.460 OA
BRANCH   5   6
ATOM      6  C   UNL A   1      33.759  34.196  28.396  1.00  0.00     0.338 C 
ATOM      7  O   UNL A   1      34.373  35.069  27.801  1.00  0.00    -0.246 OA
BRANCH   6   8
ATOM      8  C   UNL A   1      33.902  32.752  28.115  1.00  0.00     0.065 A 
ATOM      9  C   UNL A   1      34.153  28.657  26.816  1.00  0.00     0.046 C 
ATOM     10  C   UNL A   1      34.105  30.063  27.359  1.00  0.00    -0.028 A 
ATOM     11  C   UNL A   1      32.963  30.815  27.034  1.00  0.00     0.006 A 
ATOM     12  C   UNL A   1      35.135  30.643  28.137  1.00  0.00     0.042 A 
ATOM     13  C   UNL A   1      32.861  32.149  27.405  1.00  0.00     0.016 A 
ATOM     14  C   UNL A   1      35.038  32.007  28.518  1.00  0.00    -0.003 A 
ATOM     15  N   UNL A   1      36.252  29.900  28.500  1.00  0.00    -0.377 N 
ATOM     16  C   UNL A   1      36.072  32.595  29.466  1.00  0.00     0.050 C 
ATOM     17  C   UNL A   1      37.464  30.580  28.928  1.00  0.00     0.117 C 
ATOM     18  H   UNL A   1      36.222  28.917  28.466  1.00  0.00     0.161 HD
ATOM     19  C   UNL A   1      37.083  31.570  30.048  1.00  0.00     0.031 C 
ATOM     20  C   UNL A   1      37.017  33.633  28.918  1.00  0.00    -0.023 C 
ATOM     21  C   UNL A   1      38.264  32.449  30.499  1.00  0.00     0.034 C 
ATOM     22  C   UNL A   1      38.209  33.576  29.522  1.00  0.00    -0.030 C 
BRANCH  17  23
ATOM     23  C   UNL A   1      38.552  29.553  29.188  1.00  0.00     0.010 A 
ATOM     24  C   UNL A   1      39.754  29.665  28.458  1.00  0.00     0.009 A 
ATOM     25  C   UNL A   1      38.467  28.531  30.138  1.00  0.00     0.128 A 
ATOM     26  C   UNL A   1      40.838  28.821  28.712  1.00  0.00     0.001 A 
ATOM     27  C   UNL A   1      39.550  27.693  30.403  1.00  0.00     0.039 A 
ATOM     28  F   UNL A   1      37.347  28.346  30.850  1.00  0.00    -0.207 F 
ATOM     29  C   UNL A   1      40.741  27.843  29.696  1.00  0.00     0.003 A 
ENDBRANCH  17  23
ENDBRANCH   6   8
ENDBRANCH   5   6
ENDBRANCH   4   5
ENDBRANCH   3   4
ENDBRANCH   2   3
ENDBRANCH   1   2
BRANCH   1  30
ATOM     30  C   UNL A   1      35.485  33.547  33.306  1.00  0.00     0.261 C 
BRANCH  30  31
ATOM     31  O   UNL A   1      36.101  32.340  33.790  1.00  0.00    -0.460 OA
BRANCH  31  32
ATOM     32  C   UNL A   1      37.074  32.525  34.712  1.00  0.00     0.338 C 
ATOM     33  O   UNL A   1      36.989  33.092  35.789  1.00  0.00    -0.246 OA
BRANCH  32  34
ATOM     34  C   UNL A   1      38.272  31.773  34.312  1.00  0.00     0.060 A 
ATOM     35  C   UNL A   1      39.527  32.335  34.585  1.00  0.00     0.016 A 
ATOM     36  C   UNL A   1      38.159  30.590  33.580  1.00  0.00     0.016 A 
ATOM     37  C   UNL A   1      40.678  31.729  34.096  1.00  0.00     0.010 A 
ATOM     38  C   UNL A   1      39.314  29.998  33.068  1.00  0.00     0.010 A 
ATOM     39  C   UNL A   1      40.571  30.585  33.295  1.00  0.00    -0.014 A 
BRANCH  39  40
ATOM     40  C   UNL A   1      41.755  30.117  32.547  1.00  0.00     0.031 A 
ATOM     41  C   UNL A   1      42.425  28.845  32.985  1.00  0.00     0.074 A 
ATOM     42  C   UNL A   1      42.202  30.790  31.473  1.00  0.00     0.049 A 
ATOM     43  N   UNL A   1      43.486  28.260  32.493  1.00  0.00    -0.248 NA
ATOM     44  C   UNL A   1      41.812  28.131  34.119  1.00  0.00     0.031 C 
ATOM     45  C   UNL A   1      41.591  31.996  30.916  1.00  0.00     0.029 A 
ATOM     46  N   UNL A   1      43.276  30.544  30.657  1.00  0.00    -0.354 N 
ATOM     47  C   UNL A   1      43.664  27.113  33.254  1.00  0.00     0.074 A 
ATOM     48  C   UNL A   1      42.620  27.089  34.253  1.00  0.00     0.031 C 
ATOM     49  C   UNL A   1      42.302  32.386  29.845  1.00  0.00     0.029 A 
ATOM     50  C   UNL A   1      43.433  31.477  29.663  1.00  0.00     0.049 A 
ATOM     51  H   UNL A   1      43.877  29.773  30.772  1.00  0.00     0.167 HD
ATOM     52  C   UNL A   1      44.614  26.159  33.123  1.00  0.00     0.031 A 
ATOM     53  C   UNL A   1      44.390  31.591  28.722  1.00  0.00     0.031 A 
ATOM     54  C   UNL A   1      45.658  26.189  32.138  1.00  0.00     0.049 A 
ATOM     55  C   UNL A   1      45.496  30.573  28.664  1.00  0.00     0.074 A 
ATOM     56  C   UNL A   1      46.668  25.267  31.933  1.00  0.00     0.029 A 
ATOM     57  N   UNL A   1      45.825  27.191  31.199  1.00  0.00    -0.354 N 
ATOM     58  N   UNL A   1      45.662  29.498  29.394  1.00  0.00    -0.248 NA
ATOM     59  C   UNL A   1      46.546  30.785  27.657  1.00  0.00     0.031 C 
ATOM     60  C   UNL A   1      47.478  25.737  30.896  1.00  0.00     0.029 A 
ATOM     61  C   UNL A   1      46.940  26.924  30.426  1.00  0.00     0.049 A 
ATOM     62  H   UNL A   1      45.240  27.976  31.097  1.00  0.00     0.167 HD
ATOM     63  C   UNL A   1      46.823  28.895  28.926  1.00  0.00     0.074 A 
ATOM     64  C   UNL A   1      47.317  29.720  27.844  1.00  0.00     0.031 C 
ATOM     65  C   UNL A   1      47.419  27.758  29.355  1.00  0.00     0.031 A 
BRANCH  52  66
ATOM     66  C   UNL A   1      44.583  25.001  34.076  1.00  0.00    -0.014 A 
ATOM     67  C   UNL A   1      43.959  23.796  33.722  1.00  0.00     0.009 A 
ATOM     68  C   UNL A   1      45.265  25.087  35.299  1.00  0.00     0.009 A 
ATOM     69  C   UNL A   1      44.020  22.696  34.579  1.00  0.00     0.001 A 
ATOM     70  C   UNL A   1      45.339  23.980  36.145  1.00  0.00     0.001 A 
ATOM     71  C   UNL A   1      44.716  22.786  35.784  1.00  0.00     0.000 A 
ENDBRANCH  52  66
BRANCH  53  72
ATOM     72  C   UNL A   1      44.341  32.723  27.764  1.00  0.00    -0.014 A 
ATOM     73  C   UNL A   1      43.957  32.511  26.432  1.00  0.00     0.009 A 
ATOM     74  C   UNL A   1      44.644  34.028  28.187  1.00  0.00     0.009 A 
ATOM     75  C   UNL A   1      43.878  33.584  25.542  1.00  0.00     0.001 A 
ATOM     76  C   UNL A   1      44.544  35.101  27.299  1.00  0.00     0.001 A 
ATOM     77  C   UNL A   1      44.163  34.878  25.977  1.00  0.00     0.000 A 
ENDBRANCH  53  72
BRANCH  65  78
ATOM     78  C   UNL A   1      48.673  27.314  28.659  1.00  0.00    -0.014 A 
ATOM     79  C   UNL A   1      49.933  27.720  29.122  1.00  0.00     0.009 A 
ATOM     80  C   UNL A   1      48.594  26.375  27.618  1.00  0.00     0.009 A 
ATOM     81  C   UNL A   1      51.093  27.195  28.551  1.00  0.00     0.001 A 
ATOM     82  C   UNL A   1      49.756  25.837  27.063  1.00  0.00     0.001 A 
ATOM     83  C   UNL A   1      51.004  26.248  27.531  1.00  0.00     0.000 A 
ENDBRANCH  65  78
ENDBRANCH  39  40
ENDBRANCH  32  34
ENDBRANCH  31  32
ENDBRANCH  30  31
ENDBRANCH   1  30
TORSDOF 15
ENDMDL
MODEL 3
REMARK VINA RESULT:      -9.3      5.048     10.934
REMARK SMILES Cc1ccc(C(=O)OCCOCCOC(=O)c2ccc(-c3c4nc(c(-c5ccccc5)c5ccc([nH]5)c(-c5ccccc5)c5nc(c(-c6ccccc6)c6ccc3[nH]6)C=C5)C=C4)cc2)c2c1N[C@H](c1ccccc1F)[C@H]1CC=C[C@@H]21
REMARK SMILES IDX 12 1 11 2 10 3 9 4 8 5 6 6 7 7 5 8 1 9 2 10 3 11 66 12 4 13
REMARK SMILES IDX 65 14 67 15 80 16 68 17 76 19 79 20 77 21 78 22 69 23 70 24
REMARK SMILES IDX 74 25 71 26 73 27 75 28 72 29 13 30 14 31 15 32 16 33 17 34
REMARK SMILES IDX 18 35 64 36 19 37 63 38 20 39 21 40 22 41 57 42 23 43 62 44
REMARK SMILES IDX 56 45 58 46 24 47 61 48 55 49 54 50 25 52 47 53 32 54 46 55
REMARK SMILES IDX 33 56 36 57 45 58 59 59 34 60 35 61 44 63 60 64 37 65 26 66
REMARK SMILES IDX 27 67 31 68 28 69 30 70 29 71 48 72 49 73 53 74 50 75 52 76
REMARK SMILES IDX 51 77 38 78 39 79 43 80 40 81 42 82 41 83
REMARK H PARENT 67 18 58 51 36 62
REMARK Flexibility Score: inf
ROOT
ATOM      1  C   UNL A   1      32.344  29.272  25.068  1.00  0.00     0.202 C 
ENDROOT
BRANCH   1   2
ATOM      2  O   UNL A   1      32.320  28.379  23.950  1.00  0.00    -0.374 OA
BRANCH   2   3
ATOM      3  C   UNL A   1      33.485  27.603  23.692  1.00  0.00     0.202 C 
BRANCH   3   4
ATOM      4  C   UNL A   1      33.346  26.079  23.756  1.00  0.00     0.261 C 
BRANCH   4   5
ATOM      5  O   UNL A   1      34.613  25.436  23.940  1.00  0.00    -0.460 OA
BRANCH   5   6
ATOM      6  C   UNL A   1      34.855  25.018  25.206  1.00  0.00     0.338 C 
ATOM      7  O   UNL A   1      34.461  25.547  26.235  1.00  0.00    -0.246 OA
BRANCH   6   8
ATOM      8  C   UNL A   1      35.681  23.792  25.174  1.00  0.00     0.065 A 
ATOM      9  C   UNL A   1      38.323  20.412  25.501  1.00  0.00     0.046 C 
ATOM     10  C   UNL A   1      37.351  21.549  25.311  1.00  0.00    -0.028 A 
ATOM     11  C   UNL A   1      37.879  22.845  25.443  1.00  0.00     0.006 A 
ATOM     12  C   UNL A   1      35.976  21.371  25.035  1.00  0.00     0.042 A 
ATOM     13  C   UNL A   1      37.053  23.959  25.378  1.00  0.00     0.016 A 
ATOM     14  C   UNL A   1      35.124  22.505  24.969  1.00  0.00    -0.003 A 
ATOM     15  N   UNL A   1      35.447  20.098  24.862  1.00  0.00    -0.377 N 
ATOM     16  C   UNL A   1      33.675  22.330  24.539  1.00  0.00     0.050 C 
ATOM     17  C   UNL A   1      34.013  19.887  24.987  1.00  0.00     0.117 C 
ATOM     18  H   UNL A   1      36.041  19.341  24.656  1.00  0.00     0.161 HD
ATOM     19  C   UNL A   1      33.302  20.900  24.066  1.00  0.00     0.031 C 
ATOM     20  C   UNL A   1      32.603  22.569  25.570  1.00  0.00    -0.023 C 
ATOM     21  C   UNL A   1      31.769  20.865  24.207  1.00  0.00     0.034 C 
ATOM     22  C   UNL A   1      31.537  21.789  25.356  1.00  0.00    -0.030 C 
BRANCH  17  23
ATOM     23  C   UNL A   1      33.707  18.408  24.835  1.00  0.00     0.010 A 
ATOM     24  C   UNL A   1      34.311  17.714  23.766  1.00  0.00     0.009 A 
ATOM     25  C   UNL A   1      32.906  17.669  25.712  1.00  0.00     0.128 A 
ATOM     26  C   UNL A   1      34.160  16.332  23.619  1.00  0.00     0.001 A 
ATOM     27  C   UNL A   1      32.760  16.289  25.576  1.00  0.00     0.039 A 
ATOM     28  F   UNL A   1      32.277  18.265  26.734  1.00  0.00    -0.207 F 
ATOM     29  C   UNL A   1      33.395  15.617  24.534  1.00  0.00     0.003 A 
ENDBRANCH  17  23
ENDBRANCH   6   8
ENDBRANCH   5   6
ENDBRANCH   4   5
ENDBRANCH   3   4
ENDBRANCH   2   3
ENDBRANCH   1   2
BRANCH   1  30
ATOM     30  C   UNL A   1      32.886  28.740  26.398  1.00  0.00     0.261 C 
BRANCH  30  31
ATOM     31  O   UNL A   1      34.269  29.083  26.601  1.00  0.00    -0.460 OA
BRANCH  31  32
ATOM     32  C   UNL A   1      34.486  30.083  27.487  1.00  0.00     0.338 C 
ATOM     33  O   UNL A   1      33.687  30.911  27.894  1.00  0.00    -0.246 OA
BRANCH  32  34
ATOM     34  C   UNL A   1      35.832  29.942  28.059  1.00  0.00     0.060 A 
ATOM     35  C   UNL A   1      36.933  30.107  27.207  1.00  0.00     0.016 A 
ATOM     36  C   UNL A   1      36.004  29.543  29.385  1.00  0.00     0.016 A 
ATOM     37  C   UNL A   1      38.215  29.839  27.672  1.00  0.00     0.010 A 
ATOM     38  C   UNL A   1      37.290  29.249  29.842  1.00  0.00     0.010 A 
ATOM     39  C   UNL A   1      38.392  29.364  28.977  1.00  0.00    -0.014 A 
BRANCH  39  40
ATOM     40  C   UNL A   1      39.705  28.811  29.370  1.00  0.00     0.031 A 
ATOM     41  C   UNL A   1      40.580  29.622  30.283  1.00  0.00     0.074 A 
ATOM     42  C   UNL A   1      40.093  27.594  28.954  1.00  0.00     0.049 A 
ATOM     43  N   UNL A   1      41.775  29.348  30.738  1.00  0.00    -0.248 NA
ATOM     44  C   UNL A   1      40.034  30.907  30.756  1.00  0.00     0.031 C 
ATOM     45  C   UNL A   1      39.297  26.691  28.124  1.00  0.00     0.029 A 
ATOM     46  N   UNL A   1      41.257  26.909  29.183  1.00  0.00    -0.354 N 
ATOM     47  C   UNL A   1      42.120  30.420  31.550  1.00  0.00     0.074 A 
ATOM     48  C   UNL A   1      41.023  31.361  31.513  1.00  0.00     0.031 C 
ATOM     49  C   UNL A   1      40.001  25.566  27.913  1.00  0.00     0.029 A 
ATOM     50  C   UNL A   1      41.303  25.685  28.565  1.00  0.00     0.049 A 
ATOM     51  H   UNL A   1      41.991  27.260  29.738  1.00  0.00     0.167 HD
ATOM     52  C   UNL A   1      43.251  30.597  32.269  1.00  0.00     0.031 A 
ATOM     53  C   UNL A   1      42.292  24.771  28.520  1.00  0.00     0.031 A 
ATOM     54  C   UNL A   1      44.345  29.668  32.296  1.00  0.00     0.049 A 
ATOM     55  C   UNL A   1      43.582  25.040  29.245  1.00  0.00     0.074 A 
ATOM     56  C   UNL A   1      45.535  29.766  32.994  1.00  0.00     0.029 A 
ATOM     57  N   UNL A   1      44.382  28.475  31.595  1.00  0.00    -0.354 N 
ATOM     58  N   UNL A   1      43.903  26.061  30.000  1.00  0.00    -0.248 NA
ATOM     59  C   UNL A   1      44.647  24.035  29.107  1.00  0.00     0.031 C 
ATOM     60  C   UNL A   1      46.315  28.652  32.677  1.00  0.00     0.029 A 
ATOM     61  C   UNL A   1      45.587  27.838  31.823  1.00  0.00     0.049 A 
ATOM     62  H   UNL A   1      43.660  28.133  31.021  1.00  0.00     0.167 HD
ATOM     63  C   UNL A   1      45.196  25.816  30.443  1.00  0.00     0.074 A 
ATOM     64  C   UNL A   1      45.600  24.546  29.877  1.00  0.00     0.031 C 
ATOM     65  C   UNL A   1      45.974  26.576  31.250  1.00  0.00     0.031 A 
BRANCH  52  66
ATOM     66  C   UNL A   1      43.377  31.852  33.081  1.00  0.00    -0.014 A 
ATOM     67  C   UNL A   1      43.934  33.014  32.527  1.00  0.00     0.009 A 
ATOM     68  C   UNL A   1      42.847  31.898  34.380  1.00  0.00     0.009 A 
ATOM     69  C   UNL A   1      43.958  34.201  33.261  1.00  0.00     0.001 A 
ATOM     70  C   UNL A   1      42.856  33.090  35.104  1.00  0.00     0.001 A 
ATOM     71  C   UNL A   1      43.412  34.240  34.544  1.00  0.00     0.000 A 
ENDBRANCH  52  66
BRANCH  53  72
ATOM     72  C   UNL A   1      42.093  23.518  27.751  1.00  0.00    -0.014 A 
ATOM     73  C   UNL A   1      41.501  22.399  28.355  1.00  0.00     0.009 A 
ATOM     74  C   UNL A   1      42.462  23.446  26.397  1.00  0.00     0.009 A 
ATOM     75  C   UNL A   1      41.283  21.233  27.619  1.00  0.00     0.001 A 
ATOM     76  C   UNL A   1      42.224  22.284  25.660  1.00  0.00     0.001 A 
ATOM     77  C   UNL A   1      41.637  21.178  26.271  1.00  0.00     0.000 A 
ENDBRANCH  53  72
BRANCH  65  78
ATOM     78  C   UNL A   1      47.345  26.069  31.590  1.00  0.00    -0.014 A 
ATOM     79  C   UNL A   1      48.442  26.357  30.765  1.00  0.00     0.009 A 
ATOM     80  C   UNL A   1      47.559  25.413  32.812  1.00  0.00     0.009 A 
ATOM     81  C   UNL A   1      49.730  25.995  31.159  1.00  0.00     0.001 A 
ATOM     82  C   UNL A   1      48.852  25.071  33.213  1.00  0.00     0.001 A 
ATOM     83  C   UNL A   1      49.935  25.362  32.386  1.00  0.00     0.000 A 
ENDBRANCH  65  78
ENDBRANCH  39  40
ENDBRANCH  32  34
ENDBRANCH  31  32
ENDBRANCH  30  31
ENDBRANCH   1  30
TORSDOF 15
ENDMDL
