MODEL 1
REMARK VINA RESULT:     -10.0      0.000      0.000
REMARK SMILES CC[C@@H](C)N(C)C(=O)N1[C@@H](C(=O)OCCOCCOC(=O)c2ccc(-c3c4nc(c(-c5ccccc5)c5ccc([nH]5)c(-c5ccccc5)c5nc(c(-c6ccccc6)c6ccc3[nH]6)C=C5)C=C4)cc2)CC[C@H]2CCCC[C@H]21
REMARK SMILES IDX 15 1 14 2 13 3 11 4 12 5 10 6 9 7 77 8 70 9 72 10 76 11
REMARK SMILES IDX 71 12 73 13 75 14 74 15 7 16 8 17 5 18 6 19 3 20 4 21 2 22
REMARK SMILES IDX 1 23 16 24 17 25 18 26 19 27 20 28 21 29 22 30 23 31 69 32
REMARK SMILES IDX 24 33 68 34 25 35 26 36 27 37 62 38 28 39 67 40 61 41 63 42
REMARK SMILES IDX 29 43 66 44 60 45 59 46 30 48 52 49 37 50 51 51 38 52 41 53
REMARK SMILES IDX 50 54 64 55 39 56 40 57 49 59 65 60 42 61 31 62 32 63 36 64
REMARK SMILES IDX 33 65 35 66 34 67 53 68 54 69 58 70 55 71 57 72 56 73 43 74
REMARK SMILES IDX 44 75 48 76 45 77 47 78 46 79
REMARK H PARENT 63 47 41 58
REMARK Flexibility Score: inf
ROOT
ATOM      1  C   UNL A   1      31.349  27.399  26.228  1.00  0.00     0.202 C 
ENDROOT
BRANCH   1   2
ATOM      2  C   UNL A   1      30.474  26.181  25.927  1.00  0.00     0.261 C 
BRANCH   2   3
ATOM      3  O   UNL A   1      30.699  25.092  26.830  1.00  0.00    -0.462 OA
BRANCH   3   4
ATOM      4  C   UNL A   1      31.127  23.935  26.250  1.00  0.00     0.329 C 
ATOM      5  O   UNL A   1      30.411  23.151  25.635  1.00  0.00    -0.250 OA
BRANCH   4   6
ATOM      6  C   UNL A   1      32.609  23.674  26.536  1.00  0.00     0.197 C 
ATOM      7  N   UNL A   1      33.517  23.841  25.388  1.00  0.00    -0.308 N 
ATOM      8  C   UNL A   1      34.945  23.745  25.757  1.00  0.00     0.091 C 
ATOM      9  C   UNL A   1      32.862  22.366  27.294  1.00  0.00     0.038 C 
ATOM     10  C   UNL A   1      35.306  22.502  26.599  1.00  0.00     0.012 C 
ATOM     11  C   UNL A   1      35.956  23.930  24.619  1.00  0.00     0.025 C 
ATOM     12  C   UNL A   1      34.318  22.311  27.760  1.00  0.00     0.008 C 
ATOM     13  C   UNL A   1      35.434  21.221  25.771  1.00  0.00     0.006 C 
ATOM     14  C   UNL A   1      36.232  22.693  23.769  1.00  0.00     0.002 C 
ATOM     15  C   UNL A   1      36.275  21.354  24.506  1.00  0.00     0.000 C 
BRANCH   7  16
ATOM     16  C   UNL A   1      33.080  23.326  24.175  1.00  0.00     0.320 C 
ATOM     17  O   UNL A   1      32.776  22.145  24.053  1.00  0.00    -0.248 OA
BRANCH  16  18
ATOM     18  N   UNL A   1      33.042  24.241  23.121  1.00  0.00    -0.325 N 
ATOM     19  C   UNL A   1      33.348  23.902  21.730  1.00  0.00     0.149 C 
BRANCH  18  20
ATOM     20  C   UNL A   1      32.489  25.602  23.312  1.00  0.00     0.083 C 
ATOM     21  C   UNL A   1      31.432  26.040  22.291  1.00  0.00     0.031 C 
BRANCH  20  22
ATOM     22  C   UNL A   1      33.649  26.612  23.423  1.00  0.00     0.021 C 
ATOM     23  C   UNL A   1      33.632  27.689  22.350  1.00  0.00     0.006 C 
ENDBRANCH  20  22
ENDBRANCH  18  20
ENDBRANCH  16  18
ENDBRANCH   7  16
ENDBRANCH   4   6
ENDBRANCH   3   4
ENDBRANCH   2   3
ENDBRANCH   1   2
BRANCH   1  24
ATOM     24  O   UNL A   1      31.273  28.500  25.328  1.00  0.00    -0.374 OA
BRANCH  24  25
ATOM     25  C   UNL A   1      32.240  29.540  25.450  1.00  0.00     0.202 C 
BRANCH  25  26
ATOM     26  C   UNL A   1      31.814  30.821  26.176  1.00  0.00     0.261 C 
BRANCH  26  27
ATOM     27  O   UNL A   1      32.487  30.985  27.438  1.00  0.00    -0.460 OA
BRANCH  27  28
ATOM     28  C   UNL A   1      33.309  32.061  27.501  1.00  0.00     0.338 C 
ATOM     29  O   UNL A   1      32.997  33.236  27.440  1.00  0.00    -0.246 OA
BRANCH  28  30
ATOM     30  C   UNL A   1      34.682  31.635  27.828  1.00  0.00     0.060 A 
ATOM     31  C   UNL A   1      34.901  30.269  28.061  1.00  0.00     0.016 A 
ATOM     32  C   UNL A   1      35.698  32.567  28.033  1.00  0.00     0.016 A 
ATOM     33  C   UNL A   1      36.125  29.837  28.566  1.00  0.00     0.010 A 
ATOM     34  C   UNL A   1      36.921  32.132  28.551  1.00  0.00     0.010 A 
ATOM     35  C   UNL A   1      37.121  30.774  28.862  1.00  0.00    -0.014 A 
BRANCH  35  36
ATOM     36  C   UNL A   1      38.297  30.375  29.669  1.00  0.00     0.031 A 
ATOM     37  C   UNL A   1      39.323  29.472  29.043  1.00  0.00     0.074 A 
ATOM     38  C   UNL A   1      38.446  30.801  30.934  1.00  0.00     0.049 A 
ATOM     39  N   UNL A   1      40.362  28.892  29.587  1.00  0.00    -0.248 NA
ATOM     40  C   UNL A   1      39.154  29.182  27.608  1.00  0.00     0.031 C 
ATOM     41  C   UNL A   1      37.555  31.728  31.627  1.00  0.00     0.029 A 
ATOM     42  N   UNL A   1      39.403  30.487  31.865  1.00  0.00    -0.354 N 
ATOM     43  C   UNL A   1      40.954  28.152  28.572  1.00  0.00     0.074 A 
ATOM     44  C   UNL A   1      40.156  28.345  27.381  1.00  0.00     0.031 C 
ATOM     45  C   UNL A   1      37.997  31.893  32.886  1.00  0.00     0.029 A 
ATOM     46  C   UNL A   1      39.170  31.047  33.097  1.00  0.00     0.049 A 
ATOM     47  H   UNL A   1      40.181  29.916  31.670  1.00  0.00     0.167 HD
ATOM     48  C   UNL A   1      42.063  27.378  28.628  1.00  0.00     0.031 A 
ATOM     49  C   UNL A   1      39.808  30.864  34.268  1.00  0.00     0.031 A 
ATOM     50  C   UNL A   1      42.848  27.181  29.816  1.00  0.00     0.049 A 
ATOM     51  C   UNL A   1      40.984  29.925  34.330  1.00  0.00     0.074 A 
ATOM     52  C   UNL A   1      43.994  26.424  29.976  1.00  0.00     0.029 A 
ATOM     53  N   UNL A   1      42.560  27.743  31.049  1.00  0.00    -0.354 N 
ATOM     54  N   UNL A   1      41.541  29.234  33.365  1.00  0.00    -0.248 NA
ATOM     55  C   UNL A   1      41.618  29.740  35.643  1.00  0.00     0.031 C 
ATOM     56  C   UNL A   1      44.370  26.485  31.321  1.00  0.00     0.029 A 
ATOM     57  C   UNL A   1      43.491  27.329  31.984  1.00  0.00     0.049 A 
ATOM     58  H   UNL A   1      41.805  28.348  31.234  1.00  0.00     0.167 HD
ATOM     59  C   UNL A   1      42.608  28.560  33.946  1.00  0.00     0.074 A 
ATOM     60  C   UNL A   1      42.624  28.927  35.347  1.00  0.00     0.031 C 
ATOM     61  C   UNL A   1      43.499  27.717  33.370  1.00  0.00     0.031 A 
BRANCH  48  62
ATOM     62  C   UNL A   1      42.466  26.649  27.377  1.00  0.00    -0.014 A 
ATOM     63  C   UNL A   1      43.355  27.218  26.452  1.00  0.00     0.009 A 
ATOM     64  C   UNL A   1      41.971  25.357  27.139  1.00  0.00     0.009 A 
ATOM     65  C   UNL A   1      43.716  26.518  25.299  1.00  0.00     0.001 A 
ATOM     66  C   UNL A   1      42.355  24.650  25.999  1.00  0.00     0.001 A 
ATOM     67  C   UNL A   1      43.221  25.234  25.076  1.00  0.00     0.000 A 
ENDBRANCH  48  62
BRANCH  49  68
ATOM     68  C   UNL A   1      39.325  31.555  35.493  1.00  0.00    -0.014 A 
ATOM     69  C   UNL A   1      38.264  31.025  36.242  1.00  0.00     0.009 A 
ATOM     70  C   UNL A   1      39.919  32.757  35.912  1.00  0.00     0.009 A 
ATOM     71  C   UNL A   1      37.795  31.695  37.375  1.00  0.00     0.001 A 
ATOM     72  C   UNL A   1      39.466  33.409  37.060  1.00  0.00     0.001 A 
ATOM     73  C   UNL A   1      38.399  32.883  37.787  1.00  0.00     0.000 A 
ENDBRANCH  49  68
BRANCH  61  74
ATOM     74  C   UNL A   1      44.602  27.173  34.232  1.00  0.00    -0.014 A 
ATOM     75  C   UNL A   1      44.477  25.940  34.887  1.00  0.00     0.009 A 
ATOM     76  C   UNL A   1      45.818  27.872  34.317  1.00  0.00     0.009 A 
ATOM     77  C   UNL A   1      45.544  25.426  35.627  1.00  0.00     0.001 A 
ATOM     78  C   UNL A   1      46.890  27.343  35.035  1.00  0.00     0.001 A 
ATOM     79  C   UNL A   1      46.750  26.122  35.693  1.00  0.00     0.000 A 
ENDBRANCH  61  74
ENDBRANCH  35  36
ENDBRANCH  28  30
ENDBRANCH  27  28
ENDBRANCH  26  27
ENDBRANCH  25  26
ENDBRANCH  24  25
ENDBRANCH   1  24
TORSDOF 18
ENDMDL
MODEL 2
REMARK VINA RESULT:     -10.0      2.632      7.665
REMARK SMILES CC[C@@H](C)N(C)C(=O)N1[C@@H](C(=O)OCCOCCOC(=O)c2ccc(-c3c4nc(c(-c5ccccc5)c5ccc([nH]5)c(-c5ccccc5)c5nc(c(-c6ccccc6)c6ccc3[nH]6)C=C5)C=C4)cc2)CC[C@H]2CCCC[C@H]21
REMARK SMILES IDX 15 1 14 2 13 3 11 4 12 5 10 6 9 7 77 8 70 9 72 10 76 11
REMARK SMILES IDX 71 12 73 13 75 14 74 15 7 16 8 17 5 18 6 19 3 20 4 21 2 22
REMARK SMILES IDX 1 23 16 24 17 25 18 26 19 27 20 28 21 29 22 30 23 31 69 32
REMARK SMILES IDX 24 33 68 34 25 35 26 36 27 37 62 38 28 39 67 40 61 41 63 42
REMARK SMILES IDX 29 43 66 44 60 45 59 46 30 48 52 49 37 50 51 51 38 52 41 53
REMARK SMILES IDX 50 54 64 55 39 56 40 57 49 59 65 60 42 61 31 62 32 63 36 64
REMARK SMILES IDX 33 65 35 66 34 67 53 68 54 69 58 70 55 71 57 72 56 73 43 74
REMARK SMILES IDX 44 75 48 76 45 77 47 78 46 79
REMARK H PARENT 63 47 41 58
REMARK Flexibility Score: inf
ROOT
ATOM      1  C   UNL A   1      39.710  21.293  26.489  1.00  0.00     0.202 C 
ENDROOT
BRANCH   1   2
ATOM      2  C   UNL A   1      38.715  22.187  25.749  1.00  0.00     0.261 C 
BRANCH   2   3
ATOM      3  O   UNL A   1      37.398  21.625  25.681  1.00  0.00    -0.462 OA
BRANCH   3   4
ATOM      4  C   UNL A   1      36.576  22.183  24.748  1.00  0.00     0.329 C 
ATOM      5  O   UNL A   1      36.700  22.053  23.534  1.00  0.00    -0.250 OA
BRANCH   4   6
ATOM      6  C   UNL A   1      35.517  23.082  25.393  1.00  0.00     0.197 C 
ATOM      7  N   UNL A   1      34.221  22.440  25.673  1.00  0.00    -0.308 N 
ATOM      8  C   UNL A   1      33.300  23.298  26.447  1.00  0.00     0.091 C 
ATOM      9  C   UNL A   1      35.357  24.436  24.692  1.00  0.00     0.038 C 
ATOM     10  C   UNL A   1      33.123  24.722  25.877  1.00  0.00     0.012 C 
ATOM     11  C   UNL A   1      31.936  22.691  26.797  1.00  0.00     0.025 C 
ATOM     12  C   UNL A   1      34.481  25.359  25.540  1.00  0.00     0.008 C 
ATOM     13  C   UNL A   1      32.175  24.786  24.678  1.00  0.00     0.006 C 
ATOM     14  C   UNL A   1      30.875  22.770  25.704  1.00  0.00     0.002 C 
ATOM     15  C   UNL A   1      30.855  24.045  24.862  1.00  0.00     0.000 C 
BRANCH   7  16
ATOM     16  C   UNL A   1      33.721  21.603  24.684  1.00  0.00     0.320 C 
ATOM     17  O   UNL A   1      33.334  22.045  23.608  1.00  0.00    -0.248 OA
BRANCH  16  18
ATOM     18  N   UNL A   1      33.671  20.249  25.021  1.00  0.00    -0.325 N 
ATOM     19  C   UNL A   1      33.376  19.750  26.365  1.00  0.00     0.149 C 
BRANCH  18  20
ATOM     20  C   UNL A   1      33.720  19.201  23.975  1.00  0.00     0.083 C 
ATOM     21  C   UNL A   1      32.363  18.668  23.501  1.00  0.00     0.031 C 
BRANCH  20  22
ATOM     22  C   UNL A   1      34.665  18.070  24.433  1.00  0.00     0.021 C 
ATOM     23  C   UNL A   1      34.292  16.700  23.891  1.00  0.00     0.006 C 
ENDBRANCH  20  22
ENDBRANCH  18  20
ENDBRANCH  16  18
ENDBRANCH   7  16
ENDBRANCH   4   6
ENDBRANCH   3   4
ENDBRANCH   2   3
ENDBRANCH   1   2
BRANCH   1  24
ATOM     24  O   UNL A   1      40.811  20.780  25.745  1.00  0.00    -0.374 OA
BRANCH  24  25
ATOM     25  C   UNL A   1      42.098  20.778  26.358  1.00  0.00     0.202 C 
BRANCH  25  26
ATOM     26  C   UNL A   1      43.205  21.594  25.681  1.00  0.00     0.261 C 
BRANCH  26  27
ATOM     27  O   UNL A   1      42.693  22.750  24.994  1.00  0.00    -0.460 OA
BRANCH  27  28
ATOM     28  C   UNL A   1      43.452  23.864  25.124  1.00  0.00     0.338 C 
ATOM     29  O   UNL A   1      44.520  24.101  24.587  1.00  0.00    -0.246 OA
BRANCH  28  30
ATOM     30  C   UNL A   1      42.732  24.884  25.907  1.00  0.00     0.060 A 
ATOM     31  C   UNL A   1      43.269  26.180  25.938  1.00  0.00     0.016 A 
ATOM     32  C   UNL A   1      41.634  24.548  26.697  1.00  0.00     0.016 A 
ATOM     33  C   UNL A   1      42.749  27.128  26.815  1.00  0.00     0.010 A 
ATOM     34  C   UNL A   1      41.121  25.498  27.584  1.00  0.00     0.010 A 
ATOM     35  C   UNL A   1      41.706  26.774  27.678  1.00  0.00    -0.014 A 
BRANCH  35  36
ATOM     36  C   UNL A   1      41.348  27.661  28.808  1.00  0.00     0.031 A 
ATOM     37  C   UNL A   1      42.132  27.547  30.086  1.00  0.00     0.074 A 
ATOM     38  C   UNL A   1      40.342  28.546  28.704  1.00  0.00     0.049 A 
ATOM     39  N   UNL A   1      41.925  28.122  31.242  1.00  0.00    -0.248 NA
ATOM     40  C   UNL A   1      43.309  26.661  30.056  1.00  0.00     0.031 C 
ATOM     41  C   UNL A   1      39.554  28.795  27.500  1.00  0.00     0.029 A 
ATOM     42  N   UNL A   1      39.805  29.389  29.644  1.00  0.00    -0.354 N 
ATOM     43  C   UNL A   1      42.927  27.652  32.081  1.00  0.00     0.074 A 
ATOM     44  C   UNL A   1      43.736  26.736  31.308  1.00  0.00     0.031 C 
ATOM     45  C   UNL A   1      38.615  29.716  27.779  1.00  0.00     0.029 A 
ATOM     46  C   UNL A   1      38.710  30.083  29.191  1.00  0.00     0.049 A 
ATOM     47  H   UNL A   1      40.169  29.486  30.553  1.00  0.00     0.167 HD
ATOM     48  C   UNL A   1      43.151  27.954  33.381  1.00  0.00     0.031 A 
ATOM     49  C   UNL A   1      37.859  30.888  29.854  1.00  0.00     0.031 A 
ATOM     50  C   UNL A   1      42.338  28.858  34.149  1.00  0.00     0.049 A 
ATOM     51  C   UNL A   1      38.072  31.138  31.324  1.00  0.00     0.074 A 
ATOM     52  C   UNL A   1      42.485  29.239  35.470  1.00  0.00     0.029 A 
ATOM     53  N   UNL A   1      41.220  29.517  33.660  1.00  0.00    -0.354 N 
ATOM     54  N   UNL A   1      39.024  30.694  32.108  1.00  0.00    -0.248 NA
ATOM     55  C   UNL A   1      37.091  31.999  32.000  1.00  0.00     0.031 C 
ATOM     56  C   UNL A   1      41.424  30.088  35.798  1.00  0.00     0.029 A 
ATOM     57  C   UNL A   1      40.652  30.282  34.662  1.00  0.00     0.049 A 
ATOM     58  H   UNL A   1      40.882  29.450  32.738  1.00  0.00     0.167 HD
ATOM     59  C   UNL A   1      38.776  31.247  33.359  1.00  0.00     0.074 A 
ATOM     60  C   UNL A   1      37.586  32.062  33.229  1.00  0.00     0.031 C 
ATOM     61  C   UNL A   1      39.476  31.098  34.510  1.00  0.00     0.031 A 
BRANCH  48  62
ATOM     62  C   UNL A   1      44.295  27.265  34.068  1.00  0.00    -0.014 A 
ATOM     63  C   UNL A   1      44.197  25.931  34.495  1.00  0.00     0.009 A 
ATOM     64  C   UNL A   1      45.503  27.952  34.261  1.00  0.00     0.009 A 
ATOM     65  C   UNL A   1      45.276  25.311  35.129  1.00  0.00     0.001 A 
ATOM     66  C   UNL A   1      46.589  27.322  34.871  1.00  0.00     0.001 A 
ATOM     67  C   UNL A   1      46.472  26.005  35.311  1.00  0.00     0.000 A 
ENDBRANCH  48  62
BRANCH  49  68
ATOM     68  C   UNL A   1      36.700  31.490  29.143  1.00  0.00    -0.014 A 
ATOM     69  C   UNL A   1      35.510  30.767  28.974  1.00  0.00     0.009 A 
ATOM     70  C   UNL A   1      36.784  32.790  28.620  1.00  0.00     0.009 A 
ATOM     71  C   UNL A   1      34.435  31.326  28.279  1.00  0.00     0.001 A 
ATOM     72  C   UNL A   1      35.698  33.357  27.950  1.00  0.00     0.001 A 
ATOM     73  C   UNL A   1      34.527  32.622  27.773  1.00  0.00     0.000 A 
ENDBRANCH  49  68
BRANCH  61  74
ATOM     74  C   UNL A   1      39.013  31.871  35.712  1.00  0.00    -0.014 A 
ATOM     75  C   UNL A   1      38.124  31.313  36.641  1.00  0.00     0.009 A 
ATOM     76  C   UNL A   1      39.545  33.148  35.957  1.00  0.00     0.009 A 
ATOM     77  C   UNL A   1      37.762  32.028  37.785  1.00  0.00     0.001 A 
ATOM     78  C   UNL A   1      39.203  33.847  37.113  1.00  0.00     0.001 A 
ATOM     79  C   UNL A   1      38.308  33.288  38.025  1.00  0.00     0.000 A 
ENDBRANCH  61  74
ENDBRANCH  35  36
ENDBRANCH  28  30
ENDBRANCH  27  28
ENDBRANCH  26  27
ENDBRANCH  25  26
ENDBRANCH  24  25
ENDBRANCH   1  24
TORSDOF 18
ENDMDL
MODEL 3
REMARK VINA RESULT:      -9.9      3.861      8.760
REMARK SMILES CC[C@@H](C)N(C)C(=O)N1[C@@H](C(=O)OCCOCCOC(=O)c2ccc(-c3c4nc(c(-c5ccccc5)c5ccc([nH]5)c(-c5ccccc5)c5nc(c(-c6ccccc6)c6ccc3[nH]6)C=C5)C=C4)cc2)CC[C@H]2CCCC[C@H]21
REMARK SMILES IDX 15 1 14 2 13 3 11 4 12 5 10 6 9 7 77 8 70 9 72 10 76 11
REMARK SMILES IDX 71 12 73 13 75 14 74 15 7 16 8 17 5 18 6 19 3 20 4 21 2 22
REMARK SMILES IDX 1 23 16 24 17 25 18 26 19 27 20 28 21 29 22 30 23 31 69 32
REMARK SMILES IDX 24 33 68 34 25 35 26 36 27 37 62 38 28 39 67 40 61 41 63 42
REMARK SMILES IDX 29 43 66 44 60 45 59 46 30 48 52 49 37 50 51 51 38 52 41 53
REMARK SMILES IDX 50 54 64 55 39 56 40 57 49 59 65 60 42 61 31 62 32 63 36 64
REMARK SMILES IDX 33 65 35 66 34 67 53 68 54 69 58 70 55 71 57 72 56 73 43 74
REMARK SMILES IDX 44 75 48 76 45 77 47 78 46 79
REMARK H PARENT 63 47 41 58
REMARK Flexibility Score: inf
ROOT
ATOM      1  C   UNL A   1      36.533  22.615  23.951  1.00  0.00     0.202 C 
ENDROOT
BRANCH   1   2
ATOM      2  C   UNL A   1      35.512  23.705  23.623  1.00  0.00     0.261 C 
BRANCH   2   3
ATOM      3  O   UNL A   1      34.598  23.324  22.588  1.00  0.00    -0.462 OA
BRANCH   3   4
ATOM      4  C   UNL A   1      33.547  24.172  22.400  1.00  0.00     0.329 C 
ATOM      5  O   UNL A   1      32.557  23.924  21.720  1.00  0.00    -0.250 OA
BRANCH   4   6
ATOM      6  C   UNL A   1      33.789  25.529  23.069  1.00  0.00     0.197 C 
ATOM      7  N   UNL A   1      33.197  25.693  24.408  1.00  0.00    -0.308 N 
ATOM      8  C   UNL A   1      33.603  26.947  25.075  1.00  0.00     0.091 C 
ATOM      9  C   UNL A   1      33.495  26.722  22.152  1.00  0.00     0.038 C 
ATOM     10  C   UNL A   1      33.428  28.215  24.211  1.00  0.00     0.012 C 
ATOM     11  C   UNL A   1      33.045  27.181  26.484  1.00  0.00     0.025 C 
ATOM     12  C   UNL A   1      34.002  28.011  22.800  1.00  0.00     0.008 C 
ATOM     13  C   UNL A   1      31.984  28.716  24.148  1.00  0.00     0.006 C 
ATOM     14  C   UNL A   1      31.635  27.760  26.551  1.00  0.00     0.002 C 
ATOM     15  C   UNL A   1      31.275  28.805  25.496  1.00  0.00     0.000 C 
BRANCH   7  16
ATOM     16  C   UNL A   1      31.908  25.204  24.577  1.00  0.00     0.320 C 
ATOM     17  O   UNL A   1      30.969  25.637  23.919  1.00  0.00    -0.248 OA
BRANCH  16  18
ATOM     18  N   UNL A   1      31.770  24.221  25.558  1.00  0.00    -0.325 N 
ATOM     19  C   UNL A   1      30.591  24.077  26.414  1.00  0.00     0.149 C 
BRANCH  18  20
ATOM     20  C   UNL A   1      32.746  23.111  25.668  1.00  0.00     0.083 C 
ATOM     21  C   UNL A   1      32.237  21.731  25.235  1.00  0.00     0.031 C 
BRANCH  20  22
ATOM     22  C   UNL A   1      33.340  23.096  27.092  1.00  0.00     0.021 C 
ATOM     23  C   UNL A   1      33.846  21.732  27.532  1.00  0.00     0.006 C 
ENDBRANCH  20  22
ENDBRANCH  18  20
ENDBRANCH  16  18
ENDBRANCH   7  16
ENDBRANCH   4   6
ENDBRANCH   3   4
ENDBRANCH   2   3
ENDBRANCH   1   2
BRANCH   1  24
ATOM     24  O   UNL A   1      36.270  21.788  25.079  1.00  0.00    -0.374 OA
BRANCH  24  25
ATOM     25  C   UNL A   1      36.557  20.395  24.978  1.00  0.00     0.202 C 
BRANCH  25  26
ATOM     26  C   UNL A   1      38.031  19.981  24.893  1.00  0.00     0.261 C 
BRANCH  26  27
ATOM     27  O   UNL A   1      38.816  20.528  25.968  1.00  0.00    -0.460 OA
BRANCH  27  28
ATOM     28  C   UNL A   1      40.058  19.998  26.083  1.00  0.00     0.338 C 
ATOM     29  O   UNL A   1      40.418  18.879  25.765  1.00  0.00    -0.246 OA
BRANCH  28  30
ATOM     30  C   UNL A   1      41.016  21.031  26.515  1.00  0.00     0.060 A 
ATOM     31  C   UNL A   1      41.145  21.264  27.892  1.00  0.00     0.016 A 
ATOM     32  C   UNL A   1      41.672  21.842  25.590  1.00  0.00     0.016 A 
ATOM     33  C   UNL A   1      41.879  22.356  28.349  1.00  0.00     0.010 A 
ATOM     34  C   UNL A   1      42.399  22.943  26.049  1.00  0.00     0.010 A 
ATOM     35  C   UNL A   1      42.466  23.229  27.426  1.00  0.00    -0.014 A 
BRANCH  35  36
ATOM     36  C   UNL A   1      42.985  24.541  27.875  1.00  0.00     0.031 A 
ATOM     37  C   UNL A   1      42.000  25.610  28.258  1.00  0.00     0.074 A 
ATOM     38  C   UNL A   1      44.306  24.779  27.937  1.00  0.00     0.049 A 
ATOM     39  N   UNL A   1      42.212  26.865  28.559  1.00  0.00    -0.248 NA
ATOM     40  C   UNL A   1      40.583  25.209  28.305  1.00  0.00     0.031 C 
ATOM     41  C   UNL A   1      45.357  23.804  27.656  1.00  0.00     0.029 A 
ATOM     42  N   UNL A   1      44.983  25.932  28.244  1.00  0.00    -0.354 N 
ATOM     43  C   UNL A   1      40.957  27.408  28.807  1.00  0.00     0.074 A 
ATOM     44  C   UNL A   1      39.988  26.352  28.611  1.00  0.00     0.031 C 
ATOM     45  C   UNL A   1      46.552  24.408  27.783  1.00  0.00     0.029 A 
ATOM     46  C   UNL A   1      46.344  25.818  28.106  1.00  0.00     0.049 A 
ATOM     47  H   UNL A   1      44.537  26.760  28.533  1.00  0.00     0.167 HD
ATOM     48  C   UNL A   1      40.641  28.676  29.163  1.00  0.00     0.031 A 
ATOM     49  C   UNL A   1      47.307  26.756  28.191  1.00  0.00     0.031 A 
ATOM     50  C   UNL A   1      41.607  29.724  29.347  1.00  0.00     0.049 A 
ATOM     51  C   UNL A   1      46.925  28.181  28.497  1.00  0.00     0.074 A 
ATOM     52  C   UNL A   1      41.391  31.040  29.716  1.00  0.00     0.029 A 
ATOM     53  N   UNL A   1      42.973  29.574  29.168  1.00  0.00    -0.354 N 
ATOM     54  N   UNL A   1      45.738  28.684  28.734  1.00  0.00    -0.248 NA
ATOM     55  C   UNL A   1      48.015  29.165  28.543  1.00  0.00     0.031 C 
ATOM     56  C   UNL A   1      42.624  31.700  29.708  1.00  0.00     0.029 A 
ATOM     57  C   UNL A   1      43.612  30.780  29.393  1.00  0.00     0.049 A 
ATOM     58  H   UNL A   1      43.423  28.734  28.918  1.00  0.00     0.167 HD
ATOM     59  C   UNL A   1      45.943  30.035  28.991  1.00  0.00     0.074 A 
ATOM     60  C   UNL A   1      47.367  30.272  28.883  1.00  0.00     0.031 C 
ATOM     61  C   UNL A   1      45.032  30.992  29.296  1.00  0.00     0.031 A 
BRANCH  48  62
ATOM     62  C   UNL A   1      39.186  29.008  29.331  1.00  0.00    -0.014 A 
ATOM     63  C   UNL A   1      38.409  29.462  28.253  1.00  0.00     0.009 A 
ATOM     64  C   UNL A   1      38.576  28.832  30.582  1.00  0.00     0.009 A 
ATOM     65  C   UNL A   1      37.057  29.761  28.434  1.00  0.00     0.001 A 
ATOM     66  C   UNL A   1      37.218  29.106  30.754  1.00  0.00     0.001 A 
ATOM     67  C   UNL A   1      36.462  29.578  29.682  1.00  0.00     0.000 A 
ENDBRANCH  48  62
BRANCH  49  68
ATOM     68  C   UNL A   1      48.726  26.387  27.945  1.00  0.00    -0.014 A 
ATOM     69  C   UNL A   1      49.249  26.384  26.644  1.00  0.00     0.009 A 
ATOM     70  C   UNL A   1      49.563  26.028  29.015  1.00  0.00     0.009 A 
ATOM     71  C   UNL A   1      50.576  26.008  26.416  1.00  0.00     0.001 A 
ATOM     72  C   UNL A   1      50.895  25.680  28.787  1.00  0.00     0.001 A 
ATOM     73  C   UNL A   1      51.399  25.663  27.487  1.00  0.00     0.000 A 
ENDBRANCH  49  68
BRANCH  61  74
ATOM     74  C   UNL A   1      45.545  32.373  29.590  1.00  0.00    -0.014 A 
ATOM     75  C   UNL A   1      45.937  32.746  30.883  1.00  0.00     0.009 A 
ATOM     76  C   UNL A   1      45.716  33.283  28.534  1.00  0.00     0.009 A 
ATOM     77  C   UNL A   1      46.473  34.015  31.116  1.00  0.00     0.001 A 
ATOM     78  C   UNL A   1      46.277  34.539  28.765  1.00  0.00     0.001 A 
ATOM     79  C   UNL A   1      46.651  34.905  30.057  1.00  0.00     0.000 A 
ENDBRANCH  61  74
ENDBRANCH  35  36
ENDBRANCH  28  30
ENDBRANCH  27  28
ENDBRANCH  26  27
ENDBRANCH  25  26
ENDBRANCH  24  25
ENDBRANCH   1  24
TORSDOF 18
ENDMDL
