MODEL 1
REMARK VINA RESULT:     -11.7      0.000      0.000
REMARK SMILES Cc1nc2cc(S(=O)(=O)N3CCC(C(=O)OCCOCCOC(=O)c4ccc(-c5c6nc(c(-c7ccccc7)c7ccc([nH]7)c(-c7ccccc7)c7nc(c(-c8ccccc8)c8ccc5[nH]8)C=C7)C=C6)cc4)CC3)ccc2n1C1CCCC1
REMARK SMILES IDX 18 1 17 2 16 3 14 4 15 5 13 6 10 7 11 8 74 9 12 10 73 11
REMARK SMILES IDX 7 12 8 13 9 14 6 15 1 16 2 17 3 18 78 19 4 20 77 21 5 22
REMARK SMILES IDX 76 23 75 24 79 25 80 26 83 27 81 28 82 29 19 30 20 31 21 32
REMARK SMILES IDX 22 33 23 34 24 35 25 36 26 37 72 38 27 39 71 40 28 41 29 42
REMARK SMILES IDX 30 43 65 44 31 45 70 46 64 47 66 48 32 49 69 50 63 51 62 52
REMARK SMILES IDX 33 54 55 55 40 56 54 57 41 58 44 59 53 60 67 61 42 62 43 63
REMARK SMILES IDX 52 65 68 66 45 67 34 68 35 69 39 70 36 71 38 72 37 73 56 74
REMARK SMILES IDX 57 75 61 76 58 77 60 78 59 79 46 80 47 81 51 82 48 83 50 84
REMARK SMILES IDX 49 85
REMARK H PARENT 66 53 44 64
REMARK Flexibility Score: inf
ROOT
ATOM      1  C   UNL A   1      40.907  19.825  26.335  1.00  0.00     0.202 C 
ENDROOT
BRANCH   1   2
ATOM      2  C   UNL A   1      40.322  21.240  26.330  1.00  0.00     0.261 C 
BRANCH   2   3
ATOM      3  O   UNL A   1      38.991  21.291  25.814  1.00  0.00    -0.463 OA
BRANCH   3   4
ATOM      4  C   UNL A   1      38.415  22.515  25.890  1.00  0.00     0.309 C 
ATOM      5  O   UNL A   1      38.952  23.530  26.318  1.00  0.00    -0.252 OA
BRANCH   4   6
ATOM      6  C   UNL A   1      36.987  22.508  25.417  1.00  0.00     0.102 C 
ATOM      7  N   UNL A   1      34.459  21.795  24.291  1.00  0.00    -0.198 NA
ATOM      8  C   UNL A   1      35.277  22.824  23.600  1.00  0.00     0.103 C 
ATOM      9  C   UNL A   1      34.868  21.257  25.613  1.00  0.00     0.103 C 
ATOM     10  C   UNL A   1      36.761  22.765  23.931  1.00  0.00     0.032 C 
ATOM     11  C   UNL A   1      36.370  21.168  25.766  1.00  0.00     0.032 C 
BRANCH   7  12
ATOM     12  S   UNL A   1      32.762  21.960  24.082  1.00  0.00     0.243 S 
ATOM     13  O   UNL A   1      32.131  21.245  25.180  1.00  0.00    -0.207 OA
ATOM     14  O   UNL A   1      32.457  21.664  22.706  1.00  0.00    -0.207 OA
BRANCH  12  15
ATOM     15  C   UNL A   1      32.387  23.688  24.332  1.00  0.00     0.085 A 
ATOM     16  C   UNL A   1      29.428  28.734  23.088  1.00  0.00     0.088 C 
ATOM     17  C   UNL A   1      30.246  27.578  23.538  1.00  0.00     0.106 A 
ATOM     18  N   UNL A   1      30.174  26.373  23.007  1.00  0.00    -0.233 NA
ATOM     19  N   UNL A   1      31.190  27.618  24.545  1.00  0.00    -0.325 N 
ATOM     20  C   UNL A   1      31.083  25.605  23.676  1.00  0.00     0.090 A 
ATOM     21  C   UNL A   1      31.737  26.355  24.649  1.00  0.00     0.068 A 
ATOM     22  C   UNL A   1      31.405  24.251  23.504  1.00  0.00     0.052 A 
ATOM     23  C   UNL A   1      32.715  25.807  25.480  1.00  0.00     0.030 A 
ATOM     24  C   UNL A   1      33.018  24.460  25.308  1.00  0.00     0.024 A 
BRANCH  19  25
ATOM     25  C   UNL A   1      31.555  28.769  25.352  1.00  0.00     0.089 C 
ATOM     26  C   UNL A   1      31.625  28.495  26.856  1.00  0.00     0.025 C 
ATOM     27  C   UNL A   1      32.920  29.376  25.009  1.00  0.00     0.025 C 
ATOM     28  C   UNL A   1      32.464  29.637  27.410  1.00  0.00     0.002 C 
ATOM     29  C   UNL A   1      33.382  30.089  26.276  1.00  0.00     0.002 C 
ENDBRANCH  19  25
ENDBRANCH  12  15
ENDBRANCH   7  12
ENDBRANCH   4   6
ENDBRANCH   3   4
ENDBRANCH   2   3
ENDBRANCH   1   2
BRANCH   1  30
ATOM     30  O   UNL A   1      41.889  19.470  25.371  1.00  0.00    -0.374 OA
BRANCH  30  31
ATOM     31  C   UNL A   1      43.145  18.975  25.837  1.00  0.00     0.202 C 
BRANCH  31  32
ATOM     32  C   UNL A   1      44.397  19.140  24.950  1.00  0.00     0.261 C 
BRANCH  32  33
ATOM     33  O   UNL A   1      45.131  20.333  25.269  1.00  0.00    -0.460 OA
BRANCH  33  34
ATOM     34  C   UNL A   1      44.802  21.427  24.524  1.00  0.00     0.338 C 
ATOM     35  O   UNL A   1      44.740  21.507  23.312  1.00  0.00    -0.246 OA
BRANCH  34  36
ATOM     36  C   UNL A   1      44.116  22.346  25.460  1.00  0.00     0.060 A 
ATOM     37  C   UNL A   1      43.036  23.124  25.035  1.00  0.00     0.016 A 
ATOM     38  C   UNL A   1      44.827  22.667  26.629  1.00  0.00     0.016 A 
ATOM     39  C   UNL A   1      42.742  24.294  25.727  1.00  0.00     0.010 A 
ATOM     40  C   UNL A   1      44.559  23.862  27.288  1.00  0.00     0.010 A 
ATOM     41  C   UNL A   1      43.548  24.697  26.809  1.00  0.00    -0.014 A 
BRANCH  41  42
ATOM     42  C   UNL A   1      43.176  25.915  27.538  1.00  0.00     0.031 A 
ATOM     43  C   UNL A   1      44.111  27.049  27.274  1.00  0.00     0.074 A 
ATOM     44  C   UNL A   1      42.050  26.104  28.261  1.00  0.00     0.049 A 
ATOM     45  N   UNL A   1      44.784  27.748  28.127  1.00  0.00    -0.248 NA
ATOM     46  C   UNL A   1      44.407  27.367  25.866  1.00  0.00     0.031 C 
ATOM     47  C   UNL A   1      40.879  25.233  28.393  1.00  0.00     0.029 A 
ATOM     48  N   UNL A   1      41.678  27.205  28.979  1.00  0.00    -0.354 N 
ATOM     49  C   UNL A   1      45.520  28.665  27.379  1.00  0.00     0.074 A 
ATOM     50  C   UNL A   1      45.325  28.321  25.994  1.00  0.00     0.031 C 
ATOM     51  C   UNL A   1      39.855  25.927  28.947  1.00  0.00     0.029 A 
ATOM     52  C   UNL A   1      40.330  27.244  29.330  1.00  0.00     0.049 A 
ATOM     53  H   UNL A   1      42.312  27.915  29.229  1.00  0.00     0.167 HD
ATOM     54  C   UNL A   1      46.154  29.734  27.931  1.00  0.00     0.031 A 
ATOM     55  C   UNL A   1      39.648  28.302  29.843  1.00  0.00     0.031 A 
ATOM     56  C   UNL A   1      46.329  29.584  29.347  1.00  0.00     0.049 A 
ATOM     57  C   UNL A   1      40.640  29.241  30.409  1.00  0.00     0.074 A 
ATOM     58  C   UNL A   1      47.084  28.739  30.136  1.00  0.00     0.029 A 
ATOM     59  N   UNL A   1      45.384  30.132  30.177  1.00  0.00    -0.354 N 
ATOM     60  N   UNL A   1      41.369  28.977  31.452  1.00  0.00    -0.248 NA
ATOM     61  C   UNL A   1      41.128  30.302  29.545  1.00  0.00     0.031 C 
ATOM     62  C   UNL A   1      46.251  28.444  31.251  1.00  0.00     0.029 A 
ATOM     63  C   UNL A   1      45.075  29.184  31.119  1.00  0.00     0.049 A 
ATOM     64  H   UNL A   1      44.999  31.036  30.108  1.00  0.00     0.167 HD
ATOM     65  C   UNL A   1      42.611  29.513  31.151  1.00  0.00     0.074 A 
ATOM     66  C   UNL A   1      42.381  30.385  29.999  1.00  0.00     0.031 C 
ATOM     67  C   UNL A   1      43.755  28.993  31.682  1.00  0.00     0.031 A 
BRANCH  54  68
ATOM     68  C   UNL A   1      46.403  31.025  27.207  1.00  0.00    -0.014 A 
ATOM     69  C   UNL A   1      45.361  31.857  26.754  1.00  0.00     0.009 A 
ATOM     70  C   UNL A   1      47.702  31.560  27.168  1.00  0.00     0.009 A 
ATOM     71  C   UNL A   1      45.596  33.146  26.270  1.00  0.00     0.001 A 
ATOM     72  C   UNL A   1      47.938  32.867  26.722  1.00  0.00     0.001 A 
ATOM     73  C   UNL A   1      46.885  33.658  26.273  1.00  0.00     0.000 A 
ENDBRANCH  54  68
BRANCH  55  74
ATOM     74  C   UNL A   1      38.273  28.763  29.525  1.00  0.00    -0.014 A 
ATOM     75  C   UNL A   1      37.927  29.060  28.196  1.00  0.00     0.009 A 
ATOM     76  C   UNL A   1      37.419  29.232  30.540  1.00  0.00     0.009 A 
ATOM     77  C   UNL A   1      36.805  29.841  27.892  1.00  0.00     0.001 A 
ATOM     78  C   UNL A   1      36.293  30.014  30.235  1.00  0.00     0.001 A 
ATOM     79  C   UNL A   1      35.999  30.333  28.912  1.00  0.00     0.000 A 
ENDBRANCH  55  74
BRANCH  67  80
ATOM     80  C   UNL A   1      43.634  27.934  32.759  1.00  0.00    -0.014 A 
ATOM     81  C   UNL A   1      43.618  28.353  34.099  1.00  0.00     0.009 A 
ATOM     82  C   UNL A   1      43.737  26.554  32.499  1.00  0.00     0.009 A 
ATOM     83  C   UNL A   1      43.729  27.433  35.143  1.00  0.00     0.001 A 
ATOM     84  C   UNL A   1      43.820  25.630  33.548  1.00  0.00     0.001 A 
ATOM     85  C   UNL A   1      43.831  26.072  34.869  1.00  0.00     0.000 A 
ENDBRANCH  67  80
ENDBRANCH  41  42
ENDBRANCH  34  36
ENDBRANCH  33  34
ENDBRANCH  32  33
ENDBRANCH  31  32
ENDBRANCH  30  31
ENDBRANCH   1  30
TORSDOF 17
ENDMDL
MODEL 2
REMARK VINA RESULT:     -11.4      2.731      9.032
REMARK SMILES Cc1nc2cc(S(=O)(=O)N3CCC(C(=O)OCCOCCOC(=O)c4ccc(-c5c6nc(c(-c7ccccc7)c7ccc([nH]7)c(-c7ccccc7)c7nc(c(-c8ccccc8)c8ccc5[nH]8)C=C7)C=C6)cc4)CC3)ccc2n1C1CCCC1
REMARK SMILES IDX 18 1 17 2 16 3 14 4 15 5 13 6 10 7 11 8 74 9 12 10 73 11
REMARK SMILES IDX 7 12 8 13 9 14 6 15 1 16 2 17 3 18 78 19 4 20 77 21 5 22
REMARK SMILES IDX 76 23 75 24 79 25 80 26 83 27 81 28 82 29 19 30 20 31 21 32
REMARK SMILES IDX 22 33 23 34 24 35 25 36 26 37 72 38 27 39 71 40 28 41 29 42
REMARK SMILES IDX 30 43 65 44 31 45 70 46 64 47 66 48 32 49 69 50 63 51 62 52
REMARK SMILES IDX 33 54 55 55 40 56 54 57 41 58 44 59 53 60 67 61 42 62 43 63
REMARK SMILES IDX 52 65 68 66 45 67 34 68 35 69 39 70 36 71 38 72 37 73 56 74
REMARK SMILES IDX 57 75 61 76 58 77 60 78 59 79 46 80 47 81 51 82 48 83 50 84
REMARK SMILES IDX 49 85
REMARK H PARENT 66 53 44 64
REMARK Flexibility Score: inf
ROOT
ATOM      1  C   UNL A   1      30.818  30.069  24.618  1.00  0.00     0.202 C 
ENDROOT
BRANCH   1   2
ATOM      2  C   UNL A   1      31.363  28.697  24.209  1.00  0.00     0.261 C 
BRANCH   2   3
ATOM      3  O   UNL A   1      30.561  27.615  24.685  1.00  0.00    -0.463 OA
BRANCH   3   4
ATOM      4  C   UNL A   1      31.134  26.901  25.684  1.00  0.00     0.309 C 
ATOM      5  O   UNL A   1      30.919  27.051  26.881  1.00  0.00    -0.252 OA
BRANCH   4   6
ATOM      6  C   UNL A   1      32.125  25.891  25.173  1.00  0.00     0.102 C 
ATOM      7  N   UNL A   1      34.121  23.858  24.947  1.00  0.00    -0.198 NA
ATOM      8  C   UNL A   1      34.474  25.245  24.550  1.00  0.00     0.103 C 
ATOM      9  C   UNL A   1      32.726  23.501  25.309  1.00  0.00     0.103 C 
ATOM     10  C   UNL A   1      33.589  26.315  25.173  1.00  0.00     0.032 C 
ATOM     11  C   UNL A   1      31.997  24.629  26.004  1.00  0.00     0.032 C 
BRANCH   7  12
ATOM     12  S   UNL A   1      34.979  22.626  24.113  1.00  0.00     0.243 S 
ATOM     13  O   UNL A   1      35.230  23.123  22.769  1.00  0.00    -0.207 OA
ATOM     14  O   UNL A   1      34.298  21.379  24.349  1.00  0.00    -0.207 OA
BRANCH  12  15
ATOM     15  C   UNL A   1      36.576  22.497  24.903  1.00  0.00     0.085 A 
ATOM     16  C   UNL A   1      40.987  24.557  28.376  1.00  0.00     0.088 C 
ATOM     17  C   UNL A   1      39.994  23.885  27.498  1.00  0.00     0.106 A 
ATOM     18  N   UNL A   1      38.836  24.415  27.155  1.00  0.00    -0.233 NA
ATOM     19  N   UNL A   1      40.160  22.643  26.917  1.00  0.00    -0.325 N 
ATOM     20  C   UNL A   1      38.226  23.507  26.337  1.00  0.00     0.090 A 
ATOM     21  C   UNL A   1      39.029  22.383  26.168  1.00  0.00     0.068 A 
ATOM     22  C   UNL A   1      36.980  23.578  25.699  1.00  0.00     0.052 A 
ATOM     23  C   UNL A   1      38.639  21.301  25.380  1.00  0.00     0.030 A 
ATOM     24  C   UNL A   1      37.395  21.376  24.761  1.00  0.00     0.024 A 
BRANCH  19  25
ATOM     25  C   UNL A   1      41.306  21.763  27.055  1.00  0.00     0.089 C 
ATOM     26  C   UNL A   1      40.976  20.366  27.586  1.00  0.00     0.025 C 
ATOM     27  C   UNL A   1      42.069  21.506  25.751  1.00  0.00     0.025 C 
ATOM     28  C   UNL A   1      42.174  19.517  27.190  1.00  0.00     0.002 C 
ATOM     29  C   UNL A   1      42.771  20.165  25.942  1.00  0.00     0.002 C 
ENDBRANCH  19  25
ENDBRANCH  12  15
ENDBRANCH   7  12
ENDBRANCH   4   6
ENDBRANCH   3   4
ENDBRANCH   2   3
ENDBRANCH   1   2
BRANCH   1  30
ATOM     30  O   UNL A   1      31.311  30.696  25.793  1.00  0.00    -0.374 OA
BRANCH  30  31
ATOM     31  C   UNL A   1      32.570  30.265  26.312  1.00  0.00     0.202 C 
BRANCH  31  32
ATOM     32  C   UNL A   1      33.353  31.195  27.264  1.00  0.00     0.261 C 
BRANCH  32  33
ATOM     33  O   UNL A   1      34.663  30.685  27.559  1.00  0.00    -0.460 OA
BRANCH  33  34
ATOM     34  C   UNL A   1      35.398  31.449  28.417  1.00  0.00     0.338 C 
ATOM     35  O   UNL A   1      34.988  32.139  29.332  1.00  0.00    -0.246 OA
BRANCH  34  36
ATOM     36  C   UNL A   1      36.782  30.935  28.311  1.00  0.00     0.060 A 
ATOM     37  C   UNL A   1      37.037  29.672  27.771  1.00  0.00     0.016 A 
ATOM     38  C   UNL A   1      37.737  31.591  29.108  1.00  0.00     0.016 A 
ATOM     39  C   UNL A   1      38.211  29.018  28.127  1.00  0.00     0.010 A 
ATOM     40  C   UNL A   1      38.887  30.912  29.498  1.00  0.00     0.010 A 
ATOM     41  C   UNL A   1      39.101  29.609  29.045  1.00  0.00    -0.014 A 
BRANCH  41  42
ATOM     42  C   UNL A   1      40.348  28.904  29.358  1.00  0.00     0.031 A 
ATOM     43  C   UNL A   1      40.451  28.534  30.801  1.00  0.00     0.074 A 
ATOM     44  C   UNL A   1      41.271  28.474  28.469  1.00  0.00     0.049 A 
ATOM     45  N   UNL A   1      41.388  28.831  31.640  1.00  0.00    -0.248 NA
ATOM     46  C   UNL A   1      39.303  27.832  31.402  1.00  0.00     0.031 C 
ATOM     47  C   UNL A   1      41.212  28.469  27.005  1.00  0.00     0.029 A 
ATOM     48  N   UNL A   1      42.458  27.843  28.716  1.00  0.00    -0.354 N 
ATOM     49  C   UNL A   1      41.004  28.273  32.858  1.00  0.00     0.074 A 
ATOM     50  C   UNL A   1      39.672  27.757  32.678  1.00  0.00     0.031 C 
ATOM     51  C   UNL A   1      42.192  27.673  26.512  1.00  0.00     0.029 A 
ATOM     52  C   UNL A   1      43.027  27.218  27.609  1.00  0.00     0.049 A 
ATOM     53  H   UNL A   1      42.877  27.831  29.606  1.00  0.00     0.167 HD
ATOM     54  C   UNL A   1      41.849  28.156  33.918  1.00  0.00     0.031 A 
ATOM     55  C   UNL A   1      44.071  26.347  27.607  1.00  0.00     0.031 A 
ATOM     56  C   UNL A   1      42.993  29.012  33.793  1.00  0.00     0.049 A 
ATOM     57  C   UNL A   1      44.805  26.526  28.878  1.00  0.00     0.074 A 
ATOM     58  C   UNL A   1      43.173  30.380  33.812  1.00  0.00     0.029 A 
ATOM     59  N   UNL A   1      44.136  28.487  33.244  1.00  0.00    -0.354 N 
ATOM     60  N   UNL A   1      45.470  27.601  29.181  1.00  0.00    -0.248 NA
ATOM     61  C   UNL A   1      44.429  25.677  29.995  1.00  0.00     0.031 C 
ATOM     62  C   UNL A   1      44.172  30.628  32.829  1.00  0.00     0.029 A 
ATOM     63  C   UNL A   1      44.598  29.397  32.327  1.00  0.00     0.049 A 
ATOM     64  H   UNL A   1      44.547  27.620  33.467  1.00  0.00     0.167 HD
ATOM     65  C   UNL A   1      45.219  27.796  30.530  1.00  0.00     0.074 A 
ATOM     66  C   UNL A   1      44.637  26.538  30.995  1.00  0.00     0.031 C 
ATOM     67  C   UNL A   1      45.247  29.043  31.082  1.00  0.00     0.031 A 
BRANCH  54  68
ATOM     68  C   UNL A   1      41.742  27.078  34.959  1.00  0.00    -0.014 A 
ATOM     69  C   UNL A   1      42.073  25.734  34.699  1.00  0.00     0.009 A 
ATOM     70  C   UNL A   1      41.529  27.429  36.302  1.00  0.00     0.009 A 
ATOM     71  C   UNL A   1      42.170  24.783  35.717  1.00  0.00     0.001 A 
ATOM     72  C   UNL A   1      41.664  26.488  37.331  1.00  0.00     0.001 A 
ATOM     73  C   UNL A   1      41.984  25.166  37.037  1.00  0.00     0.000 A 
ENDBRANCH  54  68
BRANCH  55  74
ATOM     74  C   UNL A   1      44.245  25.109  26.807  1.00  0.00    -0.014 A 
ATOM     75  C   UNL A   1      44.807  23.967  27.403  1.00  0.00     0.009 A 
ATOM     76  C   UNL A   1      44.186  25.147  25.401  1.00  0.00     0.009 A 
ATOM     77  C   UNL A   1      45.338  22.928  26.629  1.00  0.00     0.001 A 
ATOM     78  C   UNL A   1      44.717  24.104  24.626  1.00  0.00     0.001 A 
ATOM     79  C   UNL A   1      45.310  23.004  25.241  1.00  0.00     0.000 A 
ENDBRANCH  55  74
BRANCH  67  80
ATOM     80  C   UNL A   1      45.743  30.197  30.235  1.00  0.00    -0.014 A 
ATOM     81  C   UNL A   1      47.021  30.712  30.505  1.00  0.00     0.009 A 
ATOM     82  C   UNL A   1      44.922  30.903  29.335  1.00  0.00     0.009 A 
ATOM     83  C   UNL A   1      47.456  31.904  29.921  1.00  0.00     0.001 A 
ATOM     84  C   UNL A   1      45.370  32.082  28.727  1.00  0.00     0.001 A 
ATOM     85  C   UNL A   1      46.631  32.589  29.033  1.00  0.00     0.000 A 
ENDBRANCH  67  80
ENDBRANCH  41  42
ENDBRANCH  34  36
ENDBRANCH  33  34
ENDBRANCH  32  33
ENDBRANCH  31  32
ENDBRANCH  30  31
ENDBRANCH   1  30
TORSDOF 17
ENDMDL
MODEL 3
REMARK VINA RESULT:     -11.3      2.808      8.547
REMARK SMILES Cc1nc2cc(S(=O)(=O)N3CCC(C(=O)OCCOCCOC(=O)c4ccc(-c5c6nc(c(-c7ccccc7)c7ccc([nH]7)c(-c7ccccc7)c7nc(c(-c8ccccc8)c8ccc5[nH]8)C=C7)C=C6)cc4)CC3)ccc2n1C1CCCC1
REMARK SMILES IDX 18 1 17 2 16 3 14 4 15 5 13 6 10 7 11 8 74 9 12 10 73 11
REMARK SMILES IDX 7 12 8 13 9 14 6 15 1 16 2 17 3 18 78 19 4 20 77 21 5 22
REMARK SMILES IDX 76 23 75 24 79 25 80 26 83 27 81 28 82 29 19 30 20 31 21 32
REMARK SMILES IDX 22 33 23 34 24 35 25 36 26 37 72 38 27 39 71 40 28 41 29 42
REMARK SMILES IDX 30 43 65 44 31 45 70 46 64 47 66 48 32 49 69 50 63 51 62 52
REMARK SMILES IDX 33 54 55 55 40 56 54 57 41 58 44 59 53 60 67 61 42 62 43 63
REMARK SMILES IDX 52 65 68 66 45 67 34 68 35 69 39 70 36 71 38 72 37 73 56 74
REMARK SMILES IDX 57 75 61 76 58 77 60 78 59 79 46 80 47 81 51 82 48 83 50 84
REMARK SMILES IDX 49 85
REMARK H PARENT 66 53 44 64
REMARK Flexibility Score: inf
ROOT
ATOM      1  C   UNL A   1      32.818  28.960  24.921  1.00  0.00     0.202 C 
ENDROOT
BRANCH   1   2
ATOM      2  C   UNL A   1      32.336  28.944  23.467  1.00  0.00     0.261 C 
BRANCH   2   3
ATOM      3  O   UNL A   1      32.886  27.865  22.710  1.00  0.00    -0.463 OA
BRANCH   3   4
ATOM      4  C   UNL A   1      31.996  26.887  22.417  1.00  0.00     0.309 C 
ATOM      5  O   UNL A   1      31.017  27.008  21.691  1.00  0.00    -0.252 OA
BRANCH   4   6
ATOM      6  C   UNL A   1      32.309  25.594  23.122  1.00  0.00     0.102 C 
ATOM      7  N   UNL A   1      32.571  22.842  23.845  1.00  0.00    -0.198 NA
ATOM      8  C   UNL A   1      31.627  23.691  24.616  1.00  0.00     0.103 C 
ATOM      9  C   UNL A   1      33.469  23.436  22.824  1.00  0.00     0.103 C 
ATOM     10  C   UNL A   1      31.160  24.935  23.875  1.00  0.00     0.032 C 
ATOM     11  C   UNL A   1      32.838  24.605  22.101  1.00  0.00     0.032 C 
BRANCH   7  12
ATOM     12  S   UNL A   1      33.258  21.538  24.728  1.00  0.00     0.243 S 
ATOM     13  O   UNL A   1      33.418  20.435  23.794  1.00  0.00    -0.207 OA
ATOM     14  O   UNL A   1      32.515  21.397  25.953  1.00  0.00    -0.207 OA
BRANCH  12  15
ATOM     15  C   UNL A   1      34.908  22.048  25.184  1.00  0.00     0.085 A 
ATOM     16  C   UNL A   1      40.722  21.041  26.154  1.00  0.00     0.088 C 
ATOM     17  C   UNL A   1      39.316  21.475  25.951  1.00  0.00     0.106 A 
ATOM     18  N   UNL A   1      38.344  20.668  25.570  1.00  0.00    -0.233 NA
ATOM     19  N   UNL A   1      38.844  22.757  26.149  1.00  0.00    -0.325 N 
ATOM     20  C   UNL A   1      37.213  21.432  25.514  1.00  0.00     0.090 A 
ATOM     21  C   UNL A   1      37.491  22.747  25.870  1.00  0.00     0.068 A 
ATOM     22  C   UNL A   1      35.905  21.063  25.165  1.00  0.00     0.052 A 
ATOM     23  C   UNL A   1      36.509  23.738  25.892  1.00  0.00     0.030 A 
ATOM     24  C   UNL A   1      35.217  23.364  25.532  1.00  0.00     0.024 A 
BRANCH  19  25
ATOM     25  C   UNL A   1      39.613  23.912  26.577  1.00  0.00     0.089 C 
ATOM     26  C   UNL A   1      38.783  25.027  27.220  1.00  0.00     0.025 C 
ATOM     27  C   UNL A   1      40.702  23.602  27.610  1.00  0.00     0.025 C 
ATOM     28  C   UNL A   1      39.797  25.854  27.995  1.00  0.00     0.002 C 
ATOM     29  C   UNL A   1      40.938  24.907  28.363  1.00  0.00     0.002 C 
ENDBRANCH  19  25
ENDBRANCH  12  15
ENDBRANCH   7  12
ENDBRANCH   4   6
ENDBRANCH   3   4
ENDBRANCH   2   3
ENDBRANCH   1   2
BRANCH   1  30
ATOM     30  O   UNL A   1      31.952  29.442  25.939  1.00  0.00    -0.374 OA
BRANCH  30  31
ATOM     31  C   UNL A   1      32.530  29.847  27.181  1.00  0.00     0.202 C 
BRANCH  31  32
ATOM     32  C   UNL A   1      33.309  31.178  27.253  1.00  0.00     0.261 C 
BRANCH  32  33
ATOM     33  O   UNL A   1      34.358  31.137  28.234  1.00  0.00    -0.460 OA
BRANCH  33  34
ATOM     34  C   UNL A   1      35.458  31.885  27.933  1.00  0.00     0.338 C 
ATOM     35  O   UNL A   1      35.491  33.060  27.617  1.00  0.00    -0.246 OA
BRANCH  34  36
ATOM     36  C   UNL A   1      36.607  31.134  28.487  1.00  0.00     0.060 A 
ATOM     37  C   UNL A   1      37.640  31.798  29.153  1.00  0.00     0.016 A 
ATOM     38  C   UNL A   1      36.785  29.834  27.983  1.00  0.00     0.016 A 
ATOM     39  C   UNL A   1      38.892  31.195  29.213  1.00  0.00     0.010 A 
ATOM     40  C   UNL A   1      38.050  29.258  28.005  1.00  0.00     0.010 A 
ATOM     41  C   UNL A   1      39.113  29.958  28.578  1.00  0.00    -0.014 A 
BRANCH  41  42
ATOM     42  C   UNL A   1      40.436  29.338  28.704  1.00  0.00     0.031 A 
ATOM     43  C   UNL A   1      40.764  28.965  30.112  1.00  0.00     0.074 A 
ATOM     44  C   UNL A   1      41.252  28.979  27.688  1.00  0.00     0.049 A 
ATOM     45  N   UNL A   1      41.786  29.320  30.818  1.00  0.00    -0.248 NA
ATOM     46  C   UNL A   1      39.761  28.182  30.854  1.00  0.00     0.031 C 
ATOM     47  C   UNL A   1      40.990  28.981  26.247  1.00  0.00     0.029 A 
ATOM     48  N   UNL A   1      42.502  28.429  27.758  1.00  0.00    -0.354 N 
ATOM     49  C   UNL A   1      41.615  28.728  32.068  1.00  0.00     0.074 A 
ATOM     50  C   UNL A   1      40.309  28.123  32.065  1.00  0.00     0.031 C 
ATOM     51  C   UNL A   1      41.943  28.257  25.609  1.00  0.00     0.029 A 
ATOM     52  C   UNL A   1      42.951  27.853  26.571  1.00  0.00     0.049 A 
ATOM     53  H   UNL A   1      43.041  28.439  28.580  1.00  0.00     0.167 HD
ATOM     54  C   UNL A   1      42.606  28.661  32.998  1.00  0.00     0.031 A 
ATOM     55  C   UNL A   1      44.040  27.055  26.411  1.00  0.00     0.031 A 
ATOM     56  C   UNL A   1      43.662  29.594  32.730  1.00  0.00     0.049 A 
ATOM     57  C   UNL A   1      44.931  27.275  27.570  1.00  0.00     0.074 A 
ATOM     58  C   UNL A   1      43.750  30.972  32.746  1.00  0.00     0.029 A 
ATOM     59  N   UNL A   1      44.748  29.154  32.019  1.00  0.00    -0.354 N 
ATOM     60  N   UNL A   1      45.559  28.391  27.796  1.00  0.00    -0.248 NA
ATOM     61  C   UNL A   1      44.772  26.394  28.714  1.00  0.00     0.031 C 
ATOM     62  C   UNL A   1      44.583  31.294  31.639  1.00  0.00     0.029 A 
ATOM     63  C   UNL A   1      45.016  30.100  31.062  1.00  0.00     0.049 A 
ATOM     64  H   UNL A   1      45.244  28.315  32.168  1.00  0.00     0.167 HD
ATOM     65  C   UNL A   1      45.486  28.558  29.169  1.00  0.00     0.074 A 
ATOM     66  C   UNL A   1      45.060  27.259  29.690  1.00  0.00     0.031 C 
ATOM     67  C   UNL A   1      45.507  29.800  29.733  1.00  0.00     0.031 A 
BRANCH  54  68
ATOM     68  C   UNL A   1      42.717  27.571  34.025  1.00  0.00    -0.014 A 
ATOM     69  C   UNL A   1      41.927  27.540  35.191  1.00  0.00     0.009 A 
ATOM     70  C   UNL A   1      43.457  26.414  33.731  1.00  0.00     0.009 A 
ATOM     71  C   UNL A   1      41.888  26.426  36.032  1.00  0.00     0.001 A 
ATOM     72  C   UNL A   1      43.389  25.279  34.550  1.00  0.00     0.001 A 
ATOM     73  C   UNL A   1      42.605  25.286  35.700  1.00  0.00     0.000 A 
ENDBRANCH  54  68
BRANCH  55  74
ATOM     74  C   UNL A   1      44.184  25.838  25.573  1.00  0.00    -0.014 A 
ATOM     75  C   UNL A   1      43.064  25.026  25.325  1.00  0.00     0.009 A 
ATOM     76  C   UNL A   1      45.454  25.293  25.307  1.00  0.00     0.009 A 
ATOM     77  C   UNL A   1      43.206  23.705  24.883  1.00  0.00     0.001 A 
ATOM     78  C   UNL A   1      45.596  23.970  24.862  1.00  0.00     0.001 A 
ATOM     79  C   UNL A   1      44.472  23.171  24.669  1.00  0.00     0.000 A 
ENDBRANCH  55  74
BRANCH  67  80
ATOM     80  C   UNL A   1      45.802  30.991  28.845  1.00  0.00    -0.014 A 
ATOM     81  C   UNL A   1      44.718  31.649  28.241  1.00  0.00     0.009 A 
ATOM     82  C   UNL A   1      47.101  31.347  28.437  1.00  0.00     0.009 A 
ATOM     83  C   UNL A   1      44.920  32.607  27.246  1.00  0.00     0.001 A 
ATOM     84  C   UNL A   1      47.303  32.329  27.459  1.00  0.00     0.001 A 
ATOM     85  C   UNL A   1      46.212  32.947  26.854  1.00  0.00     0.000 A 
ENDBRANCH  67  80
ENDBRANCH  41  42
ENDBRANCH  34  36
ENDBRANCH  33  34
ENDBRANCH  32  33
ENDBRANCH  31  32
ENDBRANCH  30  31
ENDBRANCH   1  30
TORSDOF 17
ENDMDL
