MODEL 1
REMARK VINA RESULT:     -11.8      0.000      0.000
REMARK SMILES Cc1ccc(-c2nc(C)cc(N3CCCC[C@H]3C(=O)OCCOCCOC(=O)c3ccc(-c4c5nc(c(-c6ccccc6)c6ccc([nH]6)c(-c6ccccc6)c6nc(c(-c7ccccc7)c7ccc4[nH]7)C=C6)C=C5)cc3)n2)cc1
REMARK SMILES IDX 23 1 22 2 21 3 20 4 18 5 19 6 17 7 12 8 13 9 14 10 16 11
REMARK SMILES IDX 15 12 11 13 6 14 7 15 77 16 8 17 9 18 10 19 5 20 1 21 2 22
REMARK SMILES IDX 3 23 79 24 4 25 78 26 24 27 25 28 26 29 27 30 28 31 29 32
REMARK SMILES IDX 30 33 76 34 31 35 75 36 32 37 33 38 34 39 69 40 35 41 74 42
REMARK SMILES IDX 68 43 70 44 36 45 73 46 67 47 66 48 37 50 59 51 44 52 58 53
REMARK SMILES IDX 45 54 48 55 57 56 71 57 46 58 47 59 56 61 72 62 49 63 38 64
REMARK SMILES IDX 39 65 43 66 40 67 42 68 41 69 60 70 61 71 65 72 62 73 64 74
REMARK SMILES IDX 63 75 50 76 51 77 55 78 52 79 54 80 53 81
REMARK H PARENT 70 49 48 60
REMARK Flexibility Score: inf
ROOT
ATOM      1  O   UNL A   1      35.733  21.591  25.050  1.00  0.00    -0.374 OA
ENDROOT
BRANCH   1   2
ATOM      2  C   UNL A   1      34.359  21.682  25.374  1.00  0.00     0.202 C 
BRANCH   2   3
ATOM      3  C   UNL A   1      34.203  22.755  26.416  1.00  0.00     0.261 C 
BRANCH   3   4
ATOM      4  O   UNL A   1      33.426  23.887  25.989  1.00  0.00    -0.462 OA
BRANCH   4   5
ATOM      5  C   UNL A   1      32.114  24.024  26.321  1.00  0.00     0.328 C 
ATOM      6  O   UNL A   1      31.605  23.701  27.386  1.00  0.00    -0.250 OA
BRANCH   5   7
ATOM      7  C   UNL A   1      31.365  24.700  25.167  1.00  0.00     0.193 C 
ATOM      8  N   UNL A   1      32.234  25.676  24.514  1.00  0.00    -0.343 N 
ATOM      9  C   UNL A   1      33.228  25.287  23.522  1.00  0.00     0.119 C 
ATOM     10  C   UNL A   1      32.806  24.138  22.611  1.00  0.00     0.022 C 
ATOM     11  C   UNL A   1      30.826  23.719  24.106  1.00  0.00     0.037 C 
ATOM     12  C   UNL A   1      31.930  23.083  23.260  1.00  0.00     0.005 C 
BRANCH   8  13
ATOM     13  C   UNL A   1      31.990  27.015  24.676  1.00  0.00     0.133 A 
ATOM     14  C   UNL A   1      32.619  28.932  25.754  1.00  0.00     0.161 A 
ATOM     15  N   UNL A   1      31.684  29.698  25.177  1.00  0.00    -0.233 NA
ATOM     16  N   UNL A   1      32.782  27.621  25.552  1.00  0.00    -0.211 NA
ATOM     17  C   UNL A   1      30.886  29.069  24.286  1.00  0.00     0.043 A 
ATOM     18  C   UNL A   1      29.849  29.916  23.608  1.00  0.00     0.067 C 
ATOM     19  C   UNL A   1      31.019  27.720  23.991  1.00  0.00     0.070 A 
BRANCH  14  20
ATOM     20  C   UNL A   1      33.612  29.506  26.648  1.00  0.00     0.019 A 
ATOM     21  C   UNL A   1      36.684  31.543  28.886  1.00  0.00     0.044 C 
ATOM     22  C   UNL A   1      35.605  30.832  28.128  1.00  0.00    -0.051 A 
ATOM     23  C   UNL A   1      35.833  29.546  27.616  1.00  0.00     0.004 A 
ATOM     24  C   UNL A   1      34.373  31.451  27.907  1.00  0.00     0.004 A 
ATOM     25  C   UNL A   1      34.840  28.884  26.888  1.00  0.00     0.012 A 
ATOM     26  C   UNL A   1      33.392  30.794  27.174  1.00  0.00     0.012 A 
ENDBRANCH  14  20
ENDBRANCH   8  13
ENDBRANCH   5   7
ENDBRANCH   4   5
ENDBRANCH   3   4
ENDBRANCH   2   3
ENDBRANCH   1   2
BRANCH   1  27
ATOM     27  C   UNL A   1      36.283  20.287  24.983  1.00  0.00     0.202 C 
BRANCH  27  28
ATOM     28  C   UNL A   1      37.819  20.259  24.938  1.00  0.00     0.261 C 
BRANCH  28  29
ATOM     29  O   UNL A   1      38.370  21.558  25.258  1.00  0.00    -0.460 OA
BRANCH  29  30
ATOM     30  C   UNL A   1      39.553  21.575  25.928  1.00  0.00     0.338 C 
ATOM     31  O   UNL A   1      40.384  20.668  25.916  1.00  0.00    -0.246 OA
BRANCH  30  32
ATOM     32  C   UNL A   1      39.578  22.707  26.897  1.00  0.00     0.060 A 
ATOM     33  C   UNL A   1      39.009  23.953  26.568  1.00  0.00     0.016 A 
ATOM     34  C   UNL A   1      40.497  22.622  27.934  1.00  0.00     0.016 A 
ATOM     35  C   UNL A   1      39.497  25.127  27.166  1.00  0.00     0.010 A 
ATOM     36  C   UNL A   1      41.109  23.780  28.347  1.00  0.00     0.010 A 
ATOM     37  C   UNL A   1      40.619  25.042  27.987  1.00  0.00    -0.014 A 
BRANCH  37  38
ATOM     38  C   UNL A   1      41.412  26.153  28.517  1.00  0.00     0.031 A 
ATOM     39  C   UNL A   1      40.666  27.301  29.077  1.00  0.00     0.074 A 
ATOM     40  C   UNL A   1      42.757  26.089  28.688  1.00  0.00     0.049 A 
ATOM     41  N   UNL A   1      41.155  28.488  29.161  1.00  0.00    -0.248 NA
ATOM     42  C   UNL A   1      39.277  27.237  29.538  1.00  0.00     0.031 C 
ATOM     43  C   UNL A   1      43.604  26.896  29.568  1.00  0.00     0.029 A 
ATOM     44  N   UNL A   1      43.678  25.258  28.056  1.00  0.00    -0.354 N 
ATOM     45  C   UNL A   1      40.322  29.209  29.980  1.00  0.00     0.074 A 
ATOM     46  C   UNL A   1      39.111  28.441  30.081  1.00  0.00     0.031 C 
ATOM     47  C   UNL A   1      44.898  26.711  29.244  1.00  0.00     0.029 A 
ATOM     48  C   UNL A   1      44.941  25.860  28.067  1.00  0.00     0.049 A 
ATOM     49  H   UNL A   1      43.472  24.380  27.662  1.00  0.00     0.167 HD
ATOM     50  C   UNL A   1      40.816  30.291  30.637  1.00  0.00     0.031 A 
ATOM     51  C   UNL A   1      45.608  26.064  26.899  1.00  0.00     0.031 A 
ATOM     52  C   UNL A   1      42.237  30.483  30.330  1.00  0.00     0.049 A 
ATOM     53  C   UNL A   1      45.676  27.545  26.653  1.00  0.00     0.074 A 
ATOM     54  C   UNL A   1      43.394  30.193  31.036  1.00  0.00     0.029 A 
ATOM     55  N   UNL A   1      42.628  30.676  29.008  1.00  0.00    -0.354 N 
ATOM     56  N   UNL A   1      44.879  28.382  27.258  1.00  0.00    -0.248 NA
ATOM     57  C   UNL A   1      46.645  28.217  25.798  1.00  0.00     0.031 C 
ATOM     58  C   UNL A   1      44.479  30.176  30.114  1.00  0.00     0.029 A 
ATOM     59  C   UNL A   1      43.989  30.484  28.856  1.00  0.00     0.049 A 
ATOM     60  H   UNL A   1      42.015  30.919  28.276  1.00  0.00     0.167 HD
ATOM     61  C   UNL A   1      45.249  29.656  26.976  1.00  0.00     0.074 A 
ATOM     62  C   UNL A   1      46.334  29.508  26.020  1.00  0.00     0.031 C 
ATOM     63  C   UNL A   1      44.633  30.720  27.564  1.00  0.00     0.031 A 
BRANCH  50  64
ATOM     64  C   UNL A   1      40.088  30.964  31.774  1.00  0.00    -0.014 A 
ATOM     65  C   UNL A   1      39.171  31.992  31.498  1.00  0.00     0.009 A 
ATOM     66  C   UNL A   1      40.265  30.649  33.134  1.00  0.00     0.009 A 
ATOM     67  C   UNL A   1      38.527  32.708  32.517  1.00  0.00     0.001 A 
ATOM     68  C   UNL A   1      39.662  31.387  34.160  1.00  0.00     0.001 A 
ATOM     69  C   UNL A   1      38.791  32.421  33.850  1.00  0.00     0.000 A 
ENDBRANCH  50  64
BRANCH  51  70
ATOM     70  C   UNL A   1      45.368  24.963  25.910  1.00  0.00    -0.014 A 
ATOM     71  C   UNL A   1      46.035  23.736  26.132  1.00  0.00     0.009 A 
ATOM     72  C   UNL A   1      44.198  24.941  25.133  1.00  0.00     0.009 A 
ATOM     73  C   UNL A   1      45.483  22.520  25.700  1.00  0.00     0.001 A 
ATOM     74  C   UNL A   1      43.639  23.719  24.722  1.00  0.00     0.001 A 
ATOM     75  C   UNL A   1      44.262  22.511  25.031  1.00  0.00     0.000 A 
ENDBRANCH  51  70
BRANCH  63  76
ATOM     76  C   UNL A   1      44.628  32.112  27.004  1.00  0.00    -0.014 A 
ATOM     77  C   UNL A   1      43.970  32.469  25.821  1.00  0.00     0.009 A 
ATOM     78  C   UNL A   1      45.155  33.165  27.784  1.00  0.00     0.009 A 
ATOM     79  C   UNL A   1      43.887  33.803  25.414  1.00  0.00     0.001 A 
ATOM     80  C   UNL A   1      45.014  34.500  27.417  1.00  0.00     0.001 A 
ATOM     81  C   UNL A   1      44.394  34.818  26.219  1.00  0.00     0.000 A 
ENDBRANCH  63  76
ENDBRANCH  37  38
ENDBRANCH  30  32
ENDBRANCH  29  30
ENDBRANCH  28  29
ENDBRANCH  27  28
ENDBRANCH   1  27
TORSDOF 16
ENDMDL
MODEL 2
REMARK VINA RESULT:     -11.8      2.917      8.551
REMARK SMILES Cc1ccc(-c2nc(C)cc(N3CCCC[C@H]3C(=O)OCCOCCOC(=O)c3ccc(-c4c5nc(c(-c6ccccc6)c6ccc([nH]6)c(-c6ccccc6)c6nc(c(-c7ccccc7)c7ccc4[nH]7)C=C6)C=C5)cc3)n2)cc1
REMARK SMILES IDX 23 1 22 2 21 3 20 4 18 5 19 6 17 7 12 8 13 9 14 10 16 11
REMARK SMILES IDX 15 12 11 13 6 14 7 15 77 16 8 17 9 18 10 19 5 20 1 21 2 22
REMARK SMILES IDX 3 23 79 24 4 25 78 26 24 27 25 28 26 29 27 30 28 31 29 32
REMARK SMILES IDX 30 33 76 34 31 35 75 36 32 37 33 38 34 39 69 40 35 41 74 42
REMARK SMILES IDX 68 43 70 44 36 45 73 46 67 47 66 48 37 50 59 51 44 52 58 53
REMARK SMILES IDX 45 54 48 55 57 56 71 57 46 58 47 59 56 61 72 62 49 63 38 64
REMARK SMILES IDX 39 65 43 66 40 67 42 68 41 69 60 70 61 71 65 72 62 73 64 74
REMARK SMILES IDX 63 75 50 76 51 77 55 78 52 79 54 80 53 81
REMARK H PARENT 70 49 48 60
REMARK Flexibility Score: inf
ROOT
ATOM      1  O   UNL A   1      31.850  29.610  26.012  1.00  0.00    -0.374 OA
ENDROOT
BRANCH   1   2
ATOM      2  C   UNL A   1      31.678  29.179  24.675  1.00  0.00     0.202 C 
BRANCH   2   3
ATOM      3  C   UNL A   1      33.034  28.838  24.125  1.00  0.00     0.261 C 
BRANCH   3   4
ATOM      4  O   UNL A   1      33.218  27.443  23.826  1.00  0.00    -0.462 OA
BRANCH   4   5
ATOM      5  C   UNL A   1      33.119  26.484  24.786  1.00  0.00     0.328 C 
ATOM      6  O   UNL A   1      33.585  26.548  25.915  1.00  0.00    -0.250 OA
BRANCH   5   7
ATOM      7  C   UNL A   1      32.278  25.318  24.253  1.00  0.00     0.193 C 
ATOM      8  N   UNL A   1      32.227  24.248  25.245  1.00  0.00    -0.343 N 
ATOM      9  C   UNL A   1      31.304  24.280  26.373  1.00  0.00     0.119 C 
ATOM     10  C   UNL A   1      29.942  24.895  26.067  1.00  0.00     0.022 C 
ATOM     11  C   UNL A   1      30.839  25.708  23.861  1.00  0.00     0.037 C 
ATOM     12  C   UNL A   1      29.955  26.035  25.066  1.00  0.00     0.005 C 
BRANCH   8  13
ATOM     13  C   UNL A   1      32.913  23.082  25.021  1.00  0.00     0.133 A 
ATOM     14  C   UNL A   1      34.968  22.077  24.992  1.00  0.00     0.161 A 
ATOM     15  N   UNL A   1      34.501  20.879  24.615  1.00  0.00    -0.233 NA
ATOM     16  N   UNL A   1      34.229  23.175  25.176  1.00  0.00    -0.211 NA
ATOM     17  C   UNL A   1      33.161  20.798  24.463  1.00  0.00     0.043 A 
ATOM     18  C   UNL A   1      32.616  19.457  24.067  1.00  0.00     0.067 C 
ATOM     19  C   UNL A   1      32.322  21.883  24.676  1.00  0.00     0.070 A 
BRANCH  14  20
ATOM     20  C   UNL A   1      36.376  22.271  25.296  1.00  0.00     0.019 A 
ATOM     21  C   UNL A   1      40.453  22.583  26.666  1.00  0.00     0.044 C 
ATOM     22  C   UNL A   1      39.045  22.474  26.168  1.00  0.00    -0.051 A 
ATOM     23  C   UNL A   1      38.192  23.587  26.214  1.00  0.00     0.004 A 
ATOM     24  C   UNL A   1      38.563  21.260  25.675  1.00  0.00     0.004 A 
ATOM     25  C   UNL A   1      36.870  23.489  25.772  1.00  0.00     0.012 A 
ATOM     26  C   UNL A   1      37.244  21.163  25.247  1.00  0.00     0.012 A 
ENDBRANCH  14  20
ENDBRANCH   8  13
ENDBRANCH   5   7
ENDBRANCH   4   5
ENDBRANCH   3   4
ENDBRANCH   2   3
ENDBRANCH   1   2
BRANCH   1  27
ATOM     27  C   UNL A   1      33.181  29.847  26.436  1.00  0.00     0.202 C 
BRANCH  27  28
ATOM     28  C   UNL A   1      33.346  31.105  27.302  1.00  0.00     0.261 C 
BRANCH  28  29
ATOM     29  O   UNL A   1      34.258  30.863  28.398  1.00  0.00    -0.460 OA
BRANCH  29  30
ATOM     30  C   UNL A   1      35.537  31.296  28.241  1.00  0.00     0.338 C 
ATOM     31  O   UNL A   1      35.859  32.403  27.811  1.00  0.00    -0.246 OA
BRANCH  30  32
ATOM     32  C   UNL A   1      36.487  30.158  28.390  1.00  0.00     0.060 A 
ATOM     33  C   UNL A   1      36.570  29.438  29.597  1.00  0.00     0.016 A 
ATOM     34  C   UNL A   1      37.529  30.089  27.475  1.00  0.00     0.016 A 
ATOM     35  C   UNL A   1      37.769  28.798  29.952  1.00  0.00     0.010 A 
ATOM     36  C   UNL A   1      38.751  29.650  27.923  1.00  0.00     0.010 A 
ATOM     37  C   UNL A   1      38.892  28.992  29.151  1.00  0.00    -0.014 A 
BRANCH  37  38
ATOM     38  C   UNL A   1      40.272  28.609  29.457  1.00  0.00     0.031 A 
ATOM     39  C   UNL A   1      40.832  27.463  28.708  1.00  0.00     0.074 A 
ATOM     40  C   UNL A   1      41.095  29.359  30.233  1.00  0.00     0.049 A 
ATOM     41  N   UNL A   1      41.804  26.742  29.142  1.00  0.00    -0.248 NA
ATOM     42  C   UNL A   1      40.310  26.981  27.426  1.00  0.00     0.031 C 
ATOM     43  C   UNL A   1      42.558  29.356  30.280  1.00  0.00     0.029 A 
ATOM     44  N   UNL A   1      40.761  30.307  31.197  1.00  0.00    -0.354 N 
ATOM     45  C   UNL A   1      42.245  25.983  28.086  1.00  0.00     0.074 A 
ATOM     46  C   UNL A   1      41.213  26.063  27.089  1.00  0.00     0.031 C 
ATOM     47  C   UNL A   1      42.977  30.039  31.363  1.00  0.00     0.029 A 
ATOM     48  C   UNL A   1      41.801  30.421  32.125  1.00  0.00     0.049 A 
ATOM     49  H   UNL A   1      39.920  30.819  31.222  1.00  0.00     0.167 HD
ATOM     50  C   UNL A   1      43.522  25.518  28.095  1.00  0.00     0.031 A 
ATOM     51  C   UNL A   1      41.554  30.234  33.451  1.00  0.00     0.031 A 
ATOM     52  C   UNL A   1      44.227  25.955  29.303  1.00  0.00     0.049 A 
ATOM     53  C   UNL A   1      42.245  28.971  33.881  1.00  0.00     0.074 A 
ATOM     54  C   UNL A   1      45.156  26.957  29.533  1.00  0.00     0.029 A 
ATOM     55  N   UNL A   1      43.724  25.599  30.552  1.00  0.00    -0.354 N 
ATOM     56  N   UNL A   1      42.636  28.071  33.021  1.00  0.00    -0.248 NA
ATOM     57  C   UNL A   1      42.618  28.634  35.248  1.00  0.00     0.031 C 
ATOM     58  C   UNL A   1      45.176  27.225  30.931  1.00  0.00     0.029 A 
ATOM     59  C   UNL A   1      44.283  26.369  31.554  1.00  0.00     0.049 A 
ATOM     60  H   UNL A   1      43.057  24.890  30.702  1.00  0.00     0.167 HD
ATOM     61  C   UNL A   1      43.360  27.113  33.652  1.00  0.00     0.074 A 
ATOM     62  C   UNL A   1      43.287  27.481  35.056  1.00  0.00     0.031 C 
ATOM     63  C   UNL A   1      43.963  26.109  32.958  1.00  0.00     0.031 A 
BRANCH  50  64
ATOM     64  C   UNL A   1      44.193  24.941  26.873  1.00  0.00    -0.014 A 
ATOM     65  C   UNL A   1      43.916  23.618  26.489  1.00  0.00     0.009 A 
ATOM     66  C   UNL A   1      45.115  25.633  26.067  1.00  0.00     0.009 A 
ATOM     67  C   UNL A   1      44.570  23.003  25.413  1.00  0.00     0.001 A 
ATOM     68  C   UNL A   1      45.808  25.014  25.018  1.00  0.00     0.001 A 
ATOM     69  C   UNL A   1      45.535  23.694  24.692  1.00  0.00     0.000 A 
ENDBRANCH  50  64
BRANCH  51  70
ATOM     70  C   UNL A   1      40.201  30.741  33.852  1.00  0.00    -0.014 A 
ATOM     71  C   UNL A   1      40.057  32.137  34.025  1.00  0.00     0.009 A 
ATOM     72  C   UNL A   1      39.045  29.994  33.573  1.00  0.00     0.009 A 
ATOM     73  C   UNL A   1      38.827  32.775  33.801  1.00  0.00     0.001 A 
ATOM     74  C   UNL A   1      37.821  30.639  33.331  1.00  0.00     0.001 A 
ATOM     75  C   UNL A   1      37.719  32.027  33.413  1.00  0.00     0.000 A 
ENDBRANCH  51  70
BRANCH  63  76
ATOM     76  C   UNL A   1      44.370  24.793  33.554  1.00  0.00    -0.014 A 
ATOM     77  C   UNL A   1      45.696  24.352  33.629  1.00  0.00     0.009 A 
ATOM     78  C   UNL A   1      43.403  24.025  34.239  1.00  0.00     0.009 A 
ATOM     79  C   UNL A   1      46.032  23.180  34.309  1.00  0.00     0.001 A 
ATOM     80  C   UNL A   1      43.742  22.894  34.977  1.00  0.00     0.001 A 
ATOM     81  C   UNL A   1      45.059  22.461  34.996  1.00  0.00     0.000 A 
ENDBRANCH  63  76
ENDBRANCH  37  38
ENDBRANCH  30  32
ENDBRANCH  29  30
ENDBRANCH  28  29
ENDBRANCH  27  28
ENDBRANCH   1  27
TORSDOF 16
ENDMDL
MODEL 3
REMARK VINA RESULT:     -11.8      3.002      8.944
REMARK SMILES Cc1ccc(-c2nc(C)cc(N3CCCC[C@H]3C(=O)OCCOCCOC(=O)c3ccc(-c4c5nc(c(-c6ccccc6)c6ccc([nH]6)c(-c6ccccc6)c6nc(c(-c7ccccc7)c7ccc4[nH]7)C=C6)C=C5)cc3)n2)cc1
REMARK SMILES IDX 23 1 22 2 21 3 20 4 18 5 19 6 17 7 12 8 13 9 14 10 16 11
REMARK SMILES IDX 15 12 11 13 6 14 7 15 77 16 8 17 9 18 10 19 5 20 1 21 2 22
REMARK SMILES IDX 3 23 79 24 4 25 78 26 24 27 25 28 26 29 27 30 28 31 29 32
REMARK SMILES IDX 30 33 76 34 31 35 75 36 32 37 33 38 34 39 69 40 35 41 74 42
REMARK SMILES IDX 68 43 70 44 36 45 73 46 67 47 66 48 37 50 59 51 44 52 58 53
REMARK SMILES IDX 45 54 48 55 57 56 71 57 46 58 47 59 56 61 72 62 49 63 38 64
REMARK SMILES IDX 39 65 43 66 40 67 42 68 41 69 60 70 61 71 65 72 62 73 64 74
REMARK SMILES IDX 63 75 50 76 51 77 55 78 52 79 54 80 53 81
REMARK H PARENT 70 49 48 60
REMARK Flexibility Score: inf
ROOT
ATOM      1  O   UNL A   1      31.794  29.460  25.552  1.00  0.00    -0.374 OA
ENDROOT
BRANCH   1   2
ATOM      2  C   UNL A   1      31.722  29.021  24.210  1.00  0.00     0.202 C 
BRANCH   2   3
ATOM      3  C   UNL A   1      33.104  28.609  23.786  1.00  0.00     0.261 C 
BRANCH   3   4
ATOM      4  O   UNL A   1      33.215  27.235  23.378  1.00  0.00    -0.462 OA
BRANCH   4   5
ATOM      5  C   UNL A   1      33.553  26.251  24.254  1.00  0.00     0.328 C 
ATOM      6  O   UNL A   1      33.889  26.412  25.419  1.00  0.00    -0.250 OA
BRANCH   5   7
ATOM      7  C   UNL A   1      33.398  24.887  23.571  1.00  0.00     0.193 C 
ATOM      8  N   UNL A   1      33.224  23.844  24.577  1.00  0.00    -0.343 N 
ATOM      9  C   UNL A   1      31.935  23.577  25.202  1.00  0.00     0.119 C 
ATOM     10  C   UNL A   1      30.731  23.743  24.280  1.00  0.00     0.022 C 
ATOM     11  C   UNL A   1      32.230  24.816  22.567  1.00  0.00     0.037 C 
ATOM     12  C   UNL A   1      30.857  24.840  23.240  1.00  0.00     0.005 C 
BRANCH   8  13
ATOM     13  C   UNL A   1      34.239  22.951  24.810  1.00  0.00     0.133 A 
ATOM     14  C   UNL A   1      34.799  20.744  25.023  1.00  0.00     0.161 A 
ATOM     15  N   UNL A   1      36.096  20.980  25.265  1.00  0.00    -0.233 NA
ATOM     16  N   UNL A   1      33.865  21.677  24.820  1.00  0.00    -0.211 NA
ATOM     17  C   UNL A   1      36.462  22.280  25.249  1.00  0.00     0.043 A 
ATOM     18  C   UNL A   1      37.916  22.564  25.492  1.00  0.00     0.067 C 
ATOM     19  C   UNL A   1      35.559  23.305  25.005  1.00  0.00     0.070 A 
BRANCH  14  20
ATOM     20  C   UNL A   1      34.294  19.385  24.902  1.00  0.00     0.019 A 
ATOM     21  C   UNL A   1      32.822  15.336  25.090  1.00  0.00     0.044 C 
ATOM     22  C   UNL A   1      33.321  16.746  25.006  1.00  0.00    -0.051 A 
ATOM     23  C   UNL A   1      34.642  17.005  24.612  1.00  0.00     0.004 A 
ATOM     24  C   UNL A   1      32.483  17.812  25.339  1.00  0.00     0.004 A 
ATOM     25  C   UNL A   1      35.123  18.316  24.552  1.00  0.00     0.012 A 
ATOM     26  C   UNL A   1      32.967  19.114  25.288  1.00  0.00     0.012 A 
ENDBRANCH  14  20
ENDBRANCH   8  13
ENDBRANCH   5   7
ENDBRANCH   4   5
ENDBRANCH   3   4
ENDBRANCH   2   3
ENDBRANCH   1   2
BRANCH   1  27
ATOM     27  C   UNL A   1      33.082  29.781  26.046  1.00  0.00     0.202 C 
BRANCH  27  28
ATOM     28  C   UNL A   1      33.121  31.050  26.912  1.00  0.00     0.261 C 
BRANCH  28  29
ATOM     29  O   UNL A   1      33.907  30.838  28.107  1.00  0.00    -0.460 OA
BRANCH  29  30
ATOM     30  C   UNL A   1      35.200  31.258  28.075  1.00  0.00     0.338 C 
ATOM     31  O   UNL A   1      35.577  32.349  27.648  1.00  0.00    -0.246 OA
BRANCH  30  32
ATOM     32  C   UNL A   1      36.118  30.120  28.362  1.00  0.00     0.060 A 
ATOM     33  C   UNL A   1      36.336  29.682  29.683  1.00  0.00     0.016 A 
ATOM     34  C   UNL A   1      37.022  29.779  27.366  1.00  0.00     0.016 A 
ATOM     35  C   UNL A   1      37.548  29.057  30.023  1.00  0.00     0.010 A 
ATOM     36  C   UNL A   1      38.276  29.369  27.748  1.00  0.00     0.010 A 
ATOM     37  C   UNL A   1      38.558  28.992  29.066  1.00  0.00    -0.014 A 
BRANCH  37  38
ATOM     38  C   UNL A   1      39.951  28.594  29.278  1.00  0.00     0.031 A 
ATOM     39  C   UNL A   1      40.373  27.297  28.705  1.00  0.00     0.074 A 
ATOM     40  C   UNL A   1      40.890  29.428  29.794  1.00  0.00     0.049 A 
ATOM     41  N   UNL A   1      41.366  26.616  29.155  1.00  0.00    -0.248 NA
ATOM     42  C   UNL A   1      39.678  26.615  27.610  1.00  0.00     0.031 C 
ATOM     43  C   UNL A   1      42.346  29.348  29.670  1.00  0.00     0.029 A 
ATOM     44  N   UNL A   1      40.711  30.557  30.589  1.00  0.00    -0.354 N 
ATOM     45  C   UNL A   1      41.645  25.648  28.222  1.00  0.00     0.074 A 
ATOM     46  C   UNL A   1      40.500  25.599  27.354  1.00  0.00     0.031 C 
ATOM     47  C   UNL A   1      42.921  30.197  30.545  1.00  0.00     0.029 A 
ATOM     48  C   UNL A   1      41.862  30.782  31.351  1.00  0.00     0.049 A 
ATOM     49  H   UNL A   1      39.899  31.112  30.611  1.00  0.00     0.167 HD
ATOM     50  C   UNL A   1      42.896  25.119  28.172  1.00  0.00     0.031 A 
ATOM     51  C   UNL A   1      41.777  30.862  32.707  1.00  0.00     0.031 A 
ATOM     52  C   UNL A   1      43.762  25.733  29.183  1.00  0.00     0.049 A 
ATOM     53  C   UNL A   1      42.472  29.665  33.289  1.00  0.00     0.074 A 
ATOM     54  C   UNL A   1      44.746  26.705  29.106  1.00  0.00     0.029 A 
ATOM     55  N   UNL A   1      43.406  25.648  30.527  1.00  0.00    -0.354 N 
ATOM     56  N   UNL A   1      42.721  28.598  32.580  1.00  0.00    -0.248 NA
ATOM     57  C   UNL A   1      43.001  29.569  34.643  1.00  0.00     0.031 C 
ATOM     58  C   UNL A   1      44.950  27.230  30.414  1.00  0.00     0.029 A 
ATOM     59  C   UNL A   1      44.113  26.559  31.290  1.00  0.00     0.049 A 
ATOM     60  H   UNL A   1      42.739  25.019  30.887  1.00  0.00     0.167 HD
ATOM     61  C   UNL A   1      43.485  27.736  33.297  1.00  0.00     0.074 A 
ATOM     62  C   UNL A   1      43.601  28.364  34.602  1.00  0.00     0.031 C 
ATOM     63  C   UNL A   1      43.962  26.585  32.745  1.00  0.00     0.031 A 
BRANCH  50  64
ATOM     64  C   UNL A   1      43.388  24.285  27.016  1.00  0.00    -0.014 A 
ATOM     65  C   UNL A   1      43.984  24.916  25.911  1.00  0.00     0.009 A 
ATOM     66  C   UNL A   1      43.284  22.884  26.939  1.00  0.00     0.009 A 
ATOM     67  C   UNL A   1      44.385  24.202  24.773  1.00  0.00     0.001 A 
ATOM     68  C   UNL A   1      43.640  22.167  25.790  1.00  0.00     0.001 A 
ATOM     69  C   UNL A   1      44.191  22.828  24.703  1.00  0.00     0.000 A 
ENDBRANCH  50  64
BRANCH  51  70
ATOM     70  C   UNL A   1      40.503  31.513  33.156  1.00  0.00    -0.014 A 
ATOM     71  C   UNL A   1      40.212  32.796  32.637  1.00  0.00     0.009 A 
ATOM     72  C   UNL A   1      39.429  30.738  33.625  1.00  0.00     0.009 A 
ATOM     73  C   UNL A   1      38.888  33.232  32.475  1.00  0.00     0.001 A 
ATOM     74  C   UNL A   1      38.105  31.171  33.442  1.00  0.00     0.001 A 
ATOM     75  C   UNL A   1      37.834  32.399  32.841  1.00  0.00     0.000 A 
ENDBRANCH  51  70
BRANCH  63  76
ATOM     76  C   UNL A   1      44.393  25.383  33.532  1.00  0.00    -0.014 A 
ATOM     77  C   UNL A   1      43.502  24.526  34.189  1.00  0.00     0.009 A 
ATOM     78  C   UNL A   1      45.744  24.976  33.473  1.00  0.00     0.009 A 
ATOM     79  C   UNL A   1      43.946  23.350  34.797  1.00  0.00     0.001 A 
ATOM     80  C   UNL A   1      46.178  23.771  34.019  1.00  0.00     0.001 A 
ATOM     81  C   UNL A   1      45.279  22.965  34.698  1.00  0.00     0.000 A 
ENDBRANCH  63  76
ENDBRANCH  37  38
ENDBRANCH  30  32
ENDBRANCH  29  30
ENDBRANCH  28  29
ENDBRANCH  27  28
ENDBRANCH   1  27
TORSDOF 16
ENDMDL
