MODEL 1
REMARK VINA RESULT:     -10.7      0.000      0.000
REMARK SMILES C[C@@H](C(=O)OCCOCCOC(=O)c1ccc(-c2c3nc(c(-c4ccccc4)c4ccc([nH]4)c(-c4ccccc4)c4nc(c(-c5ccccc5)c5ccc2[nH]5)C=C4)C=C3)cc1)c1ccccc1-c1ccn(C(F)F)c(=O)c1
REMARK SMILES IDX 7 1 6 2 5 3 3 4 4 5 2 6 1 7 62 8 63 9 67 10 64 11 66 12
REMARK SMILES IDX 65 13 68 14 69 15 77 16 70 17 75 18 71 19 76 20 72 21 73 22
REMARK SMILES IDX 74 23 8 24 9 25 10 26 11 27 12 28 13 29 14 30 15 31 61 32
REMARK SMILES IDX 16 33 60 34 17 35 18 36 19 37 54 38 20 39 59 40 53 41 55 42
REMARK SMILES IDX 21 43 58 44 52 45 51 46 22 48 44 49 29 50 43 51 30 52 33 53
REMARK SMILES IDX 42 54 56 55 31 56 32 57 41 59 57 60 34 61 23 62 24 63 28 64
REMARK SMILES IDX 25 65 27 66 26 67 45 68 46 69 50 70 47 71 49 72 48 73 35 74
REMARK SMILES IDX 36 75 40 76 37 77 39 78 38 79
REMARK H PARENT 55 47 33 58
REMARK Flexibility Score: inf
ROOT
ATOM      1  C   UNL A   1      34.399  29.030  26.978  1.00  0.00     0.202 C 
ENDROOT
BRANCH   1   2
ATOM      2  C   UNL A   1      33.836  27.831  26.211  1.00  0.00     0.261 C 
BRANCH   2   3
ATOM      3  O   UNL A   1      32.500  28.123  25.771  1.00  0.00    -0.463 OA
BRANCH   3   4
ATOM      4  C   UNL A   1      31.501  27.491  26.440  1.00  0.00     0.313 C 
ATOM      5  O   UNL A   1      31.319  27.582  27.649  1.00  0.00    -0.252 OA
BRANCH   4   6
ATOM      6  C   UNL A   1      30.595  26.675  25.508  1.00  0.00     0.127 C 
ATOM      7  C   UNL A   1      29.827  25.533  26.188  1.00  0.00     0.025 C 
BRANCH   6   8
ATOM      8  C   UNL A   1      31.313  26.186  24.239  1.00  0.00    -0.026 A 
ATOM      9  C   UNL A   1      32.143  25.044  24.292  1.00  0.00     0.005 A 
ATOM     10  C   UNL A   1      31.146  26.824  22.983  1.00  0.00    -0.014 A 
ATOM     11  C   UNL A   1      32.813  24.572  23.160  1.00  0.00     0.000 A 
ATOM     12  C   UNL A   1      31.842  26.345  21.857  1.00  0.00     0.009 A 
ATOM     13  C   UNL A   1      32.672  25.229  21.945  1.00  0.00     0.001 A 
BRANCH  10  14
ATOM     14  C   UNL A   1      30.200  27.945  22.790  1.00  0.00    -0.011 A 
ATOM     15  C   UNL A   1      30.608  29.280  22.403  1.00  0.00     0.027 A 
ATOM     16  C   UNL A   1      28.911  27.720  23.101  1.00  0.00     0.080 A 
ATOM     17  C   UNL A   1      29.753  30.304  22.505  1.00  0.00     0.095 A 
ATOM     18  C   UNL A   1      27.929  28.837  23.141  1.00  0.00     0.255 A 
ATOM     19  N   UNL A   1      28.446  30.100  22.905  1.00  0.00    -0.258 N 
ATOM     20  O   UNL A   1      26.762  28.579  23.418  1.00  0.00    -0.269 OA
BRANCH  19  21
ATOM     21  C   UNL A   1      27.547  31.212  23.071  1.00  0.00     0.451 C 
ATOM     22  F   UNL A   1      27.807  31.885  24.216  1.00  0.00    -0.185 F 
ATOM     23  F   UNL A   1      27.654  32.081  22.036  1.00  0.00    -0.185 F 
ENDBRANCH  19  21
ENDBRANCH  10  14
ENDBRANCH   6   8
ENDBRANCH   4   6
ENDBRANCH   3   4
ENDBRANCH   2   3
ENDBRANCH   1   2
BRANCH   1  24
ATOM     24  O   UNL A   1      33.802  30.295  26.680  1.00  0.00    -0.374 OA
BRANCH  24  25
ATOM     25  C   UNL A   1      34.062  31.373  27.579  1.00  0.00     0.202 C 
BRANCH  25  26
ATOM     26  C   UNL A   1      32.951  32.416  27.750  1.00  0.00     0.261 C 
BRANCH  26  27
ATOM     27  O   UNL A   1      33.401  33.749  27.446  1.00  0.00    -0.460 OA
BRANCH  27  28
ATOM     28  C   UNL A   1      33.370  34.606  28.492  1.00  0.00     0.338 C 
ATOM     29  O   UNL A   1      32.512  35.445  28.740  1.00  0.00    -0.246 OA
BRANCH  28  30
ATOM     30  C   UNL A   1      34.444  34.287  29.449  1.00  0.00     0.060 A 
ATOM     31  C   UNL A   1      35.762  34.375  28.985  1.00  0.00     0.016 A 
ATOM     32  C   UNL A   1      34.173  33.825  30.739  1.00  0.00     0.016 A 
ATOM     33  C   UNL A   1      36.816  33.951  29.789  1.00  0.00     0.010 A 
ATOM     34  C   UNL A   1      35.232  33.388  31.543  1.00  0.00     0.010 A 
ATOM     35  C   UNL A   1      36.553  33.413  31.056  1.00  0.00    -0.014 A 
BRANCH  35  36
ATOM     36  C   UNL A   1      37.645  32.732  31.791  1.00  0.00     0.031 A 
ATOM     37  C   UNL A   1      38.310  31.539  31.161  1.00  0.00     0.074 A 
ATOM     38  C   UNL A   1      38.074  33.199  32.976  1.00  0.00     0.049 A 
ATOM     39  N   UNL A   1      39.291  30.801  31.617  1.00  0.00    -0.248 NA
ATOM     40  C   UNL A   1      37.807  31.126  29.842  1.00  0.00     0.031 C 
ATOM     41  C   UNL A   1      37.547  34.375  33.665  1.00  0.00     0.029 A 
ATOM     42  N   UNL A   1      39.062  32.735  33.807  1.00  0.00    -0.354 N 
ATOM     43  C   UNL A   1      39.516  29.835  30.644  1.00  0.00     0.074 A 
ATOM     44  C   UNL A   1      38.557  30.063  29.586  1.00  0.00     0.031 C 
ATOM     45  C   UNL A   1      38.219  34.541  34.818  1.00  0.00     0.029 A 
ATOM     46  C   UNL A   1      39.201  33.467  34.959  1.00  0.00     0.049 A 
ATOM     47  H   UNL A   1      39.619  31.950  33.598  1.00  0.00     0.167 HD
ATOM     48  C   UNL A   1      40.444  28.848  30.629  1.00  0.00     0.031 A 
ATOM     49  C   UNL A   1      40.016  33.284  36.015  1.00  0.00     0.031 A 
ATOM     50  C   UNL A   1      41.393  28.611  31.683  1.00  0.00     0.049 A 
ATOM     51  C   UNL A   1      40.984  32.130  36.010  1.00  0.00     0.074 A 
ATOM     52  C   UNL A   1      42.382  27.646  31.752  1.00  0.00     0.029 A 
ATOM     53  N   UNL A   1      41.464  29.344  32.857  1.00  0.00    -0.354 N 
ATOM     54  N   UNL A   1      41.204  31.240  35.073  1.00  0.00    -0.248 NA
ATOM     55  C   UNL A   1      41.818  31.960  37.209  1.00  0.00     0.031 C 
ATOM     56  C   UNL A   1      43.019  27.762  32.993  1.00  0.00     0.029 A 
ATOM     57  C   UNL A   1      42.461  28.834  33.671  1.00  0.00     0.049 A 
ATOM     58  H   UNL A   1      40.891  30.113  33.079  1.00  0.00     0.167 HD
ATOM     59  C   UNL A   1      42.220  30.424  35.557  1.00  0.00     0.074 A 
ATOM     60  C   UNL A   1      42.580  30.932  36.864  1.00  0.00     0.031 C 
ATOM     61  C   UNL A   1      42.805  29.352  34.969  1.00  0.00     0.031 A 
BRANCH  48  62
ATOM     62  C   UNL A   1      40.449  27.923  29.445  1.00  0.00    -0.014 A 
ATOM     63  C   UNL A   1      41.284  28.158  28.341  1.00  0.00     0.009 A 
ATOM     64  C   UNL A   1      39.628  26.785  29.449  1.00  0.00     0.009 A 
ATOM     65  C   UNL A   1      41.273  27.284  27.251  1.00  0.00     0.001 A 
ATOM     66  C   UNL A   1      39.638  25.901  28.369  1.00  0.00     0.001 A 
ATOM     67  C   UNL A   1      40.454  26.156  27.268  1.00  0.00     0.000 A 
ENDBRANCH  48  62
BRANCH  49  68
ATOM     68  C   UNL A   1      39.947  34.202  37.180  1.00  0.00    -0.014 A 
ATOM     69  C   UNL A   1      39.068  33.947  38.243  1.00  0.00     0.009 A 
ATOM     70  C   UNL A   1      40.748  35.354  37.222  1.00  0.00     0.009 A 
ATOM     71  C   UNL A   1      38.974  34.840  39.313  1.00  0.00     0.001 A 
ATOM     72  C   UNL A   1      40.670  36.233  38.306  1.00  0.00     0.001 A 
ATOM     73  C   UNL A   1      39.778  35.979  39.346  1.00  0.00     0.000 A 
ENDBRANCH  49  68
BRANCH  61  74
ATOM     74  C   UNL A   1      43.918  28.677  35.721  1.00  0.00    -0.014 A 
ATOM     75  C   UNL A   1      43.659  27.644  36.634  1.00  0.00     0.009 A 
ATOM     76  C   UNL A   1      45.248  29.053  35.476  1.00  0.00     0.009 A 
ATOM     77  C   UNL A   1      44.710  27.022  37.312  1.00  0.00     0.001 A 
ATOM     78  C   UNL A   1      46.298  28.412  36.134  1.00  0.00     0.001 A 
ATOM     79  C   UNL A   1      46.028  27.403  37.057  1.00  0.00     0.000 A 
ENDBRANCH  61  74
ENDBRANCH  35  36
ENDBRANCH  28  30
ENDBRANCH  27  28
ENDBRANCH  26  27
ENDBRANCH  25  26
ENDBRANCH  24  25
ENDBRANCH   1  24
TORSDOF 17
ENDMDL
MODEL 2
REMARK VINA RESULT:     -10.6      3.553      7.553
REMARK SMILES C[C@@H](C(=O)OCCOCCOC(=O)c1ccc(-c2c3nc(c(-c4ccccc4)c4ccc([nH]4)c(-c4ccccc4)c4nc(c(-c5ccccc5)c5ccc2[nH]5)C=C4)C=C3)cc1)c1ccccc1-c1ccn(C(F)F)c(=O)c1
REMARK SMILES IDX 7 1 6 2 5 3 3 4 4 5 2 6 1 7 62 8 63 9 67 10 64 11 66 12
REMARK SMILES IDX 65 13 68 14 69 15 77 16 70 17 75 18 71 19 76 20 72 21 73 22
REMARK SMILES IDX 74 23 8 24 9 25 10 26 11 27 12 28 13 29 14 30 15 31 61 32
REMARK SMILES IDX 16 33 60 34 17 35 18 36 19 37 54 38 20 39 59 40 53 41 55 42
REMARK SMILES IDX 21 43 58 44 52 45 51 46 22 48 44 49 29 50 43 51 30 52 33 53
REMARK SMILES IDX 42 54 56 55 31 56 32 57 41 59 57 60 34 61 23 62 24 63 28 64
REMARK SMILES IDX 25 65 27 66 26 67 45 68 46 69 50 70 47 71 49 72 48 73 35 74
REMARK SMILES IDX 36 75 40 76 37 77 39 78 38 79
REMARK H PARENT 55 47 33 58
REMARK Flexibility Score: inf
ROOT
ATOM      1  C   UNL A   1      33.980  25.235  26.003  1.00  0.00     0.202 C 
ENDROOT
BRANCH   1   2
ATOM      2  C   UNL A   1      34.050  26.170  24.791  1.00  0.00     0.261 C 
BRANCH   2   3
ATOM      3  O   UNL A   1      33.867  27.529  25.219  1.00  0.00    -0.463 OA
BRANCH   3   4
ATOM      4  C   UNL A   1      32.618  28.039  25.062  1.00  0.00     0.313 C 
ATOM      5  O   UNL A   1      31.996  28.618  25.946  1.00  0.00    -0.252 OA
BRANCH   4   6
ATOM      6  C   UNL A   1      32.080  27.847  23.637  1.00  0.00     0.127 C 
ATOM      7  C   UNL A   1      32.647  28.822  22.594  1.00  0.00     0.025 C 
BRANCH   6   8
ATOM      8  C   UNL A   1      30.545  27.791  23.572  1.00  0.00    -0.026 A 
ATOM      9  C   UNL A   1      29.817  28.895  23.075  1.00  0.00     0.005 A 
ATOM     10  C   UNL A   1      29.814  26.640  23.962  1.00  0.00    -0.014 A 
ATOM     11  C   UNL A   1      28.422  28.880  23.003  1.00  0.00     0.000 A 
ATOM     12  C   UNL A   1      28.407  26.649  23.899  1.00  0.00     0.009 A 
ATOM     13  C   UNL A   1      27.716  27.762  23.425  1.00  0.00     0.001 A 
BRANCH  10  14
ATOM     14  C   UNL A   1      30.483  25.386  24.373  1.00  0.00    -0.011 A 
ATOM     15  C   UNL A   1      31.121  24.476  23.443  1.00  0.00     0.027 A 
ATOM     16  C   UNL A   1      30.388  25.036  25.669  1.00  0.00     0.080 A 
ATOM     17  C   UNL A   1      31.467  23.245  23.833  1.00  0.00     0.095 A 
ATOM     18  C   UNL A   1      30.843  23.698  26.134  1.00  0.00     0.255 A 
ATOM     19  N   UNL A   1      31.297  22.841  25.144  1.00  0.00    -0.258 N 
ATOM     20  O   UNL A   1      30.747  23.430  27.327  1.00  0.00    -0.269 OA
BRANCH  19  21
ATOM     21  C   UNL A   1      31.616  21.496  25.546  1.00  0.00     0.451 C 
ATOM     22  F   UNL A   1      31.817  20.699  24.471  1.00  0.00    -0.185 F 
ATOM     23  F   UNL A   1      32.738  21.470  26.307  1.00  0.00    -0.185 F 
ENDBRANCH  19  21
ENDBRANCH  10  14
ENDBRANCH   6   8
ENDBRANCH   4   6
ENDBRANCH   3   4
ENDBRANCH   2   3
ENDBRANCH   1   2
BRANCH   1  24
ATOM     24  O   UNL A   1      34.577  23.947  25.830  1.00  0.00    -0.374 OA
BRANCH  24  25
ATOM     25  C   UNL A   1      35.242  23.692  24.593  1.00  0.00     0.202 C 
BRANCH  25  26
ATOM     26  C   UNL A   1      36.615  23.013  24.672  1.00  0.00     0.261 C 
BRANCH  26  27
ATOM     27  O   UNL A   1      37.647  23.918  25.106  1.00  0.00    -0.460 OA
BRANCH  27  28
ATOM     28  C   UNL A   1      38.541  23.380  25.967  1.00  0.00     0.338 C 
ATOM     29  O   UNL A   1      38.892  22.209  26.039  1.00  0.00    -0.246 OA
BRANCH  28  30
ATOM     30  C   UNL A   1      39.215  24.442  26.735  1.00  0.00     0.060 A 
ATOM     31  C   UNL A   1      38.911  24.538  28.099  1.00  0.00     0.016 A 
ATOM     32  C   UNL A   1      40.053  25.378  26.126  1.00  0.00     0.016 A 
ATOM     33  C   UNL A   1      39.399  25.603  28.850  1.00  0.00     0.010 A 
ATOM     34  C   UNL A   1      40.535  26.455  26.879  1.00  0.00     0.010 A 
ATOM     35  C   UNL A   1      40.177  26.591  28.234  1.00  0.00    -0.014 A 
BRANCH  35  36
ATOM     36  C   UNL A   1      40.471  27.841  28.974  1.00  0.00     0.031 A 
ATOM     37  C   UNL A   1      41.818  28.000  29.625  1.00  0.00     0.074 A 
ATOM     38  C   UNL A   1      39.574  28.842  29.022  1.00  0.00     0.049 A 
ATOM     39  N   UNL A   1      42.294  29.010  30.308  1.00  0.00    -0.248 NA
ATOM     40  C   UNL A   1      42.754  26.874  29.483  1.00  0.00     0.031 C 
ATOM     41  C   UNL A   1      38.257  28.830  28.389  1.00  0.00     0.029 A 
ATOM     42  N   UNL A   1      39.646  30.068  29.633  1.00  0.00    -0.354 N 
ATOM     43  C   UNL A   1      43.579  28.638  30.682  1.00  0.00     0.074 A 
ATOM     44  C   UNL A   1      43.802  27.303  30.172  1.00  0.00     0.031 C 
ATOM     45  C   UNL A   1      37.641  29.998  28.645  1.00  0.00     0.029 A 
ATOM     46  C   UNL A   1      38.510  30.824  29.482  1.00  0.00     0.049 A 
ATOM     47  H   UNL A   1      40.436  30.378  30.132  1.00  0.00     0.167 HD
ATOM     48  C   UNL A   1      44.496  29.347  31.383  1.00  0.00     0.031 A 
ATOM     49  C   UNL A   1      38.199  32.037  29.977  1.00  0.00     0.031 A 
ATOM     50  C   UNL A   1      44.276  30.671  31.900  1.00  0.00     0.049 A 
ATOM     51  C   UNL A   1      39.207  32.771  30.821  1.00  0.00     0.074 A 
ATOM     52  C   UNL A   1      45.150  31.476  32.609  1.00  0.00     0.029 A 
ATOM     53  N   UNL A   1      43.092  31.378  31.771  1.00  0.00    -0.354 N 
ATOM     54  N   UNL A   1      40.428  32.419  31.145  1.00  0.00    -0.248 NA
ATOM     55  C   UNL A   1      38.793  34.073  31.364  1.00  0.00     0.031 C 
ATOM     56  C   UNL A   1      44.476  32.653  32.954  1.00  0.00     0.029 A 
ATOM     57  C   UNL A   1      43.202  32.600  32.412  1.00  0.00     0.049 A 
ATOM     58  H   UNL A   1      42.292  31.060  31.294  1.00  0.00     0.167 HD
ATOM     59  C   UNL A   1      40.936  33.467  31.903  1.00  0.00     0.074 A 
ATOM     60  C   UNL A   1      39.896  34.472  31.982  1.00  0.00     0.031 C 
ATOM     61  C   UNL A   1      42.157  33.588  32.481  1.00  0.00     0.031 A 
BRANCH  48  62
ATOM     62  C   UNL A   1      45.815  28.683  31.662  1.00  0.00    -0.014 A 
ATOM     63  C   UNL A   1      46.004  27.891  32.806  1.00  0.00     0.009 A 
ATOM     64  C   UNL A   1      46.873  28.829  30.752  1.00  0.00     0.009 A 
ATOM     65  C   UNL A   1      47.239  27.282  33.046  1.00  0.00     0.001 A 
ATOM     66  C   UNL A   1      48.097  28.199  30.983  1.00  0.00     0.001 A 
ATOM     67  C   UNL A   1      48.281  27.434  32.133  1.00  0.00     0.000 A 
ENDBRANCH  48  62
BRANCH  49  68
ATOM     68  C   UNL A   1      36.868  32.636  29.706  1.00  0.00    -0.014 A 
ATOM     69  C   UNL A   1      36.672  33.477  28.601  1.00  0.00     0.009 A 
ATOM     70  C   UNL A   1      35.789  32.386  30.568  1.00  0.00     0.009 A 
ATOM     71  C   UNL A   1      35.429  34.076  28.378  1.00  0.00     0.001 A 
ATOM     72  C   UNL A   1      34.540  32.964  30.329  1.00  0.00     0.001 A 
ATOM     73  C   UNL A   1      34.364  33.815  29.239  1.00  0.00     0.000 A 
ENDBRANCH  49  68
BRANCH  61  74
ATOM     74  C   UNL A   1      42.446  34.864  33.219  1.00  0.00    -0.014 A 
ATOM     75  C   UNL A   1      42.087  35.024  34.566  1.00  0.00     0.009 A 
ATOM     76  C   UNL A   1      43.126  35.905  32.567  1.00  0.00     0.009 A 
ATOM     77  C   UNL A   1      42.378  36.215  35.236  1.00  0.00     0.001 A 
ATOM     78  C   UNL A   1      43.438  37.083  33.246  1.00  0.00     0.001 A 
ATOM     79  C   UNL A   1      43.057  37.240  34.577  1.00  0.00     0.000 A 
ENDBRANCH  61  74
ENDBRANCH  35  36
ENDBRANCH  28  30
ENDBRANCH  27  28
ENDBRANCH  26  27
ENDBRANCH  25  26
ENDBRANCH  24  25
ENDBRANCH   1  24
TORSDOF 17
ENDMDL
MODEL 3
REMARK VINA RESULT:     -10.5      4.708      8.645
REMARK SMILES C[C@@H](C(=O)OCCOCCOC(=O)c1ccc(-c2c3nc(c(-c4ccccc4)c4ccc([nH]4)c(-c4ccccc4)c4nc(c(-c5ccccc5)c5ccc2[nH]5)C=C4)C=C3)cc1)c1ccccc1-c1ccn(C(F)F)c(=O)c1
REMARK SMILES IDX 7 1 6 2 5 3 3 4 4 5 2 6 1 7 62 8 63 9 67 10 64 11 66 12
REMARK SMILES IDX 65 13 68 14 69 15 77 16 70 17 75 18 71 19 76 20 72 21 73 22
REMARK SMILES IDX 74 23 8 24 9 25 10 26 11 27 12 28 13 29 14 30 15 31 61 32
REMARK SMILES IDX 16 33 60 34 17 35 18 36 19 37 54 38 20 39 59 40 53 41 55 42
REMARK SMILES IDX 21 43 58 44 52 45 51 46 22 48 44 49 29 50 43 51 30 52 33 53
REMARK SMILES IDX 42 54 56 55 31 56 32 57 41 59 57 60 34 61 23 62 24 63 28 64
REMARK SMILES IDX 25 65 27 66 26 67 45 68 46 69 50 70 47 71 49 72 48 73 35 74
REMARK SMILES IDX 36 75 40 76 37 77 39 78 38 79
REMARK H PARENT 55 47 33 58
REMARK Flexibility Score: inf
ROOT
ATOM      1  C   UNL A   1      39.222  23.274  26.525  1.00  0.00     0.202 C 
ENDROOT
BRANCH   1   2
ATOM      2  C   UNL A   1      37.775  23.594  26.139  1.00  0.00     0.261 C 
BRANCH   2   3
ATOM      3  O   UNL A   1      37.114  22.394  25.708  1.00  0.00    -0.463 OA
BRANCH   3   4
ATOM      4  C   UNL A   1      35.761  22.464  25.607  1.00  0.00     0.313 C 
ATOM      5  O   UNL A   1      35.012  22.677  26.554  1.00  0.00    -0.252 OA
BRANCH   4   6
ATOM      6  C   UNL A   1      35.269  22.284  24.165  1.00  0.00     0.127 C 
ATOM      7  C   UNL A   1      36.298  22.637  23.081  1.00  0.00     0.025 C 
BRANCH   6   8
ATOM      8  C   UNL A   1      33.918  22.968  23.896  1.00  0.00    -0.026 A 
ATOM      9  C   UNL A   1      33.871  24.348  23.599  1.00  0.00     0.005 A 
ATOM     10  C   UNL A   1      32.695  22.249  23.895  1.00  0.00    -0.014 A 
ATOM     11  C   UNL A   1      32.662  25.003  23.351  1.00  0.00     0.000 A 
ATOM     12  C   UNL A   1      31.485  22.929  23.660  1.00  0.00     0.009 A 
ATOM     13  C   UNL A   1      31.467  24.296  23.393  1.00  0.00     0.001 A 
BRANCH  10  14
ATOM     14  C   UNL A   1      32.646  20.780  24.064  1.00  0.00    -0.011 A 
ATOM     15  C   UNL A   1      32.970  20.104  25.304  1.00  0.00     0.027 A 
ATOM     16  C   UNL A   1      32.388  20.045  22.967  1.00  0.00     0.080 A 
ATOM     17  C   UNL A   1      33.167  18.781  25.320  1.00  0.00     0.095 A 
ATOM     18  C   UNL A   1      32.524  18.564  22.991  1.00  0.00     0.255 A 
ATOM     19  N   UNL A   1      32.989  18.023  24.179  1.00  0.00    -0.258 N 
ATOM     20  O   UNL A   1      32.268  17.937  21.968  1.00  0.00    -0.269 OA
BRANCH  19  21
ATOM     21  C   UNL A   1      33.258  16.609  24.186  1.00  0.00     0.451 C 
ATOM     22  F   UNL A   1      34.375  16.320  23.478  1.00  0.00    -0.185 F 
ATOM     23  F   UNL A   1      33.432  16.155  25.453  1.00  0.00    -0.185 F 
ENDBRANCH  19  21
ENDBRANCH  10  14
ENDBRANCH   6   8
ENDBRANCH   4   6
ENDBRANCH   3   4
ENDBRANCH   2   3
ENDBRANCH   1   2
BRANCH   1  24
ATOM     24  O   UNL A   1      39.492  21.907  26.847  1.00  0.00    -0.374 OA
BRANCH  24  25
ATOM     25  C   UNL A   1      40.860  21.505  26.916  1.00  0.00     0.202 C 
BRANCH  25  26
ATOM     26  C   UNL A   1      41.846  22.248  26.007  1.00  0.00     0.261 C 
BRANCH  26  27
ATOM     27  O   UNL A   1      42.779  23.052  26.753  1.00  0.00    -0.460 OA
BRANCH  27  28
ATOM     28  C   UNL A   1      43.003  24.281  26.236  1.00  0.00     0.338 C 
ATOM     29  O   UNL A   1      43.482  24.551  25.142  1.00  0.00    -0.246 OA
BRANCH  28  30
ATOM     30  C   UNL A   1      42.416  25.317  27.105  1.00  0.00     0.060 A 
ATOM     31  C   UNL A   1      42.873  26.630  26.935  1.00  0.00     0.016 A 
ATOM     32  C   UNL A   1      41.509  25.005  28.120  1.00  0.00     0.016 A 
ATOM     33  C   UNL A   1      42.468  27.629  27.815  1.00  0.00     0.010 A 
ATOM     34  C   UNL A   1      41.111  26.008  29.011  1.00  0.00     0.010 A 
ATOM     35  C   UNL A   1      41.620  27.315  28.885  1.00  0.00    -0.014 A 
BRANCH  35  36
ATOM     36  C   UNL A   1      41.406  28.319  29.953  1.00  0.00     0.031 A 
ATOM     37  C   UNL A   1      40.249  29.273  29.832  1.00  0.00     0.074 A 
ATOM     38  C   UNL A   1      42.197  28.349  31.040  1.00  0.00     0.049 A 
ATOM     39  N   UNL A   1      39.866  30.219  30.652  1.00  0.00    -0.248 NA
ATOM     40  C   UNL A   1      39.408  29.138  28.632  1.00  0.00     0.031 C 
ATOM     41  C   UNL A   1      43.317  27.446  31.298  1.00  0.00     0.029 A 
ATOM     42  N   UNL A   1      42.168  29.175  32.135  1.00  0.00    -0.354 N 
ATOM     43  C   UNL A   1      38.748  30.796  30.064  1.00  0.00     0.074 A 
ATOM     44  C   UNL A   1      38.526  30.112  28.809  1.00  0.00     0.031 C 
ATOM     45  C   UNL A   1      43.871  27.769  32.480  1.00  0.00     0.029 A 
ATOM     46  C   UNL A   1      43.163  28.916  33.045  1.00  0.00     0.049 A 
ATOM     47  H   UNL A   1      41.498  29.886  32.258  1.00  0.00     0.167 HD
ATOM     48  C   UNL A   1      37.969  31.802  30.528  1.00  0.00     0.031 A 
ATOM     49  C   UNL A   1      43.477  29.544  34.194  1.00  0.00     0.031 A 
ATOM     50  C   UNL A   1      38.192  32.491  31.771  1.00  0.00     0.049 A 
ATOM     51  C   UNL A   1      42.643  30.712  34.649  1.00  0.00     0.074 A 
ATOM     52  C   UNL A   1      37.449  33.514  32.335  1.00  0.00     0.029 A 
ATOM     53  N   UNL A   1      39.243  32.233  32.636  1.00  0.00    -0.354 N 
ATOM     54  N   UNL A   1      41.573  31.230  34.097  1.00  0.00    -0.248 NA
ATOM     55  C   UNL A   1      43.061  31.379  35.891  1.00  0.00     0.031 C 
ATOM     56  C   UNL A   1      38.080  33.910  33.519  1.00  0.00     0.029 A 
ATOM     57  C   UNL A   1      39.185  33.097  33.717  1.00  0.00     0.049 A 
ATOM     58  H   UNL A   1      39.928  31.539  32.503  1.00  0.00     0.167 HD
ATOM     59  C   UNL A   1      41.175  32.263  34.937  1.00  0.00     0.074 A 
ATOM     60  C   UNL A   1      42.110  32.290  36.042  1.00  0.00     0.031 C 
ATOM     61  C   UNL A   1      40.125  33.110  34.807  1.00  0.00     0.031 A 
BRANCH  48  62
ATOM     62  C   UNL A   1      36.822  32.242  29.665  1.00  0.00    -0.014 A 
ATOM     63  C   UNL A   1      35.546  31.672  29.802  1.00  0.00     0.009 A 
ATOM     64  C   UNL A   1      37.014  33.263  28.722  1.00  0.00     0.009 A 
ATOM     65  C   UNL A   1      34.493  32.098  28.988  1.00  0.00     0.001 A 
ATOM     66  C   UNL A   1      35.953  33.703  27.928  1.00  0.00     0.001 A 
ATOM     67  C   UNL A   1      34.697  33.114  28.056  1.00  0.00     0.000 A 
ENDBRANCH  48  62
BRANCH  49  68
ATOM     68  C   UNL A   1      44.645  29.096  34.994  1.00  0.00    -0.014 A 
ATOM     69  C   UNL A   1      45.921  29.628  34.760  1.00  0.00     0.009 A 
ATOM     70  C   UNL A   1      44.490  28.113  35.985  1.00  0.00     0.009 A 
ATOM     71  C   UNL A   1      47.024  29.167  35.483  1.00  0.00     0.001 A 
ATOM     72  C   UNL A   1      45.590  27.673  36.726  1.00  0.00     0.001 A 
ATOM     73  C   UNL A   1      46.856  28.195  36.468  1.00  0.00     0.000 A 
ENDBRANCH  49  68
BRANCH  61  74
ATOM     74  C   UNL A   1      39.913  34.117  35.903  1.00  0.00    -0.014 A 
ATOM     75  C   UNL A   1      39.165  33.803  37.047  1.00  0.00     0.009 A 
ATOM     76  C   UNL A   1      40.510  35.384  35.805  1.00  0.00     0.009 A 
ATOM     77  C   UNL A   1      38.992  34.751  38.058  1.00  0.00     0.001 A 
ATOM     78  C   UNL A   1      40.358  36.320  36.829  1.00  0.00     0.001 A 
ATOM     79  C   UNL A   1      39.593  36.005  37.951  1.00  0.00     0.000 A 
ENDBRANCH  61  74
ENDBRANCH  35  36
ENDBRANCH  28  30
ENDBRANCH  27  28
ENDBRANCH  26  27
ENDBRANCH  25  26
ENDBRANCH  24  25
ENDBRANCH   1  24
TORSDOF 17
ENDMDL
