MODEL 1
REMARK VINA RESULT:     -10.0      0.000      0.000
REMARK SMILES Cc1nc(CNC(=O)[C@H]2CCO[C@H]2C)sc1C(=O)OCCOCCOC(=O)c1ccc(-c2c3nc(c(-c4ccccc4)c4ccc([nH]4)c(-c4ccccc4)c4nc(c(-c5ccccc5)c5ccc2[nH]5)C=C4)C=C3)cc1
REMARK SMILES IDX 21 1 20 2 19 3 17 4 18 5 16 6 1 7 2 8 3 9 4 10 15 11 5 12
REMARK SMILES IDX 6 13 7 14 8 16 9 17 10 18 13 19 11 20 12 21 14 22 22 23
REMARK SMILES IDX 23 24 24 25 25 26 26 27 27 28 28 29 29 30 75 31 30 32 74 33
REMARK SMILES IDX 31 34 32 35 33 36 68 37 34 38 73 39 67 40 69 41 35 42 72 43
REMARK SMILES IDX 66 44 65 45 36 47 58 48 43 49 57 50 44 51 47 52 56 53 70 54
REMARK SMILES IDX 45 55 46 56 55 58 71 59 48 60 37 61 38 62 42 63 39 64 41 65
REMARK SMILES IDX 40 66 59 67 60 68 64 69 61 70 63 71 62 72 49 73 50 74 54 75
REMARK SMILES IDX 51 76 53 77 52 78
REMARK H PARENT 6 15 69 46 47 57
REMARK Flexibility Score: inf
ROOT
ATOM      1  C   UNL A   1      36.349  20.720  25.239  1.00  0.00     0.202 C 
ENDROOT
BRANCH   1   2
ATOM      2  C   UNL A   1      34.952  21.101  24.746  1.00  0.00     0.261 C 
BRANCH   2   3
ATOM      3  O   UNL A   1      33.984  20.813  25.772  1.00  0.00    -0.459 OA
BRANCH   3   4
ATOM      4  C   UNL A   1      32.710  20.589  25.346  1.00  0.00     0.350 C 
ATOM      5  O   UNL A   1      32.183  19.482  25.311  1.00  0.00    -0.245 OA
BRANCH   4   6
ATOM      6  C   UNL A   1      32.049  21.844  25.059  1.00  0.00     0.135 A 
ATOM      7  C   UNL A   1      32.074  22.132  22.477  1.00  0.00     0.068 C 
ATOM      8  C   UNL A   1      31.799  22.542  23.884  1.00  0.00     0.063 A 
ATOM      9  N   UNL A   1      31.183  23.779  24.065  1.00  0.00    -0.244 NA
ATOM     10  C   UNL A   1      30.964  24.009  25.341  1.00  0.00     0.113 A 
ATOM     11  S   UNL A   1      31.461  22.755  26.397  1.00  0.00    -0.110 S 
BRANCH  10  12
ATOM     12  C   UNL A   1      30.297  25.219  25.927  1.00  0.00     0.183 C 
BRANCH  12  13
ATOM     13  N   UNL A   1      31.239  26.307  26.119  1.00  0.00    -0.349 N 
ATOM     14  C   UNL A   1      31.371  27.468  25.420  1.00  0.00     0.226 C 
ATOM     15  H   UNL A   1      31.875  26.187  26.861  1.00  0.00     0.163 HD
ATOM     16  O   UNL A   1      32.170  28.310  25.826  1.00  0.00    -0.275 OA
BRANCH  14  17
ATOM     17  C   UNL A   1      30.528  27.679  24.180  1.00  0.00     0.109 C 
ATOM     18  C   UNL A   1      30.339  29.131  23.785  1.00  0.00     0.044 C 
ATOM     19  C   UNL A   1      31.134  27.087  22.910  1.00  0.00     0.127 C 
ATOM     20  C   UNL A   1      29.919  29.005  22.336  1.00  0.00     0.161 C 
ATOM     21  O   UNL A   1      30.532  27.817  21.818  1.00  0.00    -0.378 OA
ATOM     22  C   UNL A   1      32.648  27.231  22.772  1.00  0.00     0.039 C 
ENDBRANCH  14  17
ENDBRANCH  12  13
ENDBRANCH  10  12
ENDBRANCH   4   6
ENDBRANCH   3   4
ENDBRANCH   2   3
ENDBRANCH   1   2
BRANCH   1  23
ATOM     23  O   UNL A   1      37.299  21.786  25.178  1.00  0.00    -0.374 OA
BRANCH  23  24
ATOM     24  C   UNL A   1      38.596  21.517  25.714  1.00  0.00     0.202 C 
BRANCH  24  25
ATOM     25  C   UNL A   1      39.183  20.154  25.330  1.00  0.00     0.261 C 
BRANCH  25  26
ATOM     26  O   UNL A   1      40.100  19.683  26.337  1.00  0.00    -0.460 OA
BRANCH  26  27
ATOM     27  C   UNL A   1      41.410  19.783  26.006  1.00  0.00     0.338 C 
ATOM     28  O   UNL A   1      42.054  19.035  25.291  1.00  0.00    -0.246 OA
BRANCH  27  29
ATOM     29  C   UNL A   1      41.952  21.064  26.504  1.00  0.00     0.060 A 
ATOM     30  C   UNL A   1      41.884  21.297  27.884  1.00  0.00     0.016 A 
ATOM     31  C   UNL A   1      42.466  22.039  25.646  1.00  0.00     0.016 A 
ATOM     32  C   UNL A   1      42.285  22.525  28.406  1.00  0.00     0.010 A 
ATOM     33  C   UNL A   1      42.862  23.275  26.171  1.00  0.00     0.010 A 
ATOM     34  C   UNL A   1      42.742  23.534  27.548  1.00  0.00    -0.014 A 
BRANCH  34  35
ATOM     35  C   UNL A   1      42.960  24.901  28.079  1.00  0.00     0.031 A 
ATOM     36  C   UNL A   1      44.351  25.326  28.459  1.00  0.00     0.074 A 
ATOM     37  C   UNL A   1      41.937  25.767  28.191  1.00  0.00     0.049 A 
ATOM     38  N   UNL A   1      44.764  26.468  28.948  1.00  0.00    -0.248 NA
ATOM     39  C   UNL A   1      45.419  24.333  28.259  1.00  0.00     0.031 C 
ATOM     40  C   UNL A   1      40.550  25.493  27.819  1.00  0.00     0.029 A 
ATOM     41  N   UNL A   1      41.915  27.058  28.655  1.00  0.00    -0.354 N 
ATOM     42  C   UNL A   1      46.137  26.330  29.116  1.00  0.00     0.074 A 
ATOM     43  C   UNL A   1      46.482  24.986  28.705  1.00  0.00     0.031 C 
ATOM     44  C   UNL A   1      39.809  26.584  28.078  1.00  0.00     0.029 A 
ATOM     45  C   UNL A   1      40.663  27.620  28.656  1.00  0.00     0.049 A 
ATOM     46  H   UNL A   1      42.721  27.536  28.960  1.00  0.00     0.167 HD
ATOM     47  C   UNL A   1      47.031  27.242  29.566  1.00  0.00     0.031 A 
ATOM     48  C   UNL A   1      40.249  28.826  29.089  1.00  0.00     0.031 A 
ATOM     49  C   UNL A   1      46.692  28.573  29.992  1.00  0.00     0.049 A 
ATOM     50  C   UNL A   1      41.251  29.795  29.658  1.00  0.00     0.074 A 
ATOM     51  C   UNL A   1      47.533  29.571  30.453  1.00  0.00     0.029 A 
ATOM     52  N   UNL A   1      45.406  29.088  30.014  1.00  0.00    -0.354 N 
ATOM     53  N   UNL A   1      42.549  29.660  29.788  1.00  0.00    -0.248 NA
ATOM     54  C   UNL A   1      40.729  31.084  30.134  1.00  0.00     0.031 C 
ATOM     55  C   UNL A   1      46.748  30.676  30.801  1.00  0.00     0.029 A 
ATOM     56  C   UNL A   1      45.426  30.382  30.507  1.00  0.00     0.049 A 
ATOM     57  H   UNL A   1      44.599  28.606  29.724  1.00  0.00     0.167 HD
ATOM     58  C   UNL A   1      43.001  30.855  30.336  1.00  0.00     0.074 A 
ATOM     59  C   UNL A   1      41.841  31.707  30.501  1.00  0.00     0.031 C 
ATOM     60  C   UNL A   1      44.264  31.216  30.668  1.00  0.00     0.031 A 
BRANCH  47  61
ATOM     61  C   UNL A   1      48.468  26.811  29.650  1.00  0.00    -0.014 A 
ATOM     62  C   UNL A   1      48.965  26.155  30.788  1.00  0.00     0.009 A 
ATOM     63  C   UNL A   1      49.328  27.039  28.565  1.00  0.00     0.009 A 
ATOM     64  C   UNL A   1      50.303  25.763  30.848  1.00  0.00     0.001 A 
ATOM     65  C   UNL A   1      50.659  26.625  28.619  1.00  0.00     0.001 A 
ATOM     66  C   UNL A   1      51.148  25.995  29.763  1.00  0.00     0.000 A 
ENDBRANCH  47  61
BRANCH  48  67
ATOM     67  C   UNL A   1      38.810  29.186  29.023  1.00  0.00    -0.014 A 
ATOM     68  C   UNL A   1      38.265  29.749  27.860  1.00  0.00     0.009 A 
ATOM     69  C   UNL A   1      37.978  28.984  30.136  1.00  0.00     0.009 A 
ATOM     70  C   UNL A   1      36.919  30.124  27.821  1.00  0.00     0.001 A 
ATOM     71  C   UNL A   1      36.628  29.336  30.085  1.00  0.00     0.001 A 
ATOM     72  C   UNL A   1      36.102  29.914  28.930  1.00  0.00     0.000 A 
ENDBRANCH  48  67
BRANCH  60  73
ATOM     73  C   UNL A   1      44.463  32.601  31.215  1.00  0.00    -0.014 A 
ATOM     74  C   UNL A   1      44.436  32.849  32.595  1.00  0.00     0.009 A 
ATOM     75  C   UNL A   1      44.725  33.664  30.337  1.00  0.00     0.009 A 
ATOM     76  C   UNL A   1      44.636  34.143  33.084  1.00  0.00     0.001 A 
ATOM     77  C   UNL A   1      44.952  34.950  30.828  1.00  0.00     0.001 A 
ATOM     78  C   UNL A   1      44.899  35.190  32.200  1.00  0.00     0.000 A 
ENDBRANCH  60  73
ENDBRANCH  34  35
ENDBRANCH  27  29
ENDBRANCH  26  27
ENDBRANCH  25  26
ENDBRANCH  24  25
ENDBRANCH  23  24
ENDBRANCH   1  23
TORSDOF 17
ENDMDL
MODEL 2
REMARK VINA RESULT:      -9.8      3.446      7.353
REMARK SMILES Cc1nc(CNC(=O)[C@H]2CCO[C@H]2C)sc1C(=O)OCCOCCOC(=O)c1ccc(-c2c3nc(c(-c4ccccc4)c4ccc([nH]4)c(-c4ccccc4)c4nc(c(-c5ccccc5)c5ccc2[nH]5)C=C4)C=C3)cc1
REMARK SMILES IDX 21 1 20 2 19 3 17 4 18 5 16 6 1 7 2 8 3 9 4 10 15 11 5 12
REMARK SMILES IDX 6 13 7 14 8 16 9 17 10 18 13 19 11 20 12 21 14 22 22 23
REMARK SMILES IDX 23 24 24 25 25 26 26 27 27 28 28 29 29 30 75 31 30 32 74 33
REMARK SMILES IDX 31 34 32 35 33 36 68 37 34 38 73 39 67 40 69 41 35 42 72 43
REMARK SMILES IDX 66 44 65 45 36 47 58 48 43 49 57 50 44 51 47 52 56 53 70 54
REMARK SMILES IDX 45 55 46 56 55 58 71 59 48 60 37 61 38 62 42 63 39 64 41 65
REMARK SMILES IDX 40 66 59 67 60 68 64 69 61 70 63 71 62 72 49 73 50 74 54 75
REMARK SMILES IDX 51 76 53 77 52 78
REMARK H PARENT 6 15 69 46 47 57
REMARK Flexibility Score: inf
ROOT
ATOM      1  C   UNL A   1      41.030  20.504  27.328  1.00  0.00     0.202 C 
ENDROOT
BRANCH   1   2
ATOM      2  C   UNL A   1      40.198  20.165  26.089  1.00  0.00     0.261 C 
BRANCH   2   3
ATOM      3  O   UNL A   1      39.307  21.256  25.793  1.00  0.00    -0.459 OA
BRANCH   3   4
ATOM      4  C   UNL A   1      38.087  20.913  25.294  1.00  0.00     0.350 C 
ATOM      5  O   UNL A   1      37.772  19.770  24.981  1.00  0.00    -0.245 OA
BRANCH   4   6
ATOM      6  C   UNL A   1      37.202  22.058  25.301  1.00  0.00     0.135 A 
ATOM      7  C   UNL A   1      38.455  23.968  26.537  1.00  0.00     0.068 C 
ATOM      8  C   UNL A   1      37.299  23.334  25.842  1.00  0.00     0.063 A 
ATOM      9  N   UNL A   1      36.161  24.121  25.679  1.00  0.00    -0.244 NA
ATOM     10  C   UNL A   1      35.228  23.463  25.024  1.00  0.00     0.113 A 
ATOM     11  S   UNL A   1      35.664  21.876  24.548  1.00  0.00    -0.110 S 
BRANCH  10  12
ATOM     12  C   UNL A   1      33.876  23.985  24.634  1.00  0.00     0.183 C 
BRANCH  12  13
ATOM     13  N   UNL A   1      33.110  24.400  25.795  1.00  0.00    -0.349 N 
ATOM     14  C   UNL A   1      31.954  25.119  25.854  1.00  0.00     0.226 C 
ATOM     15  H   UNL A   1      33.479  24.125  26.665  1.00  0.00     0.163 HD
ATOM     16  O   UNL A   1      31.409  25.265  26.947  1.00  0.00    -0.275 OA
BRANCH  14  17
ATOM     17  C   UNL A   1      31.385  25.702  24.578  1.00  0.00     0.109 C 
ATOM     18  C   UNL A   1      29.937  26.139  24.675  1.00  0.00     0.044 C 
ATOM     19  C   UNL A   1      32.069  26.989  24.126  1.00  0.00     0.127 C 
ATOM     20  C   UNL A   1      29.816  27.077  23.494  1.00  0.00     0.161 C 
ATOM     21  O   UNL A   1      31.108  27.662  23.283  1.00  0.00    -0.378 OA
ATOM     22  C   UNL A   1      32.452  27.960  25.241  1.00  0.00     0.039 C 
ENDBRANCH  14  17
ENDBRANCH  12  13
ENDBRANCH  10  12
ENDBRANCH   4   6
ENDBRANCH   3   4
ENDBRANCH   2   3
ENDBRANCH   1   2
BRANCH   1  23
ATOM     23  O   UNL A   1      42.442  20.451  27.113  1.00  0.00    -0.374 OA
BRANCH  23  24
ATOM     24  C   UNL A   1      42.875  20.267  25.763  1.00  0.00     0.202 C 
BRANCH  24  25
ATOM     25  C   UNL A   1      43.885  21.306  25.262  1.00  0.00     0.261 C 
BRANCH  25  26
ATOM     26  O   UNL A   1      43.222  22.520  24.861  1.00  0.00    -0.460 OA
BRANCH  26  27
ATOM     27  C   UNL A   1      43.935  23.654  25.067  1.00  0.00     0.338 C 
ATOM     28  O   UNL A   1      44.925  24.027  24.462  1.00  0.00    -0.246 OA
BRANCH  27  29
ATOM     29  C   UNL A   1      43.236  24.509  26.048  1.00  0.00     0.060 A 
ATOM     30  C   UNL A   1      43.523  25.880  26.024  1.00  0.00     0.016 A 
ATOM     31  C   UNL A   1      42.365  23.984  27.005  1.00  0.00     0.016 A 
ATOM     32  C   UNL A   1      42.975  26.724  26.988  1.00  0.00     0.010 A 
ATOM     33  C   UNL A   1      41.821  24.832  27.977  1.00  0.00     0.010 A 
ATOM     34  C   UNL A   1      42.150  26.199  27.991  1.00  0.00    -0.014 A 
BRANCH  34  35
ATOM     35  C   UNL A   1      41.749  27.059  29.131  1.00  0.00     0.031 A 
ATOM     36  C   UNL A   1      40.484  27.865  29.031  1.00  0.00     0.074 A 
ATOM     37  C   UNL A   1      42.484  27.096  30.257  1.00  0.00     0.049 A 
ATOM     38  N   UNL A   1      39.953  28.684  29.903  1.00  0.00    -0.248 NA
ATOM     39  C   UNL A   1      39.715  27.728  27.783  1.00  0.00     0.031 C 
ATOM     40  C   UNL A   1      43.707  26.332  30.496  1.00  0.00     0.029 A 
ATOM     41  N   UNL A   1      42.302  27.814  31.411  1.00  0.00    -0.354 N 
ATOM     42  C   UNL A   1      38.790  29.162  29.310  1.00  0.00     0.074 A 
ATOM     43  C   UNL A   1      38.709  28.564  27.994  1.00  0.00     0.031 C 
ATOM     44  C   UNL A   1      44.171  26.628  31.722  1.00  0.00     0.029 A 
ATOM     45  C   UNL A   1      43.293  27.621  32.341  1.00  0.00     0.049 A 
ATOM     46  H   UNL A   1      41.534  28.412  31.560  1.00  0.00     0.167 HD
ATOM     47  C   UNL A   1      37.870  30.015  29.816  1.00  0.00     0.031 A 
ATOM     48  C   UNL A   1      43.481  28.191  33.546  1.00  0.00     0.031 A 
ATOM     49  C   UNL A   1      37.954  30.625  31.116  1.00  0.00     0.049 A 
ATOM     50  C   UNL A   1      42.484  29.197  34.056  1.00  0.00     0.074 A 
ATOM     51  C   UNL A   1      37.063  31.496  31.719  1.00  0.00     0.029 A 
ATOM     52  N   UNL A   1      38.995  30.433  32.009  1.00  0.00    -0.354 N 
ATOM     53  N   UNL A   1      41.377  29.620  33.495  1.00  0.00    -0.248 NA
ATOM     54  C   UNL A   1      42.762  29.798  35.368  1.00  0.00     0.031 C 
ATOM     55  C   UNL A   1      37.589  31.869  32.960  1.00  0.00     0.029 A 
ATOM     56  C   UNL A   1      38.782  31.190  33.150  1.00  0.00     0.049 A 
ATOM     57  H   UNL A   1      39.771  29.848  31.856  1.00  0.00     0.167 HD
ATOM     58  C   UNL A   1      40.814  30.516  34.395  1.00  0.00     0.074 A 
ATOM     59  C   UNL A   1      41.695  30.566  35.545  1.00  0.00     0.031 C 
ATOM     60  C   UNL A   1      39.668  31.231  34.283  1.00  0.00     0.031 A 
BRANCH  47  61
ATOM     61  C   UNL A   1      36.701  30.365  28.939  1.00  0.00    -0.014 A 
ATOM     62  C   UNL A   1      35.782  29.386  28.529  1.00  0.00     0.009 A 
ATOM     63  C   UNL A   1      36.501  31.696  28.543  1.00  0.00     0.009 A 
ATOM     64  C   UNL A   1      34.702  29.729  27.713  1.00  0.00     0.001 A 
ATOM     65  C   UNL A   1      35.407  32.040  27.747  1.00  0.00     0.001 A 
ATOM     66  C   UNL A   1      34.514  31.055  27.326  1.00  0.00     0.000 A 
ENDBRANCH  47  61
BRANCH  48  67
ATOM     67  C   UNL A   1      44.677  27.842  34.356  1.00  0.00    -0.014 A 
ATOM     68  C   UNL A   1      45.874  28.557  34.209  1.00  0.00     0.009 A 
ATOM     69  C   UNL A   1      44.629  26.775  35.267  1.00  0.00     0.009 A 
ATOM     70  C   UNL A   1      47.007  28.195  34.943  1.00  0.00     0.001 A 
ATOM     71  C   UNL A   1      45.754  26.433  36.018  1.00  0.00     0.001 A 
ATOM     72  C   UNL A   1      46.945  27.137  35.849  1.00  0.00     0.000 A 
ENDBRANCH  48  67
BRANCH  60  73
ATOM     73  C   UNL A   1      39.285  32.104  35.444  1.00  0.00    -0.014 A 
ATOM     74  C   UNL A   1      39.692  33.445  35.512  1.00  0.00     0.009 A 
ATOM     75  C   UNL A   1      38.468  31.588  36.461  1.00  0.00     0.009 A 
ATOM     76  C   UNL A   1      39.313  34.243  36.594  1.00  0.00     0.001 A 
ATOM     77  C   UNL A   1      38.068  32.395  37.527  1.00  0.00     0.001 A 
ATOM     78  C   UNL A   1      38.499  33.719  37.597  1.00  0.00     0.000 A 
ENDBRANCH  60  73
ENDBRANCH  34  35
ENDBRANCH  27  29
ENDBRANCH  26  27
ENDBRANCH  25  26
ENDBRANCH  24  25
ENDBRANCH  23  24
ENDBRANCH   1  23
TORSDOF 17
ENDMDL
MODEL 3
REMARK VINA RESULT:      -9.7      2.956      4.574
REMARK SMILES Cc1nc(CNC(=O)[C@H]2CCO[C@H]2C)sc1C(=O)OCCOCCOC(=O)c1ccc(-c2c3nc(c(-c4ccccc4)c4ccc([nH]4)c(-c4ccccc4)c4nc(c(-c5ccccc5)c5ccc2[nH]5)C=C4)C=C3)cc1
REMARK SMILES IDX 21 1 20 2 19 3 17 4 18 5 16 6 1 7 2 8 3 9 4 10 15 11 5 12
REMARK SMILES IDX 6 13 7 14 8 16 9 17 10 18 13 19 11 20 12 21 14 22 22 23
REMARK SMILES IDX 23 24 24 25 25 26 26 27 27 28 28 29 29 30 75 31 30 32 74 33
REMARK SMILES IDX 31 34 32 35 33 36 68 37 34 38 73 39 67 40 69 41 35 42 72 43
REMARK SMILES IDX 66 44 65 45 36 47 58 48 43 49 57 50 44 51 47 52 56 53 70 54
REMARK SMILES IDX 45 55 46 56 55 58 71 59 48 60 37 61 38 62 42 63 39 64 41 65
REMARK SMILES IDX 40 66 59 67 60 68 64 69 61 70 63 71 62 72 49 73 50 74 54 75
REMARK SMILES IDX 51 76 53 77 52 78
REMARK H PARENT 6 15 69 46 47 57
REMARK Flexibility Score: inf
ROOT
ATOM      1  C   UNL A   1      42.073  20.797  27.459  1.00  0.00     0.202 C 
ENDROOT
BRANCH   1   2
ATOM      2  C   UNL A   1      41.685  21.876  26.445  1.00  0.00     0.261 C 
BRANCH   2   3
ATOM      3  O   UNL A   1      40.349  21.631  25.968  1.00  0.00    -0.459 OA
BRANCH   3   4
ATOM      4  C   UNL A   1      39.375  22.433  26.480  1.00  0.00     0.350 C 
ATOM      5  O   UNL A   1      39.542  23.194  27.428  1.00  0.00    -0.245 OA
BRANCH   4   6
ATOM      6  C   UNL A   1      38.174  22.340  25.678  1.00  0.00     0.135 A 
ATOM      7  C   UNL A   1      37.965  19.862  24.927  1.00  0.00     0.068 C 
ATOM      8  C   UNL A   1      37.574  21.299  24.980  1.00  0.00     0.063 A 
ATOM      9  N   UNL A   1      36.437  21.664  24.261  1.00  0.00    -0.244 NA
ATOM     10  C   UNL A   1      36.178  22.945  24.415  1.00  0.00     0.113 A 
ATOM     11  S   UNL A   1      37.263  23.782  25.444  1.00  0.00    -0.110 S 
BRANCH  10  12
ATOM     12  C   UNL A   1      35.025  23.699  23.821  1.00  0.00     0.183 C 
BRANCH  12  13
ATOM     13  N   UNL A   1      34.005  22.800  23.312  1.00  0.00    -0.349 N 
ATOM     14  C   UNL A   1      32.757  22.548  23.796  1.00  0.00     0.226 C 
ATOM     15  H   UNL A   1      34.251  22.299  22.501  1.00  0.00     0.163 HD
ATOM     16  O   UNL A   1      32.008  21.826  23.140  1.00  0.00    -0.275 OA
BRANCH  14  17
ATOM     17  C   UNL A   1      32.341  23.168  25.114  1.00  0.00     0.109 C 
ATOM     18  C   UNL A   1      30.884  22.960  25.476  1.00  0.00     0.044 C 
ATOM     19  C   UNL A   1      33.052  22.578  26.328  1.00  0.00     0.127 C 
ATOM     20  C   UNL A   1      30.894  23.227  26.966  1.00  0.00     0.161 C 
ATOM     21  O   UNL A   1      32.191  22.858  27.454  1.00  0.00    -0.378 OA
ATOM     22  C   UNL A   1      33.274  21.067  26.294  1.00  0.00     0.039 C 
ENDBRANCH  14  17
ENDBRANCH  12  13
ENDBRANCH  10  12
ENDBRANCH   4   6
ENDBRANCH   3   4
ENDBRANCH   2   3
ENDBRANCH   1   2
BRANCH   1  23
ATOM     23  O   UNL A   1      41.766  19.467  27.038  1.00  0.00    -0.374 OA
BRANCH  23  24
ATOM     24  C   UNL A   1      42.852  18.539  27.011  1.00  0.00     0.202 C 
BRANCH  24  25
ATOM     25  C   UNL A   1      43.414  18.242  25.616  1.00  0.00     0.261 C 
BRANCH  25  26
ATOM     26  O   UNL A   1      43.425  19.428  24.799  1.00  0.00    -0.460 OA
BRANCH  26  27
ATOM     27  C   UNL A   1      44.629  19.742  24.265  1.00  0.00     0.338 C 
ATOM     28  O   UNL A   1      45.292  19.076  23.488  1.00  0.00    -0.246 OA
BRANCH  27  29
ATOM     29  C   UNL A   1      44.985  21.130  24.621  1.00  0.00     0.060 A 
ATOM     30  C   UNL A   1      45.467  21.358  25.916  1.00  0.00     0.016 A 
ATOM     31  C   UNL A   1      44.803  22.196  23.736  1.00  0.00     0.016 A 
ATOM     32  C   UNL A   1      45.725  22.657  26.348  1.00  0.00     0.010 A 
ATOM     33  C   UNL A   1      45.055  23.502  24.173  1.00  0.00     0.010 A 
ATOM     34  C   UNL A   1      45.486  23.740  25.491  1.00  0.00    -0.014 A 
BRANCH  34  35
ATOM     35  C   UNL A   1      45.554  25.122  26.023  1.00  0.00     0.031 A 
ATOM     36  C   UNL A   1      46.872  25.847  26.011  1.00  0.00     0.074 A 
ATOM     37  C   UNL A   1      44.450  25.738  26.481  1.00  0.00     0.049 A 
ATOM     38  N   UNL A   1      47.157  27.053  26.432  1.00  0.00    -0.248 NA
ATOM     39  C   UNL A   1      48.018  25.116  25.448  1.00  0.00     0.031 C 
ATOM     40  C   UNL A   1      43.108  25.161  26.509  1.00  0.00     0.029 A 
ATOM     41  N   UNL A   1      44.292  26.992  27.013  1.00  0.00    -0.354 N 
ATOM     42  C   UNL A   1      48.514  27.225  26.187  1.00  0.00     0.074 A 
ATOM     43  C   UNL A   1      49.001  25.991  25.608  1.00  0.00     0.031 C 
ATOM     44  C   UNL A   1      42.260  26.060  27.040  1.00  0.00     0.029 A 
ATOM     45  C   UNL A   1      43.006  27.261  27.412  1.00  0.00     0.049 A 
ATOM     46  H   UNL A   1      45.029  27.639  27.102  1.00  0.00     0.167 HD
ATOM     47  C   UNL A   1      49.285  28.314  26.417  1.00  0.00     0.031 A 
ATOM     48  C   UNL A   1      42.492  28.346  28.023  1.00  0.00     0.031 A 
ATOM     49  C   UNL A   1      48.811  29.537  27.007  1.00  0.00     0.049 A 
ATOM     50  C   UNL A   1      43.386  29.515  28.339  1.00  0.00     0.074 A 
ATOM     51  C   UNL A   1      49.517  30.698  27.269  1.00  0.00     0.029 A 
ATOM     52  N   UNL A   1      47.511  29.752  27.433  1.00  0.00    -0.354 N 
ATOM     53  N   UNL A   1      44.661  29.673  28.079  1.00  0.00    -0.248 NA
ATOM     54  C   UNL A   1      42.765  30.655  29.027  1.00  0.00     0.031 C 
ATOM     55  C   UNL A   1      48.654  31.601  27.899  1.00  0.00     0.029 A 
ATOM     56  C   UNL A   1      47.398  31.020  27.981  1.00  0.00     0.049 A 
ATOM     57  H   UNL A   1      46.776  29.102  27.358  1.00  0.00     0.167 HD
ATOM     58  C   UNL A   1      44.989  30.939  28.549  1.00  0.00     0.074 A 
ATOM     59  C   UNL A   1      43.776  31.511  29.097  1.00  0.00     0.031 C 
ATOM     60  C   UNL A   1      46.186  31.574  28.524  1.00  0.00     0.031 A 
BRANCH  47  61
ATOM     61  C   UNL A   1      50.739  28.215  26.054  1.00  0.00    -0.014 A 
ATOM     62  C   UNL A   1      51.699  27.824  27.001  1.00  0.00     0.009 A 
ATOM     63  C   UNL A   1      51.150  28.488  24.740  1.00  0.00     0.009 A 
ATOM     64  C   UNL A   1      53.047  27.738  26.646  1.00  0.00     0.001 A 
ATOM     65  C   UNL A   1      52.494  28.379  24.383  1.00  0.00     0.001 A 
ATOM     66  C   UNL A   1      53.443  28.012  25.337  1.00  0.00     0.000 A 
ENDBRANCH  47  61
BRANCH  48  67
ATOM     67  C   UNL A   1      41.055  28.375  28.399  1.00  0.00    -0.014 A 
ATOM     68  C   UNL A   1      40.619  27.812  29.606  1.00  0.00     0.009 A 
ATOM     69  C   UNL A   1      40.109  28.954  27.537  1.00  0.00     0.009 A 
ATOM     70  C   UNL A   1      39.260  27.806  29.933  1.00  0.00     0.001 A 
ATOM     71  C   UNL A   1      38.756  28.970  27.878  1.00  0.00     0.001 A 
ATOM     72  C   UNL A   1      38.331  28.388  29.072  1.00  0.00     0.000 A 
ENDBRANCH  48  67
BRANCH  60  73
ATOM     73  C   UNL A   1      46.238  32.969  29.078  1.00  0.00    -0.014 A 
ATOM     74  C   UNL A   1      46.560  33.207  30.423  1.00  0.00     0.009 A 
ATOM     75  C   UNL A   1      46.003  34.062  28.230  1.00  0.00     0.009 A 
ATOM     76  C   UNL A   1      46.615  34.514  30.914  1.00  0.00     0.001 A 
ATOM     77  C   UNL A   1      46.086  35.367  28.717  1.00  0.00     0.001 A 
ATOM     78  C   UNL A   1      46.382  35.591  30.060  1.00  0.00     0.000 A 
ENDBRANCH  60  73
ENDBRANCH  34  35
ENDBRANCH  27  29
ENDBRANCH  26  27
ENDBRANCH  25  26
ENDBRANCH  24  25
ENDBRANCH  23  24
ENDBRANCH   1  23
TORSDOF 17
ENDMDL
