MODEL 1
REMARK VINA RESULT:      -8.6      0.000      0.000
REMARK SMILES C[NH2+][C@]1(C(=O)OCCOCCOC(=O)c2ccc(-c3c4nc(c(-c5ccccc5)c5ccc([nH]5)c(-c5ccccc5)c5nc(c(-c6ccccc6)c6ccc3[nH]6)C=C5)C=C4)cc2)CCC[C@@H](Sc2nccs2)C1
REMARK SMILES IDX 9 1 8 2 7 3 6 4 4 5 5 6 3 7 63 8 73 9 64 10 66 11 65 12 2 13
REMARK SMILES IDX 1 14 67 17 68 18 69 19 72 20 70 21 71 22 10 23 11 24 12 25
REMARK SMILES IDX 13 26 14 27 15 28 16 29 62 30 17 31 61 32 18 33 19 34 20 35
REMARK SMILES IDX 55 36 21 37 60 38 54 39 56 40 22 41 59 42 53 43 52 44 23 46
REMARK SMILES IDX 45 47 30 48 44 49 31 50 34 51 43 52 57 53 32 54 33 55 42 57
REMARK SMILES IDX 58 58 35 59 24 60 25 61 29 62 26 63 28 64 27 65 46 66 47 67
REMARK SMILES IDX 51 68 48 69 50 70 49 71 36 72 37 73 41 74 38 75 40 76 39 77
REMARK H PARENT 2 15 2 16 56 45 34 56
REMARK Flexibility Score: inf
ROOT
ATOM      1  O   UNL A   1      32.839  34.299  29.098  1.00  0.00    -0.374 OA
ENDROOT
BRANCH   1   2
ATOM      2  C   UNL A   1      33.487  35.386  29.756  1.00  0.00     0.202 C 
BRANCH   2   3
ATOM      3  C   UNL A   1      33.567  35.319  31.282  1.00  0.00     0.261 C 
BRANCH   3   4
ATOM      4  O   UNL A   1      34.884  34.955  31.723  1.00  0.00    -0.459 OA
BRANCH   4   5
ATOM      5  C   UNL A   1      35.089  33.622  31.910  1.00  0.00     0.368 C 
ATOM      6  O   UNL A   1      34.185  32.795  31.997  1.00  0.00    -0.245 OA
BRANCH   5   7
ATOM      7  C   UNL A   1      36.603  33.250  32.023  1.00  0.00     0.195 C 
ATOM      8  C   UNL A   1      37.509  34.501  32.199  1.00  0.00     0.081 C 
ATOM      9  C   UNL A   1      36.704  32.391  33.303  1.00  0.00     0.096 C 
ATOM     10  C   UNL A   1      38.956  34.160  32.570  1.00  0.00     0.008 C 
ATOM     11  C   UNL A   1      38.132  32.077  33.751  1.00  0.00     0.061 C 
ATOM     12  C   UNL A   1      39.018  33.324  33.845  1.00  0.00     0.015 C 
BRANCH   7  13
ATOM     13  N   UNL A   1      37.080  32.564  30.782  1.00  0.00    -0.335 N 
ATOM     14  C   UNL A   1      37.245  33.413  29.608  1.00  0.00     0.331 C 
ATOM     15  H   UNL A   1      37.984  32.138  30.989  1.00  0.00     0.347 HD
ATOM     16  H   UNL A   1      36.350  31.895  30.538  1.00  0.00     0.347 HD
ENDBRANCH   7  13
BRANCH  11  17
ATOM     17  S   UNL A   1      38.176  31.107  35.309  1.00  0.00    -0.092 SA
BRANCH  17  18
ATOM     18  C   UNL A   1      39.640  30.158  35.143  1.00  0.00     0.150 A 
ATOM     19  N   UNL A   1      40.382  29.838  36.177  1.00  0.00    -0.238 NA
ATOM     20  S   UNL A   1      40.194  29.575  33.628  1.00  0.00    -0.116 S 
ATOM     21  C   UNL A   1      41.476  29.106  35.764  1.00  0.00     0.124 A 
ATOM     22  C   UNL A   1      41.549  28.868  34.411  1.00  0.00     0.087 A 
ENDBRANCH  17  18
ENDBRANCH  11  17
ENDBRANCH   5   7
ENDBRANCH   4   5
ENDBRANCH   3   4
ENDBRANCH   2   3
ENDBRANCH   1   2
BRANCH   1  23
ATOM     23  C   UNL A   1      33.590  33.570  28.125  1.00  0.00     0.202 C 
BRANCH  23  24
ATOM     24  C   UNL A   1      34.085  32.180  28.540  1.00  0.00     0.261 C 
BRANCH  24  25
ATOM     25  O   UNL A   1      34.235  31.295  27.412  1.00  0.00    -0.460 OA
BRANCH  25  26
ATOM     26  C   UNL A   1      34.515  30.009  27.732  1.00  0.00     0.338 C 
ATOM     27  O   UNL A   1      33.813  29.026  27.545  1.00  0.00    -0.246 OA
BRANCH  26  28
ATOM     28  C   UNL A   1      35.908  29.892  28.202  1.00  0.00     0.060 A 
ATOM     29  C   UNL A   1      36.926  30.164  27.279  1.00  0.00     0.016 A 
ATOM     30  C   UNL A   1      36.215  29.431  29.483  1.00  0.00     0.016 A 
ATOM     31  C   UNL A   1      38.256  29.924  27.615  1.00  0.00     0.010 A 
ATOM     32  C   UNL A   1      37.551  29.178  29.815  1.00  0.00     0.010 A 
ATOM     33  C   UNL A   1      38.572  29.386  28.869  1.00  0.00    -0.014 A 
BRANCH  33  34
ATOM     34  C   UNL A   1      39.948  28.895  29.122  1.00  0.00     0.031 A 
ATOM     35  C   UNL A   1      40.921  29.790  29.839  1.00  0.00     0.074 A 
ATOM     36  C   UNL A   1      40.316  27.653  28.761  1.00  0.00     0.049 A 
ATOM     37  N   UNL A   1      42.168  29.567  30.164  1.00  0.00    -0.248 NA
ATOM     38  C   UNL A   1      40.417  31.113  30.247  1.00  0.00     0.031 C 
ATOM     39  C   UNL A   1      39.454  26.671  28.105  1.00  0.00     0.029 A 
ATOM     40  N   UNL A   1      41.519  27.009  28.901  1.00  0.00    -0.354 N 
ATOM     41  C   UNL A   1      42.600  30.719  30.812  1.00  0.00     0.074 A 
ATOM     42  C   UNL A   1      41.492  31.649  30.808  1.00  0.00     0.031 C 
ATOM     43  C   UNL A   1      40.161  25.547  27.894  1.00  0.00     0.029 A 
ATOM     44  C   UNL A   1      41.528  25.742  28.373  1.00  0.00     0.049 A 
ATOM     45  H   UNL A   1      42.302  27.417  29.337  1.00  0.00     0.167 HD
ATOM     46  C   UNL A   1      43.808  30.978  31.365  1.00  0.00     0.031 A 
ATOM     47  C   UNL A   1      42.530  24.848  28.274  1.00  0.00     0.031 A 
ATOM     48  C   UNL A   1      44.918  30.064  31.357  1.00  0.00     0.049 A 
ATOM     49  C   UNL A   1      43.888  25.190  28.825  1.00  0.00     0.074 A 
ATOM     50  C   UNL A   1      46.180  30.235  31.899  1.00  0.00     0.029 A 
ATOM     51  N   UNL A   1      44.900  28.809  30.772  1.00  0.00    -0.354 N 
ATOM     52  N   UNL A   1      44.276  26.274  29.451  1.00  0.00    -0.248 NA
ATOM     53  C   UNL A   1      44.943  24.180  28.659  1.00  0.00     0.031 C 
ATOM     54  C   UNL A   1      46.942  29.101  31.598  1.00  0.00     0.029 A 
ATOM     55  C   UNL A   1      46.137  28.204  30.915  1.00  0.00     0.049 A 
ATOM     56  H   UNL A   1      44.122  28.407  30.321  1.00  0.00     0.167 HD
ATOM     57  C   UNL A   1      45.612  26.066  29.776  1.00  0.00     0.074 A 
ATOM     58  C   UNL A   1      45.963  24.748  29.289  1.00  0.00     0.031 C 
ATOM     59  C   UNL A   1      46.470  26.893  30.422  1.00  0.00     0.031 A 
BRANCH  46  60
ATOM     60  C   UNL A   1      43.999  32.327  31.998  1.00  0.00    -0.014 A 
ATOM     61  C   UNL A   1      43.685  32.547  33.349  1.00  0.00     0.009 A 
ATOM     62  C   UNL A   1      44.523  33.385  31.241  1.00  0.00     0.009 A 
ATOM     63  C   UNL A   1      43.866  33.809  33.919  1.00  0.00     0.001 A 
ATOM     64  C   UNL A   1      44.725  34.639  31.819  1.00  0.00     0.001 A 
ATOM     65  C   UNL A   1      44.388  34.852  33.155  1.00  0.00     0.000 A 
ENDBRANCH  46  60
BRANCH  47  66
ATOM     66  C   UNL A   1      42.297  23.543  27.604  1.00  0.00    -0.014 A 
ATOM     67  C   UNL A   1      41.834  22.436  28.330  1.00  0.00     0.009 A 
ATOM     68  C   UNL A   1      42.555  23.395  26.232  1.00  0.00     0.009 A 
ATOM     69  C   UNL A   1      41.657  21.201  27.701  1.00  0.00     0.001 A 
ATOM     70  C   UNL A   1      42.353  22.167  25.600  1.00  0.00     0.001 A 
ATOM     71  C   UNL A   1      41.913  21.069  26.336  1.00  0.00     0.000 A 
ENDBRANCH  47  66
BRANCH  59  72
ATOM     72  C   UNL A   1      47.862  26.385  30.668  1.00  0.00    -0.014 A 
ATOM     73  C   UNL A   1      48.882  26.569  29.721  1.00  0.00     0.009 A 
ATOM     74  C   UNL A   1      48.166  25.751  31.883  1.00  0.00     0.009 A 
ATOM     75  C   UNL A   1      50.172  26.100  29.976  1.00  0.00     0.001 A 
ATOM     76  C   UNL A   1      49.463  25.308  32.144  1.00  0.00     0.001 A 
ATOM     77  C   UNL A   1      50.463  25.474  31.188  1.00  0.00     0.000 A 
ENDBRANCH  59  72
ENDBRANCH  33  34
ENDBRANCH  26  28
ENDBRANCH  25  26
ENDBRANCH  24  25
ENDBRANCH  23  24
ENDBRANCH   1  23
TORSDOF 17
ENDMDL
MODEL 2
REMARK VINA RESULT:      -8.6      5.097     10.047
REMARK SMILES C[NH2+][C@]1(C(=O)OCCOCCOC(=O)c2ccc(-c3c4nc(c(-c5ccccc5)c5ccc([nH]5)c(-c5ccccc5)c5nc(c(-c6ccccc6)c6ccc3[nH]6)C=C5)C=C4)cc2)CCC[C@@H](Sc2nccs2)C1
REMARK SMILES IDX 9 1 8 2 7 3 6 4 4 5 5 6 3 7 63 8 73 9 64 10 66 11 65 12 2 13
REMARK SMILES IDX 1 14 67 17 68 18 69 19 72 20 70 21 71 22 10 23 11 24 12 25
REMARK SMILES IDX 13 26 14 27 15 28 16 29 62 30 17 31 61 32 18 33 19 34 20 35
REMARK SMILES IDX 55 36 21 37 60 38 54 39 56 40 22 41 59 42 53 43 52 44 23 46
REMARK SMILES IDX 45 47 30 48 44 49 31 50 34 51 43 52 57 53 32 54 33 55 42 57
REMARK SMILES IDX 58 58 35 59 24 60 25 61 29 62 26 63 28 64 27 65 46 66 47 67
REMARK SMILES IDX 51 68 48 69 50 70 49 71 36 72 37 73 41 74 38 75 40 76 39 77
REMARK H PARENT 2 15 2 16 56 45 34 56
REMARK Flexibility Score: inf
ROOT
ATOM      1  O   UNL A   1      35.452  21.930  26.024  1.00  0.00    -0.374 OA
ENDROOT
BRANCH   1   2
ATOM      2  C   UNL A   1      35.147  23.260  25.609  1.00  0.00     0.202 C 
BRANCH   2   3
ATOM      3  C   UNL A   1      33.939  23.927  26.268  1.00  0.00     0.261 C 
BRANCH   3   4
ATOM      4  O   UNL A   1      33.657  25.203  25.677  1.00  0.00    -0.459 OA
BRANCH   4   5
ATOM      5  C   UNL A   1      32.484  25.779  26.064  1.00  0.00     0.368 C 
ATOM      6  O   UNL A   1      31.654  25.226  26.780  1.00  0.00    -0.245 OA
BRANCH   5   7
ATOM      7  C   UNL A   1      32.293  27.218  25.485  1.00  0.00     0.195 C 
ATOM      8  C   UNL A   1      33.375  27.581  24.428  1.00  0.00     0.081 C 
ATOM      9  C   UNL A   1      30.918  27.182  24.783  1.00  0.00     0.096 C 
ATOM     10  C   UNL A   1      33.069  28.869  23.658  1.00  0.00     0.008 C 
ATOM     11  C   UNL A   1      30.594  28.421  23.947  1.00  0.00     0.061 C 
ATOM     12  C   UNL A   1      31.712  28.792  22.967  1.00  0.00     0.015 C 
BRANCH   7  13
ATOM     13  N   UNL A   1      32.406  28.249  26.564  1.00  0.00    -0.335 N 
ATOM     14  C   UNL A   1      33.752  28.497  27.070  1.00  0.00     0.331 C 
ATOM     15  H   UNL A   1      32.045  29.128  26.194  1.00  0.00     0.347 HD
ATOM     16  H   UNL A   1      31.878  27.881  27.354  1.00  0.00     0.347 HD
ENDBRANCH   7  13
BRANCH  11  17
ATOM     17  S   UNL A   1      28.974  28.282  23.094  1.00  0.00    -0.092 SA
BRANCH  17  18
ATOM     18  C   UNL A   1      28.720  29.898  22.465  1.00  0.00     0.150 A 
ATOM     19  N   UNL A   1      28.713  30.149  21.176  1.00  0.00    -0.238 NA
ATOM     20  S   UNL A   1      28.450  31.252  23.482  1.00  0.00    -0.116 S 
ATOM     21  C   UNL A   1      28.507  31.496  20.959  1.00  0.00     0.124 A 
ATOM     22  C   UNL A   1      28.349  32.258  22.094  1.00  0.00     0.087 A 
ENDBRANCH  17  18
ENDBRANCH  11  17
ENDBRANCH   5   7
ENDBRANCH   4   5
ENDBRANCH   3   4
ENDBRANCH   2   3
ENDBRANCH   1   2
BRANCH   1  23
ATOM     23  C   UNL A   1      35.836  20.991  25.017  1.00  0.00     0.202 C 
BRANCH  23  24
ATOM     24  C   UNL A   1      37.292  20.512  25.044  1.00  0.00     0.261 C 
BRANCH  24  25
ATOM     25  O   UNL A   1      38.223  21.603  25.191  1.00  0.00    -0.460 OA
BRANCH  25  26
ATOM     26  C   UNL A   1      39.238  21.370  26.056  1.00  0.00     0.338 C 
ATOM     27  O   UNL A   1      39.867  20.332  26.203  1.00  0.00    -0.246 OA
BRANCH  26  28
ATOM     28  C   UNL A   1      39.639  22.623  26.721  1.00  0.00     0.060 A 
ATOM     29  C   UNL A   1      38.990  23.800  26.326  1.00  0.00     0.016 A 
ATOM     30  C   UNL A   1      40.693  22.666  27.635  1.00  0.00     0.016 A 
ATOM     31  C   UNL A   1      39.428  25.033  26.803  1.00  0.00     0.010 A 
ATOM     32  C   UNL A   1      41.140  23.907  28.104  1.00  0.00     0.010 A 
ATOM     33  C   UNL A   1      40.534  25.097  27.659  1.00  0.00    -0.014 A 
BRANCH  33  34
ATOM     34  C   UNL A   1      41.150  26.413  27.953  1.00  0.00     0.031 A 
ATOM     35  C   UNL A   1      42.503  26.730  27.376  1.00  0.00     0.074 A 
ATOM     36  C   UNL A   1      40.498  27.334  28.683  1.00  0.00     0.049 A 
ATOM     37  N   UNL A   1      43.225  27.813  27.503  1.00  0.00    -0.248 NA
ATOM     38  C   UNL A   1      43.123  25.684  26.543  1.00  0.00     0.031 C 
ATOM     39  C   UNL A   1      39.162  27.171  29.256  1.00  0.00     0.029 A 
ATOM     40  N   UNL A   1      40.878  28.596  29.064  1.00  0.00    -0.354 N 
ATOM     41  C   UNL A   1      44.383  27.581  26.769  1.00  0.00     0.074 A 
ATOM     42  C   UNL A   1      44.281  26.245  26.225  1.00  0.00     0.031 C 
ATOM     43  C   UNL A   1      38.837  28.292  29.923  1.00  0.00     0.029 A 
ATOM     44  C   UNL A   1      39.949  29.236  29.846  1.00  0.00     0.049 A 
ATOM     45  H   UNL A   1      41.735  29.003  28.803  1.00  0.00     0.167 HD
ATOM     46  C   UNL A   1      45.435  28.408  26.562  1.00  0.00     0.031 A 
ATOM     47  C   UNL A   1      39.999  30.441  30.445  1.00  0.00     0.031 A 
ATOM     48  C   UNL A   1      45.550  29.731  27.114  1.00  0.00     0.049 A 
ATOM     49  C   UNL A   1      41.214  31.310  30.267  1.00  0.00     0.074 A 
ATOM     50  C   UNL A   1      46.575  30.647  26.953  1.00  0.00     0.029 A 
ATOM     51  N   UNL A   1      44.608  30.323  27.938  1.00  0.00    -0.354 N 
ATOM     52  N   UNL A   1      42.293  31.086  29.555  1.00  0.00    -0.248 NA
ATOM     53  C   UNL A   1      41.215  32.601  30.970  1.00  0.00     0.031 C 
ATOM     54  C   UNL A   1      46.276  31.776  27.723  1.00  0.00     0.029 A 
ATOM     55  C   UNL A   1      45.040  31.583  28.318  1.00  0.00     0.049 A 
ATOM     56  H   UNL A   1      43.758  29.911  28.214  1.00  0.00     0.167 HD
ATOM     57  C   UNL A   1      43.087  32.217  29.705  1.00  0.00     0.074 A 
ATOM     58  C   UNL A   1      42.361  33.130  30.564  1.00  0.00     0.031 C 
ATOM     59  C   UNL A   1      44.307  32.477  29.176  1.00  0.00     0.031 A 
BRANCH  46  60
ATOM     60  C   UNL A   1      46.566  27.884  25.723  1.00  0.00    -0.014 A 
ATOM     61  C   UNL A   1      46.598  28.090  24.335  1.00  0.00     0.009 A 
ATOM     62  C   UNL A   1      47.626  27.197  26.334  1.00  0.00     0.009 A 
ATOM     63  C   UNL A   1      47.656  27.591  23.572  1.00  0.00     0.001 A 
ATOM     64  C   UNL A   1      48.694  26.721  25.572  1.00  0.00     0.001 A 
ATOM     65  C   UNL A   1      48.704  26.911  24.191  1.00  0.00     0.000 A 
ENDBRANCH  46  60
BRANCH  47  66
ATOM     66  C   UNL A   1      38.868  30.895  31.296  1.00  0.00    -0.014 A 
ATOM     67  C   UNL A   1      37.805  31.626  30.745  1.00  0.00     0.009 A 
ATOM     68  C   UNL A   1      38.857  30.612  32.670  1.00  0.00     0.009 A 
ATOM     69  C   UNL A   1      36.766  32.084  31.559  1.00  0.00     0.001 A 
ATOM     70  C   UNL A   1      37.806  31.049  33.476  1.00  0.00     0.001 A 
ATOM     71  C   UNL A   1      36.766  31.792  32.923  1.00  0.00     0.000 A 
ENDBRANCH  47  66
BRANCH  59  72
ATOM     72  C   UNL A   1      44.922  33.813  29.484  1.00  0.00    -0.014 A 
ATOM     73  C   UNL A   1      44.659  34.937  28.685  1.00  0.00     0.009 A 
ATOM     74  C   UNL A   1      45.741  33.957  30.615  1.00  0.00     0.009 A 
ATOM     75  C   UNL A   1      45.230  36.172  28.998  1.00  0.00     0.001 A 
ATOM     76  C   UNL A   1      46.289  35.199  30.938  1.00  0.00     0.001 A 
ATOM     77  C   UNL A   1      46.040  36.304  30.125  1.00  0.00     0.000 A 
ENDBRANCH  59  72
ENDBRANCH  33  34
ENDBRANCH  26  28
ENDBRANCH  25  26
ENDBRANCH  24  25
ENDBRANCH  23  24
ENDBRANCH   1  23
TORSDOF 17
ENDMDL
MODEL 3
REMARK VINA RESULT:      -8.5      4.585      8.330
REMARK SMILES C[NH2+][C@]1(C(=O)OCCOCCOC(=O)c2ccc(-c3c4nc(c(-c5ccccc5)c5ccc([nH]5)c(-c5ccccc5)c5nc(c(-c6ccccc6)c6ccc3[nH]6)C=C5)C=C4)cc2)CCC[C@@H](Sc2nccs2)C1
REMARK SMILES IDX 9 1 8 2 7 3 6 4 4 5 5 6 3 7 63 8 73 9 64 10 66 11 65 12 2 13
REMARK SMILES IDX 1 14 67 17 68 18 69 19 72 20 70 21 71 22 10 23 11 24 12 25
REMARK SMILES IDX 13 26 14 27 15 28 16 29 62 30 17 31 61 32 18 33 19 34 20 35
REMARK SMILES IDX 55 36 21 37 60 38 54 39 56 40 22 41 59 42 53 43 52 44 23 46
REMARK SMILES IDX 45 47 30 48 44 49 31 50 34 51 43 52 57 53 32 54 33 55 42 57
REMARK SMILES IDX 58 58 35 59 24 60 25 61 29 62 26 63 28 64 27 65 46 66 47 67
REMARK SMILES IDX 51 68 48 69 50 70 49 71 36 72 37 73 41 74 38 75 40 76 39 77
REMARK H PARENT 2 15 2 16 56 45 34 56
REMARK Flexibility Score: inf
ROOT
ATOM      1  O   UNL A   1      34.727  33.805  28.160  1.00  0.00    -0.374 OA
ENDROOT
BRANCH   1   2
ATOM      2  C   UNL A   1      34.988  32.411  28.007  1.00  0.00     0.202 C 
BRANCH   2   3
ATOM      3  C   UNL A   1      33.771  31.492  27.884  1.00  0.00     0.261 C 
BRANCH   3   4
ATOM      4  O   UNL A   1      33.689  30.901  26.579  1.00  0.00    -0.459 OA
BRANCH   4   5
ATOM      5  C   UNL A   1      32.452  30.463  26.214  1.00  0.00     0.368 C 
ATOM      6  O   UNL A   1      31.431  31.139  26.309  1.00  0.00    -0.245 OA
BRANCH   5   7
ATOM      7  C   UNL A   1      32.461  28.996  25.675  1.00  0.00     0.195 C 
ATOM      8  C   UNL A   1      32.497  27.944  26.819  1.00  0.00     0.081 C 
ATOM      9  C   UNL A   1      31.124  28.846  24.916  1.00  0.00     0.096 C 
ATOM     10  C   UNL A   1      32.246  26.511  26.339  1.00  0.00     0.008 C 
ATOM     11  C   UNL A   1      30.798  27.420  24.472  1.00  0.00     0.061 C 
ATOM     12  C   UNL A   1      30.912  26.398  25.607  1.00  0.00     0.015 C 
BRANCH   7  13
ATOM     13  N   UNL A   1      33.676  28.740  24.839  1.00  0.00    -0.335 N 
ATOM     14  C   UNL A   1      33.530  28.992  23.410  1.00  0.00     0.331 C 
ATOM     15  H   UNL A   1      34.425  29.338  25.187  1.00  0.00     0.347 HD
ATOM     16  H   UNL A   1      33.864  27.742  24.925  1.00  0.00     0.347 HD
ENDBRANCH   7  13
BRANCH  11  17
ATOM     17  S   UNL A   1      29.169  27.307  23.632  1.00  0.00    -0.092 SA
BRANCH  17  18
ATOM     18  C   UNL A   1      29.044  28.846  22.804  1.00  0.00     0.150 A 
ATOM     19  N   UNL A   1      29.868  29.185  21.840  1.00  0.00    -0.238 NA
ATOM     20  S   UNL A   1      27.835  30.002  23.182  1.00  0.00    -0.116 S 
ATOM     21  C   UNL A   1      29.556  30.447  21.375  1.00  0.00     0.124 A 
ATOM     22  C   UNL A   1      28.484  31.052  21.989  1.00  0.00     0.087 A 
ENDBRANCH  17  18
ENDBRANCH  11  17
ENDBRANCH   5   7
ENDBRANCH   4   5
ENDBRANCH   3   4
ENDBRANCH   2   3
ENDBRANCH   1   2
BRANCH   1  23
ATOM     23  C   UNL A   1      33.391  34.198  28.485  1.00  0.00     0.202 C 
BRANCH  23  24
ATOM     24  C   UNL A   1      33.238  35.340  29.496  1.00  0.00     0.261 C 
BRANCH  24  25
ATOM     25  O   UNL A   1      32.527  34.929  30.680  1.00  0.00    -0.460 OA
BRANCH  25  26
ATOM     26  C   UNL A   1      32.884  35.581  31.812  1.00  0.00     0.338 C 
ATOM     27  O   UNL A   1      32.294  36.504  32.356  1.00  0.00    -0.246 OA
BRANCH  26  28
ATOM     28  C   UNL A   1      34.032  34.909  32.448  1.00  0.00     0.060 A 
ATOM     29  C   UNL A   1      35.277  35.549  32.372  1.00  0.00     0.016 A 
ATOM     30  C   UNL A   1      33.920  33.639  33.016  1.00  0.00     0.016 A 
ATOM     31  C   UNL A   1      36.424  34.897  32.816  1.00  0.00     0.010 A 
ATOM     32  C   UNL A   1      35.076  32.981  33.450  1.00  0.00     0.010 A 
ATOM     33  C   UNL A   1      36.337  33.592  33.315  1.00  0.00    -0.014 A 
BRANCH  33  34
ATOM     34  C   UNL A   1      37.580  32.816  33.541  1.00  0.00     0.031 A 
ATOM     35  C   UNL A   1      38.355  33.036  34.812  1.00  0.00     0.074 A 
ATOM     36  C   UNL A   1      37.992  31.896  32.652  1.00  0.00     0.049 A 
ATOM     37  N   UNL A   1      39.464  32.471  35.215  1.00  0.00    -0.248 NA
ATOM     38  C   UNL A   1      37.803  34.024  35.755  1.00  0.00     0.031 C 
ATOM     39  C   UNL A   1      37.306  31.553  31.408  1.00  0.00     0.029 A 
ATOM     40  N   UNL A   1      39.094  31.079  32.668  1.00  0.00    -0.354 N 
ATOM     41  C   UNL A   1      39.743  33.033  36.455  1.00  0.00     0.074 A 
ATOM     42  C   UNL A   1      38.706  34.004  36.725  1.00  0.00     0.031 C 
ATOM     43  C   UNL A   1      38.008  30.597  30.775  1.00  0.00     0.029 A 
ATOM     44  C   UNL A   1      39.204  30.283  31.555  1.00  0.00     0.049 A 
ATOM     45  H   UNL A   1      39.745  31.066  33.406  1.00  0.00     0.167 HD
ATOM     46  C   UNL A   1      40.769  32.763  37.297  1.00  0.00     0.031 A 
ATOM     47  C   UNL A   1      40.167  29.413  31.199  1.00  0.00     0.031 A 
ATOM     48  C   UNL A   1      41.812  31.810  37.027  1.00  0.00     0.049 A 
ATOM     49  C   UNL A   1      41.340  29.188  32.114  1.00  0.00     0.074 A 
ATOM     50  C   UNL A   1      42.889  31.462  37.823  1.00  0.00     0.029 A 
ATOM     51  N   UNL A   1      41.911  31.060  35.867  1.00  0.00    -0.354 N 
ATOM     52  N   UNL A   1      41.582  29.713  33.291  1.00  0.00    -0.248 NA
ATOM     53  C   UNL A   1      42.370  28.246  31.652  1.00  0.00     0.031 C 
ATOM     54  C   UNL A   1      43.668  30.535  37.122  1.00  0.00     0.029 A 
ATOM     55  C   UNL A   1      43.046  30.268  35.913  1.00  0.00     0.049 A 
ATOM     56  H   UNL A   1      41.269  31.084  35.121  1.00  0.00     0.167 HD
ATOM     57  C   UNL A   1      42.776  29.145  33.721  1.00  0.00     0.074 A 
ATOM     58  C   UNL A   1      43.202  28.228  32.684  1.00  0.00     0.031 C 
ATOM     59  C   UNL A   1      43.457  29.363  34.872  1.00  0.00     0.031 A 
BRANCH  46  60
ATOM     60  C   UNL A   1      40.826  33.538  38.582  1.00  0.00    -0.014 A 
ATOM     61  C   UNL A   1      40.244  33.041  39.759  1.00  0.00     0.009 A 
ATOM     62  C   UNL A   1      41.493  34.772  38.622  1.00  0.00     0.009 A 
ATOM     63  C   UNL A   1      40.305  33.780  40.942  1.00  0.00     0.001 A 
ATOM     64  C   UNL A   1      41.573  35.497  39.812  1.00  0.00     0.001 A 
ATOM     65  C   UNL A   1      40.971  35.004  40.968  1.00  0.00     0.000 A 
ENDBRANCH  46  60
BRANCH  47  66
ATOM     66  C   UNL A   1      40.080  28.700  29.898  1.00  0.00    -0.014 A 
ATOM     67  C   UNL A   1      39.519  27.417  29.820  1.00  0.00     0.009 A 
ATOM     68  C   UNL A   1      40.577  29.296  28.729  1.00  0.00     0.009 A 
ATOM     69  C   UNL A   1      39.478  26.736  28.601  1.00  0.00     0.001 A 
ATOM     70  C   UNL A   1      40.512  28.624  27.507  1.00  0.00     0.001 A 
ATOM     71  C   UNL A   1      39.971  27.342  27.445  1.00  0.00     0.000 A 
ENDBRANCH  47  66
BRANCH  59  72
ATOM     72  C   UNL A   1      44.717  28.574  35.087  1.00  0.00    -0.014 A 
ATOM     73  C   UNL A   1      45.967  29.076  34.691  1.00  0.00     0.009 A 
ATOM     74  C   UNL A   1      44.656  27.329  35.733  1.00  0.00     0.009 A 
ATOM     75  C   UNL A   1      47.127  28.332  34.913  1.00  0.00     0.001 A 
ATOM     76  C   UNL A   1      45.822  26.600  35.975  1.00  0.00     0.001 A 
ATOM     77  C   UNL A   1      47.055  27.098  35.558  1.00  0.00     0.000 A 
ENDBRANCH  59  72
ENDBRANCH  33  34
ENDBRANCH  26  28
ENDBRANCH  25  26
ENDBRANCH  24  25
ENDBRANCH  23  24
ENDBRANCH   1  23
TORSDOF 17
ENDMDL
