MODEL 1
REMARK VINA RESULT:     -10.0      0.000      0.000
REMARK SMILES Cc1ccc(C)c([C@@H](C)[C@](C)(O)C(=O)OCCOCCOC(=O)c2ccc(-c3c4nc(c(-c5ccccc5)c5ccc([nH]5)c(-c5ccccc5)c5nc(c(-c6ccccc6)c6ccc3[nH]6)C=C5)C=C4)cc2)c1
REMARK SMILES IDX 18 1 17 2 16 3 15 4 13 5 14 6 10 7 11 8 8 9 9 10 7 11 1 12
REMARK SMILES IDX 2 13 3 14 72 15 4 16 5 17 6 18 12 19 19 21 20 22 21 23 22 24
REMARK SMILES IDX 23 25 24 26 25 27 71 28 26 29 70 30 27 31 28 32 29 33 64 34
REMARK SMILES IDX 30 35 69 36 63 37 65 38 31 39 68 40 62 41 61 42 32 44 54 45
REMARK SMILES IDX 39 46 53 47 40 48 43 49 52 50 66 51 41 52 42 53 51 55 67 56
REMARK SMILES IDX 44 57 33 58 34 59 38 60 35 61 37 62 36 63 55 64 56 65 60 66
REMARK SMILES IDX 57 67 59 68 58 69 45 70 46 71 50 72 47 73 49 74 48 75
REMARK H PARENT 12 20 65 43 43 54
REMARK Flexibility Score: inf
ROOT
ATOM      1  O   UNL A   1      33.268  30.755  27.518  1.00  0.00    -0.374 OA
ENDROOT
BRANCH   1   2
ATOM      2  C   UNL A   1      32.227  31.293  26.712  1.00  0.00     0.202 C 
BRANCH   2   3
ATOM      3  C   UNL A   1      31.490  30.125  26.059  1.00  0.00     0.261 C 
BRANCH   3   4
ATOM      4  O   UNL A   1      31.823  29.878  24.666  1.00  0.00    -0.461 OA
BRANCH   4   5
ATOM      5  C   UNL A   1      30.903  29.246  23.887  1.00  0.00     0.338 C 
ATOM      6  O   UNL A   1      29.787  29.683  23.631  1.00  0.00    -0.249 OA
BRANCH   5   7
ATOM      7  C   UNL A   1      31.399  27.883  23.319  1.00  0.00     0.165 C 
ATOM      8  C   UNL A   1      30.522  26.774  23.976  1.00  0.00     0.055 C 
BRANCH   7   9
ATOM      9  C   UNL A   1      32.974  27.691  23.424  1.00  0.00     0.059 C 
ATOM     10  C   UNL A   1      33.763  28.028  22.141  1.00  0.00     0.016 C 
BRANCH   9  11
ATOM     11  C   UNL A   1      33.509  26.386  24.021  1.00  0.00    -0.039 A 
ATOM     12  C   UNL A   1      34.398  22.836  22.785  1.00  0.00     0.044 C 
ATOM     13  C   UNL A   1      34.197  24.036  23.658  1.00  0.00    -0.051 A 
ATOM     14  C   UNL A   1      34.552  23.942  24.990  1.00  0.00     0.004 A 
ATOM     15  C   UNL A   1      33.664  25.249  23.185  1.00  0.00     0.007 A 
ATOM     16  C   UNL A   1      34.419  25.055  25.803  1.00  0.00     0.004 A 
ATOM     17  C   UNL A   1      33.886  26.277  25.362  1.00  0.00    -0.048 A 
ATOM     18  C   UNL A   1      33.830  27.439  26.306  1.00  0.00     0.044 C 
ENDBRANCH   9  11
ENDBRANCH   7   9
BRANCH   7  19
ATOM     19  O   UNL A   1      31.090  27.812  21.909  1.00  0.00    -0.378 OA
ATOM     20  H   UNL A   1      31.416  26.974  21.548  1.00  0.00     0.212 HD
ENDBRANCH   7  19
ENDBRANCH   5   7
ENDBRANCH   4   5
ENDBRANCH   3   4
ENDBRANCH   2   3
ENDBRANCH   1   2
BRANCH   1  21
ATOM     21  C   UNL A   1      34.053  31.697  28.243  1.00  0.00     0.202 C 
BRANCH  21  22
ATOM     22  C   UNL A   1      35.540  31.428  28.013  1.00  0.00     0.261 C 
BRANCH  22  23
ATOM     23  O   UNL A   1      35.826  30.042  28.281  1.00  0.00    -0.460 OA
BRANCH  23  24
ATOM     24  C   UNL A   1      36.615  29.852  29.374  1.00  0.00     0.338 C 
ATOM     25  O   UNL A   1      36.335  30.215  30.508  1.00  0.00    -0.246 OA
BRANCH  24  26
ATOM     26  C   UNL A   1      37.924  29.262  28.963  1.00  0.00     0.060 A 
ATOM     27  C   UNL A   1      38.466  29.591  27.714  1.00  0.00     0.016 A 
ATOM     28  C   UNL A   1      38.562  28.296  29.750  1.00  0.00     0.016 A 
ATOM     29  C   UNL A   1      39.647  28.974  27.273  1.00  0.00     0.010 A 
ATOM     30  C   UNL A   1      39.691  27.627  29.273  1.00  0.00     0.010 A 
ATOM     31  C   UNL A   1      40.252  27.952  28.026  1.00  0.00    -0.014 A 
BRANCH  31  32
ATOM     32  C   UNL A   1      41.654  27.497  27.828  1.00  0.00     0.031 A 
ATOM     33  C   UNL A   1      41.594  26.120  27.351  1.00  0.00     0.074 A 
ATOM     34  C   UNL A   1      42.915  27.839  28.222  1.00  0.00     0.049 A 
ATOM     35  N   UNL A   1      41.798  25.126  28.153  1.00  0.00    -0.248 NA
ATOM     36  C   UNL A   1      41.048  25.766  26.040  1.00  0.00     0.031 C 
ATOM     37  C   UNL A   1      43.387  28.644  29.337  1.00  0.00     0.029 A 
ATOM     38  N   UNL A   1      44.052  27.834  27.415  1.00  0.00    -0.354 N 
ATOM     39  C   UNL A   1      41.860  24.057  27.305  1.00  0.00     0.074 A 
ATOM     40  C   UNL A   1      41.103  24.434  26.129  1.00  0.00     0.031 C 
ATOM     41  C   UNL A   1      44.480  29.355  29.003  1.00  0.00     0.029 A 
ATOM     42  C   UNL A   1      44.944  28.882  27.700  1.00  0.00     0.049 A 
ATOM     43  H   UNL A   1      44.214  27.161  26.715  1.00  0.00     0.167 HD
ATOM     44  C   UNL A   1      42.966  23.279  27.401  1.00  0.00     0.031 A 
ATOM     45  C   UNL A   1      46.261  28.995  27.398  1.00  0.00     0.031 A 
ATOM     46  C   UNL A   1      43.641  23.383  28.680  1.00  0.00     0.049 A 
ATOM     47  C   UNL A   1      46.891  27.773  27.951  1.00  0.00     0.074 A 
ATOM     48  C   UNL A   1      43.300  23.137  29.995  1.00  0.00     0.029 A 
ATOM     49  N   UNL A   1      44.766  24.173  28.709  1.00  0.00    -0.354 N 
ATOM     50  N   UNL A   1      47.029  27.504  29.219  1.00  0.00    -0.248 NA
ATOM     51  C   UNL A   1      47.112  26.657  27.041  1.00  0.00     0.031 C 
ATOM     52  C   UNL A   1      44.233  23.837  30.810  1.00  0.00     0.029 A 
ATOM     53  C   UNL A   1      45.147  24.496  29.992  1.00  0.00     0.049 A 
ATOM     54  H   UNL A   1      45.245  24.473  27.902  1.00  0.00     0.167 HD
ATOM     55  C   UNL A   1      46.850  26.131  29.271  1.00  0.00     0.074 A 
ATOM     56  C   UNL A   1      47.103  25.656  27.920  1.00  0.00     0.031 C 
ATOM     57  C   UNL A   1      46.124  25.545  30.266  1.00  0.00     0.031 A 
BRANCH  44  58
ATOM     58  C   UNL A   1      43.686  22.863  26.158  1.00  0.00    -0.014 A 
ATOM     59  C   UNL A   1      43.779  21.505  25.857  1.00  0.00     0.009 A 
ATOM     60  C   UNL A   1      44.464  23.759  25.391  1.00  0.00     0.009 A 
ATOM     61  C   UNL A   1      44.594  21.068  24.809  1.00  0.00     0.001 A 
ATOM     62  C   UNL A   1      45.237  23.334  24.316  1.00  0.00     0.001 A 
ATOM     63  C   UNL A   1      45.308  21.980  24.033  1.00  0.00     0.000 A 
ENDBRANCH  44  58
BRANCH  45  64
ATOM     64  C   UNL A   1      47.023  30.234  27.103  1.00  0.00    -0.014 A 
ATOM     65  C   UNL A   1      46.373  31.375  26.600  1.00  0.00     0.009 A 
ATOM     66  C   UNL A   1      48.357  30.385  27.529  1.00  0.00     0.009 A 
ATOM     67  C   UNL A   1      47.008  32.625  26.579  1.00  0.00     0.001 A 
ATOM     68  C   UNL A   1      48.993  31.635  27.502  1.00  0.00     0.001 A 
ATOM     69  C   UNL A   1      48.311  32.758  27.046  1.00  0.00     0.000 A 
ENDBRANCH  45  64
BRANCH  57  70
ATOM     70  C   UNL A   1      46.212  26.111  31.662  1.00  0.00    -0.014 A 
ATOM     71  C   UNL A   1      47.260  25.865  32.559  1.00  0.00     0.009 A 
ATOM     72  C   UNL A   1      45.197  26.993  32.074  1.00  0.00     0.009 A 
ATOM     73  C   UNL A   1      47.302  26.485  33.815  1.00  0.00     0.001 A 
ATOM     74  C   UNL A   1      45.242  27.624  33.321  1.00  0.00     0.001 A 
ATOM     75  C   UNL A   1      46.297  27.372  34.192  1.00  0.00     0.000 A 
ENDBRANCH  57  70
ENDBRANCH  31  32
ENDBRANCH  24  26
ENDBRANCH  23  24
ENDBRANCH  22  23
ENDBRANCH  21  22
ENDBRANCH   1  21
TORSDOF 17
ENDMDL
MODEL 2
REMARK VINA RESULT:      -9.9      2.554      6.532
REMARK SMILES Cc1ccc(C)c([C@@H](C)[C@](C)(O)C(=O)OCCOCCOC(=O)c2ccc(-c3c4nc(c(-c5ccccc5)c5ccc([nH]5)c(-c5ccccc5)c5nc(c(-c6ccccc6)c6ccc3[nH]6)C=C5)C=C4)cc2)c1
REMARK SMILES IDX 18 1 17 2 16 3 15 4 13 5 14 6 10 7 11 8 8 9 9 10 7 11 1 12
REMARK SMILES IDX 2 13 3 14 72 15 4 16 5 17 6 18 12 19 19 21 20 22 21 23 22 24
REMARK SMILES IDX 23 25 24 26 25 27 71 28 26 29 70 30 27 31 28 32 29 33 64 34
REMARK SMILES IDX 30 35 69 36 63 37 65 38 31 39 68 40 62 41 61 42 32 44 54 45
REMARK SMILES IDX 39 46 53 47 40 48 43 49 52 50 66 51 41 52 42 53 51 55 67 56
REMARK SMILES IDX 44 57 33 58 34 59 38 60 35 61 37 62 36 63 55 64 56 65 60 66
REMARK SMILES IDX 57 67 59 68 58 69 45 70 46 71 50 72 47 73 49 74 48 75
REMARK H PARENT 12 20 65 43 43 54
REMARK Flexibility Score: inf
ROOT
ATOM      1  O   UNL A   1      32.246  27.706  25.902  1.00  0.00    -0.374 OA
ENDROOT
BRANCH   1   2
ATOM      2  C   UNL A   1      31.124  27.232  25.168  1.00  0.00     0.202 C 
BRANCH   2   3
ATOM      3  C   UNL A   1      30.569  26.009  25.898  1.00  0.00     0.261 C 
BRANCH   3   4
ATOM      4  O   UNL A   1      31.556  25.023  26.303  1.00  0.00    -0.461 OA
BRANCH   4   5
ATOM      5  C   UNL A   1      31.119  23.791  26.678  1.00  0.00     0.338 C 
ATOM      6  O   UNL A   1      30.039  23.567  27.214  1.00  0.00    -0.249 OA
BRANCH   5   7
ATOM      7  C   UNL A   1      32.124  22.647  26.353  1.00  0.00     0.165 C 
ATOM      8  C   UNL A   1      32.934  22.374  27.657  1.00  0.00     0.055 C 
BRANCH   7   9
ATOM      9  C   UNL A   1      32.976  22.911  25.036  1.00  0.00     0.059 C 
ATOM     10  C   UNL A   1      32.497  22.151  23.781  1.00  0.00     0.016 C 
BRANCH   9  11
ATOM     11  C   UNL A   1      34.503  22.826  25.130  1.00  0.00    -0.039 A 
ATOM     12  C   UNL A   1      37.231  20.105  24.861  1.00  0.00     0.044 C 
ATOM     13  C   UNL A   1      36.539  21.423  25.026  1.00  0.00    -0.051 A 
ATOM     14  C   UNL A   1      37.317  22.549  25.214  1.00  0.00     0.004 A 
ATOM     15  C   UNL A   1      35.140  21.563  25.002  1.00  0.00     0.007 A 
ATOM     16  C   UNL A   1      36.698  23.784  25.321  1.00  0.00     0.004 A 
ATOM     17  C   UNL A   1      35.305  23.957  25.304  1.00  0.00    -0.048 A 
ATOM     18  C   UNL A   1      34.734  25.339  25.376  1.00  0.00     0.044 C 
ENDBRANCH   9  11
ENDBRANCH   7   9
BRANCH   7  19
ATOM     19  O   UNL A   1      31.394  21.424  26.108  1.00  0.00    -0.378 OA
ATOM     20  H   UNL A   1      30.443  21.612  26.099  1.00  0.00     0.212 HD
ENDBRANCH   7  19
ENDBRANCH   5   7
ENDBRANCH   4   5
ENDBRANCH   3   4
ENDBRANCH   2   3
ENDBRANCH   1   2
BRANCH   1  21
ATOM     21  C   UNL A   1      32.482  29.109  25.853  1.00  0.00     0.202 C 
BRANCH  21  22
ATOM     22  C   UNL A   1      33.274  29.551  27.084  1.00  0.00     0.261 C 
BRANCH  22  23
ATOM     23  O   UNL A   1      34.669  29.668  26.742  1.00  0.00    -0.460 OA
BRANCH  23  24
ATOM     24  C   UNL A   1      35.360  30.505  27.562  1.00  0.00     0.338 C 
ATOM     25  O   UNL A   1      35.087  31.682  27.749  1.00  0.00    -0.246 OA
BRANCH  24  26
ATOM     26  C   UNL A   1      36.576  29.815  28.090  1.00  0.00     0.060 A 
ATOM     27  C   UNL A   1      36.612  29.415  29.431  1.00  0.00     0.016 A 
ATOM     28  C   UNL A   1      37.723  29.666  27.302  1.00  0.00     0.016 A 
ATOM     29  C   UNL A   1      37.780  28.851  29.967  1.00  0.00     0.010 A 
ATOM     30  C   UNL A   1      38.906  29.180  27.861  1.00  0.00     0.010 A 
ATOM     31  C   UNL A   1      38.957  28.765  29.203  1.00  0.00    -0.014 A 
BRANCH  31  32
ATOM     32  C   UNL A   1      40.107  27.888  29.548  1.00  0.00     0.031 A 
ATOM     33  C   UNL A   1      40.621  28.343  30.835  1.00  0.00     0.074 A 
ATOM     34  C   UNL A   1      40.976  27.035  28.932  1.00  0.00     0.049 A 
ATOM     35  N   UNL A   1      41.674  29.091  30.906  1.00  0.00    -0.248 NA
ATOM     36  C   UNL A   1      39.854  28.220  32.076  1.00  0.00     0.031 C 
ATOM     37  C   UNL A   1      41.353  26.893  27.535  1.00  0.00     0.029 A 
ATOM     38  N   UNL A   1      41.420  25.815  29.439  1.00  0.00    -0.354 N 
ATOM     39  C   UNL A   1      41.937  29.120  32.247  1.00  0.00     0.074 A 
ATOM     40  C   UNL A   1      40.675  28.866  32.909  1.00  0.00     0.031 C 
ATOM     41  C   UNL A   1      41.576  25.605  27.213  1.00  0.00     0.029 A 
ATOM     42  C   UNL A   1      41.588  24.828  28.452  1.00  0.00     0.049 A 
ATOM     43  H   UNL A   1      41.598  25.660  30.394  1.00  0.00     0.167 HD
ATOM     44  C   UNL A   1      43.191  28.760  32.619  1.00  0.00     0.031 A 
ATOM     45  C   UNL A   1      42.316  23.685  28.495  1.00  0.00     0.031 A 
ATOM     46  C   UNL A   1      44.173  28.896  31.562  1.00  0.00     0.049 A 
ATOM     47  C   UNL A   1      43.684  24.111  28.871  1.00  0.00     0.074 A 
ATOM     48  C   UNL A   1      44.654  29.937  30.792  1.00  0.00     0.029 A 
ATOM     49  N   UNL A   1      44.535  27.735  30.919  1.00  0.00    -0.354 N 
ATOM     50  N   UNL A   1      44.493  24.801  28.115  1.00  0.00    -0.248 NA
ATOM     51  C   UNL A   1      44.058  24.019  30.275  1.00  0.00     0.031 C 
ATOM     52  C   UNL A   1      45.280  29.363  29.650  1.00  0.00     0.029 A 
ATOM     53  C   UNL A   1      45.191  27.976  29.732  1.00  0.00     0.049 A 
ATOM     54  H   UNL A   1      44.347  26.834  31.269  1.00  0.00     0.167 HD
ATOM     55  C   UNL A   1      45.156  25.612  29.021  1.00  0.00     0.074 A 
ATOM     56  C   UNL A   1      45.000  24.960  30.312  1.00  0.00     0.031 C 
ATOM     57  C   UNL A   1      45.414  26.923  28.747  1.00  0.00     0.031 A 
BRANCH  44  58
ATOM     58  C   UNL A   1      43.377  27.805  33.755  1.00  0.00    -0.014 A 
ATOM     59  C   UNL A   1      43.250  26.438  33.512  1.00  0.00     0.009 A 
ATOM     60  C   UNL A   1      43.456  28.227  35.101  1.00  0.00     0.009 A 
ATOM     61  C   UNL A   1      43.236  25.531  34.574  1.00  0.00     0.001 A 
ATOM     62  C   UNL A   1      43.492  27.325  36.158  1.00  0.00     0.001 A 
ATOM     63  C   UNL A   1      43.371  25.971  35.890  1.00  0.00     0.000 A 
ENDBRANCH  44  58
BRANCH  45  64
ATOM     64  C   UNL A   1      42.029  22.398  27.813  1.00  0.00    -0.014 A 
ATOM     65  C   UNL A   1      40.718  21.897  27.746  1.00  0.00     0.009 A 
ATOM     66  C   UNL A   1      43.006  21.763  27.021  1.00  0.00     0.009 A 
ATOM     67  C   UNL A   1      40.383  20.846  26.880  1.00  0.00     0.001 A 
ATOM     68  C   UNL A   1      42.671  20.707  26.161  1.00  0.00     0.001 A 
ATOM     69  C   UNL A   1      41.356  20.264  26.075  1.00  0.00     0.000 A 
ENDBRANCH  45  64
BRANCH  57  70
ATOM     70  C   UNL A   1      45.779  27.313  27.336  1.00  0.00    -0.014 A 
ATOM     71  C   UNL A   1      47.077  27.603  26.897  1.00  0.00     0.009 A 
ATOM     72  C   UNL A   1      44.749  27.334  26.377  1.00  0.00     0.009 A 
ATOM     73  C   UNL A   1      47.344  27.890  25.552  1.00  0.00     0.001 A 
ATOM     74  C   UNL A   1      45.012  27.607  25.031  1.00  0.00     0.001 A 
ATOM     75  C   UNL A   1      46.311  27.883  24.617  1.00  0.00     0.000 A 
ENDBRANCH  57  70
ENDBRANCH  31  32
ENDBRANCH  24  26
ENDBRANCH  23  24
ENDBRANCH  22  23
ENDBRANCH  21  22
ENDBRANCH   1  21
TORSDOF 17
ENDMDL
MODEL 3
REMARK VINA RESULT:      -9.9      3.567      8.474
REMARK SMILES Cc1ccc(C)c([C@@H](C)[C@](C)(O)C(=O)OCCOCCOC(=O)c2ccc(-c3c4nc(c(-c5ccccc5)c5ccc([nH]5)c(-c5ccccc5)c5nc(c(-c6ccccc6)c6ccc3[nH]6)C=C5)C=C4)cc2)c1
REMARK SMILES IDX 18 1 17 2 16 3 15 4 13 5 14 6 10 7 11 8 8 9 9 10 7 11 1 12
REMARK SMILES IDX 2 13 3 14 72 15 4 16 5 17 6 18 12 19 19 21 20 22 21 23 22 24
REMARK SMILES IDX 23 25 24 26 25 27 71 28 26 29 70 30 27 31 28 32 29 33 64 34
REMARK SMILES IDX 30 35 69 36 63 37 65 38 31 39 68 40 62 41 61 42 32 44 54 45
REMARK SMILES IDX 39 46 53 47 40 48 43 49 52 50 66 51 41 52 42 53 51 55 67 56
REMARK SMILES IDX 44 57 33 58 34 59 38 60 35 61 37 62 36 63 55 64 56 65 60 66
REMARK SMILES IDX 57 67 59 68 58 69 45 70 46 71 50 72 47 73 49 74 48 75
REMARK H PARENT 12 20 65 43 43 54
REMARK Flexibility Score: inf
ROOT
ATOM      1  O   UNL A   1      32.528  35.223  29.455  1.00  0.00    -0.374 OA
ENDROOT
BRANCH   1   2
ATOM      2  C   UNL A   1      32.583  36.121  30.556  1.00  0.00     0.202 C 
BRANCH   2   3
ATOM      3  C   UNL A   1      33.786  35.736  31.415  1.00  0.00     0.261 C 
BRANCH   3   4
ATOM      4  O   UNL A   1      33.604  34.566  32.257  1.00  0.00    -0.461 OA
BRANCH   4   5
ATOM      5  C   UNL A   1      34.446  33.512  32.086  1.00  0.00     0.338 C 
ATOM      6  O   UNL A   1      34.330  32.661  31.212  1.00  0.00    -0.249 OA
BRANCH   5   7
ATOM      7  C   UNL A   1      35.614  33.475  33.115  1.00  0.00     0.165 C 
ATOM      8  C   UNL A   1      35.928  34.954  33.495  1.00  0.00     0.055 C 
BRANCH   7   9
ATOM      9  C   UNL A   1      36.848  32.592  32.638  1.00  0.00     0.059 C 
ATOM     10  C   UNL A   1      36.632  31.066  32.712  1.00  0.00     0.016 C 
BRANCH   9  11
ATOM     11  C   UNL A   1      38.239  32.934  33.180  1.00  0.00    -0.039 A 
ATOM     12  C   UNL A   1      40.410  32.029  36.243  1.00  0.00     0.044 C 
ATOM     13  C   UNL A   1      39.940  32.621  34.951  1.00  0.00    -0.051 A 
ATOM     14  C   UNL A   1      40.809  33.436  34.251  1.00  0.00     0.004 A 
ATOM     15  C   UNL A   1      38.658  32.388  34.422  1.00  0.00     0.007 A 
ATOM     16  C   UNL A   1      40.410  33.955  33.030  1.00  0.00     0.004 A 
ATOM     17  C   UNL A   1      39.137  33.744  32.478  1.00  0.00    -0.048 A 
ATOM     18  C   UNL A   1      38.818  34.307  31.127  1.00  0.00     0.044 C 
ENDBRANCH   9  11
ENDBRANCH   7   9
BRANCH   7  19
ATOM     19  O   UNL A   1      35.152  32.868  34.342  1.00  0.00    -0.378 OA
ATOM     20  H   UNL A   1      34.433  33.401  34.716  1.00  0.00     0.212 HD
ENDBRANCH   7  19
ENDBRANCH   5   7
ENDBRANCH   4   5
ENDBRANCH   3   4
ENDBRANCH   2   3
ENDBRANCH   1   2
BRANCH   1  21
ATOM     21  C   UNL A   1      33.749  35.013  28.753  1.00  0.00     0.202 C 
BRANCH  21  22
ATOM     22  C   UNL A   1      33.676  33.715  27.949  1.00  0.00     0.261 C 
BRANCH  22  23
ATOM     23  O   UNL A   1      34.955  33.052  27.988  1.00  0.00    -0.460 OA
BRANCH  23  24
ATOM     24  C   UNL A   1      34.882  31.717  27.733  1.00  0.00     0.338 C 
ATOM     25  O   UNL A   1      33.900  31.145  27.283  1.00  0.00    -0.246 OA
BRANCH  24  26
ATOM     26  C   UNL A   1      36.124  31.038  28.210  1.00  0.00     0.060 A 
ATOM     27  C   UNL A   1      36.176  29.639  28.241  1.00  0.00     0.016 A 
ATOM     28  C   UNL A   1      37.193  31.771  28.738  1.00  0.00     0.016 A 
ATOM     29  C   UNL A   1      37.298  28.986  28.773  1.00  0.00     0.010 A 
ATOM     30  C   UNL A   1      38.270  31.118  29.339  1.00  0.00     0.010 A 
ATOM     31  C   UNL A   1      38.342  29.715  29.370  1.00  0.00    -0.014 A 
BRANCH  31  32
ATOM     32  C   UNL A   1      39.695  29.158  29.635  1.00  0.00     0.031 A 
ATOM     33  C   UNL A   1      39.936  29.282  31.068  1.00  0.00     0.074 A 
ATOM     34  C   UNL A   1      40.841  28.863  28.954  1.00  0.00     0.049 A 
ATOM     35  N   UNL A   1      40.666  30.240  31.540  1.00  0.00    -0.248 NA
ATOM     36  C   UNL A   1      39.175  28.525  32.062  1.00  0.00     0.031 C 
ATOM     37  C   UNL A   1      41.337  29.322  27.667  1.00  0.00     0.029 A 
ATOM     38  N   UNL A   1      41.637  27.735  29.145  1.00  0.00    -0.354 N 
ATOM     39  C   UNL A   1      40.813  29.891  32.853  1.00  0.00     0.074 A 
ATOM     40  C   UNL A   1      39.670  29.064  33.180  1.00  0.00     0.031 C 
ATOM     41  C   UNL A   1      42.004  28.346  27.021  1.00  0.00     0.029 A 
ATOM     42  C   UNL A   1      42.195  27.238  27.955  1.00  0.00     0.049 A 
ATOM     43  H   UNL A   1      41.792  27.327  30.027  1.00  0.00     0.167 HD
ATOM     44  C   UNL A   1      42.087  29.818  33.314  1.00  0.00     0.031 A 
ATOM     45  C   UNL A   1      43.262  26.420  27.783  1.00  0.00     0.031 A 
ATOM     46  C   UNL A   1      43.034  30.589  32.534  1.00  0.00     0.049 A 
ATOM     47  C   UNL A   1      44.377  27.081  28.501  1.00  0.00     0.074 A 
ATOM     48  C   UNL A   1      43.184  31.921  32.204  1.00  0.00     0.029 A 
ATOM     49  N   UNL A   1      43.810  29.877  31.649  1.00  0.00    -0.354 N 
ATOM     50  N   UNL A   1      44.953  28.193  28.138  1.00  0.00    -0.248 NA
ATOM     51  C   UNL A   1      44.664  26.635  29.857  1.00  0.00     0.031 C 
ATOM     52  C   UNL A   1      44.043  31.981  31.071  1.00  0.00     0.029 A 
ATOM     53  C   UNL A   1      44.424  30.689  30.721  1.00  0.00     0.049 A 
ATOM     54  H   UNL A   1      43.915  28.898  31.677  1.00  0.00     0.167 HD
ATOM     55  C   UNL A   1      45.239  28.808  29.345  1.00  0.00     0.074 A 
ATOM     56  C   UNL A   1      45.227  27.744  30.335  1.00  0.00     0.031 C 
ATOM     57  C   UNL A   1      45.056  30.148  29.522  1.00  0.00     0.031 A 
BRANCH  44  58
ATOM     58  C   UNL A   1      42.508  28.637  34.130  1.00  0.00    -0.014 A 
ATOM     59  C   UNL A   1      42.735  28.808  35.495  1.00  0.00     0.009 A 
ATOM     60  C   UNL A   1      42.901  27.410  33.549  1.00  0.00     0.009 A 
ATOM     61  C   UNL A   1      43.303  27.779  36.251  1.00  0.00     0.001 A 
ATOM     62  C   UNL A   1      43.419  26.366  34.307  1.00  0.00     0.001 A 
ATOM     63  C   UNL A   1      43.629  26.558  35.662  1.00  0.00     0.000 A 
ENDBRANCH  44  58
BRANCH  45  64
ATOM     64  C   UNL A   1      43.475  25.416  26.710  1.00  0.00    -0.014 A 
ATOM     65  C   UNL A   1      44.773  25.027  26.336  1.00  0.00     0.009 A 
ATOM     66  C   UNL A   1      42.401  24.661  26.199  1.00  0.00     0.009 A 
ATOM     67  C   UNL A   1      44.993  23.896  25.537  1.00  0.00     0.001 A 
ATOM     68  C   UNL A   1      42.622  23.534  25.394  1.00  0.00     0.001 A 
ATOM     69  C   UNL A   1      43.919  23.140  25.081  1.00  0.00     0.000 A 
ENDBRANCH  45  64
BRANCH  57  70
ATOM     70  C   UNL A   1      45.361  31.082  28.377  1.00  0.00    -0.014 A 
ATOM     71  C   UNL A   1      46.648  31.477  27.989  1.00  0.00     0.009 A 
ATOM     72  C   UNL A   1      44.279  31.547  27.607  1.00  0.00     0.009 A 
ATOM     73  C   UNL A   1      46.852  32.294  26.869  1.00  0.00     0.001 A 
ATOM     74  C   UNL A   1      44.479  32.352  26.481  1.00  0.00     0.001 A 
ATOM     75  C   UNL A   1      45.766  32.724  26.110  1.00  0.00     0.000 A 
ENDBRANCH  57  70
ENDBRANCH  31  32
ENDBRANCH  24  26
ENDBRANCH  23  24
ENDBRANCH  22  23
ENDBRANCH  21  22
ENDBRANCH   1  21
TORSDOF 17
ENDMDL
