MODEL 1
REMARK VINA RESULT:     -12.0      0.000      0.000
REMARK SMILES O=C1NC(=O)/C(=C/c2ccc(OCc3cn(-c4ccc(C(=O)OCCOCCOC(=O)c5ccc(-c6c7nc(c(-c8ccccc8)c8ccc([nH]8)c(-c8ccccc8)c8nc(c(-c9ccccc9)c9ccc6[nH]9)C=C8)C=C7)cc5)cc4)nn3)cc2)S1
REMARK SMILES IDX 24 1 23 2 21 3 22 4 20 5 17 6 18 7 81 8 19 9 80 10 16 11
REMARK SMILES IDX 14 12 15 13 83 14 82 15 13 16 12 17 11 18 8 19 9 20 85 21
REMARK SMILES IDX 10 22 84 23 7 24 1 25 2 26 3 27 86 28 4 29 6 31 5 32 25 33
REMARK SMILES IDX 26 34 27 35 28 36 29 37 30 38 31 39 32 40 33 41 79 42 34 43
REMARK SMILES IDX 78 44 35 45 36 46 37 47 72 48 38 49 77 50 71 51 73 52 39 53
REMARK SMILES IDX 76 54 70 55 69 56 40 58 62 59 47 60 61 61 48 62 51 63 60 64
REMARK SMILES IDX 74 65 49 66 50 67 59 69 75 70 52 71 41 72 42 73 46 74 43 75
REMARK SMILES IDX 45 76 44 77 63 78 64 79 68 80 65 81 67 82 66 83 53 84 54 85
REMARK SMILES IDX 58 86 55 87 57 88 56 89
REMARK H PARENT 3 30 73 57 51 68
REMARK Flexibility Score: inf
ROOT
ATOM      1  C   UNL A   1      39.828  20.241  26.097  1.00  0.00     0.261 C 
ENDROOT
BRANCH   1   2
ATOM      2  O   UNL A   1      38.743  21.033  25.596  1.00  0.00    -0.460 OA
BRANCH   2   3
ATOM      3  C   UNL A   1      37.752  20.304  25.031  1.00  0.00     0.338 C 
ATOM      4  O   UNL A   1      37.654  19.088  25.004  1.00  0.00    -0.246 OA
BRANCH   3   5
ATOM      5  C   UNL A   1      36.663  21.185  24.578  1.00  0.00     0.060 A 
ATOM      6  C   UNL A   1      34.760  23.110  23.985  1.00  0.00     0.066 A 
ATOM      7  C   UNL A   1      36.067  23.262  23.501  1.00  0.00     0.029 A 
ATOM      8  C   UNL A   1      34.380  21.947  24.671  1.00  0.00     0.029 A 
ATOM      9  C   UNL A   1      37.025  22.315  23.833  1.00  0.00     0.018 A 
ATOM     10  C   UNL A   1      35.333  20.964  24.943  1.00  0.00     0.018 A 
BRANCH   6  11
ATOM     11  N   UNL A   1      33.877  24.202  23.867  1.00  0.00    -0.220 N 
ATOM     12  C   UNL A   1      32.550  25.878  24.296  1.00  0.00     0.120 A 
ATOM     13  C   UNL A   1      32.980  24.669  24.801  1.00  0.00     0.144 A 
ATOM     14  N   UNL A   1      33.153  26.080  23.084  1.00  0.00    -0.131 NA
ATOM     15  N   UNL A   1      33.960  25.067  22.836  1.00  0.00    -0.062 NA
BRANCH  12  16
ATOM     16  C   UNL A   1      31.699  26.942  24.908  1.00  0.00     0.289 C 
BRANCH  16  17
ATOM     17  O   UNL A   1      31.988  28.283  24.476  1.00  0.00    -0.487 OA
BRANCH  17  18
ATOM     18  C   UNL A   1      32.550  29.143  25.380  1.00  0.00     0.119 A 
ATOM     19  C   UNL A   1      33.845  30.574  27.422  1.00  0.00    -0.024 A 
ATOM     20  C   UNL A   1      34.547  29.625  26.675  1.00  0.00     0.012 A 
ATOM     21  C   UNL A   1      32.524  30.866  27.078  1.00  0.00     0.012 A 
ATOM     22  C   UNL A   1      33.897  28.909  25.663  1.00  0.00     0.047 A 
ATOM     23  C   UNL A   1      31.891  30.175  26.044  1.00  0.00     0.047 A 
BRANCH  19  24
ATOM     24  C   UNL A   1      34.483  31.274  28.539  1.00  0.00     0.029 C 
ATOM     25  O   UNL A   1      33.637  36.228  28.914  1.00  0.00    -0.261 OA
ATOM     26  C   UNL A   1      33.981  35.056  29.017  1.00  0.00     0.290 C 
ATOM     27  N   UNL A   1      34.858  34.568  29.925  1.00  0.00    -0.282 N 
ATOM     28  S   UNL A   1      33.398  33.762  27.996  1.00  0.00    -0.022 SA
ATOM     29  C   UNL A   1      35.126  33.231  29.904  1.00  0.00     0.265 C 
ATOM     30  H   UNL A   1      35.289  35.161  30.582  1.00  0.00     0.174 HD
ATOM     31  C   UNL A   1      34.364  32.582  28.805  1.00  0.00     0.083 C 
ATOM     32  O   UNL A   1      35.890  32.663  30.666  1.00  0.00    -0.268 OA
ENDBRANCH  19  24
ENDBRANCH  17  18
ENDBRANCH  16  17
ENDBRANCH  12  16
ENDBRANCH   6  11
ENDBRANCH   3   5
ENDBRANCH   2   3
ENDBRANCH   1   2
BRANCH   1  33
ATOM     33  C   UNL A   1      41.029  21.079  26.536  1.00  0.00     0.202 C 
BRANCH  33  34
ATOM     34  O   UNL A   1      42.174  20.432  27.090  1.00  0.00    -0.374 OA
BRANCH  34  35
ATOM     35  C   UNL A   1      42.415  19.048  26.861  1.00  0.00     0.202 C 
BRANCH  35  36
ATOM     36  C   UNL A   1      43.147  18.622  25.598  1.00  0.00     0.261 C 
BRANCH  36  37
ATOM     37  O   UNL A   1      43.343  19.709  24.711  1.00  0.00    -0.460 OA
BRANCH  37  38
ATOM     38  C   UNL A   1      44.602  19.786  24.226  1.00  0.00     0.338 C 
ATOM     39  O   UNL A   1      45.315  18.867  23.858  1.00  0.00    -0.246 OA
BRANCH  38  40
ATOM     40  C   UNL A   1      45.064  21.169  24.368  1.00  0.00     0.060 A 
ATOM     41  C   UNL A   1      46.013  21.367  25.371  1.00  0.00     0.016 A 
ATOM     42  C   UNL A   1      44.244  22.198  23.886  1.00  0.00     0.016 A 
ATOM     43  C   UNL A   1      45.898  22.503  26.129  1.00  0.00     0.010 A 
ATOM     44  C   UNL A   1      44.112  23.317  24.660  1.00  0.00     0.010 A 
ATOM     45  C   UNL A   1      44.863  23.396  25.829  1.00  0.00    -0.014 A 
BRANCH  45  46
ATOM     46  C   UNL A   1      44.675  24.532  26.697  1.00  0.00     0.031 A 
ATOM     47  C   UNL A   1      45.852  25.421  26.639  1.00  0.00     0.074 A 
ATOM     48  C   UNL A   1      43.524  24.758  27.358  1.00  0.00     0.049 A 
ATOM     49  N   UNL A   1      46.765  25.562  27.541  1.00  0.00    -0.248 NA
ATOM     50  C   UNL A   1      46.200  26.008  25.330  1.00  0.00     0.031 C 
ATOM     51  C   UNL A   1      42.247  24.046  27.249  1.00  0.00     0.029 A 
ATOM     52  N   UNL A   1      43.226  25.767  28.214  1.00  0.00    -0.354 N 
ATOM     53  C   UNL A   1      47.673  26.458  26.993  1.00  0.00     0.074 A 
ATOM     54  C   UNL A   1      47.425  26.469  25.576  1.00  0.00     0.031 C 
ATOM     55  C   UNL A   1      41.267  24.803  27.803  1.00  0.00     0.029 A 
ATOM     56  C   UNL A   1      41.867  25.977  28.414  1.00  0.00     0.049 A 
ATOM     57  H   UNL A   1      43.918  26.307  28.659  1.00  0.00     0.167 HD
ATOM     58  C   UNL A   1      48.275  27.389  27.780  1.00  0.00     0.031 A 
ATOM     59  C   UNL A   1      41.302  27.079  28.974  1.00  0.00     0.031 A 
ATOM     60  C   UNL A   1      48.201  27.015  29.173  1.00  0.00     0.049 A 
ATOM     61  C   UNL A   1      42.374  27.797  29.709  1.00  0.00     0.074 A 
ATOM     62  C   UNL A   1      48.634  25.937  29.918  1.00  0.00     0.029 A 
ATOM     63  N   UNL A   1      47.222  27.628  29.919  1.00  0.00    -0.354 N 
ATOM     64  N   UNL A   1      42.942  27.323  30.779  1.00  0.00    -0.248 NA
ATOM     65  C   UNL A   1      43.149  28.787  28.975  1.00  0.00     0.031 C 
ATOM     66  C   UNL A   1      47.592  25.695  30.861  1.00  0.00     0.029 A 
ATOM     67  C   UNL A   1      46.619  26.684  30.706  1.00  0.00     0.049 A 
ATOM     68  H   UNL A   1      46.992  28.585  29.893  1.00  0.00     0.167 HD
ATOM     69  C   UNL A   1      44.294  27.589  30.605  1.00  0.00     0.074 A 
ATOM     70  C   UNL A   1      44.351  28.569  29.518  1.00  0.00     0.031 C 
ATOM     71  C   UNL A   1      45.243  26.765  31.142  1.00  0.00     0.031 A 
BRANCH  58  72
ATOM     72  C   UNL A   1      48.420  28.832  27.343  1.00  0.00    -0.014 A 
ATOM     73  C   UNL A   1      49.709  29.297  27.032  1.00  0.00     0.009 A 
ATOM     74  C   UNL A   1      47.426  29.816  27.517  1.00  0.00     0.009 A 
ATOM     75  C   UNL A   1      50.004  30.664  27.017  1.00  0.00     0.001 A 
ATOM     76  C   UNL A   1      47.707  31.182  27.465  1.00  0.00     0.001 A 
ATOM     77  C   UNL A   1      49.008  31.605  27.249  1.00  0.00     0.000 A 
ENDBRANCH  58  72
BRANCH  59  78
ATOM     78  C   UNL A   1      40.015  27.740  28.648  1.00  0.00    -0.014 A 
ATOM     79  C   UNL A   1      39.028  27.923  29.633  1.00  0.00     0.009 A 
ATOM     80  C   UNL A   1      39.869  28.452  27.444  1.00  0.00     0.009 A 
ATOM     81  C   UNL A   1      37.961  28.812  29.434  1.00  0.00     0.001 A 
ATOM     82  C   UNL A   1      38.805  29.340  27.245  1.00  0.00     0.001 A 
ATOM     83  C   UNL A   1      37.859  29.532  28.246  1.00  0.00     0.000 A 
ENDBRANCH  59  78
BRANCH  71  84
ATOM     84  C   UNL A   1      44.786  25.707  32.118  1.00  0.00    -0.014 A 
ATOM     85  C   UNL A   1      44.531  24.371  31.758  1.00  0.00     0.009 A 
ATOM     86  C   UNL A   1      44.761  26.046  33.478  1.00  0.00     0.009 A 
ATOM     87  C   UNL A   1      44.234  23.412  32.734  1.00  0.00     0.001 A 
ATOM     88  C   UNL A   1      44.485  25.087  34.453  1.00  0.00     0.001 A 
ATOM     89  C   UNL A   1      44.217  23.771  34.081  1.00  0.00     0.000 A 
ENDBRANCH  71  84
ENDBRANCH  45  46
ENDBRANCH  38  40
ENDBRANCH  37  38
ENDBRANCH  36  37
ENDBRANCH  35  36
ENDBRANCH  34  35
ENDBRANCH  33  34
ENDBRANCH   1  33
TORSDOF 19
ENDMDL
MODEL 2
REMARK VINA RESULT:     -11.6      4.513     10.257
REMARK SMILES O=C1NC(=O)/C(=C/c2ccc(OCc3cn(-c4ccc(C(=O)OCCOCCOC(=O)c5ccc(-c6c7nc(c(-c8ccccc8)c8ccc([nH]8)c(-c8ccccc8)c8nc(c(-c9ccccc9)c9ccc6[nH]9)C=C8)C=C7)cc5)cc4)nn3)cc2)S1
REMARK SMILES IDX 24 1 23 2 21 3 22 4 20 5 17 6 18 7 81 8 19 9 80 10 16 11
REMARK SMILES IDX 14 12 15 13 83 14 82 15 13 16 12 17 11 18 8 19 9 20 85 21
REMARK SMILES IDX 10 22 84 23 7 24 1 25 2 26 3 27 86 28 4 29 6 31 5 32 25 33
REMARK SMILES IDX 26 34 27 35 28 36 29 37 30 38 31 39 32 40 33 41 79 42 34 43
REMARK SMILES IDX 78 44 35 45 36 46 37 47 72 48 38 49 77 50 71 51 73 52 39 53
REMARK SMILES IDX 76 54 70 55 69 56 40 58 62 59 47 60 61 61 48 62 51 63 60 64
REMARK SMILES IDX 74 65 49 66 50 67 59 69 75 70 52 71 41 72 42 73 46 74 43 75
REMARK SMILES IDX 45 76 44 77 63 78 64 79 68 80 65 81 67 82 66 83 53 84 54 85
REMARK SMILES IDX 58 86 55 87 57 88 56 89
REMARK H PARENT 3 30 73 57 51 68
REMARK Flexibility Score: inf
ROOT
ATOM      1  C   UNL A   1      47.139  29.113  26.176  1.00  0.00     0.261 C 
ENDROOT
BRANCH   1   2
ATOM      2  O   UNL A   1      46.106  28.935  25.197  1.00  0.00    -0.460 OA
BRANCH   2   3
ATOM      3  C   UNL A   1      46.267  27.831  24.431  1.00  0.00     0.338 C 
ATOM      4  O   UNL A   1      47.023  27.694  23.482  1.00  0.00    -0.246 OA
BRANCH   3   5
ATOM      5  C   UNL A   1      45.517  26.699  25.001  1.00  0.00     0.060 A 
ATOM      6  C   UNL A   1      44.108  24.419  25.703  1.00  0.00     0.066 A 
ATOM      7  C   UNL A   1      45.486  24.330  25.460  1.00  0.00     0.029 A 
ATOM      8  C   UNL A   1      43.458  25.662  25.700  1.00  0.00     0.029 A 
ATOM      9  C   UNL A   1      46.179  25.467  25.072  1.00  0.00     0.018 A 
ATOM     10  C   UNL A   1      44.176  26.815  25.375  1.00  0.00     0.018 A 
BRANCH   6  11
ATOM     11  N   UNL A   1      43.377  23.220  25.832  1.00  0.00    -0.220 N 
ATOM     12  C   UNL A   1      41.785  21.759  26.119  1.00  0.00     0.120 A 
ATOM     13  C   UNL A   1      42.190  23.022  26.499  1.00  0.00     0.144 A 
ATOM     14  N   UNL A   1      42.736  21.231  25.289  1.00  0.00    -0.131 NA
ATOM     15  N   UNL A   1      43.691  22.124  25.113  1.00  0.00    -0.062 NA
BRANCH  12  16
ATOM     16  C   UNL A   1      40.507  21.028  26.372  1.00  0.00     0.289 C 
BRANCH  16  17
ATOM     17  O   UNL A   1      39.416  21.843  26.835  1.00  0.00    -0.487 OA
BRANCH  17  18
ATOM     18  C   UNL A   1      38.433  22.171  25.941  1.00  0.00     0.119 A 
ATOM     19  C   UNL A   1      36.213  22.997  24.430  1.00  0.00    -0.024 A 
ATOM     20  C   UNL A   1      36.867  23.901  25.270  1.00  0.00     0.012 A 
ATOM     21  C   UNL A   1      36.735  21.710  24.281  1.00  0.00     0.012 A 
ATOM     22  C   UNL A   1      37.969  23.484  26.027  1.00  0.00     0.047 A 
ATOM     23  C   UNL A   1      37.855  21.310  25.011  1.00  0.00     0.047 A 
BRANCH  19  24
ATOM     24  C   UNL A   1      35.010  23.389  23.692  1.00  0.00     0.029 C 
ATOM     25  O   UNL A   1      30.574  22.427  25.882  1.00  0.00    -0.261 OA
ATOM     26  C   UNL A   1      31.518  22.747  25.169  1.00  0.00     0.290 C 
ATOM     27  N   UNL A   1      31.427  23.256  23.918  1.00  0.00    -0.282 N 
ATOM     28  S   UNL A   1      33.198  22.607  25.634  1.00  0.00    -0.022 SA
ATOM     29  C   UNL A   1      32.582  23.563  23.264  1.00  0.00     0.265 C 
ATOM     30  H   UNL A   1      30.550  23.399  23.493  1.00  0.00     0.174 HD
ATOM     31  C   UNL A   1      33.751  23.225  24.119  1.00  0.00     0.083 C 
ATOM     32  O   UNL A   1      32.642  24.029  22.138  1.00  0.00    -0.268 OA
ENDBRANCH  19  24
ENDBRANCH  17  18
ENDBRANCH  16  17
ENDBRANCH  12  16
ENDBRANCH   6  11
ENDBRANCH   3   5
ENDBRANCH   2   3
ENDBRANCH   1   2
BRANCH   1  33
ATOM     33  C   UNL A   1      47.009  30.424  26.952  1.00  0.00     0.202 C 
BRANCH  33  34
ATOM     34  O   UNL A   1      47.099  31.666  26.254  1.00  0.00    -0.374 OA
BRANCH  34  35
ATOM     35  C   UNL A   1      46.510  32.848  26.785  1.00  0.00     0.202 C 
BRANCH  35  36
ATOM     36  C   UNL A   1      46.717  34.169  26.059  1.00  0.00     0.261 C 
BRANCH  36  37
ATOM     37  O   UNL A   1      45.725  35.120  26.405  1.00  0.00    -0.460 OA
BRANCH  37  38
ATOM     38  C   UNL A   1      45.966  35.744  27.578  1.00  0.00     0.338 C 
ATOM     39  O   UNL A   1      47.011  36.249  27.951  1.00  0.00    -0.246 OA
BRANCH  38  40
ATOM     40  C   UNL A   1      44.792  35.574  28.438  1.00  0.00     0.060 A 
ATOM     41  C   UNL A   1      45.074  35.125  29.728  1.00  0.00     0.016 A 
ATOM     42  C   UNL A   1      43.541  35.398  27.831  1.00  0.00     0.016 A 
ATOM     43  C   UNL A   1      44.222  34.198  30.271  1.00  0.00     0.010 A 
ATOM     44  C   UNL A   1      42.707  34.454  28.361  1.00  0.00     0.010 A 
ATOM     45  C   UNL A   1      43.118  33.792  29.514  1.00  0.00    -0.014 A 
BRANCH  45  46
ATOM     46  C   UNL A   1      42.287  32.737  30.039  1.00  0.00     0.031 A 
ATOM     47  C   UNL A   1      42.871  31.419  29.723  1.00  0.00     0.074 A 
ATOM     48  C   UNL A   1      41.200  32.978  30.796  1.00  0.00     0.049 A 
ATOM     49  N   UNL A   1      42.456  30.575  28.840  1.00  0.00    -0.248 NA
ATOM     50  C   UNL A   1      44.219  31.127  30.252  1.00  0.00     0.031 C 
ATOM     51  C   UNL A   1      40.727  34.253  31.345  1.00  0.00     0.029 A 
ATOM     52  N   UNL A   1      40.329  32.087  31.330  1.00  0.00    -0.354 N 
ATOM     53  C   UNL A   1      43.368  29.529  28.889  1.00  0.00     0.074 A 
ATOM     54  C   UNL A   1      44.538  30.043  29.547  1.00  0.00     0.031 C 
ATOM     55  C   UNL A   1      39.826  34.007  32.328  1.00  0.00     0.029 A 
ATOM     56  C   UNL A   1      39.568  32.578  32.384  1.00  0.00     0.049 A 
ATOM     57  H   UNL A   1      40.241  31.165  30.996  1.00  0.00     0.167 HD
ATOM     58  C   UNL A   1      42.944  28.245  28.739  1.00  0.00     0.031 A 
ATOM     59  C   UNL A   1      38.849  31.834  33.266  1.00  0.00     0.031 A 
ATOM     60  C   UNL A   1      41.646  28.199  28.109  1.00  0.00     0.049 A 
ATOM     61  C   UNL A   1      38.670  30.489  32.664  1.00  0.00     0.074 A 
ATOM     62  C   UNL A   1      41.131  28.631  26.904  1.00  0.00     0.029 A 
ATOM     63  N   UNL A   1      40.568  28.015  28.943  1.00  0.00    -0.354 N 
ATOM     64  N   UNL A   1      37.937  30.275  31.611  1.00  0.00    -0.248 NA
ATOM     65  C   UNL A   1      39.694  29.489  32.929  1.00  0.00     0.031 C 
ATOM     66  C   UNL A   1      39.823  29.113  27.210  1.00  0.00     0.029 A 
ATOM     67  C   UNL A   1      39.572  28.873  28.562  1.00  0.00     0.049 A 
ATOM     68  H   UNL A   1      40.519  27.374  29.688  1.00  0.00     0.167 HD
ATOM     69  C   UNL A   1      38.685  29.397  30.837  1.00  0.00     0.074 A 
ATOM     70  C   UNL A   1      39.717  28.881  31.738  1.00  0.00     0.031 C 
ATOM     71  C   UNL A   1      38.587  29.411  29.474  1.00  0.00     0.031 A 
BRANCH  58  72
ATOM     72  C   UNL A   1      43.441  27.130  29.636  1.00  0.00    -0.014 A 
ATOM     73  C   UNL A   1      43.299  27.293  31.024  1.00  0.00     0.009 A 
ATOM     74  C   UNL A   1      44.300  26.096  29.212  1.00  0.00     0.009 A 
ATOM     75  C   UNL A   1      44.064  26.545  31.926  1.00  0.00     0.001 A 
ATOM     76  C   UNL A   1      45.037  25.321  30.109  1.00  0.00     0.001 A 
ATOM     77  C   UNL A   1      44.944  25.571  31.467  1.00  0.00     0.000 A 
ENDBRANCH  58  72
BRANCH  59  78
ATOM     78  C   UNL A   1      38.606  32.071  34.711  1.00  0.00    -0.014 A 
ATOM     79  C   UNL A   1      39.640  31.915  35.651  1.00  0.00     0.009 A 
ATOM     80  C   UNL A   1      37.439  32.732  35.134  1.00  0.00     0.009 A 
ATOM     81  C   UNL A   1      39.523  32.434  36.950  1.00  0.00     0.001 A 
ATOM     82  C   UNL A   1      37.322  33.251  36.429  1.00  0.00     0.001 A 
ATOM     83  C   UNL A   1      38.370  33.116  37.333  1.00  0.00     0.000 A 
ENDBRANCH  59  78
BRANCH  71  84
ATOM     84  C   UNL A   1      37.480  30.231  28.856  1.00  0.00    -0.014 A 
ATOM     85  C   UNL A   1      36.245  29.694  28.446  1.00  0.00     0.009 A 
ATOM     86  C   UNL A   1      37.641  31.623  28.827  1.00  0.00     0.009 A 
ATOM     87  C   UNL A   1      35.215  30.530  27.999  1.00  0.00     0.001 A 
ATOM     88  C   UNL A   1      36.608  32.458  28.401  1.00  0.00     0.001 A 
ATOM     89  C   UNL A   1      35.396  31.912  27.982  1.00  0.00     0.000 A 
ENDBRANCH  71  84
ENDBRANCH  45  46
ENDBRANCH  38  40
ENDBRANCH  37  38
ENDBRANCH  36  37
ENDBRANCH  35  36
ENDBRANCH  34  35
ENDBRANCH  33  34
ENDBRANCH   1  33
TORSDOF 19
ENDMDL
MODEL 3
REMARK VINA RESULT:     -11.5      3.645      9.305
REMARK SMILES O=C1NC(=O)/C(=C/c2ccc(OCc3cn(-c4ccc(C(=O)OCCOCCOC(=O)c5ccc(-c6c7nc(c(-c8ccccc8)c8ccc([nH]8)c(-c8ccccc8)c8nc(c(-c9ccccc9)c9ccc6[nH]9)C=C8)C=C7)cc5)cc4)nn3)cc2)S1
REMARK SMILES IDX 24 1 23 2 21 3 22 4 20 5 17 6 18 7 81 8 19 9 80 10 16 11
REMARK SMILES IDX 14 12 15 13 83 14 82 15 13 16 12 17 11 18 8 19 9 20 85 21
REMARK SMILES IDX 10 22 84 23 7 24 1 25 2 26 3 27 86 28 4 29 6 31 5 32 25 33
REMARK SMILES IDX 26 34 27 35 28 36 29 37 30 38 31 39 32 40 33 41 79 42 34 43
REMARK SMILES IDX 78 44 35 45 36 46 37 47 72 48 38 49 77 50 71 51 73 52 39 53
REMARK SMILES IDX 76 54 70 55 69 56 40 58 62 59 47 60 61 61 48 62 51 63 60 64
REMARK SMILES IDX 74 65 49 66 50 67 59 69 75 70 52 71 41 72 42 73 46 74 43 75
REMARK SMILES IDX 45 76 44 77 63 78 64 79 68 80 65 81 67 82 66 83 53 84 54 85
REMARK SMILES IDX 58 86 55 87 57 88 56 89
REMARK H PARENT 3 30 73 57 51 68
REMARK Flexibility Score: inf
ROOT
ATOM      1  C   UNL A   1      36.395  32.523  30.733  1.00  0.00     0.261 C 
ENDROOT
BRANCH   1   2
ATOM      2  O   UNL A   1      36.157  31.153  30.382  1.00  0.00    -0.460 OA
BRANCH   2   3
ATOM      3  C   UNL A   1      36.553  30.837  29.127  1.00  0.00     0.338 C 
ATOM      4  O   UNL A   1      37.697  30.691  28.728  1.00  0.00    -0.246 OA
BRANCH   3   5
ATOM      5  C   UNL A   1      35.387  30.504  28.292  1.00  0.00     0.060 A 
ATOM      6  C   UNL A   1      33.430  29.960  26.408  1.00  0.00     0.066 A 
ATOM      7  C   UNL A   1      34.465  29.037  26.611  1.00  0.00     0.029 A 
ATOM      8  C   UNL A   1      33.314  31.099  27.218  1.00  0.00     0.029 A 
ATOM      9  C   UNL A   1      35.463  29.333  27.528  1.00  0.00     0.018 A 
ATOM     10  C   UNL A   1      34.285  31.357  28.188  1.00  0.00     0.018 A 
BRANCH   6  11
ATOM     11  N   UNL A   1      32.583  29.774  25.296  1.00  0.00    -0.220 N 
ATOM     12  C   UNL A   1      31.664  29.026  23.466  1.00  0.00     0.120 A 
ATOM     13  C   UNL A   1      32.882  29.163  24.099  1.00  0.00     0.144 A 
ATOM     14  N   UNL A   1      30.698  29.582  24.260  1.00  0.00    -0.131 NA
ATOM     15  N   UNL A   1      31.260  30.023  25.368  1.00  0.00    -0.062 NA
BRANCH  12  16
ATOM     16  C   UNL A   1      31.293  28.305  22.211  1.00  0.00     0.289 C 
BRANCH  16  17
ATOM     17  O   UNL A   1      30.593  27.064  22.402  1.00  0.00    -0.487 OA
BRANCH  17  18
ATOM     18  C   UNL A   1      31.233  26.060  23.077  1.00  0.00     0.119 A 
ATOM     19  C   UNL A   1      32.446  24.203  24.802  1.00  0.00    -0.024 A 
ATOM     20  C   UNL A   1      31.116  24.582  25.000  1.00  0.00     0.012 A 
ATOM     21  C   UNL A   1      33.129  24.686  23.683  1.00  0.00     0.012 A 
ATOM     22  C   UNL A   1      30.517  25.513  24.143  1.00  0.00     0.047 A 
ATOM     23  C   UNL A   1      32.515  25.586  22.811  1.00  0.00     0.047 A 
BRANCH  19  24
ATOM     24  C   UNL A   1      33.117  23.296  25.734  1.00  0.00     0.029 C 
ATOM     25  O   UNL A   1      32.311  18.361  25.100  1.00  0.00    -0.261 OA
ATOM     26  C   UNL A   1      32.641  19.491  25.442  1.00  0.00     0.290 C 
ATOM     27  N   UNL A   1      33.387  19.801  26.528  1.00  0.00    -0.282 N 
ATOM     28  S   UNL A   1      32.209  20.949  24.579  1.00  0.00    -0.022 SA
ATOM     29  C   UNL A   1      33.668  21.115  26.759  1.00  0.00     0.265 C 
ATOM     30  H   UNL A   1      33.716  19.099  27.133  1.00  0.00     0.174 HD
ATOM     31  C   UNL A   1      33.032  21.959  25.713  1.00  0.00     0.083 C 
ATOM     32  O   UNL A   1      34.330  21.531  27.696  1.00  0.00    -0.268 OA
ENDBRANCH  19  24
ENDBRANCH  17  18
ENDBRANCH  16  17
ENDBRANCH  12  16
ENDBRANCH   6  11
ENDBRANCH   3   5
ENDBRANCH   2   3
ENDBRANCH   1   2
BRANCH   1  33
ATOM     33  C   UNL A   1      36.042  32.838  32.188  1.00  0.00     0.202 C 
BRANCH  33  34
ATOM     34  O   UNL A   1      36.243  34.159  32.690  1.00  0.00    -0.374 OA
BRANCH  34  35
ATOM     35  C   UNL A   1      37.261  34.431  33.646  1.00  0.00     0.202 C 
BRANCH  35  36
ATOM     36  C   UNL A   1      38.426  33.463  33.785  1.00  0.00     0.261 C 
BRANCH  36  37
ATOM     37  O   UNL A   1      39.364  33.614  32.735  1.00  0.00    -0.460 OA
BRANCH  37  38
ATOM     38  C   UNL A   1      40.439  32.805  32.855  1.00  0.00     0.338 C 
ATOM     39  O   UNL A   1      41.306  32.842  33.712  1.00  0.00    -0.246 OA
BRANCH  38  40
ATOM     40  C   UNL A   1      40.505  31.949  31.667  1.00  0.00     0.060 A 
ATOM     41  C   UNL A   1      39.578  30.907  31.648  1.00  0.00     0.016 A 
ATOM     42  C   UNL A   1      41.699  31.915  30.936  1.00  0.00     0.016 A 
ATOM     43  C   UNL A   1      40.008  29.693  31.177  1.00  0.00     0.010 A 
ATOM     44  C   UNL A   1      42.136  30.699  30.492  1.00  0.00     0.010 A 
ATOM     45  C   UNL A   1      41.328  29.590  30.723  1.00  0.00    -0.014 A 
BRANCH  45  46
ATOM     46  C   UNL A   1      41.811  28.288  30.334  1.00  0.00     0.031 A 
ATOM     47  C   UNL A   1      42.674  27.726  31.391  1.00  0.00     0.074 A 
ATOM     48  C   UNL A   1      41.412  27.674  29.205  1.00  0.00     0.049 A 
ATOM     49  N   UNL A   1      43.960  27.618  31.370  1.00  0.00    -0.248 NA
ATOM     50  C   UNL A   1      42.072  27.515  32.723  1.00  0.00     0.031 C 
ATOM     51  C   UNL A   1      40.369  28.079  28.257  1.00  0.00     0.029 A 
ATOM     52  N   UNL A   1      41.803  26.470  28.716  1.00  0.00    -0.354 N 
ATOM     53  C   UNL A   1      44.294  27.086  32.608  1.00  0.00     0.074 A 
ATOM     54  C   UNL A   1      43.160  27.308  33.463  1.00  0.00     0.031 C 
ATOM     55  C   UNL A   1      40.044  27.021  27.475  1.00  0.00     0.029 A 
ATOM     56  C   UNL A   1      40.939  25.917  27.779  1.00  0.00     0.049 A 
ATOM     57  H   UNL A   1      42.632  26.025  29.002  1.00  0.00     0.167 HD
ATOM     58  C   UNL A   1      45.302  26.179  32.713  1.00  0.00     0.031 A 
ATOM     59  C   UNL A   1      40.936  24.624  27.359  1.00  0.00     0.031 A 
ATOM     60  C   UNL A   1      46.170  26.233  31.561  1.00  0.00     0.049 A 
ATOM     61  C   UNL A   1      42.248  24.037  27.734  1.00  0.00     0.074 A 
ATOM     62  C   UNL A   1      46.953  27.207  30.975  1.00  0.00     0.029 A 
ATOM     63  N   UNL A   1      45.969  25.272  30.598  1.00  0.00    -0.354 N 
ATOM     64  N   UNL A   1      43.371  24.401  27.187  1.00  0.00    -0.248 NA
ATOM     65  C   UNL A   1      42.363  23.423  29.049  1.00  0.00     0.031 C 
ATOM     66  C   UNL A   1      46.808  27.004  29.570  1.00  0.00     0.029 A 
ATOM     67  C   UNL A   1      46.019  25.871  29.368  1.00  0.00     0.049 A 
ATOM     68  H   UNL A   1      45.815  24.314  30.764  1.00  0.00     0.167 HD
ATOM     69  C   UNL A   1      44.263  24.495  28.246  1.00  0.00     0.074 A 
ATOM     70  C   UNL A   1      43.609  23.797  29.356  1.00  0.00     0.031 C 
ATOM     71  C   UNL A   1      45.297  25.387  28.212  1.00  0.00     0.031 A 
BRANCH  58  72
ATOM     72  C   UNL A   1      45.166  24.928  33.557  1.00  0.00    -0.014 A 
ATOM     73  C   UNL A   1      46.286  24.510  34.295  1.00  0.00     0.009 A 
ATOM     74  C   UNL A   1      44.120  23.992  33.424  1.00  0.00     0.009 A 
ATOM     75  C   UNL A   1      46.398  23.196  34.764  1.00  0.00     0.001 A 
ATOM     76  C   UNL A   1      44.211  22.693  33.923  1.00  0.00     0.001 A 
ATOM     77  C   UNL A   1      45.368  22.284  34.563  1.00  0.00     0.000 A 
ENDBRANCH  58  72
BRANCH  59  78
ATOM     78  C   UNL A   1      39.788  23.765  26.979  1.00  0.00    -0.014 A 
ATOM     79  C   UNL A   1      38.544  24.329  26.648  1.00  0.00     0.009 A 
ATOM     80  C   UNL A   1      39.992  22.410  26.658  1.00  0.00     0.009 A 
ATOM     81  C   UNL A   1      37.559  23.577  25.989  1.00  0.00     0.001 A 
ATOM     82  C   UNL A   1      39.010  21.660  25.999  1.00  0.00     0.001 A 
ATOM     83  C   UNL A   1      37.799  22.248  25.650  1.00  0.00     0.000 A 
ENDBRANCH  59  78
BRANCH  71  84
ATOM     84  C   UNL A   1      45.578  26.089  26.905  1.00  0.00    -0.014 A 
ATOM     85  C   UNL A   1      45.039  27.342  26.560  1.00  0.00     0.009 A 
ATOM     86  C   UNL A   1      46.544  25.525  26.060  1.00  0.00     0.009 A 
ATOM     87  C   UNL A   1      45.441  27.996  25.389  1.00  0.00     0.001 A 
ATOM     88  C   UNL A   1      46.960  26.185  24.903  1.00  0.00     0.001 A 
ATOM     89  C   UNL A   1      46.406  27.418  24.564  1.00  0.00     0.000 A 
ENDBRANCH  71  84
ENDBRANCH  45  46
ENDBRANCH  38  40
ENDBRANCH  37  38
ENDBRANCH  36  37
ENDBRANCH  35  36
ENDBRANCH  34  35
ENDBRANCH  33  34
ENDBRANCH   1  33
TORSDOF 19
ENDMDL
