MODEL 1
REMARK VINA RESULT:      -9.9      0.000      0.000
REMARK SMILES CC[C@@H](NC(=O)N1CCO[C@H](CC(=O)OCCOCCOC(=O)c2ccc(-c3c4nc(c(-c5ccccc5)c5ccc([nH]5)c(-c5ccccc5)c5nc(c(-c6ccccc6)c6ccc3[nH]6)C=C5)C=C4)cc2)C1)c1cccs1
REMARK SMILES IDX 17 1 16 2 15 3 13 4 14 5 12 6 11 7 7 8 8 9 72 10 9 11 10 12
REMARK SMILES IDX 5 13 4 14 6 16 3 17 2 18 1 19 73 20 74 21 77 22 75 23 76 24
REMARK SMILES IDX 18 25 19 26 20 27 21 28 22 29 23 30 24 31 25 32 71 33 26 34
REMARK SMILES IDX 70 35 27 36 28 37 29 38 64 39 30 40 69 41 63 42 65 43 31 44
REMARK SMILES IDX 68 45 62 46 61 47 32 49 54 50 39 51 53 52 40 53 43 54 52 55
REMARK SMILES IDX 66 56 41 57 42 58 51 60 67 61 44 62 33 63 34 64 38 65 35 66
REMARK SMILES IDX 37 67 36 68 55 69 56 70 60 71 57 72 59 73 58 74 45 75 46 76
REMARK SMILES IDX 50 77 47 78 49 79 48 80
REMARK H PARENT 4 15 65 48 43 59
REMARK Flexibility Score: inf
ROOT
ATOM      1  C   UNL A   1      40.873  21.381  27.336  1.00  0.00     0.202 C 
ENDROOT
BRANCH   1   2
ATOM      2  C   UNL A   1      40.133  21.822  26.070  1.00  0.00     0.261 C 
BRANCH   2   3
ATOM      3  O   UNL A   1      38.711  21.956  26.304  1.00  0.00    -0.463 OA
BRANCH   3   4
ATOM      4  C   UNL A   1      38.218  23.212  26.151  1.00  0.00     0.308 C 
ATOM      5  O   UNL A   1      38.768  24.228  26.565  1.00  0.00    -0.252 OA
BRANCH   4   6
ATOM      6  C   UNL A   1      36.860  23.266  25.493  1.00  0.00     0.156 C 
BRANCH   6   7
ATOM      7  C   UNL A   1      36.630  22.386  24.263  1.00  0.00     0.149 C 
ATOM      8  N   UNL A   1      34.325  23.119  23.721  1.00  0.00    -0.320 N 
ATOM      9  C   UNL A   1      33.813  21.804  24.108  1.00  0.00     0.150 C 
ATOM     10  C   UNL A   1      35.689  22.981  23.217  1.00  0.00     0.154 C 
ATOM     11  C   UNL A   1      34.764  21.073  25.073  1.00  0.00     0.182 C 
ATOM     12  O   UNL A   1      36.139  21.077  24.642  1.00  0.00    -0.374 OA
BRANCH   8  13
ATOM     13  C   UNL A   1      33.494  23.890  22.952  1.00  0.00     0.318 C 
ATOM     14  N   UNL A   1      32.756  24.871  23.507  1.00  0.00    -0.330 N 
ATOM     15  H   UNL A   1      32.087  25.220  22.875  1.00  0.00     0.166 HD
ATOM     16  O   UNL A   1      33.427  23.748  21.730  1.00  0.00    -0.249 OA
BRANCH  14  17
ATOM     17  C   UNL A   1      32.683  25.555  24.798  1.00  0.00     0.124 C 
BRANCH  17  18
ATOM     18  C   UNL A   1      32.015  24.742  25.921  1.00  0.00     0.027 C 
ATOM     19  C   UNL A   1      30.858  23.892  25.397  1.00  0.00     0.006 C 
ENDBRANCH  17  18
BRANCH  17  20
ATOM     20  C   UNL A   1      32.170  26.962  24.679  1.00  0.00     0.027 A 
ATOM     21  C   UNL A   1      31.946  27.905  25.662  1.00  0.00     0.017 A 
ATOM     22  S   UNL A   1      31.881  27.632  23.120  1.00  0.00    -0.147 S 
ATOM     23  C   UNL A   1      31.448  29.135  25.150  1.00  0.00     0.012 A 
ATOM     24  C   UNL A   1      31.402  29.134  23.776  1.00  0.00     0.065 A 
ENDBRANCH  17  20
ENDBRANCH  14  17
ENDBRANCH   8  13
ENDBRANCH   6   7
ENDBRANCH   4   6
ENDBRANCH   3   4
ENDBRANCH   2   3
ENDBRANCH   1   2
BRANCH   1  25
ATOM     25  O   UNL A   1      42.273  21.135  27.165  1.00  0.00    -0.374 OA
BRANCH  25  26
ATOM     26  C   UNL A   1      42.747  21.037  25.822  1.00  0.00     0.202 C 
BRANCH  26  27
ATOM     27  C   UNL A   1      43.890  22.007  25.489  1.00  0.00     0.261 C 
BRANCH  27  28
ATOM     28  O   UNL A   1      43.393  23.214  24.882  1.00  0.00    -0.460 OA
BRANCH  28  29
ATOM     29  C   UNL A   1      44.121  24.318  25.163  1.00  0.00     0.338 C 
ATOM     30  O   UNL A   1      45.142  24.704  24.612  1.00  0.00    -0.246 OA
BRANCH  29  31
ATOM     31  C   UNL A   1      43.379  25.153  26.119  1.00  0.00     0.060 A 
ATOM     32  C   UNL A   1      43.841  26.459  26.321  1.00  0.00     0.016 A 
ATOM     33  C   UNL A   1      42.304  24.650  26.853  1.00  0.00     0.016 A 
ATOM     34  C   UNL A   1      43.248  27.260  27.293  1.00  0.00     0.010 A 
ATOM     35  C   UNL A   1      41.715  25.456  27.835  1.00  0.00     0.010 A 
ATOM     36  C   UNL A   1      42.205  26.751  28.079  1.00  0.00    -0.014 A 
BRANCH  36  37
ATOM     37  C   UNL A   1      41.732  27.541  29.241  1.00  0.00     0.031 A 
ATOM     38  C   UNL A   1      40.441  28.303  29.130  1.00  0.00     0.074 A 
ATOM     39  C   UNL A   1      42.410  27.525  30.402  1.00  0.00     0.049 A 
ATOM     40  N   UNL A   1      39.807  28.994  30.043  1.00  0.00    -0.248 NA
ATOM     41  C   UNL A   1      39.774  28.274  27.820  1.00  0.00     0.031 C 
ATOM     42  C   UNL A   1      43.645  26.785  30.647  1.00  0.00     0.029 A 
ATOM     43  N   UNL A   1      42.138  28.140  31.597  1.00  0.00    -0.354 N 
ATOM     44  C   UNL A   1      38.662  29.474  29.421  1.00  0.00     0.074 A 
ATOM     45  C   UNL A   1      38.706  29.025  28.045  1.00  0.00     0.031 C 
ATOM     46  C   UNL A   1      44.022  26.980  31.923  1.00  0.00     0.029 A 
ATOM     47  C   UNL A   1      43.068  27.878  32.572  1.00  0.00     0.049 A 
ATOM     48  H   UNL A   1      41.353  28.717  31.741  1.00  0.00     0.167 HD
ATOM     49  C   UNL A   1      37.658  30.215  29.947  1.00  0.00     0.031 A 
ATOM     50  C   UNL A   1      43.143  28.317  33.843  1.00  0.00     0.031 A 
ATOM     51  C   UNL A   1      37.626  30.686  31.306  1.00  0.00     0.049 A 
ATOM     52  C   UNL A   1      42.077  29.235  34.372  1.00  0.00     0.074 A 
ATOM     53  C   UNL A   1      36.642  31.421  31.944  1.00  0.00     0.029 A 
ATOM     54  N   UNL A   1      38.639  30.484  32.230  1.00  0.00    -0.354 N 
ATOM     55  N   UNL A   1      40.979  29.648  33.787  1.00  0.00    -0.248 NA
ATOM     56  C   UNL A   1      42.266  29.753  35.735  1.00  0.00     0.031 C 
ATOM     57  C   UNL A   1      37.089  31.715  33.237  1.00  0.00     0.029 A 
ATOM     58  C   UNL A   1      38.327  31.122  33.419  1.00  0.00     0.049 A 
ATOM     59  H   UNL A   1      39.458  29.964  32.066  1.00  0.00     0.167 HD
ATOM     60  C   UNL A   1      40.341  30.467  34.710  1.00  0.00     0.074 A 
ATOM     61  C   UNL A   1      41.166  30.477  35.901  1.00  0.00     0.031 C 
ATOM     62  C   UNL A   1      39.175  31.146  34.583  1.00  0.00     0.031 A 
BRANCH  49  63
ATOM     63  C   UNL A   1      36.533  30.593  29.026  1.00  0.00    -0.014 A 
ATOM     64  C   UNL A   1      36.334  31.924  28.627  1.00  0.00     0.009 A 
ATOM     65  C   UNL A   1      35.657  29.603  28.555  1.00  0.00     0.009 A 
ATOM     66  C   UNL A   1      35.255  32.262  27.808  1.00  0.00     0.001 A 
ATOM     67  C   UNL A   1      34.593  29.941  27.718  1.00  0.00     0.001 A 
ATOM     68  C   UNL A   1      34.386  31.271  27.353  1.00  0.00     0.000 A 
ENDBRANCH  49  63
BRANCH  50  69
ATOM     69  C   UNL A   1      44.284  27.902  34.699  1.00  0.00    -0.014 A 
ATOM     70  C   UNL A   1      44.174  26.792  35.547  1.00  0.00     0.009 A 
ATOM     71  C   UNL A   1      45.497  28.609  34.658  1.00  0.00     0.009 A 
ATOM     72  C   UNL A   1      45.255  26.399  36.340  1.00  0.00     0.001 A 
ATOM     73  C   UNL A   1      46.582  28.203  35.436  1.00  0.00     0.001 A 
ATOM     74  C   UNL A   1      46.459  27.100  36.280  1.00  0.00     0.000 A 
ENDBRANCH  50  69
BRANCH  62  75
ATOM     75  C   UNL A   1      38.730  31.969  35.759  1.00  0.00    -0.014 A 
ATOM     76  C   UNL A   1      38.020  31.383  36.818  1.00  0.00     0.009 A 
ATOM     77  C   UNL A   1      39.062  33.330  35.829  1.00  0.00     0.009 A 
ATOM     78  C   UNL A   1      37.633  32.152  37.917  1.00  0.00     0.001 A 
ATOM     79  C   UNL A   1      38.694  34.091  36.940  1.00  0.00     0.001 A 
ATOM     80  C   UNL A   1      37.974  33.502  37.979  1.00  0.00     0.000 A 
ENDBRANCH  62  75
ENDBRANCH  36  37
ENDBRANCH  29  31
ENDBRANCH  28  29
ENDBRANCH  27  28
ENDBRANCH  26  27
ENDBRANCH  25  26
ENDBRANCH   1  25
TORSDOF 19
ENDMDL
MODEL 2
REMARK VINA RESULT:      -9.7      1.009      5.868
REMARK SMILES CC[C@@H](NC(=O)N1CCO[C@H](CC(=O)OCCOCCOC(=O)c2ccc(-c3c4nc(c(-c5ccccc5)c5ccc([nH]5)c(-c5ccccc5)c5nc(c(-c6ccccc6)c6ccc3[nH]6)C=C5)C=C4)cc2)C1)c1cccs1
REMARK SMILES IDX 17 1 16 2 15 3 13 4 14 5 12 6 11 7 7 8 8 9 72 10 9 11 10 12
REMARK SMILES IDX 5 13 4 14 6 16 3 17 2 18 1 19 73 20 74 21 77 22 75 23 76 24
REMARK SMILES IDX 18 25 19 26 20 27 21 28 22 29 23 30 24 31 25 32 71 33 26 34
REMARK SMILES IDX 70 35 27 36 28 37 29 38 64 39 30 40 69 41 63 42 65 43 31 44
REMARK SMILES IDX 68 45 62 46 61 47 32 49 54 50 39 51 53 52 40 53 43 54 52 55
REMARK SMILES IDX 66 56 41 57 42 58 51 60 67 61 44 62 33 63 34 64 38 65 35 66
REMARK SMILES IDX 37 67 36 68 55 69 56 70 60 71 57 72 59 73 58 74 45 75 46 76
REMARK SMILES IDX 50 77 47 78 49 79 48 80
REMARK H PARENT 4 15 65 48 43 59
REMARK Flexibility Score: inf
ROOT
ATOM      1  C   UNL A   1      40.585  21.615  27.380  1.00  0.00     0.202 C 
ENDROOT
BRANCH   1   2
ATOM      2  C   UNL A   1      39.914  21.849  26.024  1.00  0.00     0.261 C 
BRANCH   2   3
ATOM      3  O   UNL A   1      38.471  21.837  26.135  1.00  0.00    -0.463 OA
BRANCH   3   4
ATOM      4  C   UNL A   1      37.872  23.047  25.986  1.00  0.00     0.308 C 
ATOM      5  O   UNL A   1      38.437  24.125  26.149  1.00  0.00    -0.252 OA
BRANCH   4   6
ATOM      6  C   UNL A   1      36.395  22.971  25.682  1.00  0.00     0.156 C 
BRANCH   6   7
ATOM      7  C   UNL A   1      35.975  22.348  24.350  1.00  0.00     0.149 C 
ATOM      8  N   UNL A   1      34.033  23.810  23.865  1.00  0.00    -0.320 N 
ATOM      9  C   UNL A   1      33.127  22.682  24.079  1.00  0.00     0.150 C 
ATOM     10  C   UNL A   1      35.315  23.317  23.370  1.00  0.00     0.154 C 
ATOM     11  C   UNL A   1      33.758  21.591  24.962  1.00  0.00     0.182 C 
ATOM     12  O   UNL A   1      35.090  21.220  24.557  1.00  0.00    -0.374 OA
BRANCH   8  13
ATOM     13  C   UNL A   1      33.517  24.881  23.183  1.00  0.00     0.318 C 
ATOM     14  N   UNL A   1      32.608  25.691  23.759  1.00  0.00    -0.330 N 
ATOM     15  H   UNL A   1      32.203  26.303  23.103  1.00  0.00     0.166 HD
ATOM     16  O   UNL A   1      33.897  25.168  22.046  1.00  0.00    -0.249 OA
BRANCH  14  17
ATOM     17  C   UNL A   1      32.061  25.902  25.099  1.00  0.00     0.124 C 
BRANCH  17  18
ATOM     18  C   UNL A   1      30.536  25.726  25.208  1.00  0.00     0.027 C 
ATOM     19  C   UNL A   1      29.863  25.737  23.835  1.00  0.00     0.006 C 
ENDBRANCH  17  18
BRANCH  17  20
ATOM     20  C   UNL A   1      32.574  27.159  25.742  1.00  0.00     0.027 A 
ATOM     21  C   UNL A   1      33.612  27.985  25.359  1.00  0.00     0.017 A 
ATOM     22  S   UNL A   1      31.754  27.810  27.109  1.00  0.00    -0.147 S 
ATOM     23  C   UNL A   1      33.796  29.090  26.236  1.00  0.00     0.012 A 
ATOM     24  C   UNL A   1      32.826  29.135  27.210  1.00  0.00     0.065 A 
ENDBRANCH  17  20
ENDBRANCH  14  17
ENDBRANCH   8  13
ENDBRANCH   6   7
ENDBRANCH   4   6
ENDBRANCH   3   4
ENDBRANCH   2   3
ENDBRANCH   1   2
BRANCH   1  25
ATOM     25  O   UNL A   1      42.004  21.425  27.330  1.00  0.00    -0.374 OA
BRANCH  25  26
ATOM     26  C   UNL A   1      42.573  21.180  26.044  1.00  0.00     0.202 C 
BRANCH  26  27
ATOM     27  C   UNL A   1      43.634  22.206  25.623  1.00  0.00     0.261 C 
BRANCH  27  28
ATOM     28  O   UNL A   1      43.029  23.396  25.085  1.00  0.00    -0.460 OA
BRANCH  28  29
ATOM     29  C   UNL A   1      43.752  24.523  25.276  1.00  0.00     0.338 C 
ATOM     30  O   UNL A   1      44.747  24.889  24.666  1.00  0.00    -0.246 OA
BRANCH  29  31
ATOM     31  C   UNL A   1      43.036  25.401  26.213  1.00  0.00     0.060 A 
ATOM     32  C   UNL A   1      43.604  26.653  26.477  1.00  0.00     0.016 A 
ATOM     33  C   UNL A   1      41.878  24.985  26.871  1.00  0.00     0.016 A 
ATOM     34  C   UNL A   1      43.032  27.484  27.436  1.00  0.00     0.010 A 
ATOM     35  C   UNL A   1      41.310  25.820  27.841  1.00  0.00     0.010 A 
ATOM     36  C   UNL A   1      41.903  27.057  28.149  1.00  0.00    -0.014 A 
BRANCH  36  37
ATOM     37  C   UNL A   1      41.437  27.862  29.303  1.00  0.00     0.031 A 
ATOM     38  C   UNL A   1      42.184  27.775  30.605  1.00  0.00     0.074 A 
ATOM     39  C   UNL A   1      40.402  28.710  29.174  1.00  0.00     0.049 A 
ATOM     40  N   UNL A   1      41.996  28.444  31.714  1.00  0.00    -0.248 NA
ATOM     41  C   UNL A   1      43.295  26.811  30.659  1.00  0.00     0.031 C 
ATOM     42  C   UNL A   1      39.631  28.920  27.951  1.00  0.00     0.029 A 
ATOM     43  N   UNL A   1      39.836  29.565  30.084  1.00  0.00    -0.354 N 
ATOM     44  C   UNL A   1      42.970  27.990  32.594  1.00  0.00     0.074 A 
ATOM     45  C   UNL A   1      43.724  26.965  31.903  1.00  0.00     0.031 C 
ATOM     46  C   UNL A   1      38.696  29.857  28.183  1.00  0.00     0.029 A 
ATOM     47  C   UNL A   1      38.788  30.291  29.576  1.00  0.00     0.049 A 
ATOM     48  H   UNL A   1      40.151  29.650  31.014  1.00  0.00     0.167 HD
ATOM     49  C   UNL A   1      43.222  28.395  33.862  1.00  0.00     0.031 A 
ATOM     50  C   UNL A   1      37.989  31.198  30.170  1.00  0.00     0.031 A 
ATOM     51  C   UNL A   1      42.457  29.393  34.560  1.00  0.00     0.049 A 
ATOM     52  C   UNL A   1      38.213  31.547  31.615  1.00  0.00     0.074 A 
ATOM     53  C   UNL A   1      42.647  29.893  35.836  1.00  0.00     0.029 A 
ATOM     54  N   UNL A   1      41.338  30.028  34.043  1.00  0.00    -0.354 N 
ATOM     55  N   UNL A   1      39.163  31.143  32.424  1.00  0.00    -0.248 NA
ATOM     56  C   UNL A   1      37.251  32.474  32.229  1.00  0.00     0.031 C 
ATOM     57  C   UNL A   1      41.605  30.786  36.113  1.00  0.00     0.029 A 
ATOM     58  C   UNL A   1      40.797  30.879  34.992  1.00  0.00     0.049 A 
ATOM     59  H   UNL A   1      40.981  29.894  33.136  1.00  0.00     0.167 HD
ATOM     60  C   UNL A   1      38.919  31.769  33.639  1.00  0.00     0.074 A 
ATOM     61  C   UNL A   1      37.743  32.595  33.456  1.00  0.00     0.031 C 
ATOM     62  C   UNL A   1      39.609  31.670  34.802  1.00  0.00     0.031 A 
BRANCH  49  63
ATOM     63  C   UNL A   1      44.353  27.719  34.582  1.00  0.00    -0.014 A 
ATOM     64  C   UNL A   1      45.644  28.268  34.592  1.00  0.00     0.009 A 
ATOM     65  C   UNL A   1      44.123  26.509  35.258  1.00  0.00     0.009 A 
ATOM     66  C   UNL A   1      46.692  27.600  35.229  1.00  0.00     0.001 A 
ATOM     67  C   UNL A   1      45.167  25.855  35.913  1.00  0.00     0.001 A 
ATOM     68  C   UNL A   1      46.453  26.395  35.889  1.00  0.00     0.000 A 
ENDBRANCH  49  63
BRANCH  50  69
ATOM     69  C   UNL A   1      36.889  31.829  29.397  1.00  0.00    -0.014 A 
ATOM     70  C   UNL A   1      35.624  31.228  29.335  1.00  0.00     0.009 A 
ATOM     71  C   UNL A   1      37.097  33.046  28.728  1.00  0.00     0.009 A 
ATOM     72  C   UNL A   1      34.589  31.832  28.616  1.00  0.00     0.001 A 
ATOM     73  C   UNL A   1      36.056  33.658  28.027  1.00  0.00     0.001 A 
ATOM     74  C   UNL A   1      34.804  33.048  27.968  1.00  0.00     0.000 A 
ENDBRANCH  50  69
BRANCH  62  75
ATOM     75  C   UNL A   1      39.101  32.466  35.970  1.00  0.00    -0.014 A 
ATOM     76  C   UNL A   1      38.204  31.900  36.889  1.00  0.00     0.009 A 
ATOM     77  C   UNL A   1      39.557  33.777  36.178  1.00  0.00     0.009 A 
ATOM     78  C   UNL A   1      37.758  32.641  37.984  1.00  0.00     0.001 A 
ATOM     79  C   UNL A   1      39.126  34.506  37.288  1.00  0.00     0.001 A 
ATOM     80  C   UNL A   1      38.222  33.940  38.186  1.00  0.00     0.000 A 
ENDBRANCH  62  75
ENDBRANCH  36  37
ENDBRANCH  29  31
ENDBRANCH  28  29
ENDBRANCH  27  28
ENDBRANCH  26  27
ENDBRANCH  25  26
ENDBRANCH   1  25
TORSDOF 19
ENDMDL
MODEL 3
REMARK VINA RESULT:      -9.4      3.776      7.560
REMARK SMILES CC[C@@H](NC(=O)N1CCO[C@H](CC(=O)OCCOCCOC(=O)c2ccc(-c3c4nc(c(-c5ccccc5)c5ccc([nH]5)c(-c5ccccc5)c5nc(c(-c6ccccc6)c6ccc3[nH]6)C=C5)C=C4)cc2)C1)c1cccs1
REMARK SMILES IDX 17 1 16 2 15 3 13 4 14 5 12 6 11 7 7 8 8 9 72 10 9 11 10 12
REMARK SMILES IDX 5 13 4 14 6 16 3 17 2 18 1 19 73 20 74 21 77 22 75 23 76 24
REMARK SMILES IDX 18 25 19 26 20 27 21 28 22 29 23 30 24 31 25 32 71 33 26 34
REMARK SMILES IDX 70 35 27 36 28 37 29 38 64 39 30 40 69 41 63 42 65 43 31 44
REMARK SMILES IDX 68 45 62 46 61 47 32 49 54 50 39 51 53 52 40 53 43 54 52 55
REMARK SMILES IDX 66 56 41 57 42 58 51 60 67 61 44 62 33 63 34 64 38 65 35 66
REMARK SMILES IDX 37 67 36 68 55 69 56 70 60 71 57 72 59 73 58 74 45 75 46 76
REMARK SMILES IDX 50 77 47 78 49 79 48 80
REMARK H PARENT 4 15 65 48 43 59
REMARK Flexibility Score: inf
ROOT
ATOM      1  C   UNL A   1      34.897  22.976  25.418  1.00  0.00     0.202 C 
ENDROOT
BRANCH   1   2
ATOM      2  C   UNL A   1      33.622  22.305  25.937  1.00  0.00     0.261 C 
BRANCH   2   3
ATOM      3  O   UNL A   1      33.088  22.996  27.090  1.00  0.00    -0.463 OA
BRANCH   3   4
ATOM      4  C   UNL A   1      31.852  23.533  26.918  1.00  0.00     0.308 C 
ATOM      5  O   UNL A   1      30.850  23.178  27.531  1.00  0.00    -0.252 OA
BRANCH   4   6
ATOM      6  C   UNL A   1      31.777  24.571  25.824  1.00  0.00     0.156 C 
BRANCH   6   7
ATOM      7  C   UNL A   1      30.563  25.502  25.810  1.00  0.00     0.149 C 
ATOM      8  N   UNL A   1      31.462  27.241  24.289  1.00  0.00    -0.320 N 
ATOM      9  C   UNL A   1      31.517  28.189  25.403  1.00  0.00     0.150 C 
ATOM     10  C   UNL A   1      30.377  26.290  24.514  1.00  0.00     0.154 C 
ATOM     11  C   UNL A   1      31.583  27.478  26.766  1.00  0.00     0.182 C 
ATOM     12  O   UNL A   1      30.604  26.431  26.919  1.00  0.00    -0.374 OA
BRANCH   8  13
ATOM     13  C   UNL A   1      31.514  27.781  23.031  1.00  0.00     0.318 C 
ATOM     14  N   UNL A   1      30.467  28.466  22.532  1.00  0.00    -0.330 N 
ATOM     15  H   UNL A   1      30.577  28.642  21.569  1.00  0.00     0.166 HD
ATOM     16  O   UNL A   1      32.527  27.699  22.334  1.00  0.00    -0.249 OA
BRANCH  14  17
ATOM     17  C   UNL A   1      29.211  29.019  23.038  1.00  0.00     0.124 C 
BRANCH  17  18
ATOM     18  C   UNL A   1      28.040  28.021  23.084  1.00  0.00     0.027 C 
ATOM     19  C   UNL A   1      26.723  28.707  23.450  1.00  0.00     0.006 C 
ENDBRANCH  17  18
BRANCH  17  20
ATOM     20  C   UNL A   1      28.862  30.336  22.406  1.00  0.00     0.027 A 
ATOM     21  C   UNL A   1      28.521  30.624  21.100  1.00  0.00     0.017 A 
ATOM     22  S   UNL A   1      28.742  31.745  23.389  1.00  0.00    -0.147 S 
ATOM     23  C   UNL A   1      28.259  32.006  20.885  1.00  0.00     0.012 A 
ATOM     24  C   UNL A   1      28.307  32.722  22.058  1.00  0.00     0.065 A 
ENDBRANCH  17  20
ENDBRANCH  14  17
ENDBRANCH   8  13
ENDBRANCH   6   7
ENDBRANCH   4   6
ENDBRANCH   3   4
ENDBRANCH   2   3
ENDBRANCH   1   2
BRANCH   1  25
ATOM     25  O   UNL A   1      35.674  22.184  24.513  1.00  0.00    -0.374 OA
BRANCH  25  26
ATOM     26  C   UNL A   1      35.821  20.801  24.835  1.00  0.00     0.202 C 
BRANCH  26  27
ATOM     27  C   UNL A   1      37.264  20.382  25.154  1.00  0.00     0.261 C 
BRANCH  27  28
ATOM     28  O   UNL A   1      38.108  21.529  25.364  1.00  0.00    -0.460 OA
BRANCH  28  29
ATOM     29  C   UNL A   1      39.241  21.266  26.053  1.00  0.00     0.338 C 
ATOM     30  O   UNL A   1      39.905  20.239  26.042  1.00  0.00    -0.246 OA
BRANCH  29  31
ATOM     31  C   UNL A   1      39.718  22.504  26.685  1.00  0.00     0.060 A 
ATOM     32  C   UNL A   1      39.075  23.695  26.327  1.00  0.00     0.016 A 
ATOM     33  C   UNL A   1      40.813  22.513  27.550  1.00  0.00     0.016 A 
ATOM     34  C   UNL A   1      39.551  24.911  26.808  1.00  0.00     0.010 A 
ATOM     35  C   UNL A   1      41.295  23.739  28.025  1.00  0.00     0.010 A 
ATOM     36  C   UNL A   1      40.686  24.943  27.631  1.00  0.00    -0.014 A 
BRANCH  36  37
ATOM     37  C   UNL A   1      41.297  26.253  27.958  1.00  0.00     0.031 A 
ATOM     38  C   UNL A   1      42.633  26.605  27.366  1.00  0.00     0.074 A 
ATOM     39  C   UNL A   1      40.639  27.144  28.720  1.00  0.00     0.049 A 
ATOM     40  N   UNL A   1      43.311  27.721  27.459  1.00  0.00    -0.248 NA
ATOM     41  C   UNL A   1      43.285  25.565  26.556  1.00  0.00     0.031 C 
ATOM     42  C   UNL A   1      39.318  26.938  29.309  1.00  0.00     0.029 A 
ATOM     43  N   UNL A   1      40.993  28.410  29.111  1.00  0.00    -0.354 N 
ATOM     44  C   UNL A   1      44.465  27.521  26.711  1.00  0.00     0.074 A 
ATOM     45  C   UNL A   1      44.411  26.167  26.201  1.00  0.00     0.031 C 
ATOM     46  C   UNL A   1      38.965  28.048  29.981  1.00  0.00     0.029 A 
ATOM     47  C   UNL A   1      40.046  29.028  29.889  1.00  0.00     0.049 A 
ATOM     48  H   UNL A   1      41.846  28.834  28.860  1.00  0.00     0.167 HD
ATOM     49  C   UNL A   1      45.475  28.388  26.463  1.00  0.00     0.031 A 
ATOM     50  C   UNL A   1      40.053  30.245  30.465  1.00  0.00     0.031 A 
ATOM     51  C   UNL A   1      45.544  29.723  26.991  1.00  0.00     0.049 A 
ATOM     52  C   UNL A   1      41.240  31.147  30.273  1.00  0.00     0.074 A 
ATOM     53  C   UNL A   1      46.512  30.689  26.779  1.00  0.00     0.029 A 
ATOM     54  N   UNL A   1      44.613  30.273  27.860  1.00  0.00    -0.354 N 
ATOM     55  N   UNL A   1      42.304  30.963  29.530  1.00  0.00    -0.248 NA
ATOM     56  C   UNL A   1      41.227  32.424  31.002  1.00  0.00     0.031 C 
ATOM     57  C   UNL A   1      46.197  31.802  27.567  1.00  0.00     0.029 A 
ATOM     58  C   UNL A   1      45.008  31.547  28.231  1.00  0.00     0.049 A 
ATOM     59  H   UNL A   1      43.793  29.824  28.166  1.00  0.00     0.167 HD
ATOM     60  C   UNL A   1      43.085  32.100  29.696  1.00  0.00     0.074 A 
ATOM     61  C   UNL A   1      42.362  32.977  30.595  1.00  0.00     0.031 C 
ATOM     62  C   UNL A   1      44.291  32.392  29.151  1.00  0.00     0.031 A 
BRANCH  49  63
ATOM     63  C   UNL A   1      46.608  27.890  25.611  1.00  0.00    -0.014 A 
ATOM     64  C   UNL A   1      47.741  27.290  26.182  1.00  0.00     0.009 A 
ATOM     65  C   UNL A   1      46.541  28.029  24.215  1.00  0.00     0.009 A 
ATOM     66  C   UNL A   1      48.804  26.876  25.376  1.00  0.00     0.001 A 
ATOM     67  C   UNL A   1      47.595  27.593  23.410  1.00  0.00     0.001 A 
ATOM     68  C   UNL A   1      48.730  27.027  23.992  1.00  0.00     0.000 A 
ENDBRANCH  49  63
BRANCH  50  69
ATOM     69  C   UNL A   1      38.898  30.673  31.296  1.00  0.00    -0.014 A 
ATOM     70  C   UNL A   1      38.790  30.264  32.632  1.00  0.00     0.009 A 
ATOM     71  C   UNL A   1      37.905  31.507  30.758  1.00  0.00     0.009 A 
ATOM     72  C   UNL A   1      37.708  30.679  33.413  1.00  0.00     0.001 A 
ATOM     73  C   UNL A   1      36.836  31.938  31.545  1.00  0.00     0.001 A 
ATOM     74  C   UNL A   1      36.736  31.520  32.871  1.00  0.00     0.000 A 
ENDBRANCH  50  69
BRANCH  62  75
ATOM     75  C   UNL A   1      44.910  33.709  29.523  1.00  0.00    -0.014 A 
ATOM     76  C   UNL A   1      44.621  34.871  28.791  1.00  0.00     0.009 A 
ATOM     77  C   UNL A   1      45.754  33.798  30.640  1.00  0.00     0.009 A 
ATOM     78  C   UNL A   1      45.183  36.094  29.161  1.00  0.00     0.001 A 
ATOM     79  C   UNL A   1      46.296  35.026  31.021  1.00  0.00     0.001 A 
ATOM     80  C   UNL A   1      46.015  36.172  30.276  1.00  0.00     0.000 A 
ENDBRANCH  62  75
ENDBRANCH  36  37
ENDBRANCH  29  31
ENDBRANCH  28  29
ENDBRANCH  27  28
ENDBRANCH  26  27
ENDBRANCH  25  26
ENDBRANCH   1  25
TORSDOF 19
ENDMDL
