MODEL 1
REMARK VINA RESULT:     -10.6      0.000      0.000
REMARK SMILES Cc1c[nH]c(C[N@@H+](C)[C@@H](C(=O)OCCOCCOC(=O)c2ccc(-c3c4nc(c(-c5ccccc5)c5ccc([nH]5)c(-c5ccccc5)c5nc(c(-c6ccccc6)c6ccc3[nH]6)C=C5)C=C4)cc2)c2ccc(NC(=O)N3CCCC3)cc2)n1
REMARK SMILES IDX 14 1 13 2 12 3 10 4 11 5 9 6 7 7 8 8 6 10 5 11 1 12 2 13
REMARK SMILES IDX 3 14 83 15 4 16 69 18 70 19 82 20 71 21 81 22 72 23 73 24
REMARK SMILES IDX 74 25 75 27 76 28 77 29 80 30 78 31 79 32 15 33 16 34 17 35
REMARK SMILES IDX 18 36 19 37 20 38 21 39 22 40 68 41 23 42 67 43 24 44 25 45
REMARK SMILES IDX 26 46 61 47 27 48 66 49 60 50 62 51 28 52 65 53 59 54 58 55
REMARK SMILES IDX 29 57 51 58 36 59 50 60 37 61 40 62 49 63 63 64 38 65 39 66
REMARK SMILES IDX 48 68 64 69 41 70 30 71 31 72 35 73 32 74 34 75 33 76 52 77
REMARK SMILES IDX 53 78 57 79 54 80 56 81 55 82 42 83 43 84 47 85 44 86 46 87
REMARK SMILES IDX 45 88
REMARK H PARENT 7 9 4 17 73 26 62 56 40 67
REMARK Flexibility Score: inf
ROOT
ATOM      1  C   UNL A   1      38.232  22.834  26.301  1.00  0.00     0.202 C 
ENDROOT
BRANCH   1   2
ATOM      2  C   UNL A   1      37.126  23.725  25.735  1.00  0.00     0.261 C 
BRANCH   2   3
ATOM      3  O   UNL A   1      35.841  23.073  25.772  1.00  0.00    -0.459 OA
BRANCH   3   4
ATOM      4  C   UNL A   1      35.379  22.719  24.539  1.00  0.00     0.369 C 
ATOM      5  O   UNL A   1      36.117  22.606  23.561  1.00  0.00    -0.245 OA
BRANCH   4   6
ATOM      6  C   UNL A   1      33.879  22.334  24.500  1.00  0.00     0.326 C 
BRANCH   6   7
ATOM      7  N   UNL A   1      33.550  20.897  24.224  1.00  0.00    -0.316 N 
ATOM      8  C   UNL A   1      32.130  20.622  24.468  1.00  0.00     0.334 C 
ATOM      9  H   UNL A   1      33.812  20.852  23.240  1.00  0.00     0.349 HD
BRANCH   7  10
ATOM     10  C   UNL A   1      34.362  19.810  24.799  1.00  0.00     0.339 C 
BRANCH  10  11
ATOM     11  C   UNL A   1      33.872  18.390  24.656  1.00  0.00     0.161 A 
ATOM     12  C   UNL A   1      32.324  15.320  25.631  1.00  0.00     0.068 C 
ATOM     13  C   UNL A   1      33.069  16.402  24.952  1.00  0.00     0.056 A 
ATOM     14  C   UNL A   1      33.560  16.419  23.668  1.00  0.00     0.107 A 
ATOM     15  N   UNL A   1      33.331  17.607  25.574  1.00  0.00    -0.233 NA
ATOM     16  N   UNL A   1      34.052  17.678  23.493  1.00  0.00    -0.344 N 
ATOM     17  H   UNL A   1      34.467  18.022  22.669  1.00  0.00     0.167 HD
ENDBRANCH  10  11
ENDBRANCH   7  10
ENDBRANCH   6   7
BRANCH   6  18
ATOM     18  C   UNL A   1      33.017  23.365  23.777  1.00  0.00     0.021 A 
ATOM     19  C   UNL A   1      31.898  23.968  24.363  1.00  0.00     0.012 A 
ATOM     20  C   UNL A   1      33.325  23.722  22.455  1.00  0.00     0.012 A 
ATOM     21  C   UNL A   1      31.211  24.987  23.700  1.00  0.00     0.027 A 
ATOM     22  C   UNL A   1      32.673  24.786  21.822  1.00  0.00     0.027 A 
ATOM     23  C   UNL A   1      31.678  25.493  22.492  1.00  0.00     0.042 A 
BRANCH  23  24
ATOM     24  N   UNL A   1      31.199  26.682  21.909  1.00  0.00    -0.308 N 
ATOM     25  C   UNL A   1      31.063  27.939  22.415  1.00  0.00     0.321 C 
ATOM     26  H   UNL A   1      30.913  26.588  20.972  1.00  0.00     0.171 HD
ATOM     27  O   UNL A   1      30.231  28.690  21.904  1.00  0.00    -0.248 OA
ATOM     28  N   UNL A   1      31.830  28.340  23.471  1.00  0.00    -0.325 N 
ATOM     29  C   UNL A   1      33.261  28.169  23.628  1.00  0.00     0.121 C 
ATOM     30  C   UNL A   1      31.356  29.339  24.399  1.00  0.00     0.121 C 
ATOM     31  C   UNL A   1      33.460  28.334  25.124  1.00  0.00     0.023 C 
ATOM     32  C   UNL A   1      32.378  29.337  25.535  1.00  0.00     0.023 C 
ENDBRANCH  23  24
ENDBRANCH   6  18
ENDBRANCH   4   6
ENDBRANCH   3   4
ENDBRANCH   2   3
ENDBRANCH   1   2
BRANCH   1  33
ATOM     33  O   UNL A   1      38.829  21.921  25.378  1.00  0.00    -0.374 OA
BRANCH  33  34
ATOM     34  C   UNL A   1      38.316  20.593  25.364  1.00  0.00     0.202 C 
BRANCH  34  35
ATOM     35  C   UNL A   1      39.348  19.469  25.552  1.00  0.00     0.261 C 
BRANCH  35  36
ATOM     36  O   UNL A   1      40.323  19.783  26.562  1.00  0.00    -0.460 OA
BRANCH  36  37
ATOM     37  C   UNL A   1      41.585  19.927  26.090  1.00  0.00     0.338 C 
ATOM     38  O   UNL A   1      42.141  19.232  25.248  1.00  0.00    -0.246 OA
BRANCH  37  39
ATOM     39  C   UNL A   1      42.187  21.179  26.577  1.00  0.00     0.060 A 
ATOM     40  C   UNL A   1      42.204  21.379  27.963  1.00  0.00     0.016 A 
ATOM     41  C   UNL A   1      42.614  22.184  25.709  1.00  0.00     0.016 A 
ATOM     42  C   UNL A   1      42.591  22.609  28.487  1.00  0.00     0.010 A 
ATOM     43  C   UNL A   1      42.996  23.425  26.237  1.00  0.00     0.010 A 
ATOM     44  C   UNL A   1      42.943  23.656  27.625  1.00  0.00    -0.014 A 
BRANCH  44  45
ATOM     45  C   UNL A   1      43.076  25.025  28.184  1.00  0.00     0.031 A 
ATOM     46  C   UNL A   1      44.441  25.521  28.582  1.00  0.00     0.074 A 
ATOM     47  C   UNL A   1      42.014  25.848  28.261  1.00  0.00     0.049 A 
ATOM     48  N   UNL A   1      44.793  26.689  29.057  1.00  0.00    -0.248 NA
ATOM     49  C   UNL A   1      45.560  24.578  28.418  1.00  0.00     0.031 C 
ATOM     50  C   UNL A   1      40.651  25.511  27.854  1.00  0.00     0.029 A 
ATOM     51  N   UNL A   1      41.923  27.144  28.702  1.00  0.00    -0.354 N 
ATOM     52  C   UNL A   1      46.168  26.619  29.251  1.00  0.00     0.074 A 
ATOM     53  C   UNL A   1      46.583  25.287  28.871  1.00  0.00     0.031 C 
ATOM     54  C   UNL A   1      39.858  26.577  28.061  1.00  0.00     0.029 A 
ATOM     55  C   UNL A   1      40.651  27.658  28.644  1.00  0.00     0.049 A 
ATOM     56  H   UNL A   1      42.698  27.657  29.029  1.00  0.00     0.167 HD
ATOM     57  C   UNL A   1      47.013  27.579  29.697  1.00  0.00     0.031 A 
ATOM     58  C   UNL A   1      40.178  28.860  29.029  1.00  0.00     0.031 A 
ATOM     59  C   UNL A   1      46.606  28.904  30.081  1.00  0.00     0.049 A 
ATOM     60  C   UNL A   1      41.126  29.880  29.600  1.00  0.00     0.074 A 
ATOM     61  C   UNL A   1      47.392  29.948  30.537  1.00  0.00     0.029 A 
ATOM     62  N   UNL A   1      45.300  29.364  30.060  1.00  0.00    -0.354 N 
ATOM     63  N   UNL A   1      42.425  29.807  29.756  1.00  0.00    -0.248 NA
ATOM     64  C   UNL A   1      40.540  31.156  30.040  1.00  0.00     0.031 C 
ATOM     65  C   UNL A   1      46.553  31.024  30.843  1.00  0.00     0.029 A 
ATOM     66  C   UNL A   1      45.252  30.668  30.523  1.00  0.00     0.049 A 
ATOM     67  H   UNL A   1      44.520  28.841  29.762  1.00  0.00     0.167 HD
ATOM     68  C   UNL A   1      42.814  31.033  30.285  1.00  0.00     0.074 A 
ATOM     69  C   UNL A   1      41.616  31.837  30.406  1.00  0.00     0.031 C 
ATOM     70  C   UNL A   1      44.053  31.456  30.635  1.00  0.00     0.031 A 
BRANCH  57  71
ATOM     71  C   UNL A   1      48.466  27.219  29.828  1.00  0.00    -0.014 A 
ATOM     72  C   UNL A   1      49.377  27.468  28.789  1.00  0.00     0.009 A 
ATOM     73  C   UNL A   1      48.938  26.665  31.029  1.00  0.00     0.009 A 
ATOM     74  C   UNL A   1      50.727  27.144  28.942  1.00  0.00     0.001 A 
ATOM     75  C   UNL A   1      50.293  26.366  31.187  1.00  0.00     0.001 A 
ATOM     76  C   UNL A   1      51.184  26.600  30.142  1.00  0.00     0.000 A 
ENDBRANCH  57  71
BRANCH  58  77
ATOM     77  C   UNL A   1      38.726  29.161  28.918  1.00  0.00    -0.014 A 
ATOM     78  C   UNL A   1      38.179  29.636  27.716  1.00  0.00     0.009 A 
ATOM     79  C   UNL A   1      37.885  29.008  30.031  1.00  0.00     0.009 A 
ATOM     80  C   UNL A   1      36.826  29.978  27.641  1.00  0.00     0.001 A 
ATOM     81  C   UNL A   1      36.528  29.323  29.945  1.00  0.00     0.001 A 
ATOM     82  C   UNL A   1      36.001  29.818  28.754  1.00  0.00     0.000 A 
ENDBRANCH  58  77
BRANCH  70  83
ATOM     83  C   UNL A   1      44.184  32.863  31.147  1.00  0.00    -0.014 A 
ATOM     84  C   UNL A   1      44.194  33.142  32.522  1.00  0.00     0.009 A 
ATOM     85  C   UNL A   1      44.345  33.921  30.237  1.00  0.00     0.009 A 
ATOM     86  C   UNL A   1      44.328  34.456  32.975  1.00  0.00     0.001 A 
ATOM     87  C   UNL A   1      44.508  35.229  30.693  1.00  0.00     0.001 A 
ATOM     88  C   UNL A   1      44.490  35.497  32.061  1.00  0.00     0.000 A 
ENDBRANCH  70  83
ENDBRANCH  44  45
ENDBRANCH  37  39
ENDBRANCH  36  37
ENDBRANCH  35  36
ENDBRANCH  34  35
ENDBRANCH  33  34
ENDBRANCH   1  33
TORSDOF 19
ENDMDL
MODEL 2
REMARK VINA RESULT:     -10.3      2.869      9.006
REMARK SMILES Cc1c[nH]c(C[N@@H+](C)[C@@H](C(=O)OCCOCCOC(=O)c2ccc(-c3c4nc(c(-c5ccccc5)c5ccc([nH]5)c(-c5ccccc5)c5nc(c(-c6ccccc6)c6ccc3[nH]6)C=C5)C=C4)cc2)c2ccc(NC(=O)N3CCCC3)cc2)n1
REMARK SMILES IDX 14 1 13 2 12 3 10 4 11 5 9 6 7 7 8 8 6 10 5 11 1 12 2 13
REMARK SMILES IDX 3 14 83 15 4 16 69 18 70 19 82 20 71 21 81 22 72 23 73 24
REMARK SMILES IDX 74 25 75 27 76 28 77 29 80 30 78 31 79 32 15 33 16 34 17 35
REMARK SMILES IDX 18 36 19 37 20 38 21 39 22 40 68 41 23 42 67 43 24 44 25 45
REMARK SMILES IDX 26 46 61 47 27 48 66 49 60 50 62 51 28 52 65 53 59 54 58 55
REMARK SMILES IDX 29 57 51 58 36 59 50 60 37 61 40 62 49 63 63 64 38 65 39 66
REMARK SMILES IDX 48 68 64 69 41 70 30 71 31 72 35 73 32 74 34 75 33 76 52 77
REMARK SMILES IDX 53 78 57 79 54 80 56 81 55 82 42 83 43 84 47 85 44 86 46 87
REMARK SMILES IDX 45 88
REMARK H PARENT 7 9 4 17 73 26 62 56 40 67
REMARK Flexibility Score: inf
ROOT
ATOM      1  C   UNL A   1      33.722  30.326  26.847  1.00  0.00     0.202 C 
ENDROOT
BRANCH   1   2
ATOM      2  C   UNL A   1      33.937  28.930  26.259  1.00  0.00     0.261 C 
BRANCH   2   3
ATOM      3  O   UNL A   1      33.368  27.904  27.095  1.00  0.00    -0.459 OA
BRANCH   3   4
ATOM      4  C   UNL A   1      32.164  27.446  26.647  1.00  0.00     0.369 C 
ATOM      5  O   UNL A   1      31.112  27.643  27.254  1.00  0.00    -0.245 OA
BRANCH   4   6
ATOM      6  C   UNL A   1      32.208  26.785  25.247  1.00  0.00     0.326 C 
BRANCH   6   7
ATOM      7  N   UNL A   1      31.604  27.554  24.109  1.00  0.00    -0.316 N 
ATOM      8  C   UNL A   1      32.556  27.697  23.003  1.00  0.00     0.334 C 
ATOM      9  H   UNL A   1      30.816  26.944  23.895  1.00  0.00     0.349 HD
BRANCH   7  10
ATOM     10  C   UNL A   1      30.929  28.843  24.341  1.00  0.00     0.339 C 
BRANCH  10  11
ATOM     11  C   UNL A   1      29.836  29.266  23.391  1.00  0.00     0.161 A 
ATOM     12  C   UNL A   1      28.199  31.275  20.930  1.00  0.00     0.068 C 
ATOM     13  C   UNL A   1      28.563  30.289  21.971  1.00  0.00     0.056 A 
ATOM     14  C   UNL A   1      27.851  29.189  22.385  1.00  0.00     0.107 A 
ATOM     15  N   UNL A   1      29.762  30.361  22.653  1.00  0.00    -0.233 NA
ATOM     16  N   UNL A   1      28.668  28.550  23.269  1.00  0.00    -0.344 N 
ATOM     17  H   UNL A   1      28.458  27.712  23.742  1.00  0.00     0.167 HD
ENDBRANCH  10  11
ENDBRANCH   7  10
ENDBRANCH   6   7
BRANCH   6  18
ATOM     18  C   UNL A   1      31.892  25.292  25.283  1.00  0.00     0.021 A 
ATOM     19  C   UNL A   1      31.895  24.485  24.138  1.00  0.00     0.012 A 
ATOM     20  C   UNL A   1      31.556  24.683  26.502  1.00  0.00     0.012 A 
ATOM     21  C   UNL A   1      31.710  23.105  24.241  1.00  0.00     0.027 A 
ATOM     22  C   UNL A   1      31.436  23.293  26.607  1.00  0.00     0.027 A 
ATOM     23  C   UNL A   1      31.619  22.489  25.485  1.00  0.00     0.042 A 
BRANCH  23  24
ATOM     24  N   UNL A   1      31.703  21.096  25.671  1.00  0.00    -0.308 N 
ATOM     25  C   UNL A   1      32.741  20.229  25.507  1.00  0.00     0.321 C 
ATOM     26  H   UNL A   1      30.865  20.676  25.971  1.00  0.00     0.171 HD
ATOM     27  O   UNL A   1      32.485  19.043  25.289  1.00  0.00    -0.248 OA
ATOM     28  N   UNL A   1      34.027  20.678  25.577  1.00  0.00    -0.325 N 
ATOM     29  C   UNL A   1      34.597  21.550  26.585  1.00  0.00     0.121 C 
ATOM     30  C   UNL A   1      35.087  20.017  24.852  1.00  0.00     0.121 C 
ATOM     31  C   UNL A   1      35.843  22.087  25.903  1.00  0.00     0.023 C 
ATOM     32  C   UNL A   1      36.298  20.938  24.999  1.00  0.00     0.023 C 
ENDBRANCH  23  24
ENDBRANCH   6  18
ENDBRANCH   4   6
ENDBRANCH   3   4
ENDBRANCH   2   3
ENDBRANCH   1   2
BRANCH   1  33
ATOM     33  O   UNL A   1      34.867  30.928  27.453  1.00  0.00    -0.374 OA
BRANCH  33  34
ATOM     34  C   UNL A   1      34.698  32.236  27.990  1.00  0.00     0.202 C 
BRANCH  34  35
ATOM     35  C   UNL A   1      34.761  32.351  29.521  1.00  0.00     0.261 C 
BRANCH  35  36
ATOM     36  O   UNL A   1      36.113  32.380  30.014  1.00  0.00    -0.460 OA
BRANCH  36  37
ATOM     37  C   UNL A   1      36.417  31.367  30.861  1.00  0.00     0.338 C 
ATOM     38  O   UNL A   1      35.790  31.025  31.857  1.00  0.00    -0.246 OA
BRANCH  37  39
ATOM     39  C   UNL A   1      37.528  30.558  30.334  1.00  0.00     0.060 A 
ATOM     40  C   UNL A   1      38.329  29.891  31.269  1.00  0.00     0.016 A 
ATOM     41  C   UNL A   1      37.856  30.542  28.978  1.00  0.00     0.016 A 
ATOM     42  C   UNL A   1      39.498  29.256  30.862  1.00  0.00     0.010 A 
ATOM     43  C   UNL A   1      39.038  29.909  28.569  1.00  0.00     0.010 A 
ATOM     44  C   UNL A   1      39.886  29.303  29.516  1.00  0.00    -0.014 A 
BRANCH  44  45
ATOM     45  C   UNL A   1      41.260  28.871  29.154  1.00  0.00     0.031 A 
ATOM     46  C   UNL A   1      41.485  27.449  28.710  1.00  0.00     0.074 A 
ATOM     47  C   UNL A   1      42.280  29.747  29.139  1.00  0.00     0.049 A 
ATOM     48  N   UNL A   1      42.590  26.867  28.317  1.00  0.00    -0.248 NA
ATOM     49  C   UNL A   1      40.306  26.565  28.704  1.00  0.00     0.031 C 
ATOM     50  C   UNL A   1      42.184  31.164  29.489  1.00  0.00     0.029 A 
ATOM     51  N   UNL A   1      43.600  29.571  28.806  1.00  0.00    -0.354 N 
ATOM     52  C   UNL A   1      42.241  25.555  28.021  1.00  0.00     0.074 A 
ATOM     53  C   UNL A   1      40.830  25.416  28.307  1.00  0.00     0.031 C 
ATOM     54  C   UNL A   1      43.396  31.730  29.348  1.00  0.00     0.029 A 
ATOM     55  C   UNL A   1      44.356  30.711  28.929  1.00  0.00     0.049 A 
ATOM     56  H   UNL A   1      43.969  28.709  28.506  1.00  0.00     0.167 HD
ATOM     57  C   UNL A   1      43.022  24.556  27.545  1.00  0.00     0.031 A 
ATOM     58  C   UNL A   1      45.676  30.907  28.739  1.00  0.00     0.031 A 
ATOM     59  C   UNL A   1      44.426  24.686  27.264  1.00  0.00     0.049 A 
ATOM     60  C   UNL A   1      46.537  29.756  28.290  1.00  0.00     0.074 A 
ATOM     61  C   UNL A   1      45.298  23.731  26.771  1.00  0.00     0.029 A 
ATOM     62  N   UNL A   1      45.164  25.843  27.456  1.00  0.00    -0.354 N 
ATOM     63  N   UNL A   1      46.189  28.528  27.993  1.00  0.00    -0.248 NA
ATOM     64  C   UNL A   1      47.976  30.025  28.140  1.00  0.00     0.031 C 
ATOM     65  C   UNL A   1      46.576  24.295  26.716  1.00  0.00     0.029 A 
ATOM     66  C   UNL A   1      46.488  25.618  27.120  1.00  0.00     0.049 A 
ATOM     67  H   UNL A   1      44.801  26.697  27.785  1.00  0.00     0.167 HD
ATOM     68  C   UNL A   1      47.357  27.888  27.596  1.00  0.00     0.074 A 
ATOM     69  C   UNL A   1      48.421  28.867  27.674  1.00  0.00     0.031 C 
ATOM     70  C   UNL A   1      47.534  26.603  27.200  1.00  0.00     0.031 A 
BRANCH  57  71
ATOM     71  C   UNL A   1      42.378  23.214  27.330  1.00  0.00    -0.014 A 
ATOM     72  C   UNL A   1      42.160  22.330  28.398  1.00  0.00     0.009 A 
ATOM     73  C   UNL A   1      41.942  22.853  26.046  1.00  0.00     0.009 A 
ATOM     74  C   UNL A   1      41.542  21.097  28.177  1.00  0.00     0.001 A 
ATOM     75  C   UNL A   1      41.301  21.631  25.833  1.00  0.00     0.001 A 
ATOM     76  C   UNL A   1      41.107  20.752  26.897  1.00  0.00     0.000 A 
ENDBRANCH  57  71
BRANCH  58  77
ATOM     77  C   UNL A   1      46.279  32.240  29.000  1.00  0.00    -0.014 A 
ATOM     78  C   UNL A   1      46.181  33.273  28.054  1.00  0.00     0.009 A 
ATOM     79  C   UNL A   1      46.989  32.474  30.188  1.00  0.00     0.009 A 
ATOM     80  C   UNL A   1      46.806  34.501  28.282  1.00  0.00     0.001 A 
ATOM     81  C   UNL A   1      47.589  33.713  30.424  1.00  0.00     0.001 A 
ATOM     82  C   UNL A   1      47.506  34.721  29.467  1.00  0.00     0.000 A 
ENDBRANCH  58  77
BRANCH  70  83
ATOM     83  C   UNL A   1      48.918  26.192  26.783  1.00  0.00    -0.014 A 
ATOM     84  C   UNL A   1      49.420  26.504  25.511  1.00  0.00     0.009 A 
ATOM     85  C   UNL A   1      49.747  25.519  27.696  1.00  0.00     0.009 A 
ATOM     86  C   UNL A   1      50.714  26.121  25.149  1.00  0.00     0.001 A 
ATOM     87  C   UNL A   1      51.049  25.164  27.343  1.00  0.00     0.001 A 
ATOM     88  C   UNL A   1      51.528  25.457  26.067  1.00  0.00     0.000 A 
ENDBRANCH  70  83
ENDBRANCH  44  45
ENDBRANCH  37  39
ENDBRANCH  36  37
ENDBRANCH  35  36
ENDBRANCH  34  35
ENDBRANCH  33  34
ENDBRANCH   1  33
TORSDOF 19
ENDMDL
MODEL 3
REMARK VINA RESULT:     -10.3      1.670      2.339
REMARK SMILES Cc1c[nH]c(C[N@@H+](C)[C@@H](C(=O)OCCOCCOC(=O)c2ccc(-c3c4nc(c(-c5ccccc5)c5ccc([nH]5)c(-c5ccccc5)c5nc(c(-c6ccccc6)c6ccc3[nH]6)C=C5)C=C4)cc2)c2ccc(NC(=O)N3CCCC3)cc2)n1
REMARK SMILES IDX 14 1 13 2 12 3 10 4 11 5 9 6 7 7 8 8 6 10 5 11 1 12 2 13
REMARK SMILES IDX 3 14 83 15 4 16 69 18 70 19 82 20 71 21 81 22 72 23 73 24
REMARK SMILES IDX 74 25 75 27 76 28 77 29 80 30 78 31 79 32 15 33 16 34 17 35
REMARK SMILES IDX 18 36 19 37 20 38 21 39 22 40 68 41 23 42 67 43 24 44 25 45
REMARK SMILES IDX 26 46 61 47 27 48 66 49 60 50 62 51 28 52 65 53 59 54 58 55
REMARK SMILES IDX 29 57 51 58 36 59 50 60 37 61 40 62 49 63 63 64 38 65 39 66
REMARK SMILES IDX 48 68 64 69 41 70 30 71 31 72 35 73 32 74 34 75 33 76 52 77
REMARK SMILES IDX 53 78 57 79 54 80 56 81 55 82 42 83 43 84 47 85 44 86 46 87
REMARK SMILES IDX 45 88
REMARK H PARENT 7 9 4 17 73 26 62 56 40 67
REMARK Flexibility Score: inf
ROOT
ATOM      1  C   UNL A   1      37.249  22.289  24.983  1.00  0.00     0.202 C 
ENDROOT
BRANCH   1   2
ATOM      2  C   UNL A   1      36.041  22.497  25.896  1.00  0.00     0.261 C 
BRANCH   2   3
ATOM      3  O   UNL A   1      35.321  21.269  26.120  1.00  0.00    -0.459 OA
BRANCH   3   4
ATOM      4  C   UNL A   1      34.074  21.460  26.641  1.00  0.00     0.369 C 
ATOM      5  O   UNL A   1      33.859  21.486  27.852  1.00  0.00    -0.245 OA
BRANCH   4   6
ATOM      6  C   UNL A   1      32.981  21.780  25.593  1.00  0.00     0.326 C 
BRANCH   6   7
ATOM      7  N   UNL A   1      33.221  21.307  24.189  1.00  0.00    -0.316 N 
ATOM      8  C   UNL A   1      33.056  22.400  23.226  1.00  0.00     0.334 C 
ATOM      9  H   UNL A   1      34.184  20.987  24.284  1.00  0.00     0.349 HD
BRANCH   7  10
ATOM     10  C   UNL A   1      32.554  20.099  23.673  1.00  0.00     0.339 C 
BRANCH  10  11
ATOM     11  C   UNL A   1      32.965  18.756  24.226  1.00  0.00     0.161 A 
ATOM     12  C   UNL A   1      35.174  16.095  25.125  1.00  0.00     0.068 C 
ATOM     13  C   UNL A   1      34.012  16.959  24.826  1.00  0.00     0.056 A 
ATOM     14  C   UNL A   1      32.688  16.735  25.118  1.00  0.00     0.107 A 
ATOM     15  N   UNL A   1      34.159  18.188  24.211  1.00  0.00    -0.233 NA
ATOM     16  N   UNL A   1      32.043  17.877  24.746  1.00  0.00    -0.344 N 
ATOM     17  H   UNL A   1      31.078  18.045  24.835  1.00  0.00     0.167 HD
ENDBRANCH  10  11
ENDBRANCH   7  10
ENDBRANCH   6   7
BRANCH   6  18
ATOM     18  C   UNL A   1      32.417  23.191  25.732  1.00  0.00     0.021 A 
ATOM     19  C   UNL A   1      33.212  24.304  26.030  1.00  0.00     0.012 A 
ATOM     20  C   UNL A   1      31.037  23.404  25.584  1.00  0.00     0.012 A 
ATOM     21  C   UNL A   1      32.664  25.588  26.035  1.00  0.00     0.027 A 
ATOM     22  C   UNL A   1      30.507  24.698  25.527  1.00  0.00     0.027 A 
ATOM     23  C   UNL A   1      31.345  25.802  25.649  1.00  0.00     0.042 A 
BRANCH  23  24
ATOM     24  N   UNL A   1      30.812  27.076  25.373  1.00  0.00    -0.308 N 
ATOM     25  C   UNL A   1      31.265  28.087  24.582  1.00  0.00     0.321 C 
ATOM     26  H   UNL A   1      29.964  27.269  25.834  1.00  0.00     0.171 HD
ATOM     27  O   UNL A   1      30.901  29.238  24.833  1.00  0.00    -0.248 OA
ATOM     28  N   UNL A   1      32.110  27.820  23.544  1.00  0.00    -0.325 N 
ATOM     29  C   UNL A   1      31.970  26.777  22.547  1.00  0.00     0.121 C 
ATOM     30  C   UNL A   1      33.060  28.805  23.085  1.00  0.00     0.121 C 
ATOM     31  C   UNL A   1      33.379  26.643  21.997  1.00  0.00     0.023 C 
ATOM     32  C   UNL A   1      33.953  28.059  22.093  1.00  0.00     0.023 C 
ENDBRANCH  23  24
ENDBRANCH   6  18
ENDBRANCH   4   6
ENDBRANCH   3   4
ENDBRANCH   2   3
ENDBRANCH   1   2
BRANCH   1  33
ATOM     33  O   UNL A   1      38.299  21.479  25.514  1.00  0.00    -0.374 OA
BRANCH  33  34
ATOM     34  C   UNL A   1      38.422  20.160  24.991  1.00  0.00     0.202 C 
BRANCH  34  35
ATOM     35  C   UNL A   1      39.364  19.216  25.755  1.00  0.00     0.261 C 
BRANCH  35  36
ATOM     36  O   UNL A   1      40.745  19.601  25.631  1.00  0.00    -0.460 OA
BRANCH  36  37
ATOM     37  C   UNL A   1      41.385  19.759  26.816  1.00  0.00     0.338 C 
ATOM     38  O   UNL A   1      41.588  18.901  27.666  1.00  0.00    -0.246 OA
BRANCH  37  39
ATOM     39  C   UNL A   1      42.007  21.091  26.900  1.00  0.00     0.060 A 
ATOM     40  C   UNL A   1      42.583  21.447  28.126  1.00  0.00     0.016 A 
ATOM     41  C   UNL A   1      41.929  22.014  25.856  1.00  0.00     0.016 A 
ATOM     42  C   UNL A   1      43.028  22.749  28.336  1.00  0.00     0.010 A 
ATOM     43  C   UNL A   1      42.371  23.326  26.072  1.00  0.00     0.010 A 
ATOM     44  C   UNL A   1      42.881  23.710  27.327  1.00  0.00    -0.014 A 
BRANCH  44  45
ATOM     45  C   UNL A   1      43.099  25.139  27.666  1.00  0.00     0.031 A 
ATOM     46  C   UNL A   1      44.448  25.755  27.402  1.00  0.00     0.074 A 
ATOM     47  C   UNL A   1      42.091  25.903  28.125  1.00  0.00     0.049 A 
ATOM     48  N   UNL A   1      44.848  26.987  27.588  1.00  0.00    -0.248 NA
ATOM     49  C   UNL A   1      45.483  24.864  26.850  1.00  0.00     0.031 C 
ATOM     50  C   UNL A   1      40.724  25.445  28.368  1.00  0.00     0.029 A 
ATOM     51  N   UNL A   1      42.064  27.234  28.460  1.00  0.00    -0.354 N 
ATOM     52  C   UNL A   1      46.177  27.018  27.181  1.00  0.00     0.074 A 
ATOM     53  C   UNL A   1      46.524  25.677  26.765  1.00  0.00     0.031 C 
ATOM     54  C   UNL A   1      39.989  26.480  28.810  1.00  0.00     0.029 A 
ATOM     55  C   UNL A   1      40.841  27.664  28.911  1.00  0.00     0.049 A 
ATOM     56  H   UNL A   1      42.848  27.824  28.383  1.00  0.00     0.167 HD
ATOM     57  C   UNL A   1      47.029  28.069  27.146  1.00  0.00     0.031 A 
ATOM     58  C   UNL A   1      40.455  28.872  29.367  1.00  0.00     0.031 A 
ATOM     59  C   UNL A   1      46.691  29.404  27.562  1.00  0.00     0.049 A 
ATOM     60  C   UNL A   1      41.448  30.004  29.396  1.00  0.00     0.074 A 
ATOM     61  C   UNL A   1      47.487  30.536  27.555  1.00  0.00     0.029 A 
ATOM     62  N   UNL A   1      45.457  29.783  28.065  1.00  0.00    -0.354 N 
ATOM     63  N   UNL A   1      42.693  30.023  28.987  1.00  0.00    -0.248 NA
ATOM     64  C   UNL A   1      40.976  31.286  29.943  1.00  0.00     0.031 C 
ATOM     65  C   UNL A   1      46.751  31.590  28.105  1.00  0.00     0.029 A 
ATOM     66  C   UNL A   1      45.478  31.126  28.401  1.00  0.00     0.049 A 
ATOM     67  H   UNL A   1      44.682  29.185  28.171  1.00  0.00     0.167 HD
ATOM     68  C   UNL A   1      43.142  31.321  29.200  1.00  0.00     0.074 A 
ATOM     69  C   UNL A   1      42.032  32.064  29.759  1.00  0.00     0.031 C 
ATOM     70  C   UNL A   1      44.365  31.852  28.953  1.00  0.00     0.031 A 
BRANCH  57  71
ATOM     71  C   UNL A   1      48.432  27.811  26.670  1.00  0.00    -0.014 A 
ATOM     72  C   UNL A   1      49.477  27.571  27.575  1.00  0.00     0.009 A 
ATOM     73  C   UNL A   1      48.698  27.760  25.292  1.00  0.00     0.009 A 
ATOM     74  C   UNL A   1      50.768  27.312  27.109  1.00  0.00     0.001 A 
ATOM     75  C   UNL A   1      49.985  27.475  24.830  1.00  0.00     0.001 A 
ATOM     76  C   UNL A   1      51.019  27.258  25.738  1.00  0.00     0.000 A 
ENDBRANCH  57  71
BRANCH  58  77
ATOM     77  C   UNL A   1      39.068  29.076  29.864  1.00  0.00    -0.014 A 
ATOM     78  C   UNL A   1      38.053  29.521  29.004  1.00  0.00     0.009 A 
ATOM     79  C   UNL A   1      38.764  28.858  31.217  1.00  0.00     0.009 A 
ATOM     80  C   UNL A   1      36.769  29.771  29.495  1.00  0.00     0.001 A 
ATOM     81  C   UNL A   1      37.472  29.081  31.699  1.00  0.00     0.001 A 
ATOM     82  C   UNL A   1      36.479  29.547  30.841  1.00  0.00     0.000 A 
ENDBRANCH  58  77
BRANCH  70  83
ATOM     83  C   UNL A   1      44.558  33.313  29.248  1.00  0.00    -0.014 A 
ATOM     84  C   UNL A   1      44.253  34.297  28.296  1.00  0.00     0.009 A 
ATOM     85  C   UNL A   1      45.010  33.711  30.517  1.00  0.00     0.009 A 
ATOM     86  C   UNL A   1      44.429  35.649  28.596  1.00  0.00     0.001 A 
ATOM     87  C   UNL A   1      45.156  35.064  30.825  1.00  0.00     0.001 A 
ATOM     88  C   UNL A   1      44.875  36.031  29.861  1.00  0.00     0.000 A 
ENDBRANCH  70  83
ENDBRANCH  44  45
ENDBRANCH  37  39
ENDBRANCH  36  37
ENDBRANCH  35  36
ENDBRANCH  34  35
ENDBRANCH  33  34
ENDBRANCH   1  33
TORSDOF 19
ENDMDL
