MODEL 1
REMARK VINA RESULT:     -10.2      0.000      0.000
REMARK SMILES CC[C@](C)(NC(=O)N[C@@H]1C=CS(=O)(=O)C1)C(=O)OCCOCCOC(=O)c1ccc(-c2c3nc(c(-c4ccccc4)c4ccc([nH]4)c(-c4ccccc4)c4nc(c(-c5ccccc5)c5ccc2[nH]5)C=C4)C=C3)cc1
REMARK SMILES IDX 21 1 20 2 19 3 18 4 16 5 17 6 3 7 4 8 2 9 1 10 5 11 6 12
REMARK SMILES IDX 7 14 8 15 9 17 10 18 15 19 11 20 12 21 13 22 14 23 22 24
REMARK SMILES IDX 23 25 24 26 25 27 26 28 27 29 28 30 74 31 29 32 73 33 30 34
REMARK SMILES IDX 31 35 32 36 67 37 33 38 72 39 66 40 68 41 34 42 71 43 65 44
REMARK SMILES IDX 64 45 35 47 57 48 42 49 56 50 43 51 46 52 55 53 69 54 44 55
REMARK SMILES IDX 45 56 54 58 70 59 47 60 36 61 37 62 41 63 38 64 40 65 39 66
REMARK SMILES IDX 58 67 59 68 63 69 60 70 62 71 61 72 48 73 49 74 53 75 50 76
REMARK SMILES IDX 52 77 51 78
REMARK H PARENT 5 13 8 16 68 46 46 57
REMARK Flexibility Score: inf
ROOT
ATOM      1  O   UNL A   1      37.517  21.840  24.219  1.00  0.00    -0.374 OA
ENDROOT
BRANCH   1   2
ATOM      2  C   UNL A   1      36.205  22.404  24.246  1.00  0.00     0.202 C 
BRANCH   2   3
ATOM      3  C   UNL A   1      35.820  22.930  25.664  1.00  0.00     0.261 C 
BRANCH   3   4
ATOM      4  O   UNL A   1      34.397  23.184  25.707  1.00  0.00    -0.462 OA
BRANCH   4   5
ATOM      5  C   UNL A   1      33.544  22.351  26.395  1.00  0.00     0.331 C 
ATOM      6  O   UNL A   1      33.752  21.978  27.544  1.00  0.00    -0.249 OA
BRANCH   5   7
ATOM      7  C   UNL A   1      32.301  21.923  25.506  1.00  0.00     0.136 C 
ATOM      8  C   UNL A   1      32.176  20.491  24.941  1.00  0.00     0.047 C 
BRANCH   7   9
ATOM      9  C   UNL A   1      32.191  22.833  24.238  1.00  0.00     0.037 C 
ATOM     10  C   UNL A   1      32.491  22.210  22.885  1.00  0.00     0.007 C 
ENDBRANCH   7   9
BRANCH   7  11
ATOM     11  N   UNL A   1      31.155  22.076  26.392  1.00  0.00    -0.322 N 
ATOM     12  C   UNL A   1      30.638  23.202  26.892  1.00  0.00     0.316 C 
ATOM     13  H   UNL A   1      30.703  21.242  26.657  1.00  0.00     0.166 HD
ATOM     14  O   UNL A   1      29.667  23.079  27.646  1.00  0.00    -0.249 OA
ATOM     15  N   UNL A   1      31.063  24.451  26.664  1.00  0.00    -0.331 N 
ATOM     16  H   UNL A   1      30.756  24.972  27.441  1.00  0.00     0.166 HD
BRANCH  15  17
ATOM     17  C   UNL A   1      31.784  25.439  25.790  1.00  0.00     0.123 C 
ATOM     18  C   UNL A   1      33.123  26.010  26.117  1.00  0.00     0.011 C 
ATOM     19  C   UNL A   1      30.859  26.641  25.560  1.00  0.00     0.170 C 
ATOM     20  C   UNL A   1      33.179  27.303  26.449  1.00  0.00     0.104 C 
ATOM     21  S   UNL A   1      31.595  27.969  26.498  1.00  0.00     0.173 S 
ATOM     22  O   UNL A   1      31.555  29.177  25.691  1.00  0.00    -0.224 OA
ATOM     23  O   UNL A   1      31.098  27.929  27.850  1.00  0.00    -0.224 OA
ENDBRANCH  15  17
ENDBRANCH   7  11
ENDBRANCH   5   7
ENDBRANCH   4   5
ENDBRANCH   3   4
ENDBRANCH   2   3
ENDBRANCH   1   2
BRANCH   1  24
ATOM     24  C   UNL A   1      37.945  20.936  25.237  1.00  0.00     0.202 C 
BRANCH  24  25
ATOM     25  C   UNL A   1      39.237  21.342  25.965  1.00  0.00     0.261 C 
BRANCH  25  26
ATOM     26  O   UNL A   1      39.863  20.222  26.589  1.00  0.00    -0.460 OA
BRANCH  26  27
ATOM     27  C   UNL A   1      41.148  20.048  26.224  1.00  0.00     0.338 C 
ATOM     28  O   UNL A   1      41.596  19.200  25.465  1.00  0.00    -0.246 OA
BRANCH  27  29
ATOM     29  C   UNL A   1      41.886  21.241  26.652  1.00  0.00     0.060 A 
ATOM     30  C   UNL A   1      41.976  21.476  28.030  1.00  0.00     0.016 A 
ATOM     31  C   UNL A   1      42.529  22.073  25.728  1.00  0.00     0.016 A 
ATOM     32  C   UNL A   1      42.614  22.618  28.484  1.00  0.00     0.010 A 
ATOM     33  C   UNL A   1      43.164  23.221  26.182  1.00  0.00     0.010 A 
ATOM     34  C   UNL A   1      43.134  23.524  27.552  1.00  0.00    -0.014 A 
BRANCH  34  35
ATOM     35  C   UNL A   1      43.336  24.915  27.985  1.00  0.00     0.031 A 
ATOM     36  C   UNL A   1      44.756  25.376  28.162  1.00  0.00     0.074 A 
ATOM     37  C   UNL A   1      42.293  25.743  28.140  1.00  0.00     0.049 A 
ATOM     38  N   UNL A   1      45.206  26.550  28.514  1.00  0.00    -0.248 NA
ATOM     39  C   UNL A   1      45.812  24.380  27.901  1.00  0.00     0.031 C 
ATOM     40  C   UNL A   1      40.890  25.390  27.931  1.00  0.00     0.029 A 
ATOM     41  N   UNL A   1      42.265  27.059  28.507  1.00  0.00    -0.354 N 
ATOM     42  C   UNL A   1      46.591  26.427  28.519  1.00  0.00     0.074 A 
ATOM     43  C   UNL A   1      46.910  25.064  28.171  1.00  0.00     0.031 C 
ATOM     44  C   UNL A   1      40.132  26.473  28.176  1.00  0.00     0.029 A 
ATOM     45  C   UNL A   1      40.997  27.574  28.591  1.00  0.00     0.049 A 
ATOM     46  H   UNL A   1      43.076  27.586  28.694  1.00  0.00     0.167 HD
ATOM     47  C   UNL A   1      47.514  27.376  28.786  1.00  0.00     0.031 A 
ATOM     48  C   UNL A   1      40.596  28.797  28.980  1.00  0.00     0.031 A 
ATOM     49  C   UNL A   1      47.177  28.722  29.151  1.00  0.00     0.049 A 
ATOM     50  C   UNL A   1      41.643  29.810  29.360  1.00  0.00     0.074 A 
ATOM     51  C   UNL A   1      48.022  29.774  29.450  1.00  0.00     0.029 A 
ATOM     52  N   UNL A   1      45.879  29.195  29.278  1.00  0.00    -0.354 N 
ATOM     53  N   UNL A   1      42.951  29.696  29.343  1.00  0.00    -0.248 NA
ATOM     54  C   UNL A   1      41.159  31.124  29.803  1.00  0.00     0.031 C 
ATOM     55  C   UNL A   1      47.233  30.867  29.818  1.00  0.00     0.029 A 
ATOM     56  C   UNL A   1      45.898  30.517  29.679  1.00  0.00     0.049 A 
ATOM     57  H   UNL A   1      45.066  28.667  29.106  1.00  0.00     0.167 HD
ATOM     58  C   UNL A   1      43.446  30.930  29.743  1.00  0.00     0.074 A 
ATOM     59  C   UNL A   1      42.296  31.782  29.978  1.00  0.00     0.031 C 
ATOM     60  C   UNL A   1      44.732  31.332  29.902  1.00  0.00     0.031 A 
BRANCH  47  61
ATOM     61  C   UNL A   1      48.961  26.972  28.735  1.00  0.00    -0.014 A 
ATOM     62  C   UNL A   1      49.645  26.545  29.885  1.00  0.00     0.009 A 
ATOM     63  C   UNL A   1      49.645  27.005  27.511  1.00  0.00     0.009 A 
ATOM     64  C   UNL A   1      50.993  26.185  29.812  1.00  0.00     0.001 A 
ATOM     65  C   UNL A   1      50.983  26.617  27.436  1.00  0.00     0.001 A 
ATOM     66  C   UNL A   1      51.658  26.214  28.587  1.00  0.00     0.000 A 
ENDBRANCH  47  61
BRANCH  48  67
ATOM     67  C   UNL A   1      39.147  29.120  29.055  1.00  0.00    -0.014 A 
ATOM     68  C   UNL A   1      38.411  28.865  30.221  1.00  0.00     0.009 A 
ATOM     69  C   UNL A   1      38.486  29.671  27.946  1.00  0.00     0.009 A 
ATOM     70  C   UNL A   1      37.038  29.125  30.263  1.00  0.00     0.001 A 
ATOM     71  C   UNL A   1      37.122  29.961  28.000  1.00  0.00     0.001 A 
ATOM     72  C   UNL A   1      36.397  29.676  29.156  1.00  0.00     0.000 A 
ENDBRANCH  48  67
BRANCH  60  73
ATOM     73  C   UNL A   1      44.957  32.760  30.307  1.00  0.00    -0.014 A 
ATOM     74  C   UNL A   1      45.072  33.128  31.655  1.00  0.00     0.009 A 
ATOM     75  C   UNL A   1      45.108  33.742  29.315  1.00  0.00     0.009 A 
ATOM     76  C   UNL A   1      45.295  34.461  32.004  1.00  0.00     0.001 A 
ATOM     77  C   UNL A   1      45.367  35.067  29.666  1.00  0.00     0.001 A 
ATOM     78  C   UNL A   1      45.448  35.427  31.010  1.00  0.00     0.000 A 
ENDBRANCH  60  73
ENDBRANCH  34  35
ENDBRANCH  27  29
ENDBRANCH  26  27
ENDBRANCH  25  26
ENDBRANCH  24  25
ENDBRANCH   1  24
TORSDOF 17
ENDMDL
MODEL 2
REMARK VINA RESULT:     -10.0      1.677      3.039
REMARK SMILES CC[C@](C)(NC(=O)N[C@@H]1C=CS(=O)(=O)C1)C(=O)OCCOCCOC(=O)c1ccc(-c2c3nc(c(-c4ccccc4)c4ccc([nH]4)c(-c4ccccc4)c4nc(c(-c5ccccc5)c5ccc2[nH]5)C=C4)C=C3)cc1
REMARK SMILES IDX 21 1 20 2 19 3 18 4 16 5 17 6 3 7 4 8 2 9 1 10 5 11 6 12
REMARK SMILES IDX 7 14 8 15 9 17 10 18 15 19 11 20 12 21 13 22 14 23 22 24
REMARK SMILES IDX 23 25 24 26 25 27 26 28 27 29 28 30 74 31 29 32 73 33 30 34
REMARK SMILES IDX 31 35 32 36 67 37 33 38 72 39 66 40 68 41 34 42 71 43 65 44
REMARK SMILES IDX 64 45 35 47 57 48 42 49 56 50 43 51 46 52 55 53 69 54 44 55
REMARK SMILES IDX 45 56 54 58 70 59 47 60 36 61 37 62 41 63 38 64 40 65 39 66
REMARK SMILES IDX 58 67 59 68 63 69 60 70 62 71 61 72 48 73 49 74 53 75 50 76
REMARK SMILES IDX 52 77 51 78
REMARK H PARENT 5 13 8 16 68 46 46 57
REMARK Flexibility Score: inf
ROOT
ATOM      1  O   UNL A   1      37.700  22.767  25.721  1.00  0.00    -0.374 OA
ENDROOT
BRANCH   1   2
ATOM      2  C   UNL A   1      37.064  22.284  24.536  1.00  0.00     0.202 C 
BRANCH   2   3
ATOM      3  C   UNL A   1      35.955  23.256  24.024  1.00  0.00     0.261 C 
BRANCH   3   4
ATOM      4  O   UNL A   1      35.628  24.198  25.071  1.00  0.00    -0.462 OA
BRANCH   4   5
ATOM      5  C   UNL A   1      34.614  23.945  25.967  1.00  0.00     0.331 C 
ATOM      6  O   UNL A   1      34.725  23.162  26.904  1.00  0.00    -0.249 OA
BRANCH   5   7
ATOM      7  C   UNL A   1      33.300  24.762  25.610  1.00  0.00     0.136 C 
ATOM      8  C   UNL A   1      32.685  24.709  24.194  1.00  0.00     0.047 C 
BRANCH   7   9
ATOM      9  C   UNL A   1      33.517  26.290  25.863  1.00  0.00     0.037 C 
ATOM     10  C   UNL A   1      33.590  27.209  24.655  1.00  0.00     0.007 C 
ENDBRANCH   7   9
BRANCH   7  11
ATOM     11  N   UNL A   1      32.279  24.201  26.484  1.00  0.00    -0.322 N 
ATOM     12  C   UNL A   1      31.663  23.020  26.388  1.00  0.00     0.316 C 
ATOM     13  H   UNL A   1      32.006  24.767  27.243  1.00  0.00     0.166 HD
ATOM     14  O   UNL A   1      30.807  22.769  27.244  1.00  0.00    -0.249 OA
ATOM     15  N   UNL A   1      31.874  22.078  25.461  1.00  0.00    -0.331 N 
ATOM     16  H   UNL A   1      31.040  21.555  25.432  1.00  0.00     0.166 HD
BRANCH  15  17
ATOM     17  C   UNL A   1      32.774  21.435  24.442  1.00  0.00     0.123 C 
ATOM     18  C   UNL A   1      32.275  20.710  23.236  1.00  0.00     0.011 C 
ATOM     19  C   UNL A   1      33.699  20.452  25.170  1.00  0.00     0.170 C 
ATOM     20  C   UNL A   1      32.432  19.384  23.204  1.00  0.00     0.104 C 
ATOM     21  S   UNL A   1      33.124  18.835  24.678  1.00  0.00     0.173 S 
ATOM     22  O   UNL A   1      34.282  18.006  24.388  1.00  0.00    -0.224 OA
ATOM     23  O   UNL A   1      32.077  18.410  25.572  1.00  0.00    -0.224 OA
ENDBRANCH  15  17
ENDBRANCH   7  11
ENDBRANCH   5   7
ENDBRANCH   4   5
ENDBRANCH   3   4
ENDBRANCH   2   3
ENDBRANCH   1   2
BRANCH   1  24
ATOM     24  C   UNL A   1      38.973  22.265  26.123  1.00  0.00     0.202 C 
BRANCH  24  25
ATOM     25  C   UNL A   1      39.288  20.837  25.648  1.00  0.00     0.261 C 
BRANCH  25  26
ATOM     26  O   UNL A   1      40.134  20.150  26.569  1.00  0.00    -0.460 OA
BRANCH  26  27
ATOM     27  C   UNL A   1      41.414  20.053  26.159  1.00  0.00     0.338 C 
ATOM     28  O   UNL A   1      41.876  19.266  25.346  1.00  0.00    -0.246 OA
BRANCH  27  29
ATOM     29  C   UNL A   1      42.111  21.256  26.628  1.00  0.00     0.060 A 
ATOM     30  C   UNL A   1      42.191  21.449  28.013  1.00  0.00     0.016 A 
ATOM     31  C   UNL A   1      42.725  22.139  25.733  1.00  0.00     0.016 A 
ATOM     32  C   UNL A   1      42.790  22.596  28.506  1.00  0.00     0.010 A 
ATOM     33  C   UNL A   1      43.322  23.292  26.225  1.00  0.00     0.010 A 
ATOM     34  C   UNL A   1      43.280  23.549  27.605  1.00  0.00    -0.014 A 
BRANCH  34  35
ATOM     35  C   UNL A   1      43.434  24.931  28.083  1.00  0.00     0.031 A 
ATOM     36  C   UNL A   1      44.833  25.404  28.365  1.00  0.00     0.074 A 
ATOM     37  C   UNL A   1      42.373  25.743  28.189  1.00  0.00     0.049 A 
ATOM     38  N   UNL A   1      45.244  26.574  28.774  1.00  0.00    -0.248 NA
ATOM     39  C   UNL A   1      45.917  24.427  28.150  1.00  0.00     0.031 C 
ATOM     40  C   UNL A   1      40.991  25.379  27.878  1.00  0.00     0.029 A 
ATOM     41  N   UNL A   1      42.302  27.049  28.585  1.00  0.00    -0.354 N 
ATOM     42  C   UNL A   1      46.627  26.467  28.868  1.00  0.00     0.074 A 
ATOM     43  C   UNL A   1      46.986  25.117  28.509  1.00  0.00     0.031 C 
ATOM     44  C   UNL A   1      40.204  26.446  28.099  1.00  0.00     0.029 A 
ATOM     45  C   UNL A   1      41.025  27.547  28.596  1.00  0.00     0.049 A 
ATOM     46  H   UNL A   1      43.092  27.580  28.837  1.00  0.00     0.167 HD
ATOM     47  C   UNL A   1      47.518  27.420  29.218  1.00  0.00     0.031 A 
ATOM     48  C   UNL A   1      40.583  28.755  28.987  1.00  0.00     0.031 A 
ATOM     49  C   UNL A   1      47.139  28.753  29.593  1.00  0.00     0.049 A 
ATOM     50  C   UNL A   1      41.589  29.771  29.460  1.00  0.00     0.074 A 
ATOM     51  C   UNL A   1      47.949  29.807  29.972  1.00  0.00     0.029 A 
ATOM     52  N   UNL A   1      45.829  29.207  29.644  1.00  0.00    -0.354 N 
ATOM     53  N   UNL A   1      42.897  29.672  29.527  1.00  0.00    -0.248 NA
ATOM     54  C   UNL A   1      41.059  31.067  29.901  1.00  0.00     0.031 C 
ATOM     55  C   UNL A   1      47.123  30.881  30.313  1.00  0.00     0.029 A 
ATOM     56  C   UNL A   1      45.805  30.519  30.077  1.00  0.00     0.049 A 
ATOM     57  H   UNL A   1      45.036  28.675  29.406  1.00  0.00     0.167 HD
ATOM     58  C   UNL A   1      43.348  30.902  29.988  1.00  0.00     0.074 A 
ATOM     59  C   UNL A   1      42.174  31.734  30.167  1.00  0.00     0.031 C 
ATOM     60  C   UNL A   1      44.615  31.314  30.242  1.00  0.00     0.031 A 
BRANCH  47  61
ATOM     61  C   UNL A   1      48.969  27.035  29.254  1.00  0.00    -0.014 A 
ATOM     62  C   UNL A   1      49.796  27.180  28.128  1.00  0.00     0.009 A 
ATOM     63  C   UNL A   1      49.522  26.531  30.442  1.00  0.00     0.009 A 
ATOM     64  C   UNL A   1      51.141  26.804  28.185  1.00  0.00     0.001 A 
ATOM     65  C   UNL A   1      50.872  26.184  30.505  1.00  0.00     0.001 A 
ATOM     66  C   UNL A   1      51.678  26.314  29.375  1.00  0.00     0.000 A 
ENDBRANCH  47  61
BRANCH  48  67
ATOM     67  C   UNL A   1      39.128  29.059  28.973  1.00  0.00    -0.014 A 
ATOM     68  C   UNL A   1      38.516  29.600  27.833  1.00  0.00     0.009 A 
ATOM     69  C   UNL A   1      38.345  28.823  30.114  1.00  0.00     0.009 A 
ATOM     70  C   UNL A   1      37.157  29.928  27.848  1.00  0.00     0.001 A 
ATOM     71  C   UNL A   1      36.981  29.122  30.117  1.00  0.00     0.001 A 
ATOM     72  C   UNL A   1      36.392  29.685  28.986  1.00  0.00     0.000 A 
ENDBRANCH  48  67
BRANCH  60  73
ATOM     73  C   UNL A   1      44.794  32.735  30.695  1.00  0.00    -0.014 A 
ATOM     74  C   UNL A   1      44.942  33.783  29.776  1.00  0.00     0.009 A 
ATOM     75  C   UNL A   1      44.762  33.029  32.068  1.00  0.00     0.009 A 
ATOM     76  C   UNL A   1      45.092  35.096  30.225  1.00  0.00     0.001 A 
ATOM     77  C   UNL A   1      44.878  34.346  32.512  1.00  0.00     0.001 A 
ATOM     78  C   UNL A   1      45.054  35.376  31.591  1.00  0.00     0.000 A 
ENDBRANCH  60  73
ENDBRANCH  34  35
ENDBRANCH  27  29
ENDBRANCH  26  27
ENDBRANCH  25  26
ENDBRANCH  24  25
ENDBRANCH   1  24
TORSDOF 17
ENDMDL
MODEL 3
REMARK VINA RESULT:      -9.9      3.776      9.025
REMARK SMILES CC[C@](C)(NC(=O)N[C@@H]1C=CS(=O)(=O)C1)C(=O)OCCOCCOC(=O)c1ccc(-c2c3nc(c(-c4ccccc4)c4ccc([nH]4)c(-c4ccccc4)c4nc(c(-c5ccccc5)c5ccc2[nH]5)C=C4)C=C3)cc1
REMARK SMILES IDX 21 1 20 2 19 3 18 4 16 5 17 6 3 7 4 8 2 9 1 10 5 11 6 12
REMARK SMILES IDX 7 14 8 15 9 17 10 18 15 19 11 20 12 21 13 22 14 23 22 24
REMARK SMILES IDX 23 25 24 26 25 27 26 28 27 29 28 30 74 31 29 32 73 33 30 34
REMARK SMILES IDX 31 35 32 36 67 37 33 38 72 39 66 40 68 41 34 42 71 43 65 44
REMARK SMILES IDX 64 45 35 47 57 48 42 49 56 50 43 51 46 52 55 53 69 54 44 55
REMARK SMILES IDX 45 56 54 58 70 59 47 60 36 61 37 62 41 63 38 64 40 65 39 66
REMARK SMILES IDX 58 67 59 68 63 69 60 70 62 71 61 72 48 73 49 74 53 75 50 76
REMARK SMILES IDX 52 77 51 78
REMARK H PARENT 5 13 8 16 68 46 46 57
REMARK Flexibility Score: inf
ROOT
ATOM      1  O   UNL A   1      32.399  30.302  27.042  1.00  0.00    -0.374 OA
ENDROOT
BRANCH   1   2
ATOM      2  C   UNL A   1      33.227  29.574  26.134  1.00  0.00     0.202 C 
BRANCH   2   3
ATOM      3  C   UNL A   1      32.391  28.776  25.084  1.00  0.00     0.261 C 
BRANCH   3   4
ATOM      4  O   UNL A   1      32.702  27.369  25.198  1.00  0.00    -0.462 OA
BRANCH   4   5
ATOM      5  C   UNL A   1      31.934  26.529  25.971  1.00  0.00     0.331 C 
ATOM      6  O   UNL A   1      31.088  26.930  26.762  1.00  0.00    -0.249 OA
BRANCH   5   7
ATOM      7  C   UNL A   1      32.307  25.005  25.727  1.00  0.00     0.136 C 
ATOM      8  C   UNL A   1      33.758  24.500  25.890  1.00  0.00     0.047 C 
BRANCH   7   9
ATOM      9  C   UNL A   1      31.924  24.570  24.274  1.00  0.00     0.037 C 
ATOM     10  C   UNL A   1      30.538  24.930  23.765  1.00  0.00     0.007 C 
ENDBRANCH   7   9
BRANCH   7  11
ATOM     11  N   UNL A   1      31.544  24.282  26.735  1.00  0.00    -0.322 N 
ATOM     12  C   UNL A   1      31.285  22.973  26.798  1.00  0.00     0.316 C 
ATOM     13  H   UNL A   1      31.170  24.829  27.464  1.00  0.00     0.166 HD
ATOM     14  O   UNL A   1      30.591  22.590  27.747  1.00  0.00    -0.249 OA
ATOM     15  N   UNL A   1      31.696  22.031  25.941  1.00  0.00    -0.331 N 
ATOM     16  H   UNL A   1      31.046  21.298  26.033  1.00  0.00     0.166 HD
BRANCH  15  17
ATOM     17  C   UNL A   1      32.677  21.556  24.904  1.00  0.00     0.123 C 
ATOM     18  C   UNL A   1      32.275  20.918  23.616  1.00  0.00     0.011 C 
ATOM     19  C   UNL A   1      33.647  20.576  25.574  1.00  0.00     0.170 C 
ATOM     20  C   UNL A   1      32.533  19.616  23.465  1.00  0.00     0.104 C 
ATOM     21  S   UNL A   1      33.213  18.978  24.909  1.00  0.00     0.173 S 
ATOM     22  O   UNL A   1      34.440  18.266  24.590  1.00  0.00    -0.224 OA
ATOM     23  O   UNL A   1      32.171  18.394  25.714  1.00  0.00    -0.224 OA
ENDBRANCH  15  17
ENDBRANCH   7  11
ENDBRANCH   5   7
ENDBRANCH   4   5
ENDBRANCH   3   4
ENDBRANCH   2   3
ENDBRANCH   1   2
BRANCH   1  24
ATOM     24  C   UNL A   1      31.531  31.333  26.573  1.00  0.00     0.202 C 
BRANCH  24  25
ATOM     25  C   UNL A   1      31.795  32.725  27.169  1.00  0.00     0.261 C 
BRANCH  25  26
ATOM     26  O   UNL A   1      33.162  32.888  27.543  1.00  0.00    -0.460 OA
BRANCH  26  27
ATOM     27  C   UNL A   1      33.376  33.925  28.375  1.00  0.00     0.338 C 
ATOM     28  O   UNL A   1      32.601  34.829  28.650  1.00  0.00    -0.246 OA
BRANCH  27  29
ATOM     29  C   UNL A   1      34.593  33.623  29.138  1.00  0.00     0.060 A 
ATOM     30  C   UNL A   1      35.802  34.124  28.639  1.00  0.00     0.016 A 
ATOM     31  C   UNL A   1      34.540  32.920  30.347  1.00  0.00     0.016 A 
ATOM     32  C   UNL A   1      36.984  33.821  29.291  1.00  0.00     0.010 A 
ATOM     33  C   UNL A   1      35.726  32.611  31.000  1.00  0.00     0.010 A 
ATOM     34  C   UNL A   1      36.946  32.999  30.423  1.00  0.00    -0.014 A 
BRANCH  34  35
ATOM     35  C   UNL A   1      38.176  32.281  30.793  1.00  0.00     0.031 A 
ATOM     36  C   UNL A   1      38.977  32.845  31.933  1.00  0.00     0.074 A 
ATOM     37  C   UNL A   1      38.514  31.139  30.180  1.00  0.00     0.049 A 
ATOM     38  N   UNL A   1      40.082  32.398  32.468  1.00  0.00    -0.248 NA
ATOM     39  C   UNL A   1      38.461  34.076  32.560  1.00  0.00     0.031 C 
ATOM     40  C   UNL A   1      37.759  30.495  29.107  1.00  0.00     0.029 A 
ATOM     41  N   UNL A   1      39.586  30.316  30.386  1.00  0.00    -0.354 N 
ATOM     42  C   UNL A   1      40.389  33.295  33.485  1.00  0.00     0.074 A 
ATOM     43  C   UNL A   1      39.381  34.327  33.476  1.00  0.00     0.031 C 
ATOM     44  C   UNL A   1      38.398  29.369  28.745  1.00  0.00     0.029 A 
ATOM     45  C   UNL A   1      39.618  29.239  29.538  1.00  0.00     0.049 A 
ATOM     46  H   UNL A   1      40.270  30.482  31.076  1.00  0.00     0.167 HD
ATOM     47  C   UNL A   1      41.421  33.252  34.355  1.00  0.00     0.031 A 
ATOM     48  C   UNL A   1      40.547  28.276  29.416  1.00  0.00     0.031 A 
ATOM     49  C   UNL A   1      42.426  32.228  34.334  1.00  0.00     0.049 A 
ATOM     50  C   UNL A   1      41.737  28.302  30.339  1.00  0.00     0.074 A 
ATOM     51  C   UNL A   1      43.524  32.079  35.160  1.00  0.00     0.029 A 
ATOM     52  N   UNL A   1      42.455  31.181  33.425  1.00  0.00    -0.354 N 
ATOM     53  N   UNL A   1      42.012  29.140  31.312  1.00  0.00    -0.248 NA
ATOM     54  C   UNL A   1      42.739  27.246  30.153  1.00  0.00     0.031 C 
ATOM     55  C   UNL A   1      44.252  30.974  34.711  1.00  0.00     0.029 A 
ATOM     56  C   UNL A   1      43.570  30.395  33.651  1.00  0.00     0.049 A 
ATOM     57  H   UNL A   1      41.782  31.021  32.725  1.00  0.00     0.167 HD
ATOM     58  C   UNL A   1      43.200  28.694  31.873  1.00  0.00     0.074 A 
ATOM     59  C   UNL A   1      43.583  27.502  31.142  1.00  0.00     0.031 C 
ATOM     60  C   UNL A   1      43.916  29.215  32.901  1.00  0.00     0.031 A 
BRANCH  47  61
ATOM     61  C   UNL A   1      41.531  34.366  35.357  1.00  0.00    -0.014 A 
ATOM     62  C   UNL A   1      42.361  35.476  35.135  1.00  0.00     0.009 A 
ATOM     63  C   UNL A   1      40.777  34.309  36.540  1.00  0.00     0.009 A 
ATOM     64  C   UNL A   1      42.453  36.493  36.089  1.00  0.00     0.001 A 
ATOM     65  C   UNL A   1      40.848  35.339  37.477  1.00  0.00     0.001 A 
ATOM     66  C   UNL A   1      41.691  36.427  37.255  1.00  0.00     0.000 A 
ENDBRANCH  47  61
BRANCH  48  67
ATOM     67  C   UNL A   1      40.405  27.229  28.371  1.00  0.00    -0.014 A 
ATOM     68  C   UNL A   1      40.969  27.399  27.098  1.00  0.00     0.009 A 
ATOM     69  C   UNL A   1      39.684  26.054  28.639  1.00  0.00     0.009 A 
ATOM     70  C   UNL A   1      40.786  26.430  26.107  1.00  0.00     0.001 A 
ATOM     71  C   UNL A   1      39.529  25.073  27.658  1.00  0.00     0.001 A 
ATOM     72  C   UNL A   1      40.071  25.268  26.389  1.00  0.00     0.000 A 
ENDBRANCH  48  67
BRANCH  60  73
ATOM     73  C   UNL A   1      45.155  28.475  33.317  1.00  0.00    -0.014 A 
ATOM     74  C   UNL A   1      45.105  27.436  34.256  1.00  0.00     0.009 A 
ATOM     75  C   UNL A   1      46.383  28.794  32.715  1.00  0.00     0.009 A 
ATOM     76  C   UNL A   1      46.270  26.755  34.614  1.00  0.00     0.001 A 
ATOM     77  C   UNL A   1      47.538  28.088  33.049  1.00  0.00     0.001 A 
ATOM     78  C   UNL A   1      47.483  27.077  34.006  1.00  0.00     0.000 A 
ENDBRANCH  60  73
ENDBRANCH  34  35
ENDBRANCH  27  29
ENDBRANCH  26  27
ENDBRANCH  25  26
ENDBRANCH  24  25
ENDBRANCH   1  24
TORSDOF 17
ENDMDL
