MODEL 1
REMARK VINA RESULT:     -10.9      0.000      0.000
REMARK SMILES Cc1nc[nH]c1C(=O)[NH+]1CCC2(CC1)C[C@@H](C(=O)OCCOCCOC(=O)c1ccc(-c3c4nc(c(-c5ccccc5)c5ccc([nH]5)c(-c5ccccc5)c5nc(c(-c6ccccc6)c6ccc3[nH]6)C=C5)C=C4)cc1)N(C(=O)C1CC1)C2
REMARK SMILES IDX 22 1 21 2 20 3 19 4 17 5 18 6 16 7 9 8 10 9 14 10 11 12
REMARK SMILES IDX 13 13 12 14 15 15 82 16 76 17 7 18 8 19 6 20 1 21 2 22 3 23
REMARK SMILES IDX 4 24 5 25 77 27 78 28 79 29 80 30 81 31 23 32 24 33 25 34
REMARK SMILES IDX 26 35 27 36 28 37 29 38 75 39 30 40 74 41 31 42 32 43 33 44
REMARK SMILES IDX 68 45 34 46 73 47 67 48 69 49 35 50 72 51 66 52 65 53 36 55
REMARK SMILES IDX 58 56 43 57 57 58 44 59 47 60 56 61 70 62 45 63 46 64 55 66
REMARK SMILES IDX 71 67 48 68 37 69 38 70 42 71 39 72 41 73 40 74 59 75 60 76
REMARK SMILES IDX 64 77 61 78 63 79 62 80 49 81 50 82 54 83 51 84 53 85 52 86
REMARK H PARENT 9 11 5 26 69 54 47 65
REMARK Flexibility Score: inf
ROOT
ATOM      1  O   UNL A   1      37.116  22.264  24.357  1.00  0.00    -0.374 OA
ENDROOT
BRANCH   1   2
ATOM      2  C   UNL A   1      35.729  22.529  24.542  1.00  0.00     0.202 C 
BRANCH   2   3
ATOM      3  C   UNL A   1      34.922  22.917  23.302  1.00  0.00     0.261 C 
BRANCH   3   4
ATOM      4  O   UNL A   1      34.771  24.343  23.177  1.00  0.00    -0.462 OA
BRANCH   4   5
ATOM      5  C   UNL A   1      33.624  24.744  22.564  1.00  0.00     0.328 C 
ATOM      6  O   UNL A   1      33.562  25.167  21.413  1.00  0.00    -0.250 OA
BRANCH   5   7
ATOM      7  C   UNL A   1      32.396  24.715  23.483  1.00  0.00     0.195 C 
ATOM      8  N   UNL A   1      29.652  29.165  22.470  1.00  0.00    -0.266 N 
ATOM      9  C   UNL A   1      29.187  28.399  23.608  1.00  0.00     0.271 C 
ATOM     10  C   UNL A   1      31.091  29.142  22.244  1.00  0.00     0.271 C 
ATOM     11  H   UNL A   1      30.394  28.521  22.520  1.00  0.00     0.357 HD
ATOM     12  C   UNL A   1      29.507  26.944  23.335  1.00  0.00     0.071 C 
ATOM     13  C   UNL A   1      31.647  27.713  22.150  1.00  0.00     0.071 C 
ATOM     14  C   UNL A   1      31.023  26.711  23.154  1.00  0.00     0.001 C 
ATOM     15  C   UNL A   1      31.211  25.246  22.695  1.00  0.00     0.046 C 
ATOM     16  C   UNL A   1      31.742  26.788  24.513  1.00  0.00     0.128 C 
ATOM     17  N   UNL A   1      32.373  25.506  24.718  1.00  0.00    -0.328 N 
BRANCH   8  18
ATOM     18  C   UNL A   1      28.769  30.074  21.910  1.00  0.00     0.362 C 
ATOM     19  O   UNL A   1      27.989  29.719  21.025  1.00  0.00    -0.224 OA
BRANCH  18  20
ATOM     20  C   UNL A   1      28.841  31.465  22.289  1.00  0.00     0.167 A 
ATOM     21  C   UNL A   1      27.633  32.977  20.533  1.00  0.00     0.069 C 
ATOM     22  C   UNL A   1      28.384  32.668  21.767  1.00  0.00     0.072 A 
ATOM     23  N   UNL A   1      28.636  33.705  22.641  1.00  0.00    -0.241 NA
ATOM     24  C   UNL A   1      29.165  33.154  23.704  1.00  0.00     0.197 A 
ATOM     25  N   UNL A   1      29.317  31.816  23.537  1.00  0.00    -0.337 N 
ATOM     26  H   UNL A   1      29.702  31.196  24.198  1.00  0.00     0.168 HD
ENDBRANCH  18  20
ENDBRANCH   8  18
BRANCH  17  27
ATOM     27  C   UNL A   1      32.766  24.934  25.915  1.00  0.00     0.226 C 
ATOM     28  O   UNL A   1      33.905  25.107  26.346  1.00  0.00    -0.275 OA
BRANCH  27  29
ATOM     29  C   UNL A   1      31.871  24.081  26.757  1.00  0.00     0.079 C 
ATOM     30  C   UNL A   1      30.500  23.527  26.491  1.00  0.00     0.014 C 
ATOM     31  C   UNL A   1      31.693  22.615  26.426  1.00  0.00     0.014 C 
ENDBRANCH  27  29
ENDBRANCH  17  27
ENDBRANCH   5   7
ENDBRANCH   4   5
ENDBRANCH   3   4
ENDBRANCH   2   3
ENDBRANCH   1   2
BRANCH   1  32
ATOM     32  C   UNL A   1      37.699  21.198  25.108  1.00  0.00     0.202 C 
BRANCH  32  33
ATOM     33  C   UNL A   1      39.035  21.485  25.803  1.00  0.00     0.261 C 
BRANCH  33  34
ATOM     34  O   UNL A   1      39.549  20.350  26.530  1.00  0.00    -0.460 OA
BRANCH  34  35
ATOM     35  C   UNL A   1      40.861  20.096  26.315  1.00  0.00     0.338 C 
ATOM     36  O   UNL A   1      41.346  19.129  25.741  1.00  0.00    -0.246 OA
BRANCH  35  37
ATOM     37  C   UNL A   1      41.694  21.240  26.725  1.00  0.00     0.060 A 
ATOM     38  C   UNL A   1      41.719  21.562  28.088  1.00  0.00     0.016 A 
ATOM     39  C   UNL A   1      42.326  22.062  25.790  1.00  0.00     0.016 A 
ATOM     40  C   UNL A   1      42.321  22.742  28.516  1.00  0.00     0.010 A 
ATOM     41  C   UNL A   1      42.923  23.253  26.222  1.00  0.00     0.010 A 
ATOM     42  C   UNL A   1      42.885  23.618  27.581  1.00  0.00    -0.014 A 
BRANCH  42  43
ATOM     43  C   UNL A   1      43.283  24.981  28.014  1.00  0.00     0.031 A 
ATOM     44  C   UNL A   1      42.214  26.006  28.280  1.00  0.00     0.074 A 
ATOM     45  C   UNL A   1      44.574  25.288  28.226  1.00  0.00     0.049 A 
ATOM     46  N   UNL A   1      42.335  27.247  28.677  1.00  0.00    -0.248 NA
ATOM     47  C   UNL A   1      40.822  25.571  28.076  1.00  0.00     0.031 C 
ATOM     48  C   UNL A   1      45.701  24.370  28.065  1.00  0.00     0.029 A 
ATOM     49  N   UNL A   1      45.152  26.465  28.632  1.00  0.00    -0.354 N 
ATOM     50  C   UNL A   1      41.039  27.741  28.771  1.00  0.00     0.074 A 
ATOM     51  C   UNL A   1      40.150  26.678  28.358  1.00  0.00     0.031 C 
ATOM     52  C   UNL A   1      46.837  25.019  28.373  1.00  0.00     0.029 A 
ATOM     53  C   UNL A   1      46.520  26.402  28.725  1.00  0.00     0.049 A 
ATOM     54  H   UNL A   1      44.634  27.276  28.838  1.00  0.00     0.167 HD
ATOM     55  C   UNL A   1      40.624  28.966  29.174  1.00  0.00     0.031 A 
ATOM     56  C   UNL A   1      47.415  27.355  29.046  1.00  0.00     0.031 A 
ATOM     57  C   UNL A   1      41.503  30.033  29.569  1.00  0.00     0.049 A 
ATOM     58  C   UNL A   1      46.935  28.738  29.395  1.00  0.00     0.074 A 
ATOM     59  C   UNL A   1      41.176  31.310  29.993  1.00  0.00     0.029 A 
ATOM     60  N   UNL A   1      42.887  29.949  29.585  1.00  0.00    -0.354 N 
ATOM     61  N   UNL A   1      45.707  29.188  29.489  1.00  0.00    -0.248 NA
ATOM     62  C   UNL A   1      47.968  29.743  29.688  1.00  0.00     0.031 C 
ATOM     63  C   UNL A   1      42.364  32.014  30.216  1.00  0.00     0.029 A 
ATOM     64  C   UNL A   1      43.429  31.159  29.984  1.00  0.00     0.049 A 
ATOM     65  H   UNL A   1      43.406  29.148  29.347  1.00  0.00     0.167 HD
ATOM     66  C   UNL A   1      45.819  30.518  29.879  1.00  0.00     0.074 A 
ATOM     67  C   UNL A   1      47.234  30.797  30.013  1.00  0.00     0.031 C 
ATOM     68  C   UNL A   1      44.838  31.424  30.109  1.00  0.00     0.031 A 
BRANCH  55  69
ATOM     69  C   UNL A   1      39.143  29.224  29.168  1.00  0.00    -0.014 A 
ATOM     70  C   UNL A   1      38.492  29.701  28.019  1.00  0.00     0.009 A 
ATOM     71  C   UNL A   1      38.386  28.968  30.321  1.00  0.00     0.009 A 
ATOM     72  C   UNL A   1      37.118  29.950  28.037  1.00  0.00     0.001 A 
ATOM     73  C   UNL A   1      37.008  29.194  30.329  1.00  0.00     0.001 A 
ATOM     74  C   UNL A   1      36.378  29.694  29.190  1.00  0.00     0.000 A 
ENDBRANCH  55  69
BRANCH  56  75
ATOM     75  C   UNL A   1      48.867  27.042  29.042  1.00  0.00    -0.014 A 
ATOM     76  C   UNL A   1      49.506  26.605  30.213  1.00  0.00     0.009 A 
ATOM     77  C   UNL A   1      49.625  27.196  27.871  1.00  0.00     0.009 A 
ATOM     78  C   UNL A   1      50.880  26.348  30.213  1.00  0.00     0.001 A 
ATOM     79  C   UNL A   1      50.992  26.913  27.868  1.00  0.00     0.001 A 
ATOM     80  C   UNL A   1      51.620  26.497  29.042  1.00  0.00     0.000 A 
ENDBRANCH  56  75
BRANCH  68  81
ATOM     81  C   UNL A   1      45.260  32.793  30.563  1.00  0.00    -0.014 A 
ATOM     82  C   UNL A   1      45.383  33.856  29.656  1.00  0.00     0.009 A 
ATOM     83  C   UNL A   1      45.498  33.030  31.926  1.00  0.00     0.009 A 
ATOM     84  C   UNL A   1      45.770  35.122  30.102  1.00  0.00     0.001 A 
ATOM     85  C   UNL A   1      45.859  34.302  32.372  1.00  0.00     0.001 A 
ATOM     86  C   UNL A   1      46.003  35.345  31.457  1.00  0.00     0.000 A 
ENDBRANCH  68  81
ENDBRANCH  42  43
ENDBRANCH  35  37
ENDBRANCH  34  35
ENDBRANCH  33  34
ENDBRANCH  32  33
ENDBRANCH   1  32
TORSDOF 18
ENDMDL
MODEL 2
REMARK VINA RESULT:     -10.8      2.360      6.764
REMARK SMILES Cc1nc[nH]c1C(=O)[NH+]1CCC2(CC1)C[C@@H](C(=O)OCCOCCOC(=O)c1ccc(-c3c4nc(c(-c5ccccc5)c5ccc([nH]5)c(-c5ccccc5)c5nc(c(-c6ccccc6)c6ccc3[nH]6)C=C5)C=C4)cc1)N(C(=O)C1CC1)C2
REMARK SMILES IDX 22 1 21 2 20 3 19 4 17 5 18 6 16 7 9 8 10 9 14 10 11 12
REMARK SMILES IDX 13 13 12 14 15 15 82 16 76 17 7 18 8 19 6 20 1 21 2 22 3 23
REMARK SMILES IDX 4 24 5 25 77 27 78 28 79 29 80 30 81 31 23 32 24 33 25 34
REMARK SMILES IDX 26 35 27 36 28 37 29 38 75 39 30 40 74 41 31 42 32 43 33 44
REMARK SMILES IDX 68 45 34 46 73 47 67 48 69 49 35 50 72 51 66 52 65 53 36 55
REMARK SMILES IDX 58 56 43 57 57 58 44 59 47 60 56 61 70 62 45 63 46 64 55 66
REMARK SMILES IDX 71 67 48 68 37 69 38 70 42 71 39 72 41 73 40 74 59 75 60 76
REMARK SMILES IDX 64 77 61 78 63 79 62 80 49 81 50 82 54 83 51 84 53 85 52 86
REMARK H PARENT 9 11 5 26 69 54 47 65
REMARK Flexibility Score: inf
ROOT
ATOM      1  O   UNL A   1      39.443  20.780  26.606  1.00  0.00    -0.374 OA
ENDROOT
BRANCH   1   2
ATOM      2  C   UNL A   1      38.899  22.002  26.118  1.00  0.00     0.202 C 
BRANCH   2   3
ATOM      3  C   UNL A   1      37.751  21.900  25.111  1.00  0.00     0.261 C 
BRANCH   3   4
ATOM      4  O   UNL A   1      36.862  20.809  25.409  1.00  0.00    -0.462 OA
BRANCH   4   5
ATOM      5  C   UNL A   1      35.587  21.179  25.712  1.00  0.00     0.328 C 
ATOM      6  O   UNL A   1      35.237  21.653  26.789  1.00  0.00    -0.250 OA
BRANCH   5   7
ATOM      7  C   UNL A   1      34.577  20.859  24.601  1.00  0.00     0.195 C 
ATOM      8  N   UNL A   1      31.085  24.878  24.538  1.00  0.00    -0.266 N 
ATOM      9  C   UNL A   1      30.739  23.747  23.703  1.00  0.00     0.271 C 
ATOM     10  C   UNL A   1      31.784  24.554  25.775  1.00  0.00     0.271 C 
ATOM     11  H   UNL A   1      31.780  24.255  24.849  1.00  0.00     0.357 HD
ATOM     12  C   UNL A   1      32.035  23.105  23.251  1.00  0.00     0.071 C 
ATOM     13  C   UNL A   1      33.041  23.705  25.532  1.00  0.00     0.071 C 
ATOM     14  C   UNL A   1      32.880  22.612  24.446  1.00  0.00     0.001 C 
ATOM     15  C   UNL A   1      34.247  22.156  23.883  1.00  0.00     0.046 C 
ATOM     16  C   UNL A   1      32.263  21.336  25.048  1.00  0.00     0.128 C 
ATOM     17  N   UNL A   1      33.262  20.301  24.932  1.00  0.00    -0.328 N 
BRANCH   8  18
ATOM     18  C   UNL A   1      30.467  26.087  24.263  1.00  0.00     0.362 C 
ATOM     19  O   UNL A   1      29.263  26.126  24.005  1.00  0.00    -0.224 OA
BRANCH  18  20
ATOM     20  C   UNL A   1      31.260  27.290  24.174  1.00  0.00     0.167 A 
ATOM     21  C   UNL A   1      31.725  28.283  26.546  1.00  0.00     0.069 C 
ATOM     22  C   UNL A   1      31.801  28.200  25.073  1.00  0.00     0.072 A 
ATOM     23  N   UNL A   1      32.604  29.113  24.419  1.00  0.00    -0.241 NA
ATOM     24  C   UNL A   1      32.622  28.737  23.166  1.00  0.00     0.197 A 
ATOM     25  N   UNL A   1      31.825  27.656  22.967  1.00  0.00    -0.337 N 
ATOM     26  H   UNL A   1      31.674  27.206  22.104  1.00  0.00     0.168 HD
ENDBRANCH  18  20
ENDBRANCH   8  18
BRANCH  17  27
ATOM     27  C   UNL A   1      33.069  18.931  24.931  1.00  0.00     0.226 C 
ATOM     28  O   UNL A   1      32.205  18.420  25.642  1.00  0.00    -0.275 OA
BRANCH  27  29
ATOM     29  C   UNL A   1      33.874  17.984  24.098  1.00  0.00     0.079 C 
ATOM     30  C   UNL A   1      33.702  16.516  23.827  1.00  0.00     0.014 C 
ATOM     31  C   UNL A   1      33.344  17.514  22.761  1.00  0.00     0.014 C 
ENDBRANCH  27  29
ENDBRANCH  17  27
ENDBRANCH   5   7
ENDBRANCH   4   5
ENDBRANCH   3   4
ENDBRANCH   2   3
ENDBRANCH   1   2
BRANCH   1  32
ATOM     32  C   UNL A   1      40.141  19.943  25.681  1.00  0.00     0.202 C 
BRANCH  32  33
ATOM     33  C   UNL A   1      41.386  19.215  26.204  1.00  0.00     0.261 C 
BRANCH  33  34
ATOM     34  O   UNL A   1      42.246  20.062  26.994  1.00  0.00    -0.460 OA
BRANCH  34  35
ATOM     35  C   UNL A   1      42.899  21.012  26.285  1.00  0.00     0.338 C 
ATOM     36  O   UNL A   1      43.546  20.859  25.257  1.00  0.00    -0.246 OA
BRANCH  35  37
ATOM     37  C   UNL A   1      42.613  22.357  26.815  1.00  0.00     0.060 A 
ATOM     38  C   UNL A   1      42.510  23.405  25.890  1.00  0.00     0.016 A 
ATOM     39  C   UNL A   1      42.582  22.616  28.187  1.00  0.00     0.016 A 
ATOM     40  C   UNL A   1      42.440  24.723  26.333  1.00  0.00     0.010 A 
ATOM     41  C   UNL A   1      42.520  23.943  28.629  1.00  0.00     0.010 A 
ATOM     42  C   UNL A   1      42.492  25.003  27.704  1.00  0.00    -0.014 A 
BRANCH  42  43
ATOM     43  C   UNL A   1      42.683  26.406  28.148  1.00  0.00     0.031 A 
ATOM     44  C   UNL A   1      44.073  26.982  28.179  1.00  0.00     0.074 A 
ATOM     45  C   UNL A   1      41.630  27.180  28.464  1.00  0.00     0.049 A 
ATOM     46  N   UNL A   1      44.465  28.184  28.520  1.00  0.00    -0.248 NA
ATOM     47  C   UNL A   1      45.164  26.085  27.766  1.00  0.00     0.031 C 
ATOM     48  C   UNL A   1      40.229  26.763  28.416  1.00  0.00     0.029 A 
ATOM     49  N   UNL A   1      41.580  28.486  28.881  1.00  0.00    -0.354 N 
ATOM     50  C   UNL A   1      45.847  28.188  28.362  1.00  0.00     0.074 A 
ATOM     51  C   UNL A   1      46.226  26.861  27.928  1.00  0.00     0.031 C 
ATOM     52  C   UNL A   1      39.455  27.798  28.788  1.00  0.00     0.029 A 
ATOM     53  C   UNL A   1      40.307  28.937  29.125  1.00  0.00     0.049 A 
ATOM     54  H   UNL A   1      42.382  29.045  28.994  1.00  0.00     0.167 HD
ATOM     55  C   UNL A   1      46.721  29.205  28.552  1.00  0.00     0.031 A 
ATOM     56  C   UNL A   1      39.878  30.130  29.580  1.00  0.00     0.031 A 
ATOM     57  C   UNL A   1      46.352  30.520  28.999  1.00  0.00     0.049 A 
ATOM     58  C   UNL A   1      40.878  31.214  29.877  1.00  0.00     0.074 A 
ATOM     59  C   UNL A   1      47.167  31.618  29.221  1.00  0.00     0.029 A 
ATOM     60  N   UNL A   1      45.058  30.917  29.300  1.00  0.00    -0.354 N 
ATOM     61  N   UNL A   1      42.180  31.207  29.715  1.00  0.00    -0.248 NA
ATOM     62  C   UNL A   1      40.347  32.475  30.418  1.00  0.00     0.031 C 
ATOM     63  C   UNL A   1      46.371  32.663  29.704  1.00  0.00     0.029 A 
ATOM     64  C   UNL A   1      45.055  32.232  29.731  1.00  0.00     0.049 A 
ATOM     65  H   UNL A   1      44.260  30.346  29.218  1.00  0.00     0.167 HD
ATOM     66  C   UNL A   1      42.617  32.468  30.104  1.00  0.00     0.074 A 
ATOM     67  C   UNL A   1      41.442  33.216  30.501  1.00  0.00     0.031 C 
ATOM     68  C   UNL A   1      43.879  32.962  30.127  1.00  0.00     0.031 A 
BRANCH  55  69
ATOM     69  C   UNL A   1      48.175  28.914  28.308  1.00  0.00    -0.014 A 
ATOM     70  C   UNL A   1      49.005  28.442  29.336  1.00  0.00     0.009 A 
ATOM     71  C   UNL A   1      48.717  29.095  27.026  1.00  0.00     0.009 A 
ATOM     72  C   UNL A   1      50.358  28.192  29.094  1.00  0.00     0.001 A 
ATOM     73  C   UNL A   1      50.064  28.820  26.781  1.00  0.00     0.001 A 
ATOM     74  C   UNL A   1      50.885  28.379  27.817  1.00  0.00     0.000 A 
ENDBRANCH  55  69
BRANCH  56  75
ATOM     75  C   UNL A   1      38.428  30.365  29.797  1.00  0.00    -0.014 A 
ATOM     76  C   UNL A   1      37.635  30.921  28.781  1.00  0.00     0.009 A 
ATOM     77  C   UNL A   1      37.832  30.049  31.028  1.00  0.00     0.009 A 
ATOM     78  C   UNL A   1      36.279  31.175  29.003  1.00  0.00     0.001 A 
ATOM     79  C   UNL A   1      36.472  30.279  31.237  1.00  0.00     0.001 A 
ATOM     80  C   UNL A   1      35.698  30.850  30.227  1.00  0.00     0.000 A 
ENDBRANCH  56  75
BRANCH  68  81
ATOM     81  C   UNL A   1      44.050  34.390  30.563  1.00  0.00    -0.014 A 
ATOM     82  C   UNL A   1      44.314  34.717  31.902  1.00  0.00     0.009 A 
ATOM     83  C   UNL A   1      43.984  35.420  29.612  1.00  0.00     0.009 A 
ATOM     84  C   UNL A   1      44.476  36.050  32.284  1.00  0.00     0.001 A 
ATOM     85  C   UNL A   1      44.173  36.749  29.992  1.00  0.00     0.001 A 
ATOM     86  C   UNL A   1      44.410  37.064  31.330  1.00  0.00     0.000 A 
ENDBRANCH  68  81
ENDBRANCH  42  43
ENDBRANCH  35  37
ENDBRANCH  34  35
ENDBRANCH  33  34
ENDBRANCH  32  33
ENDBRANCH   1  32
TORSDOF 18
ENDMDL
MODEL 3
REMARK VINA RESULT:     -10.7      4.475      6.408
REMARK SMILES Cc1nc[nH]c1C(=O)[NH+]1CCC2(CC1)C[C@@H](C(=O)OCCOCCOC(=O)c1ccc(-c3c4nc(c(-c5ccccc5)c5ccc([nH]5)c(-c5ccccc5)c5nc(c(-c6ccccc6)c6ccc3[nH]6)C=C5)C=C4)cc1)N(C(=O)C1CC1)C2
REMARK SMILES IDX 22 1 21 2 20 3 19 4 17 5 18 6 16 7 9 8 10 9 14 10 11 12
REMARK SMILES IDX 13 13 12 14 15 15 82 16 76 17 7 18 8 19 6 20 1 21 2 22 3 23
REMARK SMILES IDX 4 24 5 25 77 27 78 28 79 29 80 30 81 31 23 32 24 33 25 34
REMARK SMILES IDX 26 35 27 36 28 37 29 38 75 39 30 40 74 41 31 42 32 43 33 44
REMARK SMILES IDX 68 45 34 46 73 47 67 48 69 49 35 50 72 51 66 52 65 53 36 55
REMARK SMILES IDX 58 56 43 57 57 58 44 59 47 60 56 61 70 62 45 63 46 64 55 66
REMARK SMILES IDX 71 67 48 68 37 69 38 70 42 71 39 72 41 73 40 74 59 75 60 76
REMARK SMILES IDX 64 77 61 78 63 79 62 80 49 81 50 82 54 83 51 84 53 85 52 86
REMARK H PARENT 9 11 5 26 69 54 47 65
REMARK Flexibility Score: inf
ROOT
ATOM      1  O   UNL A   1      39.560  21.162  26.394  1.00  0.00    -0.374 OA
ENDROOT
BRANCH   1   2
ATOM      2  C   UNL A   1      38.615  21.605  25.427  1.00  0.00     0.202 C 
BRANCH   2   3
ATOM      3  C   UNL A   1      37.543  20.604  24.990  1.00  0.00     0.261 C 
BRANCH   3   4
ATOM      4  O   UNL A   1      36.349  20.706  25.788  1.00  0.00    -0.462 OA
BRANCH   4   5
ATOM      5  C   UNL A   1      35.517  21.726  25.442  1.00  0.00     0.328 C 
ATOM      6  O   UNL A   1      35.529  22.839  25.960  1.00  0.00    -0.250 OA
BRANCH   5   7
ATOM      7  C   UNL A   1      34.471  21.334  24.390  1.00  0.00     0.195 C 
ATOM      8  N   UNL A   1      30.714  25.106  24.525  1.00  0.00    -0.266 N 
ATOM      9  C   UNL A   1      30.399  23.951  23.710  1.00  0.00     0.271 C 
ATOM     10  C   UNL A   1      31.502  24.834  25.721  1.00  0.00     0.271 C 
ATOM     11  H   UNL A   1      31.467  24.532  24.796  1.00  0.00     0.357 HD
ATOM     12  C   UNL A   1      31.709  23.397  23.186  1.00  0.00     0.071 C 
ATOM     13  C   UNL A   1      32.798  24.072  25.407  1.00  0.00     0.071 C 
ATOM     14  C   UNL A   1      32.652  22.966  24.331  1.00  0.00     0.001 C 
ATOM     15  C   UNL A   1      34.013  22.603  23.693  1.00  0.00     0.046 C 
ATOM     16  C   UNL A   1      32.158  21.654  24.967  1.00  0.00     0.128 C 
ATOM     17  N   UNL A   1      33.217  20.689  24.794  1.00  0.00    -0.328 N 
BRANCH   8  18
ATOM     18  C   UNL A   1      30.001  26.269  24.286  1.00  0.00     0.362 C 
ATOM     19  O   UNL A   1      28.801  26.330  24.555  1.00  0.00    -0.224 OA
BRANCH  18  20
ATOM     20  C   UNL A   1      30.644  27.376  23.619  1.00  0.00     0.167 A 
ATOM     21  C   UNL A   1      33.213  26.960  23.379  1.00  0.00     0.069 C 
ATOM     22  C   UNL A   1      31.937  27.689  23.222  1.00  0.00     0.072 A 
ATOM     23  N   UNL A   1      31.953  28.857  22.487  1.00  0.00    -0.241 NA
ATOM     24  C   UNL A   1      30.700  29.219  22.367  1.00  0.00     0.197 A 
ATOM     25  N   UNL A   1      29.880  28.368  23.036  1.00  0.00    -0.337 N 
ATOM     26  H   UNL A   1      28.900  28.446  23.096  1.00  0.00     0.168 HD
ENDBRANCH  18  20
ENDBRANCH   8  18
BRANCH  17  27
ATOM     27  C   UNL A   1      33.119  19.309  24.804  1.00  0.00     0.226 C 
ATOM     28  O   UNL A   1      32.180  18.752  25.372  1.00  0.00    -0.275 OA
BRANCH  27  29
ATOM     29  C   UNL A   1      34.116  18.405  24.151  1.00  0.00     0.079 C 
ATOM     30  C   UNL A   1      34.407  16.945  24.354  1.00  0.00     0.014 C 
ATOM     31  C   UNL A   1      33.660  17.388  23.127  1.00  0.00     0.014 C 
ENDBRANCH  27  29
ENDBRANCH  17  27
ENDBRANCH   5   7
ENDBRANCH   4   5
ENDBRANCH   3   4
ENDBRANCH   2   3
ENDBRANCH   1   2
BRANCH   1  32
ATOM     32  C   UNL A   1      40.948  21.271  26.071  1.00  0.00     0.202 C 
BRANCH  32  33
ATOM     33  C   UNL A   1      41.752  22.350  26.808  1.00  0.00     0.261 C 
BRANCH  33  34
ATOM     34  O   UNL A   1      40.951  23.486  27.194  1.00  0.00    -0.460 OA
BRANCH  34  35
ATOM     35  C   UNL A   1      41.346  24.659  26.648  1.00  0.00     0.338 C 
ATOM     36  O   UNL A   1      41.873  24.831  25.556  1.00  0.00    -0.246 OA
BRANCH  35  37
ATOM     37  C   UNL A   1      40.913  25.799  27.475  1.00  0.00     0.060 A 
ATOM     38  C   UNL A   1      41.754  26.919  27.518  1.00  0.00     0.016 A 
ATOM     39  C   UNL A   1      39.787  25.725  28.298  1.00  0.00     0.016 A 
ATOM     40  C   UNL A   1      41.508  27.944  28.428  1.00  0.00     0.010 A 
ATOM     41  C   UNL A   1      39.547  26.753  29.219  1.00  0.00     0.010 A 
ATOM     42  C   UNL A   1      40.430  27.844  29.317  1.00  0.00    -0.014 A 
BRANCH  42  43
ATOM     43  C   UNL A   1      40.334  28.801  30.447  1.00  0.00     0.031 A 
ATOM     44  C   UNL A   1      39.322  29.913  30.380  1.00  0.00     0.074 A 
ATOM     45  C   UNL A   1      41.093  28.651  31.546  1.00  0.00     0.049 A 
ATOM     46  N   UNL A   1      39.060  30.850  31.257  1.00  0.00    -0.248 NA
ATOM     47  C   UNL A   1      38.493  29.975  29.166  1.00  0.00     0.031 C 
ATOM     48  C   UNL A   1      42.066  27.582  31.763  1.00  0.00     0.029 A 
ATOM     49  N   UNL A   1      41.155  29.402  32.693  1.00  0.00    -0.354 N 
ATOM     50  C   UNL A   1      38.037  31.610  30.701  1.00  0.00     0.074 A 
ATOM     51  C   UNL A   1      37.750  31.046  29.400  1.00  0.00     0.031 C 
ATOM     52  C   UNL A   1      42.627  27.744  32.974  1.00  0.00     0.029 A 
ATOM     53  C   UNL A   1      42.074  28.942  33.602  1.00  0.00     0.049 A 
ATOM     54  H   UNL A   1      40.593  30.196  32.847  1.00  0.00     0.167 HD
ATOM     55  C   UNL A   1      37.387  32.675  31.228  1.00  0.00     0.031 A 
ATOM     56  C   UNL A   1      42.436  29.438  34.801  1.00  0.00     0.031 A 
ATOM     57  C   UNL A   1      37.679  33.251  32.513  1.00  0.00     0.049 A 
ATOM     58  C   UNL A   1      41.767  30.681  35.322  1.00  0.00     0.074 A 
ATOM     59  C   UNL A   1      37.074  34.331  33.134  1.00  0.00     0.029 A 
ATOM     60  N   UNL A   1      38.664  32.795  33.375  1.00  0.00    -0.354 N 
ATOM     61  N   UNL A   1      40.796  31.384  34.791  1.00  0.00    -0.248 NA
ATOM     62  C   UNL A   1      42.245  31.197  36.615  1.00  0.00     0.031 C 
ATOM     63  C   UNL A   1      37.729  34.560  34.349  1.00  0.00     0.029 A 
ATOM     64  C   UNL A   1      38.704  33.589  34.509  1.00  0.00     0.049 A 
ATOM     65  H   UNL A   1      39.249  32.022  33.205  1.00  0.00     0.167 HD
ATOM     66  C   UNL A   1      40.527  32.404  35.696  1.00  0.00     0.074 A 
ATOM     67  C   UNL A   1      41.430  32.223  36.813  1.00  0.00     0.031 C 
ATOM     68  C   UNL A   1      39.610  33.399  35.611  1.00  0.00     0.031 A 
BRANCH  55  69
ATOM     69  C   UNL A   1      36.315  33.310  30.387  1.00  0.00    -0.014 A 
ATOM     70  C   UNL A   1      36.595  33.804  29.103  1.00  0.00     0.009 A 
ATOM     71  C   UNL A   1      35.003  33.396  30.878  1.00  0.00     0.009 A 
ATOM     72  C   UNL A   1      35.589  34.404  28.343  1.00  0.00     0.001 A 
ATOM     73  C   UNL A   1      33.994  33.975  30.105  1.00  0.00     0.001 A 
ATOM     74  C   UNL A   1      34.290  34.487  28.843  1.00  0.00     0.000 A 
ENDBRANCH  55  69
BRANCH  56  75
ATOM     75  C   UNL A   1      43.498  28.766  35.593  1.00  0.00    -0.014 A 
ATOM     76  C   UNL A   1      43.166  27.799  36.555  1.00  0.00     0.009 A 
ATOM     77  C   UNL A   1      44.847  29.101  35.403  1.00  0.00     0.009 A 
ATOM     78  C   UNL A   1      44.165  27.197  37.324  1.00  0.00     0.001 A 
ATOM     79  C   UNL A   1      45.845  28.479  36.154  1.00  0.00     0.001 A 
ATOM     80  C   UNL A   1      45.503  27.533  37.120  1.00  0.00     0.000 A 
ENDBRANCH  56  75
BRANCH  68  81
ATOM     81  C   UNL A   1      39.516  34.348  36.772  1.00  0.00    -0.014 A 
ATOM     82  C   UNL A   1      40.173  35.588  36.756  1.00  0.00     0.009 A 
ATOM     83  C   UNL A   1      38.725  34.011  37.881  1.00  0.00     0.009 A 
ATOM     84  C   UNL A   1      40.065  36.457  37.844  1.00  0.00     0.001 A 
ATOM     85  C   UNL A   1      38.599  34.893  38.956  1.00  0.00     0.001 A 
ATOM     86  C   UNL A   1      39.276  36.112  38.939  1.00  0.00     0.000 A 
ENDBRANCH  68  81
ENDBRANCH  42  43
ENDBRANCH  35  37
ENDBRANCH  34  35
ENDBRANCH  33  34
ENDBRANCH  32  33
ENDBRANCH   1  32
TORSDOF 18
ENDMDL
