MODEL 1
REMARK VINA RESULT:      -9.5      0.000      0.000
REMARK SMILES O=C(OCCOCCOC(=O)c1ccccc1Nc1cccc(S(F)(F)(F)(F)F)c1)c1ccc(-c2c3nc(c(-c4ccccc4)c4ccc([nH]4)c(-c4ccccc4)c4nc(c(-c5ccccc5)c5ccc2[nH]5)C=C4)C=C3)cc1
REMARK SMILES IDX 7 1 6 2 5 3 4 4 3 5 2 6 1 7 31 8 32 9 78 10 33 11 77 12
REMARK SMILES IDX 34 13 35 14 36 15 71 16 37 17 76 18 70 19 72 20 38 21 75 22
REMARK SMILES IDX 69 23 68 24 39 26 61 27 46 28 60 29 47 30 50 31 59 32 73 33
REMARK SMILES IDX 48 34 49 35 58 37 74 38 51 39 40 40 41 41 45 42 42 43 44 44
REMARK SMILES IDX 43 45 62 46 63 47 67 48 64 49 66 50 65 51 52 52 53 53 57 54
REMARK SMILES IDX 54 55 56 56 55 57 8 58 9 59 10 60 11 61 12 62 13 63 17 64
REMARK SMILES IDX 14 65 16 66 15 67 18 68 19 70 20 71 30 72 21 73 23 74 22 75
REMARK SMILES IDX 24 76 25 77 26 78 27 79 28 80 29 81
REMARK H PARENT 72 25 50 36 18 69
REMARK Flexibility Score: inf
ROOT
ATOM      1  C   UNL A   1      46.331  20.364  24.911  1.00  0.00     0.202 C 
ENDROOT
BRANCH   1   2
ATOM      2  O   UNL A   1      45.863  19.097  25.349  1.00  0.00    -0.374 OA
BRANCH   2   3
ATOM      3  C   UNL A   1      44.692  18.749  24.626  1.00  0.00     0.202 C 
BRANCH   3   4
ATOM      4  C   UNL A   1      43.520  18.633  25.587  1.00  0.00     0.261 C 
BRANCH   4   5
ATOM      5  O   UNL A   1      42.367  19.219  25.000  1.00  0.00    -0.460 OA
BRANCH   5   6
ATOM      6  C   UNL A   1      41.419  19.892  25.816  1.00  0.00     0.338 C 
ATOM      7  O   UNL A   1      40.274  19.378  26.016  1.00  0.00    -0.246 OA
BRANCH   6   8
ATOM      8  C   UNL A   1      41.774  21.227  26.451  1.00  0.00     0.060 A 
ATOM      9  C   UNL A   1      42.122  22.317  25.672  1.00  0.00     0.016 A 
ATOM     10  C   UNL A   1      41.727  21.313  27.775  1.00  0.00     0.016 A 
ATOM     11  C   UNL A   1      42.687  23.388  26.403  1.00  0.00     0.010 A 
ATOM     12  C   UNL A   1      42.169  22.444  28.419  1.00  0.00     0.010 A 
ATOM     13  C   UNL A   1      42.583  23.538  27.712  1.00  0.00    -0.014 A 
BRANCH  13  14
ATOM     14  C   UNL A   1      42.906  24.857  28.395  1.00  0.00     0.031 A 
ATOM     15  C   UNL A   1      41.840  25.746  28.545  1.00  0.00     0.074 A 
ATOM     16  C   UNL A   1      44.201  25.126  28.805  1.00  0.00     0.049 A 
ATOM     17  N   UNL A   1      41.859  26.950  29.116  1.00  0.00    -0.248 NA
ATOM     18  C   UNL A   1      40.472  25.477  28.079  1.00  0.00     0.031 C 
ATOM     19  C   UNL A   1      45.280  24.231  28.666  1.00  0.00     0.029 A 
ATOM     20  N   UNL A   1      44.677  26.270  29.407  1.00  0.00    -0.354 N 
ATOM     21  C   UNL A   1      40.641  27.494  29.088  1.00  0.00     0.074 A 
ATOM     22  C   UNL A   1      39.732  26.557  28.415  1.00  0.00     0.031 C 
ATOM     23  C   UNL A   1      46.393  24.831  29.165  1.00  0.00     0.029 A 
ATOM     24  C   UNL A   1      46.028  26.110  29.625  1.00  0.00     0.049 A 
ATOM     25  H   UNL A   1      44.144  27.064  29.640  1.00  0.00     0.167 HD
ATOM     26  C   UNL A   1      40.252  28.733  29.599  1.00  0.00     0.031 A 
ATOM     27  C   UNL A   1      46.909  27.019  30.190  1.00  0.00     0.031 A 
ATOM     28  C   UNL A   1      41.124  29.624  30.204  1.00  0.00     0.049 A 
ATOM     29  C   UNL A   1      46.530  28.283  30.649  1.00  0.00     0.074 A 
ATOM     30  C   UNL A   1      40.747  30.874  30.731  1.00  0.00     0.029 A 
ATOM     31  N   UNL A   1      42.480  29.475  30.400  1.00  0.00    -0.354 N 
ATOM     32  N   UNL A   1      45.305  28.809  30.656  1.00  0.00    -0.248 NA
ATOM     33  C   UNL A   1      47.460  29.266  31.220  1.00  0.00     0.031 C 
ATOM     34  C   UNL A   1      41.860  31.475  31.229  1.00  0.00     0.029 A 
ATOM     35  C   UNL A   1      42.951  30.610  31.021  1.00  0.00     0.049 A 
ATOM     36  H   UNL A   1      43.018  28.693  30.141  1.00  0.00     0.167 HD
ATOM     37  C   UNL A   1      45.333  30.031  31.191  1.00  0.00     0.074 A 
ATOM     38  C   UNL A   1      46.721  30.346  31.554  1.00  0.00     0.031 C 
ATOM     39  C   UNL A   1      44.256  30.897  31.394  1.00  0.00     0.031 A 
BRANCH  26  40
ATOM     40  C   UNL A   1      38.788  29.128  29.485  1.00  0.00    -0.014 A 
ATOM     41  C   UNL A   1      38.347  29.791  28.351  1.00  0.00     0.009 A 
ATOM     42  C   UNL A   1      37.966  28.867  30.494  1.00  0.00     0.009 A 
ATOM     43  C   UNL A   1      37.077  30.397  28.499  1.00  0.00     0.001 A 
ATOM     44  C   UNL A   1      36.691  29.381  30.508  1.00  0.00     0.001 A 
ATOM     45  C   UNL A   1      36.209  30.095  29.447  1.00  0.00     0.000 A 
ENDBRANCH  26  40
BRANCH  27  46
ATOM     46  C   UNL A   1      48.369  26.616  30.319  1.00  0.00    -0.014 A 
ATOM     47  C   UNL A   1      48.764  25.795  31.360  1.00  0.00     0.009 A 
ATOM     48  C   UNL A   1      49.234  27.030  29.401  1.00  0.00     0.009 A 
ATOM     49  C   UNL A   1      50.168  25.693  31.510  1.00  0.00     0.001 A 
ATOM     50  C   UNL A   1      50.578  26.778  29.542  1.00  0.00     0.001 A 
ATOM     51  C   UNL A   1      51.046  26.022  30.580  1.00  0.00     0.000 A 
ENDBRANCH  27  46
BRANCH  39  52
ATOM     52  C   UNL A   1      44.530  32.233  32.062  1.00  0.00    -0.014 A 
ATOM     53  C   UNL A   1      44.376  32.378  33.432  1.00  0.00     0.009 A 
ATOM     54  C   UNL A   1      44.924  33.249  31.303  1.00  0.00     0.009 A 
ATOM     55  C   UNL A   1      44.384  33.723  33.871  1.00  0.00     0.001 A 
ATOM     56  C   UNL A   1      45.041  34.512  31.830  1.00  0.00     0.001 A 
ATOM     57  C   UNL A   1      44.846  34.739  33.164  1.00  0.00     0.000 A 
ENDBRANCH  39  52
ENDBRANCH  13  14
ENDBRANCH   6   8
ENDBRANCH   5   6
ENDBRANCH   4   5
ENDBRANCH   3   4
ENDBRANCH   2   3
ENDBRANCH   1   2
BRANCH   1  58
ATOM     58  C   UNL A   1      45.580  21.463  25.644  1.00  0.00     0.261 C 
BRANCH  58  59
ATOM     59  O   UNL A   1      46.398  22.621  25.728  1.00  0.00    -0.460 OA
BRANCH  59  60
ATOM     60  C   UNL A   1      46.113  23.751  24.917  1.00  0.00     0.340 C 
ATOM     61  O   UNL A   1      45.363  23.630  23.898  1.00  0.00    -0.246 OA
BRANCH  60  62
ATOM     62  C   UNL A   1      46.705  25.106  25.268  1.00  0.00     0.083 A 
ATOM     63  C   UNL A   1      48.072  25.179  25.481  1.00  0.00     0.018 A 
ATOM     64  C   UNL A   1      45.927  26.172  25.418  1.00  0.00     0.053 A 
ATOM     65  C   UNL A   1      48.488  26.363  26.135  1.00  0.00     0.001 A 
ATOM     66  C   UNL A   1      46.432  27.339  25.937  1.00  0.00     0.027 A 
ATOM     67  C   UNL A   1      47.763  27.462  26.227  1.00  0.00     0.002 A 
BRANCH  64  68
ATOM     68  N   UNL A   1      44.512  26.103  25.024  1.00  0.00    -0.355 N 
ATOM     69  H   UNL A   1      44.193  25.360  24.461  1.00  0.00     0.167 HD
BRANCH  68  70
ATOM     70  C   UNL A   1      43.573  27.142  25.470  1.00  0.00     0.040 A 
ATOM     71  C   UNL A   1      42.200  27.046  25.315  1.00  0.00     0.026 A 
ATOM     72  C   UNL A   1      44.124  28.167  26.109  1.00  0.00     0.050 A 
ATOM     73  C   UNL A   1      41.504  28.240  25.621  1.00  0.00     0.004 A 
ATOM     74  C   UNL A   1      43.361  29.240  26.500  1.00  0.00     0.109 A 
ATOM     75  C   UNL A   1      42.005  29.239  26.324  1.00  0.00     0.024 A 
BRANCH  74  76
ATOM     76  S   UNL A   1      44.161  30.675  27.259  1.00  0.00     0.310 S 
ATOM     77  F   UNL A   1      45.338  30.393  26.235  1.00  0.00    -0.094 F 
ATOM     78  F   UNL A   1      44.834  29.623  28.218  1.00  0.00    -0.094 F 
ATOM     79  F   UNL A   1      45.033  31.817  27.851  1.00  0.00    -0.094 F 
ATOM     80  F   UNL A   1      43.576  31.686  26.195  1.00  0.00    -0.094 F 
ATOM     81  F   UNL A   1      43.350  29.505  26.571  1.00  0.00    -0.094 F 
ENDBRANCH  74  76
ENDBRANCH  68  70
ENDBRANCH  64  68
ENDBRANCH  60  62
ENDBRANCH  59  60
ENDBRANCH  58  59
ENDBRANCH   1  58
TORSDOF 17
ENDMDL
MODEL 2
REMARK VINA RESULT:      -9.4      0.226      5.731
REMARK SMILES O=C(OCCOCCOC(=O)c1ccccc1Nc1cccc(S(F)(F)(F)(F)F)c1)c1ccc(-c2c3nc(c(-c4ccccc4)c4ccc([nH]4)c(-c4ccccc4)c4nc(c(-c5ccccc5)c5ccc2[nH]5)C=C4)C=C3)cc1
REMARK SMILES IDX 7 1 6 2 5 3 4 4 3 5 2 6 1 7 31 8 32 9 78 10 33 11 77 12
REMARK SMILES IDX 34 13 35 14 36 15 71 16 37 17 76 18 70 19 72 20 38 21 75 22
REMARK SMILES IDX 69 23 68 24 39 26 61 27 46 28 60 29 47 30 50 31 59 32 73 33
REMARK SMILES IDX 48 34 49 35 58 37 74 38 51 39 40 40 41 41 45 42 42 43 44 44
REMARK SMILES IDX 43 45 62 46 63 47 67 48 64 49 66 50 65 51 52 52 53 53 57 54
REMARK SMILES IDX 54 55 56 56 55 57 8 58 9 59 10 60 11 61 12 62 13 63 17 64
REMARK SMILES IDX 14 65 16 66 15 67 18 68 19 70 20 71 30 72 21 73 23 74 22 75
REMARK SMILES IDX 24 76 25 77 26 78 27 79 28 80 29 81
REMARK H PARENT 72 25 50 36 18 69
REMARK Flexibility Score: inf
ROOT
ATOM      1  C   UNL A   1      46.368  20.406  24.923  1.00  0.00     0.202 C 
ENDROOT
BRANCH   1   2
ATOM      2  O   UNL A   1      45.923  19.140  25.390  1.00  0.00    -0.374 OA
BRANCH   2   3
ATOM      3  C   UNL A   1      44.793  18.729  24.636  1.00  0.00     0.202 C 
BRANCH   3   4
ATOM      4  C   UNL A   1      43.583  18.627  25.550  1.00  0.00     0.261 C 
BRANCH   4   5
ATOM      5  O   UNL A   1      42.525  19.413  25.023  1.00  0.00    -0.460 OA
BRANCH   5   6
ATOM      6  C   UNL A   1      41.583  20.015  25.900  1.00  0.00     0.338 C 
ATOM      7  O   UNL A   1      40.492  19.420  26.166  1.00  0.00    -0.246 OA
BRANCH   6   8
ATOM      8  C   UNL A   1      41.881  21.371  26.521  1.00  0.00     0.060 A 
ATOM      9  C   UNL A   1      42.103  22.484  25.728  1.00  0.00     0.016 A 
ATOM     10  C   UNL A   1      41.908  21.452  27.845  1.00  0.00     0.016 A 
ATOM     11  C   UNL A   1      42.635  23.592  26.431  1.00  0.00     0.010 A 
ATOM     12  C   UNL A   1      42.307  22.609  28.468  1.00  0.00     0.010 A 
ATOM     13  C   UNL A   1      42.600  23.732  27.744  1.00  0.00    -0.014 A 
BRANCH  13  14
ATOM     14  C   UNL A   1      42.869  25.069  28.414  1.00  0.00     0.031 A 
ATOM     15  C   UNL A   1      44.177  25.280  28.855  1.00  0.00     0.074 A 
ATOM     16  C   UNL A   1      41.841  25.983  28.575  1.00  0.00     0.049 A 
ATOM     17  N   UNL A   1      44.667  26.364  29.456  1.00  0.00    -0.248 NA
ATOM     18  C   UNL A   1      45.262  24.298  28.716  1.00  0.00     0.031 C 
ATOM     19  C   UNL A   1      40.522  25.781  28.125  1.00  0.00     0.029 A 
ATOM     20  N   UNL A   1      41.896  27.218  29.181  1.00  0.00    -0.354 N 
ATOM     21  C   UNL A   1      45.967  26.202  29.712  1.00  0.00     0.074 A 
ATOM     22  C   UNL A   1      46.367  24.868  29.245  1.00  0.00     0.031 C 
ATOM     23  C   UNL A   1      39.789  26.874  28.464  1.00  0.00     0.029 A 
ATOM     24  C   UNL A   1      40.637  27.777  29.132  1.00  0.00     0.049 A 
ATOM     25  H   UNL A   1      42.696  27.630  29.580  1.00  0.00     0.167 HD
ATOM     26  C   UNL A   1      46.835  27.115  30.313  1.00  0.00     0.031 A 
ATOM     27  C   UNL A   1      40.233  29.002  29.638  1.00  0.00     0.031 A 
ATOM     28  C   UNL A   1      46.440  28.358  30.780  1.00  0.00     0.049 A 
ATOM     29  C   UNL A   1      41.089  29.892  30.292  1.00  0.00     0.074 A 
ATOM     30  C   UNL A   1      47.303  29.293  31.382  1.00  0.00     0.029 A 
ATOM     31  N   UNL A   1      45.177  28.907  30.753  1.00  0.00    -0.354 N 
ATOM     32  N   UNL A   1      42.396  29.745  30.511  1.00  0.00    -0.248 NA
ATOM     33  C   UNL A   1      40.665  31.178  30.860  1.00  0.00     0.031 C 
ATOM     34  C   UNL A   1      46.570  30.386  31.723  1.00  0.00     0.029 A 
ATOM     35  C   UNL A   1      45.236  30.152  31.340  1.00  0.00     0.049 A 
ATOM     36  H   UNL A   1      44.371  28.483  30.380  1.00  0.00     0.167 HD
ATOM     37  C   UNL A   1      42.878  30.813  31.150  1.00  0.00     0.074 A 
ATOM     38  C   UNL A   1      41.769  31.748  31.390  1.00  0.00     0.031 C 
ATOM     39  C   UNL A   1      44.198  31.049  31.539  1.00  0.00     0.031 A 
BRANCH  26  40
ATOM     40  C   UNL A   1      48.296  26.722  30.466  1.00  0.00    -0.014 A 
ATOM     41  C   UNL A   1      49.222  27.165  29.536  1.00  0.00     0.009 A 
ATOM     42  C   UNL A   1      48.652  25.926  31.467  1.00  0.00     0.009 A 
ATOM     43  C   UNL A   1      50.456  26.476  29.583  1.00  0.00     0.001 A 
ATOM     44  C   UNL A   1      49.918  25.395  31.522  1.00  0.00     0.001 A 
ATOM     45  C   UNL A   1      50.867  25.744  30.602  1.00  0.00     0.000 A 
ENDBRANCH  26  40
BRANCH  27  46
ATOM     46  C   UNL A   1      38.776  29.402  29.469  1.00  0.00    -0.014 A 
ATOM     47  C   UNL A   1      38.367  30.028  28.304  1.00  0.00     0.009 A 
ATOM     48  C   UNL A   1      37.911  29.103  30.431  1.00  0.00     0.009 A 
ATOM     49  C   UNL A   1      37.058  30.562  28.369  1.00  0.00     0.001 A 
ATOM     50  C   UNL A   1      36.611  29.542  30.364  1.00  0.00     0.001 A 
ATOM     51  C   UNL A   1      36.153  30.219  29.268  1.00  0.00     0.000 A 
ENDBRANCH  27  46
BRANCH  39  52
ATOM     52  C   UNL A   1      44.516  32.367  32.224  1.00  0.00    -0.014 A 
ATOM     53  C   UNL A   1      44.241  32.544  33.571  1.00  0.00     0.009 A 
ATOM     54  C   UNL A   1      45.067  33.336  31.502  1.00  0.00     0.009 A 
ATOM     55  C   UNL A   1      44.319  33.890  34.001  1.00  0.00     0.001 A 
ATOM     56  C   UNL A   1      45.239  34.591  32.030  1.00  0.00     0.001 A 
ATOM     57  C   UNL A   1      44.933  34.853  33.337  1.00  0.00     0.000 A 
ENDBRANCH  39  52
ENDBRANCH  13  14
ENDBRANCH   6   8
ENDBRANCH   5   6
ENDBRANCH   4   5
ENDBRANCH   3   4
ENDBRANCH   2   3
ENDBRANCH   1   2
BRANCH   1  58
ATOM     58  C   UNL A   1      45.593  21.507  25.628  1.00  0.00     0.261 C 
BRANCH  58  59
ATOM     59  O   UNL A   1      46.416  22.657  25.757  1.00  0.00    -0.460 OA
BRANCH  59  60
ATOM     60  C   UNL A   1      46.167  23.801  24.953  1.00  0.00     0.340 C 
ATOM     61  O   UNL A   1      45.426  23.706  23.924  1.00  0.00    -0.246 OA
BRANCH  60  62
ATOM     62  C   UNL A   1      46.788  25.138  25.321  1.00  0.00     0.083 A 
ATOM     63  C   UNL A   1      48.154  25.175  25.554  1.00  0.00     0.018 A 
ATOM     64  C   UNL A   1      46.036  26.222  25.466  1.00  0.00     0.053 A 
ATOM     65  C   UNL A   1      48.590  26.343  26.222  1.00  0.00     0.001 A 
ATOM     66  C   UNL A   1      46.563  27.373  26.001  1.00  0.00     0.027 A 
ATOM     67  C   UNL A   1      47.892  27.460  26.311  1.00  0.00     0.002 A 
BRANCH  64  68
ATOM     68  N   UNL A   1      44.626  26.192  25.051  1.00  0.00    -0.355 N 
ATOM     69  H   UNL A   1      44.298  25.464  24.475  1.00  0.00     0.167 HD
BRANCH  68  70
ATOM     70  C   UNL A   1      43.705  27.247  25.498  1.00  0.00     0.040 A 
ATOM     71  C   UNL A   1      42.338  27.210  25.277  1.00  0.00     0.026 A 
ATOM     72  C   UNL A   1      44.263  28.224  26.203  1.00  0.00     0.050 A 
ATOM     73  C   UNL A   1      41.673  28.416  25.601  1.00  0.00     0.004 A 
ATOM     74  C   UNL A   1      43.521  29.309  26.603  1.00  0.00     0.109 A 
ATOM     75  C   UNL A   1      42.176  29.367  26.367  1.00  0.00     0.024 A 
BRANCH  74  76
ATOM     76  S   UNL A   1      44.336  30.681  27.457  1.00  0.00     0.310 S 
ATOM     77  F   UNL A   1      45.402  30.601  26.285  1.00  0.00    -0.094 F 
ATOM     78  F   UNL A   1      45.161  29.558  28.192  1.00  0.00    -0.094 F 
ATOM     79  F   UNL A   1      45.218  31.789  28.099  1.00  0.00    -0.094 F 
ATOM     80  F   UNL A   1      43.590  31.782  26.604  1.00  0.00    -0.094 F 
ATOM     81  F   UNL A   1      43.507  29.562  26.710  1.00  0.00    -0.094 F 
ENDBRANCH  74  76
ENDBRANCH  68  70
ENDBRANCH  64  68
ENDBRANCH  60  62
ENDBRANCH  59  60
ENDBRANCH  58  59
ENDBRANCH   1  58
TORSDOF 17
ENDMDL
MODEL 3
REMARK VINA RESULT:      -9.3      7.665     12.309
REMARK SMILES O=C(OCCOCCOC(=O)c1ccccc1Nc1cccc(S(F)(F)(F)(F)F)c1)c1ccc(-c2c3nc(c(-c4ccccc4)c4ccc([nH]4)c(-c4ccccc4)c4nc(c(-c5ccccc5)c5ccc2[nH]5)C=C4)C=C3)cc1
REMARK SMILES IDX 7 1 6 2 5 3 4 4 3 5 2 6 1 7 31 8 32 9 78 10 33 11 77 12
REMARK SMILES IDX 34 13 35 14 36 15 71 16 37 17 76 18 70 19 72 20 38 21 75 22
REMARK SMILES IDX 69 23 68 24 39 26 61 27 46 28 60 29 47 30 50 31 59 32 73 33
REMARK SMILES IDX 48 34 49 35 58 37 74 38 51 39 40 40 41 41 45 42 42 43 44 44
REMARK SMILES IDX 43 45 62 46 63 47 67 48 64 49 66 50 65 51 52 52 53 53 57 54
REMARK SMILES IDX 54 55 56 56 55 57 8 58 9 59 10 60 11 61 12 62 13 63 17 64
REMARK SMILES IDX 14 65 16 66 15 67 18 68 19 70 20 71 30 72 21 73 23 74 22 75
REMARK SMILES IDX 24 76 25 77 26 78 27 79 28 80 29 81
REMARK H PARENT 72 25 50 36 18 69
REMARK Flexibility Score: inf
ROOT
ATOM      1  C   UNL A   1      32.956  30.430  26.667  1.00  0.00     0.202 C 
ENDROOT
BRANCH   1   2
ATOM      2  O   UNL A   1      31.586  30.731  26.884  1.00  0.00    -0.374 OA
BRANCH   2   3
ATOM      3  C   UNL A   1      31.364  32.115  26.654  1.00  0.00     0.202 C 
BRANCH   3   4
ATOM      4  C   UNL A   1      32.577  32.906  27.115  1.00  0.00     0.261 C 
BRANCH   4   5
ATOM      5  O   UNL A   1      32.153  34.145  27.664  1.00  0.00    -0.460 OA
BRANCH   5   6
ATOM      6  C   UNL A   1      32.968  34.816  28.614  1.00  0.00     0.338 C 
ATOM      7  O   UNL A   1      32.667  35.992  28.992  1.00  0.00    -0.246 OA
BRANCH   6   8
ATOM      8  C   UNL A   1      34.200  34.128  29.180  1.00  0.00     0.060 A 
ATOM      9  C   UNL A   1      35.471  34.488  28.764  1.00  0.00     0.016 A 
ATOM     10  C   UNL A   1      34.016  33.182  30.092  1.00  0.00     0.016 A 
ATOM     11  C   UNL A   1      36.483  33.583  29.164  1.00  0.00     0.010 A 
ATOM     12  C   UNL A   1      35.072  32.426  30.540  1.00  0.00     0.010 A 
ATOM     13  C   UNL A   1      36.349  32.687  30.126  1.00  0.00    -0.014 A 
BRANCH  13  14
ATOM     14  C   UNL A   1      37.549  31.985  30.740  1.00  0.00     0.031 A 
ATOM     15  C   UNL A   1      38.137  30.986  29.962  1.00  0.00     0.074 A 
ATOM     16  C   UNL A   1      37.982  32.336  32.008  1.00  0.00     0.049 A 
ATOM     17  N   UNL A   1      39.198  30.238  30.266  1.00  0.00    -0.248 NA
ATOM     18  C   UNL A   1      37.657  30.588  28.631  1.00  0.00     0.031 C 
ATOM     19  C   UNL A   1      37.401  33.349  32.794  1.00  0.00     0.029 A 
ATOM     20  N   UNL A   1      39.023  31.790  32.725  1.00  0.00    -0.354 N 
ATOM     21  C   UNL A   1      39.475  29.402  29.264  1.00  0.00     0.074 A 
ATOM     22  C   UNL A   1      38.484  29.610  28.200  1.00  0.00     0.031 C 
ATOM     23  C   UNL A   1      38.073  33.406  33.973  1.00  0.00     0.029 A 
ATOM     24  C   UNL A   1      39.087  32.430  33.944  1.00  0.00     0.049 A 
ATOM     25  H   UNL A   1      39.619  31.068  32.421  1.00  0.00     0.167 HD
ATOM     26  C   UNL A   1      40.516  28.475  29.195  1.00  0.00     0.031 A 
ATOM     27  C   UNL A   1      39.970  32.188  34.985  1.00  0.00     0.031 A 
ATOM     28  C   UNL A   1      41.427  28.263  30.218  1.00  0.00     0.049 A 
ATOM     29  C   UNL A   1      40.976  31.219  34.938  1.00  0.00     0.074 A 
ATOM     30  C   UNL A   1      42.486  27.338  30.161  1.00  0.00     0.029 A 
ATOM     31  N   UNL A   1      41.475  28.885  31.446  1.00  0.00    -0.354 N 
ATOM     32  N   UNL A   1      41.276  30.412  33.920  1.00  0.00    -0.248 NA
ATOM     33  C   UNL A   1      41.896  30.932  36.046  1.00  0.00     0.031 C 
ATOM     34  C   UNL A   1      43.159  27.394  31.342  1.00  0.00     0.029 A 
ATOM     35  C   UNL A   1      42.529  28.355  32.156  1.00  0.00     0.049 A 
ATOM     36  H   UNL A   1      40.862  29.587  31.762  1.00  0.00     0.167 HD
ATOM     37  C   UNL A   1      42.313  29.635  34.241  1.00  0.00     0.074 A 
ATOM     38  C   UNL A   1      42.722  29.954  35.616  1.00  0.00     0.031 C 
ATOM     39  C   UNL A   1      42.937  28.676  33.442  1.00  0.00     0.031 A 
BRANCH  26  40
ATOM     40  C   UNL A   1      40.660  27.650  27.925  1.00  0.00    -0.014 A 
ATOM     41  C   UNL A   1      40.048  26.409  27.846  1.00  0.00     0.009 A 
ATOM     42  C   UNL A   1      41.403  28.117  26.930  1.00  0.00     0.009 A 
ATOM     43  C   UNL A   1      40.520  25.606  26.782  1.00  0.00     0.001 A 
ATOM     44  C   UNL A   1      41.712  27.319  25.854  1.00  0.00     0.001 A 
ATOM     45  C   UNL A   1      41.191  26.061  25.740  1.00  0.00     0.000 A 
ENDBRANCH  26  40
BRANCH  27  46
ATOM     46  C   UNL A   1      39.837  33.024  36.247  1.00  0.00    -0.014 A 
ATOM     47  C   UNL A   1      39.061  32.563  37.297  1.00  0.00     0.009 A 
ATOM     48  C   UNL A   1      40.505  34.168  36.334  1.00  0.00     0.009 A 
ATOM     49  C   UNL A   1      38.823  33.531  38.302  1.00  0.00     0.001 A 
ATOM     50  C   UNL A   1      40.326  35.003  37.411  1.00  0.00     0.001 A 
ATOM     51  C   UNL A   1      39.527  34.637  38.459  1.00  0.00     0.000 A 
ENDBRANCH  27  46
BRANCH  39  52
ATOM     52  C   UNL A   1      44.135  27.938  34.015  1.00  0.00    -0.014 A 
ATOM     53  C   UNL A   1      45.414  28.448  33.860  1.00  0.00     0.009 A 
ATOM     54  C   UNL A   1      43.922  26.802  34.670  1.00  0.00     0.009 A 
ATOM     55  C   UNL A   1      46.441  27.530  34.185  1.00  0.00     0.001 A 
ATOM     56  C   UNL A   1      44.976  26.022  35.078  1.00  0.00     0.001 A 
ATOM     57  C   UNL A   1      46.267  26.436  34.905  1.00  0.00     0.000 A 
ENDBRANCH  39  52
ENDBRANCH  13  14
ENDBRANCH   6   8
ENDBRANCH   5   6
ENDBRANCH   4   5
ENDBRANCH   3   4
ENDBRANCH   2   3
ENDBRANCH   1   2
BRANCH   1  58
ATOM     58  C   UNL A   1      33.261  29.040  27.200  1.00  0.00     0.261 C 
BRANCH  58  59
ATOM     59  O   UNL A   1      32.826  28.067  26.261  1.00  0.00    -0.460 OA
BRANCH  59  60
ATOM     60  C   UNL A   1      31.705  27.247  26.557  1.00  0.00     0.340 C 
ATOM     61  O   UNL A   1      31.031  27.449  27.616  1.00  0.00    -0.246 OA
BRANCH  60  62
ATOM     62  C   UNL A   1      31.311  26.127  25.608  1.00  0.00     0.083 A 
ATOM     63  C   UNL A   1      31.210  24.846  26.127  1.00  0.00     0.018 A 
ATOM     64  C   UNL A   1      31.124  26.362  24.315  1.00  0.00     0.053 A 
ATOM     65  C   UNL A   1      31.192  23.829  25.144  1.00  0.00     0.001 A 
ATOM     66  C   UNL A   1      30.977  25.323  23.429  1.00  0.00     0.027 A 
ATOM     67  C   UNL A   1      30.929  24.028  23.865  1.00  0.00     0.002 A 
BRANCH  64  68
ATOM     68  N   UNL A   1      31.073  27.748  23.827  1.00  0.00    -0.355 N 
ATOM     69  H   UNL A   1      31.908  28.248  23.676  1.00  0.00     0.167 HD
BRANCH  68  70
ATOM     70  C   UNL A   1      29.776  28.387  23.562  1.00  0.00     0.040 A 
ATOM     71  C   UNL A   1      28.579  27.692  23.518  1.00  0.00     0.026 A 
ATOM     72  C   UNL A   1      29.811  29.708  23.435  1.00  0.00     0.050 A 
ATOM     73  C   UNL A   1      27.489  28.460  23.044  1.00  0.00     0.004 A 
ATOM     74  C   UNL A   1      28.677  30.410  23.103  1.00  0.00     0.109 A 
ATOM     75  C   UNL A   1      27.470  29.779  22.985  1.00  0.00     0.024 A 
BRANCH  74  76
ATOM     76  S   UNL A   1      28.783  32.194  22.819  1.00  0.00     0.310 S 
ATOM     77  F   UNL A   1      27.345  32.250  23.485  1.00  0.00    -0.094 F 
ATOM     78  F   UNL A   1      28.063  31.884  21.453  1.00  0.00    -0.094 F 
ATOM     79  F   UNL A   1      28.659  33.723  22.570  1.00  0.00    -0.094 F 
ATOM     80  F   UNL A   1      29.378  32.485  24.253  1.00  0.00    -0.094 F 
ATOM     81  F   UNL A   1      28.813  30.646  23.136  1.00  0.00    -0.094 F 
ENDBRANCH  74  76
ENDBRANCH  68  70
ENDBRANCH  64  68
ENDBRANCH  60  62
ENDBRANCH  59  60
ENDBRANCH  58  59
ENDBRANCH   1  58
TORSDOF 17
ENDMDL
