MODEL 1
REMARK VINA RESULT:      -9.9      0.000      0.000
REMARK SMILES Cc1ccc(CC(=O)OCCOCCOC(=O)c2ccc(-c3c4nc(c(-c5ccccc5)c5ccc([nH]5)c(-c5ccccc5)c5nc(c(-c6ccccc6)c6ccc3[nH]6)C=C5)C=C4)cc2)n1-c1ccc(F)cc1
REMARK SMILES IDX 12 1 11 2 10 3 9 4 7 5 8 6 6 7 5 8 1 9 2 10 3 11 66 12 4 13
REMARK SMILES IDX 67 14 68 15 73 16 69 17 72 18 70 19 71 20 13 21 14 22 15 23
REMARK SMILES IDX 16 24 17 25 18 26 19 27 65 28 20 29 64 30 21 31 22 32 23 33
REMARK SMILES IDX 58 34 24 35 63 36 57 37 59 38 25 39 62 40 56 41 55 42 26 44
REMARK SMILES IDX 48 45 33 46 47 47 34 48 37 49 46 50 60 51 35 52 36 53 45 55
REMARK SMILES IDX 61 56 38 57 27 58 28 59 32 60 29 61 31 62 30 63 49 64 50 65
REMARK SMILES IDX 54 66 51 67 53 68 52 69 39 70 40 71 44 72 41 73 43 74 42 75
REMARK H PARENT 59 43 37 54
REMARK Flexibility Score: inf
ROOT
ATOM      1  O   UNL A   1      33.827  32.431  27.943  1.00  0.00    -0.374 OA
ENDROOT
BRANCH   1   2
ATOM      2  C   UNL A   1      34.204  31.054  28.041  1.00  0.00     0.202 C 
BRANCH   2   3
ATOM      3  C   UNL A   1      33.583  30.189  26.934  1.00  0.00     0.261 C 
BRANCH   3   4
ATOM      4  O   UNL A   1      32.397  29.515  27.403  1.00  0.00    -0.463 OA
BRANCH   4   5
ATOM      5  C   UNL A   1      32.292  28.199  27.084  1.00  0.00     0.311 C 
ATOM      6  O   UNL A   1      31.388  27.464  27.473  1.00  0.00    -0.252 OA
BRANCH   5   7
ATOM      7  C   UNL A   1      33.434  27.657  26.243  1.00  0.00     0.177 C 
BRANCH   7   8
ATOM      8  C   UNL A   1      33.050  27.087  24.901  1.00  0.00     0.034 A 
ATOM      9  C   UNL A   1      32.949  24.386  22.376  1.00  0.00     0.065 C 
ATOM     10  C   UNL A   1      32.913  25.652  23.163  1.00  0.00     0.020 A 
ATOM     11  C   UNL A   1      32.476  26.889  22.728  1.00  0.00     0.023 A 
ATOM     12  N   UNL A   1      33.209  25.755  24.521  1.00  0.00    -0.318 N 
ATOM     13  C   UNL A   1      32.525  27.774  23.821  1.00  0.00     0.024 A 
BRANCH  12  14
ATOM     14  C   UNL A   1      33.543  24.677  25.385  1.00  0.00     0.046 A 
ATOM     15  C   UNL A   1      32.528  24.050  26.120  1.00  0.00     0.029 A 
ATOM     16  C   UNL A   1      34.868  24.237  25.493  1.00  0.00     0.029 A 
ATOM     17  C   UNL A   1      32.842  23.010  26.995  1.00  0.00     0.041 A 
ATOM     18  C   UNL A   1      35.175  23.193  26.369  1.00  0.00     0.041 A 
ATOM     19  C   UNL A   1      34.162  22.596  27.115  1.00  0.00     0.123 A 
ATOM     20  F   UNL A   1      34.465  21.604  27.962  1.00  0.00    -0.207 F 
ENDBRANCH  12  14
ENDBRANCH   7   8
ENDBRANCH   5   7
ENDBRANCH   4   5
ENDBRANCH   3   4
ENDBRANCH   2   3
ENDBRANCH   1   2
BRANCH   1  21
ATOM     21  C   UNL A   1      34.935  33.339  28.016  1.00  0.00     0.202 C 
BRANCH  21  22
ATOM     22  C   UNL A   1      35.260  33.790  29.446  1.00  0.00     0.261 C 
BRANCH  22  23
ATOM     23  O   UNL A   1      35.925  32.754  30.225  1.00  0.00    -0.460 OA
BRANCH  23  24
ATOM     24  C   UNL A   1      37.201  32.480  29.850  1.00  0.00     0.338 C 
ATOM     25  O   UNL A   1      38.136  33.261  29.889  1.00  0.00    -0.246 OA
BRANCH  24  26
ATOM     26  C   UNL A   1      37.397  31.076  29.383  1.00  0.00     0.060 A 
ATOM     27  C   UNL A   1      37.403  30.073  30.348  1.00  0.00     0.016 A 
ATOM     28  C   UNL A   1      37.882  30.775  28.100  1.00  0.00     0.016 A 
ATOM     29  C   UNL A   1      37.944  28.809  30.050  1.00  0.00     0.010 A 
ATOM     30  C   UNL A   1      38.478  29.510  27.817  1.00  0.00     0.010 A 
ATOM     31  C   UNL A   1      38.575  28.523  28.809  1.00  0.00    -0.014 A 
BRANCH  31  32
ATOM     32  C   UNL A   1      39.674  27.476  28.847  1.00  0.00     0.031 A 
ATOM     33  C   UNL A   1      40.741  27.928  29.789  1.00  0.00     0.074 A 
ATOM     34  C   UNL A   1      39.957  26.294  28.226  1.00  0.00     0.049 A 
ATOM     35  N   UNL A   1      41.391  29.049  29.674  1.00  0.00    -0.248 NA
ATOM     36  C   UNL A   1      40.984  27.186  31.029  1.00  0.00     0.031 C 
ATOM     37  C   UNL A   1      39.154  25.557  27.252  1.00  0.00     0.029 A 
ATOM     38  N   UNL A   1      41.070  25.457  28.377  1.00  0.00    -0.354 N 
ATOM     39  C   UNL A   1      42.335  29.011  30.676  1.00  0.00     0.074 A 
ATOM     40  C   UNL A   1      41.926  27.950  31.576  1.00  0.00     0.031 C 
ATOM     41  C   UNL A   1      39.735  24.360  26.976  1.00  0.00     0.029 A 
ATOM     42  C   UNL A   1      40.991  24.228  27.706  1.00  0.00     0.049 A 
ATOM     43  H   UNL A   1      41.853  25.713  28.915  1.00  0.00     0.167 HD
ATOM     44  C   UNL A   1      43.584  29.514  30.494  1.00  0.00     0.031 A 
ATOM     45  C   UNL A   1      41.873  23.186  27.716  1.00  0.00     0.031 A 
ATOM     46  C   UNL A   1      44.628  28.563  30.768  1.00  0.00     0.049 A 
ATOM     47  C   UNL A   1      43.152  23.576  28.343  1.00  0.00     0.074 A 
ATOM     48  C   UNL A   1      45.010  27.731  31.802  1.00  0.00     0.029 A 
ATOM     49  N   UNL A   1      45.275  28.087  29.649  1.00  0.00    -0.354 N 
ATOM     50  N   UNL A   1      44.069  24.242  27.714  1.00  0.00    -0.248 NA
ATOM     51  C   UNL A   1      43.498  23.178  29.703  1.00  0.00     0.031 C 
ATOM     52  C   UNL A   1      45.537  26.550  31.189  1.00  0.00     0.029 A 
ATOM     53  C   UNL A   1      45.509  26.736  29.814  1.00  0.00     0.049 A 
ATOM     54  H   UNL A   1      45.530  28.622  28.862  1.00  0.00     0.167 HD
ATOM     55  C   UNL A   1      44.899  24.700  28.701  1.00  0.00     0.074 A 
ATOM     56  C   UNL A   1      44.633  23.865  29.854  1.00  0.00     0.031 C 
ATOM     57  C   UNL A   1      45.445  25.939  28.609  1.00  0.00     0.031 A 
BRANCH  44  58
ATOM     58  C   UNL A   1      43.771  30.619  29.495  1.00  0.00    -0.014 A 
ATOM     59  C   UNL A   1      44.053  30.293  28.163  1.00  0.00     0.009 A 
ATOM     60  C   UNL A   1      43.645  31.977  29.839  1.00  0.00     0.009 A 
ATOM     61  C   UNL A   1      44.248  31.302  27.213  1.00  0.00     0.001 A 
ATOM     62  C   UNL A   1      43.852  32.984  28.895  1.00  0.00     0.001 A 
ATOM     63  C   UNL A   1      44.160  32.644  27.581  1.00  0.00     0.000 A 
ENDBRANCH  44  58
BRANCH  45  64
ATOM     64  C   UNL A   1      41.892  21.788  27.185  1.00  0.00    -0.014 A 
ATOM     65  C   UNL A   1      42.752  21.484  26.099  1.00  0.00     0.009 A 
ATOM     66  C   UNL A   1      41.351  20.711  27.890  1.00  0.00     0.009 A 
ATOM     67  C   UNL A   1      43.128  20.174  25.787  1.00  0.00     0.001 A 
ATOM     68  C   UNL A   1      41.710  19.390  27.561  1.00  0.00     0.001 A 
ATOM     69  C   UNL A   1      42.616  19.124  26.532  1.00  0.00     0.000 A 
ENDBRANCH  45  64
BRANCH  57  70
ATOM     70  C   UNL A   1      45.594  26.560  27.224  1.00  0.00    -0.014 A 
ATOM     71  C   UNL A   1      44.528  27.079  26.459  1.00  0.00     0.009 A 
ATOM     72  C   UNL A   1      46.881  26.670  26.677  1.00  0.00     0.009 A 
ATOM     73  C   UNL A   1      44.723  27.594  25.173  1.00  0.00     0.001 A 
ATOM     74  C   UNL A   1      47.086  27.235  25.411  1.00  0.00     0.001 A 
ATOM     75  C   UNL A   1      46.005  27.674  24.651  1.00  0.00     0.000 A 
ENDBRANCH  57  70
ENDBRANCH  31  32
ENDBRANCH  24  26
ENDBRANCH  23  24
ENDBRANCH  22  23
ENDBRANCH  21  22
ENDBRANCH   1  21
TORSDOF 16
ENDMDL
MODEL 2
REMARK VINA RESULT:      -9.8      3.826      8.902
REMARK SMILES Cc1ccc(CC(=O)OCCOCCOC(=O)c2ccc(-c3c4nc(c(-c5ccccc5)c5ccc([nH]5)c(-c5ccccc5)c5nc(c(-c6ccccc6)c6ccc3[nH]6)C=C5)C=C4)cc2)n1-c1ccc(F)cc1
REMARK SMILES IDX 12 1 11 2 10 3 9 4 7 5 8 6 6 7 5 8 1 9 2 10 3 11 66 12 4 13
REMARK SMILES IDX 67 14 68 15 73 16 69 17 72 18 70 19 71 20 13 21 14 22 15 23
REMARK SMILES IDX 16 24 17 25 18 26 19 27 65 28 20 29 64 30 21 31 22 32 23 33
REMARK SMILES IDX 58 34 24 35 63 36 57 37 59 38 25 39 62 40 56 41 55 42 26 44
REMARK SMILES IDX 48 45 33 46 47 47 34 48 37 49 46 50 60 51 35 52 36 53 45 55
REMARK SMILES IDX 61 56 38 57 27 58 28 59 32 60 29 61 31 62 30 63 49 64 50 65
REMARK SMILES IDX 54 66 51 67 53 68 52 69 39 70 40 71 44 72 41 73 43 74 42 75
REMARK H PARENT 59 43 37 54
REMARK Flexibility Score: inf
ROOT
ATOM      1  O   UNL A   1      40.326  21.492  27.366  1.00  0.00    -0.374 OA
ENDROOT
BRANCH   1   2
ATOM      2  C   UNL A   1      39.296  22.357  26.879  1.00  0.00     0.202 C 
BRANCH   2   3
ATOM      3  C   UNL A   1      38.565  21.781  25.656  1.00  0.00     0.261 C 
BRANCH   3   4
ATOM      4  O   UNL A   1      37.349  22.506  25.386  1.00  0.00    -0.463 OA
BRANCH   4   5
ATOM      5  C   UNL A   1      36.325  21.781  24.864  1.00  0.00     0.311 C 
ATOM      6  O   UNL A   1      36.235  20.559  24.941  1.00  0.00    -0.252 OA
BRANCH   5   7
ATOM      7  C   UNL A   1      35.298  22.595  24.097  1.00  0.00     0.177 C 
BRANCH   7   8
ATOM      8  C   UNL A   1      34.085  23.028  24.880  1.00  0.00     0.034 A 
ATOM      9  C   UNL A   1      30.630  22.575  26.120  1.00  0.00     0.065 C 
ATOM     10  C   UNL A   1      31.983  23.044  25.705  1.00  0.00     0.020 A 
ATOM     11  C   UNL A   1      32.541  24.286  25.941  1.00  0.00     0.023 A 
ATOM     12  N   UNL A   1      32.954  22.244  25.106  1.00  0.00    -0.318 N 
ATOM     13  C   UNL A   1      33.864  24.264  25.462  1.00  0.00     0.024 A 
BRANCH  12  14
ATOM     14  C   UNL A   1      32.839  20.853  24.838  1.00  0.00     0.046 A 
ATOM     15  C   UNL A   1      32.525  20.431  23.538  1.00  0.00     0.029 A 
ATOM     16  C   UNL A   1      33.049  19.913  25.854  1.00  0.00     0.029 A 
ATOM     17  C   UNL A   1      32.380  19.071  23.264  1.00  0.00     0.041 A 
ATOM     18  C   UNL A   1      32.905  18.553  25.571  1.00  0.00     0.041 A 
ATOM     19  C   UNL A   1      32.565  18.146  24.284  1.00  0.00     0.123 A 
ATOM     20  F   UNL A   1      32.416  16.841  24.022  1.00  0.00    -0.207 F 
ENDBRANCH  12  14
ENDBRANCH   7   8
ENDBRANCH   5   7
ENDBRANCH   4   5
ENDBRANCH   3   4
ENDBRANCH   2   3
ENDBRANCH   1   2
BRANCH   1  21
ATOM     21  C   UNL A   1      41.266  21.090  26.361  1.00  0.00     0.202 C 
BRANCH  21  22
ATOM     22  C   UNL A   1      42.580  21.881  26.405  1.00  0.00     0.261 C 
BRANCH  22  23
ATOM     23  O   UNL A   1      42.593  22.890  27.455  1.00  0.00    -0.460 OA
BRANCH  23  24
ATOM     24  C   UNL A   1      42.821  24.160  27.033  1.00  0.00     0.338 C 
ATOM     25  O   UNL A   1      43.853  24.567  26.527  1.00  0.00    -0.246 OA
BRANCH  24  26
ATOM     26  C   UNL A   1      41.653  25.071  27.220  1.00  0.00     0.060 A 
ATOM     27  C   UNL A   1      41.524  26.140  26.338  1.00  0.00     0.016 A 
ATOM     28  C   UNL A   1      40.893  25.080  28.400  1.00  0.00     0.016 A 
ATOM     29  C   UNL A   1      40.696  27.229  26.665  1.00  0.00     0.010 A 
ATOM     30  C   UNL A   1      40.095  26.209  28.753  1.00  0.00     0.010 A 
ATOM     31  C   UNL A   1      40.031  27.334  27.916  1.00  0.00    -0.014 A 
BRANCH  31  32
ATOM     32  C   UNL A   1      39.783  28.743  28.422  1.00  0.00     0.031 A 
ATOM     33  C   UNL A   1      41.074  29.323  28.895  1.00  0.00     0.074 A 
ATOM     34  C   UNL A   1      38.713  29.572  28.600  1.00  0.00     0.049 A 
ATOM     35  N   UNL A   1      41.819  28.793  29.821  1.00  0.00    -0.248 NA
ATOM     36  C   UNL A   1      41.671  30.457  28.184  1.00  0.00     0.031 C 
ATOM     37  C   UNL A   1      37.310  29.341  28.260  1.00  0.00     0.029 A 
ATOM     38  N   UNL A   1      38.675  30.871  29.124  1.00  0.00    -0.354 N 
ATOM     39  C   UNL A   1      42.840  29.696  30.010  1.00  0.00     0.074 A 
ATOM     40  C   UNL A   1      42.803  30.592  28.871  1.00  0.00     0.031 C 
ATOM     41  C   UNL A   1      36.583  30.469  28.482  1.00  0.00     0.029 A 
ATOM     42  C   UNL A   1      37.435  31.518  29.031  1.00  0.00     0.049 A 
ATOM     43  H   UNL A   1      39.463  31.299  29.529  1.00  0.00     0.167 HD
ATOM     44  C   UNL A   1      43.355  29.939  31.244  1.00  0.00     0.031 A 
ATOM     45  C   UNL A   1      37.103  32.795  29.384  1.00  0.00     0.031 A 
ATOM     46  C   UNL A   1      43.326  31.330  31.610  1.00  0.00     0.049 A 
ATOM     47  C   UNL A   1      38.181  33.426  30.172  1.00  0.00     0.074 A 
ATOM     48  C   UNL A   1      43.753  32.535  31.090  1.00  0.00     0.029 A 
ATOM     49  N   UNL A   1      42.385  31.650  32.566  1.00  0.00    -0.354 N 
ATOM     50  N   UNL A   1      38.349  33.206  31.437  1.00  0.00    -0.248 NA
ATOM     51  C   UNL A   1      39.096  34.401  29.586  1.00  0.00     0.031 C 
ATOM     52  C   UNL A   1      42.762  33.501  31.455  1.00  0.00     0.029 A 
ATOM     53  C   UNL A   1      41.807  32.858  32.230  1.00  0.00     0.049 A 
ATOM     54  H   UNL A   1      42.163  31.107  33.356  1.00  0.00     0.167 HD
ATOM     55  C   UNL A   1      39.611  33.666  31.703  1.00  0.00     0.074 A 
ATOM     56  C   UNL A   1      39.937  34.559  30.611  1.00  0.00     0.031 C 
ATOM     57  C   UNL A   1      40.408  32.998  32.573  1.00  0.00     0.031 A 
BRANCH  44  58
ATOM     58  C   UNL A   1      43.277  28.853  32.277  1.00  0.00    -0.014 A 
ATOM     59  C   UNL A   1      44.441  28.156  32.622  1.00  0.00     0.009 A 
ATOM     60  C   UNL A   1      42.079  28.526  32.940  1.00  0.00     0.009 A 
ATOM     61  C   UNL A   1      44.396  27.128  33.571  1.00  0.00     0.001 A 
ATOM     62  C   UNL A   1      42.032  27.493  33.876  1.00  0.00     0.001 A 
ATOM     63  C   UNL A   1      43.191  26.790  34.188  1.00  0.00     0.000 A 
ENDBRANCH  44  58
BRANCH  45  64
ATOM     64  C   UNL A   1      35.902  33.674  29.238  1.00  0.00    -0.014 A 
ATOM     65  C   UNL A   1      35.338  33.846  27.948  1.00  0.00     0.009 A 
ATOM     66  C   UNL A   1      35.132  34.079  30.330  1.00  0.00     0.009 A 
ATOM     67  C   UNL A   1      34.033  34.312  27.760  1.00  0.00     0.001 A 
ATOM     68  C   UNL A   1      33.828  34.572  30.139  1.00  0.00     0.001 A 
ATOM     69  C   UNL A   1      33.270  34.663  28.862  1.00  0.00     0.000 A 
ENDBRANCH  45  64
BRANCH  57  70
ATOM     70  C   UNL A   1      39.747  32.119  33.630  1.00  0.00    -0.014 A 
ATOM     71  C   UNL A   1      39.314  30.794  33.414  1.00  0.00     0.009 A 
ATOM     72  C   UNL A   1      39.591  32.636  34.925  1.00  0.00     0.009 A 
ATOM     73  C   UNL A   1      38.670  30.054  34.412  1.00  0.00     0.001 A 
ATOM     74  C   UNL A   1      38.995  31.878  35.942  1.00  0.00     0.001 A 
ATOM     75  C   UNL A   1      38.514  30.598  35.678  1.00  0.00     0.000 A 
ENDBRANCH  57  70
ENDBRANCH  31  32
ENDBRANCH  24  26
ENDBRANCH  23  24
ENDBRANCH  22  23
ENDBRANCH  21  22
ENDBRANCH   1  21
TORSDOF 16
ENDMDL
MODEL 3
REMARK VINA RESULT:      -9.7      3.658      9.082
REMARK SMILES Cc1ccc(CC(=O)OCCOCCOC(=O)c2ccc(-c3c4nc(c(-c5ccccc5)c5ccc([nH]5)c(-c5ccccc5)c5nc(c(-c6ccccc6)c6ccc3[nH]6)C=C5)C=C4)cc2)n1-c1ccc(F)cc1
REMARK SMILES IDX 12 1 11 2 10 3 9 4 7 5 8 6 6 7 5 8 1 9 2 10 3 11 66 12 4 13
REMARK SMILES IDX 67 14 68 15 73 16 69 17 72 18 70 19 71 20 13 21 14 22 15 23
REMARK SMILES IDX 16 24 17 25 18 26 19 27 65 28 20 29 64 30 21 31 22 32 23 33
REMARK SMILES IDX 58 34 24 35 63 36 57 37 59 38 25 39 62 40 56 41 55 42 26 44
REMARK SMILES IDX 48 45 33 46 47 47 34 48 37 49 46 50 60 51 35 52 36 53 45 55
REMARK SMILES IDX 61 56 38 57 27 58 28 59 32 60 29 61 31 62 30 63 49 64 50 65
REMARK SMILES IDX 54 66 51 67 53 68 52 69 39 70 40 71 44 72 41 73 43 74 42 75
REMARK H PARENT 59 43 37 54
REMARK Flexibility Score: inf
ROOT
ATOM      1  O   UNL A   1      40.628  21.581  26.031  1.00  0.00    -0.374 OA
ENDROOT
BRANCH   1   2
ATOM      2  C   UNL A   1      39.561  20.631  26.120  1.00  0.00     0.202 C 
BRANCH   2   3
ATOM      3  C   UNL A   1      38.276  21.116  25.431  1.00  0.00     0.261 C 
BRANCH   3   4
ATOM      4  O   UNL A   1      38.092  22.535  25.611  1.00  0.00    -0.463 OA
BRANCH   4   5
ATOM      5  C   UNL A   1      37.044  23.090  24.947  1.00  0.00     0.311 C 
ATOM      6  O   UNL A   1      36.782  22.873  23.767  1.00  0.00    -0.252 OA
BRANCH   5   7
ATOM      7  C   UNL A   1      36.228  24.077  25.761  1.00  0.00     0.177 C 
BRANCH   7   8
ATOM      8  C   UNL A   1      34.813  23.661  26.073  1.00  0.00     0.034 A 
ATOM      9  C   UNL A   1      31.201  24.331  26.503  1.00  0.00     0.065 C 
ATOM     10  C   UNL A   1      32.596  23.806  26.478  1.00  0.00     0.020 A 
ATOM     11  C   UNL A   1      33.021  22.555  26.883  1.00  0.00     0.023 A 
ATOM     12  N   UNL A   1      33.687  24.470  25.919  1.00  0.00    -0.318 N 
ATOM     13  C   UNL A   1      34.394  22.450  26.596  1.00  0.00     0.024 A 
BRANCH  12  14
ATOM     14  C   UNL A   1      33.647  25.720  25.245  1.00  0.00     0.046 A 
ATOM     15  C   UNL A   1      33.585  25.740  23.845  1.00  0.00     0.029 A 
ATOM     16  C   UNL A   1      33.655  26.919  25.969  1.00  0.00     0.029 A 
ATOM     17  C   UNL A   1      33.574  26.958  23.166  1.00  0.00     0.041 A 
ATOM     18  C   UNL A   1      33.641  28.135  25.282  1.00  0.00     0.041 A 
ATOM     19  C   UNL A   1      33.608  28.143  23.890  1.00  0.00     0.123 A 
ATOM     20  F   UNL A   1      33.607  29.312  23.237  1.00  0.00    -0.207 F 
ENDBRANCH  12  14
ENDBRANCH   7   8
ENDBRANCH   5   7
ENDBRANCH   4   5
ENDBRANCH   3   4
ENDBRANCH   2   3
ENDBRANCH   1   2
BRANCH   1  21
ATOM     21  C   UNL A   1      41.932  20.986  26.046  1.00  0.00     0.202 C 
BRANCH  21  22
ATOM     22  C   UNL A   1      43.006  21.888  26.669  1.00  0.00     0.261 C 
BRANCH  22  23
ATOM     23  O   UNL A   1      42.772  23.302  26.409  1.00  0.00    -0.460 OA
BRANCH  23  24
ATOM     24  C   UNL A   1      42.694  24.087  27.513  1.00  0.00     0.338 C 
ATOM     25  O   UNL A   1      43.481  24.086  28.444  1.00  0.00    -0.246 OA
BRANCH  24  26
ATOM     26  C   UNL A   1      41.528  25.020  27.501  1.00  0.00     0.060 A 
ATOM     27  C   UNL A   1      41.585  26.109  26.637  1.00  0.00     0.016 A 
ATOM     28  C   UNL A   1      40.562  25.023  28.521  1.00  0.00     0.016 A 
ATOM     29  C   UNL A   1      40.731  27.209  26.830  1.00  0.00     0.010 A 
ATOM     30  C   UNL A   1      39.734  26.163  28.745  1.00  0.00     0.010 A 
ATOM     31  C   UNL A   1      39.847  27.305  27.938  1.00  0.00    -0.014 A 
BRANCH  31  32
ATOM     32  C   UNL A   1      39.535  28.709  28.422  1.00  0.00     0.031 A 
ATOM     33  C   UNL A   1      40.798  29.351  28.892  1.00  0.00     0.074 A 
ATOM     34  C   UNL A   1      38.430  29.493  28.583  1.00  0.00     0.049 A 
ATOM     35  N   UNL A   1      41.560  28.868  29.829  1.00  0.00    -0.248 NA
ATOM     36  C   UNL A   1      41.348  30.500  28.167  1.00  0.00     0.031 C 
ATOM     37  C   UNL A   1      37.040  29.197  28.240  1.00  0.00     0.029 A 
ATOM     38  N   UNL A   1      38.333  30.797  29.087  1.00  0.00    -0.354 N 
ATOM     39  C   UNL A   1      42.540  29.817  30.009  1.00  0.00     0.074 A 
ATOM     40  C   UNL A   1      42.470  30.694  28.857  1.00  0.00     0.031 C 
ATOM     41  C   UNL A   1      36.264  30.295  28.442  1.00  0.00     0.029 A 
ATOM     42  C   UNL A   1      37.066  31.388  28.979  1.00  0.00     0.049 A 
ATOM     43  H   UNL A   1      39.099  31.265  29.490  1.00  0.00     0.167 HD
ATOM     44  C   UNL A   1      43.037  30.100  31.242  1.00  0.00     0.031 A 
ATOM     45  C   UNL A   1      36.677  32.654  29.312  1.00  0.00     0.031 A 
ATOM     46  C   UNL A   1      42.946  31.494  31.588  1.00  0.00     0.049 A 
ATOM     47  C   UNL A   1      37.723  33.343  30.095  1.00  0.00     0.074 A 
ATOM     48  C   UNL A   1      43.324  32.709  31.052  1.00  0.00     0.029 A 
ATOM     49  N   UNL A   1      41.987  31.786  32.534  1.00  0.00    -0.354 N 
ATOM     50  N   UNL A   1      37.893  33.148  31.365  1.00  0.00    -0.248 NA
ATOM     51  C   UNL A   1      38.598  34.348  29.500  1.00  0.00     0.031 C 
ATOM     52  C   UNL A   1      42.289  33.635  31.398  1.00  0.00     0.029 A 
ATOM     53  C   UNL A   1      41.359  32.963  32.178  1.00  0.00     0.049 A 
ATOM     54  H   UNL A   1      41.785  31.245  33.332  1.00  0.00     0.167 HD
ATOM     55  C   UNL A   1      39.133  33.667  31.629  1.00  0.00     0.074 A 
ATOM     56  C   UNL A   1      39.426  34.558  30.526  1.00  0.00     0.031 C 
ATOM     57  C   UNL A   1      39.954  33.047  32.513  1.00  0.00     0.031 A 
BRANCH  44  58
ATOM     58  C   UNL A   1      43.001  29.027  32.291  1.00  0.00    -0.014 A 
ATOM     59  C   UNL A   1      44.188  28.369  32.634  1.00  0.00     0.009 A 
ATOM     60  C   UNL A   1      41.820  28.674  32.970  1.00  0.00     0.009 A 
ATOM     61  C   UNL A   1      44.183  27.353  33.597  1.00  0.00     0.001 A 
ATOM     62  C   UNL A   1      41.812  27.653  33.921  1.00  0.00     0.001 A 
ATOM     63  C   UNL A   1      42.995  26.989  34.230  1.00  0.00     0.000 A 
ENDBRANCH  44  58
BRANCH  45  64
ATOM     64  C   UNL A   1      35.440  33.478  29.148  1.00  0.00    -0.014 A 
ATOM     65  C   UNL A   1      34.678  33.796  30.302  1.00  0.00     0.009 A 
ATOM     66  C   UNL A   1      35.169  34.201  27.984  1.00  0.00     0.009 A 
ATOM     67  C   UNL A   1      33.755  34.847  30.320  1.00  0.00     0.001 A 
ATOM     68  C   UNL A   1      34.222  35.242  27.997  1.00  0.00     0.001 A 
ATOM     69  C   UNL A   1      33.537  35.582  29.165  1.00  0.00     0.000 A 
ENDBRANCH  45  64
BRANCH  57  70
ATOM     70  C   UNL A   1      39.326  32.156  33.579  1.00  0.00    -0.014 A 
ATOM     71  C   UNL A   1      38.884  30.834  33.361  1.00  0.00     0.009 A 
ATOM     72  C   UNL A   1      39.212  32.656  34.885  1.00  0.00     0.009 A 
ATOM     73  C   UNL A   1      38.272  30.082  34.370  1.00  0.00     0.001 A 
ATOM     74  C   UNL A   1      38.649  31.886  35.911  1.00  0.00     0.001 A 
ATOM     75  C   UNL A   1      38.158  30.610  35.648  1.00  0.00     0.000 A 
ENDBRANCH  57  70
ENDBRANCH  31  32
ENDBRANCH  24  26
ENDBRANCH  23  24
ENDBRANCH  22  23
ENDBRANCH  21  22
ENDBRANCH   1  21
TORSDOF 16
ENDMDL
