MODEL 1
REMARK VINA RESULT:     -11.0      0.000      0.000
REMARK SMILES Cc1ccnc(C(=O)c2[nH]c3ccc(C(C)(C)C)cc3c2CC(=O)OCCOCCOC(=O)c2ccc(-c3c4nc(c(-c5ccccc5)c5ccc([nH]5)c(-c5ccccc5)c5nc(c(-c6ccccc6)c6ccc3[nH]6)C=C5)C=C4)cc2)c1
REMARK SMILES IDX 27 1 26 2 25 3 23 4 24 5 22 6 21 7 9 8 10 9 11 10 20 12
REMARK SMILES IDX 12 13 19 14 13 15 14 16 7 17 8 18 6 19 1 20 2 21 3 22 82 23
REMARK SMILES IDX 4 24 5 25 15 26 16 27 17 28 18 29 28 30 29 31 30 32 31 33
REMARK SMILES IDX 32 34 33 35 34 36 35 37 81 38 36 39 80 40 37 41 38 42 39 43
REMARK SMILES IDX 74 44 40 45 79 46 73 47 75 48 41 49 78 50 72 51 71 52 42 54
REMARK SMILES IDX 64 55 49 56 63 57 50 58 53 59 62 60 76 61 51 62 52 63 61 65
REMARK SMILES IDX 77 66 54 67 43 68 44 69 48 70 45 71 47 72 46 73 65 74 66 75
REMARK SMILES IDX 70 76 67 77 69 78 68 79 55 80 56 81 60 82 57 83 59 84 58 85
REMARK H PARENT 10 11 75 53 53 64
REMARK Flexibility Score: inf
ROOT
ATOM      1  C   UNL A   1      38.670  22.723  26.365  1.00  0.00     0.202 C 
ENDROOT
BRANCH   1   2
ATOM      2  C   UNL A   1      37.704  23.899  26.190  1.00  0.00     0.261 C 
BRANCH   2   3
ATOM      3  O   UNL A   1      36.780  23.718  25.094  1.00  0.00    -0.463 OA
BRANCH   3   4
ATOM      4  C   UNL A   1      35.534  23.305  25.455  1.00  0.00     0.310 C 
ATOM      5  O   UNL A   1      35.243  22.921  26.586  1.00  0.00    -0.252 OA
BRANCH   4   6
ATOM      6  C   UNL A   1      34.507  23.266  24.346  1.00  0.00     0.161 C 
BRANCH   6   7
ATOM      7  C   UNL A   1      33.041  23.315  24.692  1.00  0.00     0.000 A 
ATOM      8  C   UNL A   1      32.033  22.439  24.276  1.00  0.00     0.093 A 
ATOM      9  N   UNL A   1      30.859  22.891  24.848  1.00  0.00    -0.352 N 
ATOM     10  C   UNL A   1      31.025  24.168  25.336  1.00  0.00     0.046 A 
ATOM     11  H   UNL A   1      30.022  22.374  24.897  1.00  0.00     0.167 HD
ATOM     12  C   UNL A   1      32.383  24.445  25.273  1.00  0.00     0.004 A 
ATOM     13  C   UNL A   1      30.093  25.103  25.799  1.00  0.00     0.027 A 
ATOM     14  C   UNL A   1      32.827  25.724  25.661  1.00  0.00     0.015 A 
ATOM     15  C   UNL A   1      30.562  26.392  26.113  1.00  0.00     0.006 A 
ATOM     16  C   UNL A   1      31.919  26.738  26.019  1.00  0.00    -0.042 A 
BRANCH   8  17
ATOM     17  C   UNL A   1      32.189  21.276  23.410  1.00  0.00     0.227 C 
ATOM     18  O   UNL A   1      32.064  21.363  22.188  1.00  0.00    -0.285 OA
BRANCH  17  19
ATOM     19  C   UNL A   1      32.439  19.910  23.963  1.00  0.00     0.113 A 
ATOM     20  C   UNL A   1      34.106  16.634  23.052  1.00  0.00     0.044 C 
ATOM     21  C   UNL A   1      33.412  17.723  23.815  1.00  0.00    -0.047 A 
ATOM     22  C   UNL A   1      33.249  17.609  25.198  1.00  0.00     0.023 A 
ATOM     23  C   UNL A   1      33.008  18.905  23.184  1.00  0.00     0.036 A 
ATOM     24  C   UNL A   1      32.654  18.651  25.888  1.00  0.00     0.112 A 
ATOM     25  N   UNL A   1      32.229  19.787  25.300  1.00  0.00    -0.253 NA
ENDBRANCH  17  19
ENDBRANCH   8  17
BRANCH  16  26
ATOM     26  C   UNL A   1      32.447  28.172  26.208  1.00  0.00    -0.013 C 
ATOM     27  C   UNL A   1      31.900  28.769  27.521  1.00  0.00     0.016 C 
ATOM     28  C   UNL A   1      33.993  28.132  26.276  1.00  0.00     0.016 C 
ATOM     29  C   UNL A   1      32.073  29.138  25.065  1.00  0.00     0.016 C 
ENDBRANCH  16  26
ENDBRANCH   6   7
ENDBRANCH   4   6
ENDBRANCH   3   4
ENDBRANCH   2   3
ENDBRANCH   1   2
BRANCH   1  30
ATOM     30  O   UNL A   1      38.880  21.853  25.255  1.00  0.00    -0.374 OA
BRANCH  30  31
ATOM     31  C   UNL A   1      38.361  20.530  25.368  1.00  0.00     0.202 C 
BRANCH  31  32
ATOM     32  C   UNL A   1      39.381  19.382  25.409  1.00  0.00     0.261 C 
BRANCH  32  33
ATOM     33  O   UNL A   1      40.342  19.513  26.468  1.00  0.00    -0.460 OA
BRANCH  33  34
ATOM     34  C   UNL A   1      41.610  19.738  26.051  1.00  0.00     0.338 C 
ATOM     35  O   UNL A   1      42.285  19.054  25.293  1.00  0.00    -0.246 OA
BRANCH  34  36
ATOM     36  C   UNL A   1      42.051  21.060  26.518  1.00  0.00     0.060 A 
ATOM     37  C   UNL A   1      41.956  21.329  27.889  1.00  0.00     0.016 A 
ATOM     38  C   UNL A   1      42.512  22.030  25.627  1.00  0.00     0.016 A 
ATOM     39  C   UNL A   1      42.308  22.584  28.376  1.00  0.00     0.010 A 
ATOM     40  C   UNL A   1      42.850  23.294  26.115  1.00  0.00     0.010 A 
ATOM     41  C   UNL A   1      42.732  23.581  27.487  1.00  0.00    -0.014 A 
BRANCH  41  42
ATOM     42  C   UNL A   1      42.966  24.954  27.985  1.00  0.00     0.031 A 
ATOM     43  C   UNL A   1      44.362  25.372  28.348  1.00  0.00     0.074 A 
ATOM     44  C   UNL A   1      41.940  25.814  28.095  1.00  0.00     0.049 A 
ATOM     45  N   UNL A   1      44.783  26.508  28.840  1.00  0.00    -0.248 NA
ATOM     46  C   UNL A   1      45.425  24.376  28.131  1.00  0.00     0.031 C 
ATOM     47  C   UNL A   1      40.553  25.526  27.726  1.00  0.00     0.029 A 
ATOM     48  N   UNL A   1      41.905  27.106  28.555  1.00  0.00    -0.354 N 
ATOM     49  C   UNL A   1      46.155  26.362  29.001  1.00  0.00     0.074 A 
ATOM     50  C   UNL A   1      46.494  25.022  28.575  1.00  0.00     0.031 C 
ATOM     51  C   UNL A   1      39.801  26.611  27.977  1.00  0.00     0.029 A 
ATOM     52  C   UNL A   1      40.644  27.651  28.562  1.00  0.00     0.049 A 
ATOM     53  H   UNL A   1      42.706  27.594  28.851  1.00  0.00     0.167 HD
ATOM     54  C   UNL A   1      47.050  27.268  29.462  1.00  0.00     0.031 A 
ATOM     55  C   UNL A   1      40.219  28.846  29.015  1.00  0.00     0.031 A 
ATOM     56  C   UNL A   1      46.698  28.594  29.896  1.00  0.00     0.049 A 
ATOM     57  C   UNL A   1      41.224  29.797  29.608  1.00  0.00     0.074 A 
ATOM     58  C   UNL A   1      47.530  29.600  30.354  1.00  0.00     0.029 A 
ATOM     59  N   UNL A   1      45.405  29.092  29.937  1.00  0.00    -0.354 N 
ATOM     60  N   UNL A   1      42.524  29.665  29.717  1.00  0.00    -0.248 NA
ATOM     61  C   UNL A   1      40.700  31.062  30.143  1.00  0.00     0.031 C 
ATOM     62  C   UNL A   1      46.732  30.682  30.738  1.00  0.00     0.029 A 
ATOM     63  C   UNL A   1      45.410  30.375  30.456  1.00  0.00     0.049 A 
ATOM     64  H   UNL A   1      44.602  28.605  29.640  1.00  0.00     0.167 HD
ATOM     65  C   UNL A   1      42.976  30.837  30.311  1.00  0.00     0.074 A 
ATOM     66  C   UNL A   1      41.814  31.676  30.517  1.00  0.00     0.031 C 
ATOM     67  C   UNL A   1      44.239  31.188  30.659  1.00  0.00     0.031 A 
BRANCH  54  68
ATOM     68  C   UNL A   1      48.487  26.843  29.563  1.00  0.00    -0.014 A 
ATOM     69  C   UNL A   1      48.979  26.179  30.699  1.00  0.00     0.009 A 
ATOM     70  C   UNL A   1      49.354  27.066  28.481  1.00  0.00     0.009 A 
ATOM     71  C   UNL A   1      50.314  25.773  30.757  1.00  0.00     0.001 A 
ATOM     72  C   UNL A   1      50.680  26.635  28.531  1.00  0.00     0.001 A 
ATOM     73  C   UNL A   1      51.162  25.994  29.672  1.00  0.00     0.000 A 
ENDBRANCH  54  68
BRANCH  55  74
ATOM     74  C   UNL A   1      38.776  29.201  28.962  1.00  0.00    -0.014 A 
ATOM     75  C   UNL A   1      38.216  29.755  27.802  1.00  0.00     0.009 A 
ATOM     76  C   UNL A   1      37.954  29.014  30.086  1.00  0.00     0.009 A 
ATOM     77  C   UNL A   1      36.874  30.141  27.777  1.00  0.00     0.001 A 
ATOM     78  C   UNL A   1      36.604  29.370  30.049  1.00  0.00     0.001 A 
ATOM     79  C   UNL A   1      36.068  29.944  28.899  1.00  0.00     0.000 A 
ENDBRANCH  55  74
BRANCH  67  80
ATOM     80  C   UNL A   1      44.427  32.544  31.279  1.00  0.00    -0.014 A 
ATOM     81  C   UNL A   1      44.633  33.683  30.485  1.00  0.00     0.009 A 
ATOM     82  C   UNL A   1      44.353  32.689  32.672  1.00  0.00     0.009 A 
ATOM     83  C   UNL A   1      44.792  34.936  31.078  1.00  0.00     0.001 A 
ATOM     84  C   UNL A   1      44.480  33.948  33.260  1.00  0.00     0.001 A 
ATOM     85  C   UNL A   1      44.709  35.068  32.464  1.00  0.00     0.000 A 
ENDBRANCH  67  80
ENDBRANCH  41  42
ENDBRANCH  34  36
ENDBRANCH  33  34
ENDBRANCH  32  33
ENDBRANCH  31  32
ENDBRANCH  30  31
ENDBRANCH   1  30
TORSDOF 18
ENDMDL
MODEL 2
REMARK VINA RESULT:     -11.0      0.344      5.688
REMARK SMILES Cc1ccnc(C(=O)c2[nH]c3ccc(C(C)(C)C)cc3c2CC(=O)OCCOCCOC(=O)c2ccc(-c3c4nc(c(-c5ccccc5)c5ccc([nH]5)c(-c5ccccc5)c5nc(c(-c6ccccc6)c6ccc3[nH]6)C=C5)C=C4)cc2)c1
REMARK SMILES IDX 27 1 26 2 25 3 23 4 24 5 22 6 21 7 9 8 10 9 11 10 20 12
REMARK SMILES IDX 12 13 19 14 13 15 14 16 7 17 8 18 6 19 1 20 2 21 3 22 82 23
REMARK SMILES IDX 4 24 5 25 15 26 16 27 17 28 18 29 28 30 29 31 30 32 31 33
REMARK SMILES IDX 32 34 33 35 34 36 35 37 81 38 36 39 80 40 37 41 38 42 39 43
REMARK SMILES IDX 74 44 40 45 79 46 73 47 75 48 41 49 78 50 72 51 71 52 42 54
REMARK SMILES IDX 64 55 49 56 63 57 50 58 53 59 62 60 76 61 51 62 52 63 61 65
REMARK SMILES IDX 77 66 54 67 43 68 44 69 48 70 45 71 47 72 46 73 65 74 66 75
REMARK SMILES IDX 70 76 67 77 69 78 68 79 55 80 56 81 60 82 57 83 59 84 58 85
REMARK H PARENT 10 11 75 53 53 64
REMARK Flexibility Score: inf
ROOT
ATOM      1  C   UNL A   1      38.706  22.811  26.375  1.00  0.00     0.202 C 
ENDROOT
BRANCH   1   2
ATOM      2  C   UNL A   1      37.691  23.943  26.181  1.00  0.00     0.261 C 
BRANCH   2   3
ATOM      3  O   UNL A   1      36.802  23.724  25.064  1.00  0.00    -0.463 OA
BRANCH   3   4
ATOM      4  C   UNL A   1      35.570  23.250  25.394  1.00  0.00     0.310 C 
ATOM      5  O   UNL A   1      35.305  22.735  26.480  1.00  0.00    -0.252 OA
BRANCH   4   6
ATOM      6  C   UNL A   1      34.525  23.317  24.304  1.00  0.00     0.161 C 
BRANCH   6   7
ATOM      7  C   UNL A   1      33.066  23.372  24.678  1.00  0.00     0.000 A 
ATOM      8  C   UNL A   1      32.047  22.500  24.283  1.00  0.00     0.093 A 
ATOM      9  N   UNL A   1      30.886  22.957  24.877  1.00  0.00    -0.352 N 
ATOM     10  C   UNL A   1      31.065  24.233  25.361  1.00  0.00     0.046 A 
ATOM     11  H   UNL A   1      30.048  22.443  24.943  1.00  0.00     0.167 HD
ATOM     12  C   UNL A   1      32.423  24.505  25.270  1.00  0.00     0.004 A 
ATOM     13  C   UNL A   1      30.147  25.172  25.840  1.00  0.00     0.027 A 
ATOM     14  C   UNL A   1      32.880  25.782  25.649  1.00  0.00     0.015 A 
ATOM     15  C   UNL A   1      30.627  26.460  26.143  1.00  0.00     0.006 A 
ATOM     16  C   UNL A   1      31.982  26.801  26.023  1.00  0.00    -0.042 A 
BRANCH   8  17
ATOM     17  C   UNL A   1      32.181  21.335  23.415  1.00  0.00     0.227 C 
ATOM     18  O   UNL A   1      32.037  21.422  22.196  1.00  0.00    -0.285 OA
BRANCH  17  19
ATOM     19  C   UNL A   1      32.431  19.967  23.965  1.00  0.00     0.113 A 
ATOM     20  C   UNL A   1      34.051  16.676  23.025  1.00  0.00     0.044 C 
ATOM     21  C   UNL A   1      33.383  17.773  23.801  1.00  0.00    -0.047 A 
ATOM     22  C   UNL A   1      33.248  17.662  25.187  1.00  0.00     0.023 A 
ATOM     23  C   UNL A   1      32.975  18.957  23.176  1.00  0.00     0.036 A 
ATOM     24  C   UNL A   1      32.677  18.710  25.887  1.00  0.00     0.112 A 
ATOM     25  N   UNL A   1      32.250  19.848  25.307  1.00  0.00    -0.253 NA
ENDBRANCH  17  19
ENDBRANCH   8  17
BRANCH  16  26
ATOM     26  C   UNL A   1      32.519  28.233  26.199  1.00  0.00    -0.013 C 
ATOM     27  C   UNL A   1      32.297  29.044  24.906  1.00  0.00     0.016 C 
ATOM     28  C   UNL A   1      31.756  28.916  27.361  1.00  0.00     0.016 C 
ATOM     29  C   UNL A   1      34.021  28.307  26.545  1.00  0.00     0.016 C 
ENDBRANCH  16  26
ENDBRANCH   6   7
ENDBRANCH   4   6
ENDBRANCH   3   4
ENDBRANCH   2   3
ENDBRANCH   1   2
BRANCH   1  30
ATOM     30  O   UNL A   1      38.853  21.852  25.330  1.00  0.00    -0.374 OA
BRANCH  30  31
ATOM     31  C   UNL A   1      38.509  20.504  25.641  1.00  0.00     0.202 C 
BRANCH  31  32
ATOM     32  C   UNL A   1      39.548  19.424  25.305  1.00  0.00     0.261 C 
BRANCH  32  33
ATOM     33  O   UNL A   1      40.554  19.269  26.319  1.00  0.00    -0.460 OA
BRANCH  33  34
ATOM     34  C   UNL A   1      41.775  19.744  25.975  1.00  0.00     0.338 C 
ATOM     35  O   UNL A   1      42.583  19.251  25.200  1.00  0.00    -0.246 OA
BRANCH  34  36
ATOM     36  C   UNL A   1      41.960  21.081  26.558  1.00  0.00     0.060 A 
ATOM     37  C   UNL A   1      42.356  22.114  25.700  1.00  0.00     0.016 A 
ATOM     38  C   UNL A   1      41.786  21.310  27.924  1.00  0.00     0.016 A 
ATOM     39  C   UNL A   1      42.598  23.386  26.210  1.00  0.00     0.010 A 
ATOM     40  C   UNL A   1      42.046  22.582  28.437  1.00  0.00     0.010 A 
ATOM     41  C   UNL A   1      42.469  23.619  27.585  1.00  0.00    -0.014 A 
BRANCH  41  42
ATOM     42  C   UNL A   1      42.867  24.928  28.146  1.00  0.00     0.031 A 
ATOM     43  C   UNL A   1      41.812  25.967  28.398  1.00  0.00     0.074 A 
ATOM     44  C   UNL A   1      44.156  25.174  28.435  1.00  0.00     0.049 A 
ATOM     45  N   UNL A   1      41.944  27.189  28.843  1.00  0.00    -0.248 NA
ATOM     46  C   UNL A   1      40.422  25.577  28.107  1.00  0.00     0.031 C 
ATOM     47  C   UNL A   1      45.254  24.220  28.273  1.00  0.00     0.029 A 
ATOM     48  N   UNL A   1      44.761  26.304  28.923  1.00  0.00    -0.354 N 
ATOM     49  C   UNL A   1      40.660  27.718  28.877  1.00  0.00     0.074 A 
ATOM     50  C   UNL A   1      39.764  26.693  28.388  1.00  0.00     0.031 C 
ATOM     51  C   UNL A   1      46.402  24.808  28.653  1.00  0.00     0.029 A 
ATOM     52  C   UNL A   1      46.125  26.188  29.042  1.00  0.00     0.049 A 
ATOM     53  H   UNL A   1      44.265  27.119  29.163  1.00  0.00     0.167 HD
ATOM     54  C   UNL A   1      40.267  28.948  29.283  1.00  0.00     0.031 A 
ATOM     55  C   UNL A   1      47.043  27.104  29.402  1.00  0.00     0.031 A 
ATOM     56  C   UNL A   1      41.169  29.965  29.755  1.00  0.00     0.049 A 
ATOM     57  C   UNL A   1      46.585  28.493  29.758  1.00  0.00     0.074 A 
ATOM     58  C   UNL A   1      40.873  31.235  30.214  1.00  0.00     0.029 A 
ATOM     59  N   UNL A   1      42.548  29.828  29.812  1.00  0.00    -0.354 N 
ATOM     60  N   UNL A   1      45.366  28.969  29.827  1.00  0.00    -0.248 NA
ATOM     61  C   UNL A   1      47.633  29.471  30.085  1.00  0.00     0.031 C 
ATOM     62  C   UNL A   1      42.077  31.891  30.485  1.00  0.00     0.029 A 
ATOM     63  C   UNL A   1      43.120  31.007  30.258  1.00  0.00     0.049 A 
ATOM     64  H   UNL A   1      43.046  29.013  29.573  1.00  0.00     0.167 HD
ATOM     65  C   UNL A   1      45.496  30.294  30.225  1.00  0.00     0.074 A 
ATOM     66  C   UNL A   1      46.913  30.537  30.405  1.00  0.00     0.031 C 
ATOM     67  C   UNL A   1      44.534  31.228  30.422  1.00  0.00     0.031 A 
BRANCH  54  68
ATOM     68  C   UNL A   1      38.804  29.281  29.191  1.00  0.00    -0.014 A 
ATOM     69  C   UNL A   1      37.943  29.115  30.287  1.00  0.00     0.009 A 
ATOM     70  C   UNL A   1      38.290  29.818  27.999  1.00  0.00     0.009 A 
ATOM     71  C   UNL A   1      36.592  29.455  30.182  1.00  0.00     0.001 A 
ATOM     72  C   UNL A   1      36.946  30.182  27.906  1.00  0.00     0.001 A 
ATOM     73  C   UNL A   1      36.095  29.994  28.995  1.00  0.00     0.000 A 
ENDBRANCH  54  68
BRANCH  55  74
ATOM     74  C   UNL A   1      48.490  26.756  29.411  1.00  0.00    -0.014 A 
ATOM     75  C   UNL A   1      49.267  26.893  28.251  1.00  0.00     0.009 A 
ATOM     76  C   UNL A   1      49.095  26.255  30.575  1.00  0.00     0.009 A 
ATOM     77  C   UNL A   1      50.610  26.509  28.249  1.00  0.00     0.001 A 
ATOM     78  C   UNL A   1      50.447  25.903  30.580  1.00  0.00     0.001 A 
ATOM     79  C   UNL A   1      51.200  26.019  29.414  1.00  0.00     0.000 A 
ENDBRANCH  55  74
BRANCH  67  80
ATOM     80  C   UNL A   1      44.981  32.590  30.872  1.00  0.00    -0.014 A 
ATOM     81  C   UNL A   1      45.321  33.586  29.944  1.00  0.00     0.009 A 
ATOM     82  C   UNL A   1      45.021  32.892  32.242  1.00  0.00     0.009 A 
ATOM     83  C   UNL A   1      45.722  34.850  30.382  1.00  0.00     0.001 A 
ATOM     84  C   UNL A   1      45.391  34.166  32.675  1.00  0.00     0.001 A 
ATOM     85  C   UNL A   1      45.750  35.140  31.745  1.00  0.00     0.000 A 
ENDBRANCH  67  80
ENDBRANCH  41  42
ENDBRANCH  34  36
ENDBRANCH  33  34
ENDBRANCH  32  33
ENDBRANCH  31  32
ENDBRANCH  30  31
ENDBRANCH   1  30
TORSDOF 18
ENDMDL
MODEL 3
REMARK VINA RESULT:     -10.9      3.765      8.891
REMARK SMILES Cc1ccnc(C(=O)c2[nH]c3ccc(C(C)(C)C)cc3c2CC(=O)OCCOCCOC(=O)c2ccc(-c3c4nc(c(-c5ccccc5)c5ccc([nH]5)c(-c5ccccc5)c5nc(c(-c6ccccc6)c6ccc3[nH]6)C=C5)C=C4)cc2)c1
REMARK SMILES IDX 27 1 26 2 25 3 23 4 24 5 22 6 21 7 9 8 10 9 11 10 20 12
REMARK SMILES IDX 12 13 19 14 13 15 14 16 7 17 8 18 6 19 1 20 2 21 3 22 82 23
REMARK SMILES IDX 4 24 5 25 15 26 16 27 17 28 18 29 28 30 29 31 30 32 31 33
REMARK SMILES IDX 32 34 33 35 34 36 35 37 81 38 36 39 80 40 37 41 38 42 39 43
REMARK SMILES IDX 74 44 40 45 79 46 73 47 75 48 41 49 78 50 72 51 71 52 42 54
REMARK SMILES IDX 64 55 49 56 63 57 50 58 53 59 62 60 76 61 51 62 52 63 61 65
REMARK SMILES IDX 77 66 54 67 43 68 44 69 48 70 45 71 47 72 46 73 65 74 66 75
REMARK SMILES IDX 70 76 67 77 69 78 68 79 55 80 56 81 60 82 57 83 59 84 58 85
REMARK H PARENT 10 11 75 53 53 64
REMARK Flexibility Score: inf
ROOT
ATOM      1  C   UNL A   1      34.129  29.979  26.946  1.00  0.00     0.202 C 
ENDROOT
BRANCH   1   2
ATOM      2  C   UNL A   1      34.021  28.523  26.479  1.00  0.00     0.261 C 
BRANCH   2   3
ATOM      3  O   UNL A   1      33.049  27.757  27.224  1.00  0.00    -0.463 OA
BRANCH   3   4
ATOM      4  C   UNL A   1      32.012  27.272  26.486  1.00  0.00     0.310 C 
ATOM      5  O   UNL A   1      31.043  26.689  26.970  1.00  0.00    -0.252 OA
BRANCH   4   6
ATOM      6  C   UNL A   1      32.145  27.421  24.988  1.00  0.00     0.161 C 
BRANCH   6   7
ATOM      7  C   UNL A   1      31.786  26.263  24.093  1.00  0.00     0.000 A 
ATOM      8  C   UNL A   1      30.550  25.991  23.497  1.00  0.00     0.093 A 
ATOM      9  N   UNL A   1      30.711  24.826  22.772  1.00  0.00    -0.352 N 
ATOM     10  C   UNL A   1      31.880  24.194  23.133  1.00  0.00     0.046 A 
ATOM     11  H   UNL A   1      30.078  24.493  22.094  1.00  0.00     0.167 HD
ATOM     12  C   UNL A   1      32.580  25.082  23.937  1.00  0.00     0.004 A 
ATOM     13  C   UNL A   1      32.361  22.914  22.842  1.00  0.00     0.027 A 
ATOM     14  C   UNL A   1      33.801  24.662  24.499  1.00  0.00     0.015 A 
ATOM     15  C   UNL A   1      33.548  22.502  23.475  1.00  0.00     0.006 A 
ATOM     16  C   UNL A   1      34.269  23.344  24.335  1.00  0.00    -0.042 A 
BRANCH   8  17
ATOM     17  C   UNL A   1      29.330  26.782  23.617  1.00  0.00     0.227 C 
ATOM     18  O   UNL A   1      28.328  26.336  24.176  1.00  0.00    -0.285 OA
BRANCH  17  19
ATOM     19  C   UNL A   1      29.210  28.142  23.009  1.00  0.00     0.113 A 
ATOM     20  C   UNL A   1      27.405  31.432  23.511  1.00  0.00     0.044 C 
ATOM     21  C   UNL A   1      28.342  30.377  23.004  1.00  0.00    -0.047 A 
ATOM     22  C   UNL A   1      29.378  30.726  22.133  1.00  0.00     0.023 A 
ATOM     23  C   UNL A   1      28.262  29.057  23.461  1.00  0.00     0.036 A 
ATOM     24  C   UNL A   1      30.262  29.745  21.721  1.00  0.00     0.112 A 
ATOM     25  N   UNL A   1      30.190  28.461  22.123  1.00  0.00    -0.253 NA
ENDBRANCH  17  19
ENDBRANCH   8  17
BRANCH  16  26
ATOM     26  C   UNL A   1      35.483  22.881  25.160  1.00  0.00    -0.013 C 
ATOM     27  C   UNL A   1      35.010  22.119  26.416  1.00  0.00     0.016 C 
ATOM     28  C   UNL A   1      36.349  21.936  24.292  1.00  0.00     0.016 C 
ATOM     29  C   UNL A   1      36.403  24.027  25.628  1.00  0.00     0.016 C 
ENDBRANCH  16  26
ENDBRANCH   6   7
ENDBRANCH   4   6
ENDBRANCH   3   4
ENDBRANCH   2   3
ENDBRANCH   1   2
BRANCH   1  30
ATOM     30  O   UNL A   1      33.012  30.553  27.622  1.00  0.00    -0.374 OA
BRANCH  30  31
ATOM     31  C   UNL A   1      32.024  31.184  26.811  1.00  0.00     0.202 C 
BRANCH  31  32
ATOM     32  C   UNL A   1      31.593  32.602  27.212  1.00  0.00     0.261 C 
BRANCH  32  33
ATOM     33  O   UNL A   1      32.657  33.564  27.132  1.00  0.00    -0.460 OA
BRANCH  33  34
ATOM     34  C   UNL A   1      33.079  34.036  28.328  1.00  0.00     0.338 C 
ATOM     35  O   UNL A   1      32.471  34.753  29.110  1.00  0.00    -0.246 OA
BRANCH  34  36
ATOM     36  C   UNL A   1      34.370  33.420  28.669  1.00  0.00     0.060 A 
ATOM     37  C   UNL A   1      34.426  32.626  29.821  1.00  0.00     0.016 A 
ATOM     38  C   UNL A   1      35.510  33.646  27.897  1.00  0.00     0.016 A 
ATOM     39  C   UNL A   1      35.636  32.065  30.219  1.00  0.00     0.010 A 
ATOM     40  C   UNL A   1      36.726  33.096  28.307  1.00  0.00     0.010 A 
ATOM     41  C   UNL A   1      36.797  32.319  29.477  1.00  0.00    -0.014 A 
BRANCH  41  42
ATOM     42  C   UNL A   1      38.105  31.845  29.979  1.00  0.00     0.031 A 
ATOM     43  C   UNL A   1      38.650  30.539  29.477  1.00  0.00     0.074 A 
ATOM     44  C   UNL A   1      38.795  32.584  30.863  1.00  0.00     0.049 A 
ATOM     45  N   UNL A   1      39.751  29.919  29.814  1.00  0.00    -0.248 NA
ATOM     46  C   UNL A   1      37.847  29.836  28.462  1.00  0.00     0.031 C 
ATOM     47  C   UNL A   1      38.379  33.888  31.381  1.00  0.00     0.029 A 
ATOM     48  N   UNL A   1      39.992  32.341  31.487  1.00  0.00    -0.354 N 
ATOM     49  C   UNL A   1      39.770  28.751  29.062  1.00  0.00     0.074 A 
ATOM     50  C   UNL A   1      38.561  28.736  28.268  1.00  0.00     0.031 C 
ATOM     51  C   UNL A   1      39.307  34.330  32.247  1.00  0.00     0.029 A 
ATOM     52  C   UNL A   1      40.357  33.323  32.376  1.00  0.00     0.049 A 
ATOM     53  H   UNL A   1      40.537  31.540  31.314  1.00  0.00     0.167 HD
ATOM     54  C   UNL A   1      40.714  27.780  29.038  1.00  0.00     0.031 A 
ATOM     55  C   UNL A   1      41.408  33.384  33.215  1.00  0.00     0.031 A 
ATOM     56  C   UNL A   1      41.906  27.799  29.843  1.00  0.00     0.049 A 
ATOM     57  C   UNL A   1      42.392  32.245  33.233  1.00  0.00     0.074 A 
ATOM     58  C   UNL A   1      42.938  26.880  29.876  1.00  0.00     0.029 A 
ATOM     59  N   UNL A   1      42.214  28.784  30.769  1.00  0.00    -0.354 N 
ATOM     60  N   UNL A   1      42.422  31.166  32.489  1.00  0.00    -0.248 NA
ATOM     61  C   UNL A   1      43.487  32.334  34.210  1.00  0.00     0.031 C 
ATOM     62  C   UNL A   1      43.838  27.272  30.871  1.00  0.00     0.029 A 
ATOM     63  C   UNL A   1      43.400  28.472  31.411  1.00  0.00     0.049 A 
ATOM     64  H   UNL A   1      41.672  29.587  30.943  1.00  0.00     0.167 HD
ATOM     65  C   UNL A   1      43.547  30.458  32.891  1.00  0.00     0.074 A 
ATOM     66  C   UNL A   1      44.186  31.243  33.928  1.00  0.00     0.031 C 
ATOM     67  C   UNL A   1      44.012  29.264  32.446  1.00  0.00     0.031 A 
BRANCH  54  68
ATOM     68  C   UNL A   1      40.475  26.594  28.146  1.00  0.00    -0.014 A 
ATOM     69  C   UNL A   1      39.716  25.493  28.575  1.00  0.00     0.009 A 
ATOM     70  C   UNL A   1      40.977  26.601  26.835  1.00  0.00     0.009 A 
ATOM     71  C   UNL A   1      39.489  24.414  27.717  1.00  0.00     0.001 A 
ATOM     72  C   UNL A   1      40.725  25.535  25.971  1.00  0.00     0.001 A 
ATOM     73  C   UNL A   1      39.987  24.438  26.415  1.00  0.00     0.000 A 
ENDBRANCH  54  68
BRANCH  55  74
ATOM     74  C   UNL A   1      41.570  34.543  34.134  1.00  0.00    -0.014 A 
ATOM     75  C   UNL A   1      42.295  35.676  33.737  1.00  0.00     0.009 A 
ATOM     76  C   UNL A   1      41.024  34.509  35.427  1.00  0.00     0.009 A 
ATOM     77  C   UNL A   1      42.494  36.737  34.625  1.00  0.00     0.001 A 
ATOM     78  C   UNL A   1      41.197  35.584  36.302  1.00  0.00     0.001 A 
ATOM     79  C   UNL A   1      41.941  36.692  35.904  1.00  0.00     0.000 A 
ENDBRANCH  55  74
BRANCH  67  80
ATOM     80  C   UNL A   1      45.279  28.748  33.066  1.00  0.00    -0.014 A 
ATOM     81  C   UNL A   1      45.248  27.915  34.195  1.00  0.00     0.009 A 
ATOM     82  C   UNL A   1      46.518  29.064  32.487  1.00  0.00     0.009 A 
ATOM     83  C   UNL A   1      46.436  27.434  34.750  1.00  0.00     0.001 A 
ATOM     84  C   UNL A   1      47.701  28.555  33.024  1.00  0.00     0.001 A 
ATOM     85  C   UNL A   1      47.659  27.749  34.160  1.00  0.00     0.000 A 
ENDBRANCH  67  80
ENDBRANCH  41  42
ENDBRANCH  34  36
ENDBRANCH  33  34
ENDBRANCH  32  33
ENDBRANCH  31  32
ENDBRANCH  30  31
ENDBRANCH   1  30
TORSDOF 18
ENDMDL
