MODEL 1
REMARK VINA RESULT:     -10.5      0.000      0.000
REMARK SMILES COc1ccc(/C=C2/C(=O)N(c3ccccc3)C(=O)N=C2OCCOCCOC(=O)c2ccc(-c3c4nc(c(-c5ccccc5)c5ccc([nH]5)c(-c5ccccc5)c5nc(c(-c6ccccc6)c6ccc3[nH]6)C=C5)C=C4)cc2)cc1C(=O)[O-]
REMARK SMILES IDX 26 1 25 2 24 3 23 4 22 5 21 6 7 7 8 8 9 9 10 10 11 11 20 12
REMARK SMILES IDX 18 13 19 14 6 15 3 16 4 17 80 18 5 19 79 20 2 21 1 22 81 23
REMARK SMILES IDX 82 24 83 25 12 26 13 27 17 28 14 29 16 30 15 31 27 32 28 33
REMARK SMILES IDX 29 34 30 35 31 36 32 37 78 38 33 39 77 40 34 41 35 42 36 43
REMARK SMILES IDX 71 44 37 45 76 46 70 47 72 48 38 49 75 50 69 51 68 52 39 54
REMARK SMILES IDX 61 55 46 56 60 57 47 58 50 59 59 60 73 61 48 62 49 63 58 65
REMARK SMILES IDX 74 66 51 67 40 68 41 69 45 70 42 71 44 72 43 73 62 74 63 75
REMARK SMILES IDX 67 76 64 77 66 78 65 79 52 80 53 81 57 82 54 83 56 84 55 85
REMARK H PARENT 72 53 50 64
REMARK Flexibility Score: inf
ROOT
ATOM      1  C   UNL A   1      42.830  20.524  26.015  1.00  0.00     0.202 C 
ENDROOT
BRANCH   1   2
ATOM      2  O   UNL A   1      42.349  20.601  27.356  1.00  0.00    -0.374 OA
BRANCH   2   3
ATOM      3  C   UNL A   1      40.930  20.591  27.527  1.00  0.00     0.202 C 
BRANCH   3   4
ATOM      4  C   UNL A   1      40.144  20.499  26.215  1.00  0.00     0.260 C 
BRANCH   4   5
ATOM      5  O   UNL A   1      39.631  21.807  25.863  1.00  0.00    -0.475 OA
BRANCH   5   6
ATOM      6  C   UNL A   1      38.315  21.936  25.667  1.00  0.00     0.231 C 
ATOM      7  C   UNL A   1      38.385  24.437  26.324  1.00  0.00     0.027 C 
ATOM      8  C   UNL A   1      37.786  23.294  25.887  1.00  0.00     0.103 C 
ATOM      9  C   UNL A   1      36.280  23.368  25.691  1.00  0.00     0.272 C 
ATOM     10  O   UNL A   1      35.697  24.452  25.737  1.00  0.00    -0.268 OA
ATOM     11  N   UNL A   1      35.634  22.139  25.533  1.00  0.00    -0.226 N 
ATOM     12  N   UNL A   1      37.643  20.892  25.375  1.00  0.00    -0.156 NA
ATOM     13  C   UNL A   1      36.292  20.928  25.297  1.00  0.00     0.358 C 
ATOM     14  O   UNL A   1      35.700  19.893  25.002  1.00  0.00    -0.245 OA
BRANCH   7  15
ATOM     15  C   UNL A   1      39.737  24.918  26.770  1.00  0.00    -0.024 A 
ATOM     16  C   UNL A   1      42.277  26.038  27.516  1.00  0.00     0.127 A 
ATOM     17  C   UNL A   1      41.809  24.862  28.086  1.00  0.00     0.048 A 
ATOM     18  C   UNL A   1      41.523  26.627  26.503  1.00  0.00     0.040 A 
ATOM     19  C   UNL A   1      40.579  24.306  27.699  1.00  0.00     0.012 A 
ATOM     20  C   UNL A   1      40.251  26.094  26.172  1.00  0.00     0.022 A 
BRANCH  16  21
ATOM     21  O   UNL A   1      43.494  26.464  27.972  1.00  0.00    -0.496 OA
ATOM     22  C   UNL A   1      43.577  26.515  29.396  1.00  0.00     0.278 C 
ENDBRANCH  16  21
BRANCH  18  23
ATOM     23  C   UNL A   1      42.011  27.765  25.697  1.00  0.00     0.075 C 
ATOM     24  O   UNL A   1      42.584  27.681  24.626  1.00  0.00    -0.545 OA
ATOM     25  O   UNL A   1      41.850  28.944  26.323  1.00  0.00    -0.545 OA
ENDBRANCH  18  23
ENDBRANCH   7  15
BRANCH  11  26
ATOM     26  C   UNL A   1      34.206  22.082  25.489  1.00  0.00     0.054 A 
ATOM     27  C   UNL A   1      33.545  22.161  24.250  1.00  0.00     0.027 A 
ATOM     28  C   UNL A   1      33.454  22.116  26.667  1.00  0.00     0.027 A 
ATOM     29  C   UNL A   1      32.160  22.305  24.190  1.00  0.00     0.002 A 
ATOM     30  C   UNL A   1      32.068  22.292  26.603  1.00  0.00     0.002 A 
ATOM     31  C   UNL A   1      31.424  22.390  25.368  1.00  0.00     0.000 A 
ENDBRANCH  11  26
ENDBRANCH   5   6
ENDBRANCH   4   5
ENDBRANCH   3   4
ENDBRANCH   2   3
ENDBRANCH   1   2
BRANCH   1  32
ATOM     32  C   UNL A   1      43.317  21.846  25.418  1.00  0.00     0.261 C 
BRANCH  32  33
ATOM     33  O   UNL A   1      43.977  22.644  26.415  1.00  0.00    -0.460 OA
BRANCH  33  34
ATOM     34  C   UNL A   1      45.308  22.788  26.219  1.00  0.00     0.338 C 
ATOM     35  O   UNL A   1      46.096  21.942  25.835  1.00  0.00    -0.246 OA
BRANCH  34  36
ATOM     36  C   UNL A   1      45.685  24.202  26.388  1.00  0.00     0.060 A 
ATOM     37  C   UNL A   1      45.444  25.065  25.312  1.00  0.00     0.016 A 
ATOM     38  C   UNL A   1      46.340  24.657  27.533  1.00  0.00     0.016 A 
ATOM     39  C   UNL A   1      45.917  26.373  25.350  1.00  0.00     0.010 A 
ATOM     40  C   UNL A   1      46.823  25.968  27.563  1.00  0.00     0.010 A 
ATOM     41  C   UNL A   1      46.647  26.820  26.459  1.00  0.00    -0.014 A 
BRANCH  41  42
ATOM     42  C   UNL A   1      47.363  28.117  26.384  1.00  0.00     0.031 A 
ATOM     43  C   UNL A   1      48.849  28.118  26.154  1.00  0.00     0.074 A 
ATOM     44  C   UNL A   1      46.694  29.280  26.472  1.00  0.00     0.049 A 
ATOM     45  N   UNL A   1      49.669  29.132  26.032  1.00  0.00    -0.248 NA
ATOM     46  C   UNL A   1      49.501  26.801  26.054  1.00  0.00     0.031 C 
ATOM     47  C   UNL A   1      45.253  29.415  26.665  1.00  0.00     0.029 A 
ATOM     48  N   UNL A   1      47.148  30.573  26.404  1.00  0.00    -0.354 N 
ATOM     49  C   UNL A   1      50.928  28.575  25.845  1.00  0.00     0.074 A 
ATOM     50  C   UNL A   1      50.773  27.139  25.918  1.00  0.00     0.031 C 
ATOM     51  C   UNL A   1      44.935  30.721  26.690  1.00  0.00     0.029 A 
ATOM     52  C   UNL A   1      46.153  31.512  26.536  1.00  0.00     0.049 A 
ATOM     53  H   UNL A   1      48.095  30.806  26.273  1.00  0.00     0.167 HD
ATOM     54  C   UNL A   1      52.107  29.200  25.613  1.00  0.00     0.031 A 
ATOM     55  C   UNL A   1      46.219  32.855  26.531  1.00  0.00     0.031 A 
ATOM     56  C   UNL A   1      52.266  30.628  25.543  1.00  0.00     0.049 A 
ATOM     57  C   UNL A   1      47.551  33.528  26.332  1.00  0.00     0.074 A 
ATOM     58  C   UNL A   1      53.418  31.357  25.300  1.00  0.00     0.029 A 
ATOM     59  N   UNL A   1      51.241  31.544  25.717  1.00  0.00    -0.354 N 
ATOM     60  N   UNL A   1      48.729  32.990  26.128  1.00  0.00    -0.248 NA
ATOM     61  C   UNL A   1      47.555  34.998  26.348  1.00  0.00     0.031 C 
ATOM     62  C   UNL A   1      53.096  32.717  25.373  1.00  0.00     0.029 A 
ATOM     63  C   UNL A   1      51.735  32.833  25.607  1.00  0.00     0.049 A 
ATOM     64  H   UNL A   1      50.301  31.312  25.893  1.00  0.00     0.167 HD
ATOM     65  C   UNL A   1      49.607  34.053  25.957  1.00  0.00     0.074 A 
ATOM     66  C   UNL A   1      48.822  35.266  26.069  1.00  0.00     0.031 C 
ATOM     67  C   UNL A   1      50.942  34.029  25.723  1.00  0.00     0.031 A 
BRANCH  54  68
ATOM     68  C   UNL A   1      53.320  28.330  25.444  1.00  0.00    -0.014 A 
ATOM     69  C   UNL A   1      54.105  27.952  26.547  1.00  0.00     0.009 A 
ATOM     70  C   UNL A   1      53.684  27.879  24.167  1.00  0.00     0.009 A 
ATOM     71  C   UNL A   1      55.251  27.175  26.366  1.00  0.00     0.001 A 
ATOM     72  C   UNL A   1      54.813  27.077  23.993  1.00  0.00     0.001 A 
ATOM     73  C   UNL A   1      55.602  26.736  25.091  1.00  0.00     0.000 A 
ENDBRANCH  54  68
BRANCH  55  74
ATOM     74  C   UNL A   1      44.985  33.665  26.705  1.00  0.00    -0.014 A 
ATOM     75  C   UNL A   1      44.258  34.105  25.587  1.00  0.00     0.009 A 
ATOM     76  C   UNL A   1      44.541  34.022  27.988  1.00  0.00     0.009 A 
ATOM     77  C   UNL A   1      43.127  34.909  25.751  1.00  0.00     0.001 A 
ATOM     78  C   UNL A   1      43.396  34.804  28.148  1.00  0.00     0.001 A 
ATOM     79  C   UNL A   1      42.695  35.255  27.030  1.00  0.00     0.000 A 
ENDBRANCH  55  74
BRANCH  67  80
ATOM     80  C   UNL A   1      51.628  35.353  25.531  1.00  0.00    -0.014 A 
ATOM     81  C   UNL A   1      51.810  35.904  24.253  1.00  0.00     0.009 A 
ATOM     82  C   UNL A   1      52.078  36.068  26.651  1.00  0.00     0.009 A 
ATOM     83  C   UNL A   1      52.467  37.126  24.099  1.00  0.00     0.001 A 
ATOM     84  C   UNL A   1      52.709  37.304  26.497  1.00  0.00     0.001 A 
ATOM     85  C   UNL A   1      52.914  37.825  25.221  1.00  0.00     0.000 A 
ENDBRANCH  67  80
ENDBRANCH  41  42
ENDBRANCH  34  36
ENDBRANCH  33  34
ENDBRANCH  32  33
ENDBRANCH   1  32
TORSDOF 17
ENDMDL
MODEL 2
REMARK VINA RESULT:     -10.1      3.958      8.455
REMARK SMILES COc1ccc(/C=C2/C(=O)N(c3ccccc3)C(=O)N=C2OCCOCCOC(=O)c2ccc(-c3c4nc(c(-c5ccccc5)c5ccc([nH]5)c(-c5ccccc5)c5nc(c(-c6ccccc6)c6ccc3[nH]6)C=C5)C=C4)cc2)cc1C(=O)[O-]
REMARK SMILES IDX 26 1 25 2 24 3 23 4 22 5 21 6 7 7 8 8 9 9 10 10 11 11 20 12
REMARK SMILES IDX 18 13 19 14 6 15 3 16 4 17 80 18 5 19 79 20 2 21 1 22 81 23
REMARK SMILES IDX 82 24 83 25 12 26 13 27 17 28 14 29 16 30 15 31 27 32 28 33
REMARK SMILES IDX 29 34 30 35 31 36 32 37 78 38 33 39 77 40 34 41 35 42 36 43
REMARK SMILES IDX 71 44 37 45 76 46 70 47 72 48 38 49 75 50 69 51 68 52 39 54
REMARK SMILES IDX 61 55 46 56 60 57 47 58 50 59 59 60 73 61 48 62 49 63 58 65
REMARK SMILES IDX 74 66 51 67 40 68 41 69 45 70 42 71 44 72 43 73 62 74 63 75
REMARK SMILES IDX 67 76 64 77 66 78 65 79 52 80 53 81 57 82 54 83 56 84 55 85
REMARK H PARENT 72 53 50 64
REMARK Flexibility Score: inf
ROOT
ATOM      1  C   UNL A   1      39.187  22.135  26.797  1.00  0.00     0.202 C 
ENDROOT
BRANCH   1   2
ATOM      2  O   UNL A   1      39.341  23.485  26.363  1.00  0.00    -0.374 OA
BRANCH   2   3
ATOM      3  C   UNL A   1      38.263  24.039  25.604  1.00  0.00     0.202 C 
BRANCH   3   4
ATOM      4  C   UNL A   1      36.883  23.832  26.236  1.00  0.00     0.260 C 
BRANCH   4   5
ATOM      5  O   UNL A   1      35.874  23.786  25.197  1.00  0.00    -0.475 OA
BRANCH   5   6
ATOM      6  C   UNL A   1      35.297  22.610  24.931  1.00  0.00     0.231 C 
ATOM      7  C   UNL A   1      32.971  23.718  24.698  1.00  0.00     0.027 C 
ATOM      8  C   UNL A   1      33.851  22.677  24.660  1.00  0.00     0.103 C 
ATOM      9  C   UNL A   1      33.244  21.307  24.407  1.00  0.00     0.272 C 
ATOM     10  O   UNL A   1      32.066  21.198  24.065  1.00  0.00    -0.268 OA
ATOM     11  N   UNL A   1      34.087  20.221  24.659  1.00  0.00    -0.226 N 
ATOM     12  N   UNL A   1      36.015  21.558  24.994  1.00  0.00    -0.156 NA
ATOM     13  C   UNL A   1      35.465  20.327  24.869  1.00  0.00     0.358 C 
ATOM     14  O   UNL A   1      36.209  19.351  24.928  1.00  0.00    -0.245 OA
BRANCH   7  15
ATOM     15  C   UNL A   1      32.960  25.192  24.992  1.00  0.00    -0.024 A 
ATOM     16  C   UNL A   1      32.899  28.046  25.328  1.00  0.00     0.127 A 
ATOM     17  C   UNL A   1      32.860  27.187  26.418  1.00  0.00     0.048 A 
ATOM     18  C   UNL A   1      33.056  27.494  24.059  1.00  0.00     0.040 A 
ATOM     19  C   UNL A   1      32.915  25.795  26.249  1.00  0.00     0.012 A 
ATOM     20  C   UNL A   1      33.040  26.085  23.897  1.00  0.00     0.022 A 
BRANCH  16  21
ATOM     21  O   UNL A   1      32.851  29.378  25.632  1.00  0.00    -0.496 OA
ATOM     22  C   UNL A   1      33.764  29.754  26.663  1.00  0.00     0.278 C 
ENDBRANCH  16  21
BRANCH  18  23
ATOM     23  C   UNL A   1      33.302  28.311  22.853  1.00  0.00     0.075 C 
ATOM     24  O   UNL A   1      34.395  28.571  22.383  1.00  0.00    -0.545 OA
ATOM     25  O   UNL A   1      32.174  28.847  22.357  1.00  0.00    -0.545 OA
ENDBRANCH  18  23
ENDBRANCH   7  15
BRANCH  11  26
ATOM     26  C   UNL A   1      33.575  18.887  24.596  1.00  0.00     0.054 A 
ATOM     27  C   UNL A   1      32.953  18.328  25.728  1.00  0.00     0.027 A 
ATOM     28  C   UNL A   1      33.829  18.077  23.487  1.00  0.00     0.027 A 
ATOM     29  C   UNL A   1      32.623  16.974  25.762  1.00  0.00     0.002 A 
ATOM     30  C   UNL A   1      33.523  16.713  23.537  1.00  0.00     0.002 A 
ATOM     31  C   UNL A   1      32.927  16.163  24.673  1.00  0.00     0.000 A 
ENDBRANCH  11  26
ENDBRANCH   5   6
ENDBRANCH   4   5
ENDBRANCH   3   4
ENDBRANCH   2   3
ENDBRANCH   1   2
BRANCH   1  32
ATOM     32  C   UNL A   1      39.700  21.073  25.822  1.00  0.00     0.261 C 
BRANCH  32  33
ATOM     33  O   UNL A   1      40.547  20.127  26.496  1.00  0.00    -0.460 OA
BRANCH  33  34
ATOM     34  C   UNL A   1      41.811  20.076  26.017  1.00  0.00     0.338 C 
ATOM     35  O   UNL A   1      42.281  19.252  25.252  1.00  0.00    -0.246 OA
BRANCH  34  36
ATOM     36  C   UNL A   1      42.549  21.282  26.432  1.00  0.00     0.060 A 
ATOM     37  C   UNL A   1      42.649  21.534  27.805  1.00  0.00     0.016 A 
ATOM     38  C   UNL A   1      43.053  22.192  25.502  1.00  0.00     0.016 A 
ATOM     39  C   UNL A   1      43.197  22.731  28.256  1.00  0.00     0.010 A 
ATOM     40  C   UNL A   1      43.592  23.398  25.957  1.00  0.00     0.010 A 
ATOM     41  C   UNL A   1      43.632  23.690  27.332  1.00  0.00    -0.014 A 
BRANCH  41  42
ATOM     42  C   UNL A   1      43.972  25.054  27.804  1.00  0.00     0.031 A 
ATOM     43  C   UNL A   1      42.858  26.023  28.095  1.00  0.00     0.074 A 
ATOM     44  C   UNL A   1      45.250  25.413  28.019  1.00  0.00     0.049 A 
ATOM     45  N   UNL A   1      42.925  27.253  28.538  1.00  0.00    -0.248 NA
ATOM     46  C   UNL A   1      41.488  25.545  27.849  1.00  0.00     0.031 C 
ATOM     47  C   UNL A   1      46.415  24.559  27.804  1.00  0.00     0.029 A 
ATOM     48  N   UNL A   1      45.777  26.595  28.472  1.00  0.00    -0.354 N 
ATOM     49  C   UNL A   1      41.610  27.695  28.619  1.00  0.00     0.074 A 
ATOM     50  C   UNL A   1      40.771  26.621  28.134  1.00  0.00     0.031 C 
ATOM     51  C   UNL A   1      47.525  25.242  28.135  1.00  0.00     0.029 A 
ATOM     52  C   UNL A   1      47.148  26.586  28.565  1.00  0.00     0.049 A 
ATOM     53  H   UNL A   1      45.227  27.376  28.708  1.00  0.00     0.167 HD
ATOM     54  C   UNL A   1      41.138  28.879  29.074  1.00  0.00     0.031 A 
ATOM     55  C   UNL A   1      48.000  27.552  28.953  1.00  0.00     0.031 A 
ATOM     56  C   UNL A   1      41.968  29.951  29.553  1.00  0.00     0.049 A 
ATOM     57  C   UNL A   1      47.454  28.882  29.398  1.00  0.00     0.074 A 
ATOM     58  C   UNL A   1      41.583  31.186  30.047  1.00  0.00     0.029 A 
ATOM     59  N   UNL A   1      43.352  29.916  29.598  1.00  0.00    -0.354 N 
ATOM     60  N   UNL A   1      46.208  29.275  29.496  1.00  0.00    -0.248 NA
ATOM     61  C   UNL A   1      48.439  29.897  29.799  1.00  0.00     0.031 C 
ATOM     62  C   UNL A   1      42.740  31.915  30.348  1.00  0.00     0.029 A 
ATOM     63  C   UNL A   1      43.841  31.113  30.092  1.00  0.00     0.049 A 
ATOM     64  H   UNL A   1      43.906  29.151  29.319  1.00  0.00     0.167 HD
ATOM     65  C   UNL A   1      46.257  30.568  30.002  1.00  0.00     0.074 A 
ATOM     66  C   UNL A   1      47.656  30.887  30.202  1.00  0.00     0.031 C 
ATOM     67  C   UNL A   1      45.236  31.415  30.283  1.00  0.00     0.031 A 
BRANCH  54  68
ATOM     68  C   UNL A   1      39.648  29.078  29.046  1.00  0.00    -0.014 A 
ATOM     69  C   UNL A   1      38.854  28.789  30.168  1.00  0.00     0.009 A 
ATOM     70  C   UNL A   1      39.030  29.562  27.884  1.00  0.00     0.009 A 
ATOM     71  C   UNL A   1      37.467  28.942  30.112  1.00  0.00     0.001 A 
ATOM     72  C   UNL A   1      37.646  29.743  27.840  1.00  0.00     0.001 A 
ATOM     73  C   UNL A   1      36.866  29.422  28.950  1.00  0.00     0.000 A 
ENDBRANCH  54  68
BRANCH  55  74
ATOM     74  C   UNL A   1      49.465  27.299  28.958  1.00  0.00    -0.014 A 
ATOM     75  C   UNL A   1      50.238  27.566  27.817  1.00  0.00     0.009 A 
ATOM     76  C   UNL A   1      50.092  26.768  30.096  1.00  0.00     0.009 A 
ATOM     77  C   UNL A   1      51.605  27.279  27.807  1.00  0.00     0.001 A 
ATOM     78  C   UNL A   1      51.464  26.507  30.091  1.00  0.00     0.001 A 
ATOM     79  C   UNL A   1      52.218  26.754  28.944  1.00  0.00     0.000 A 
ENDBRANCH  55  74
BRANCH  67  80
ATOM     80  C   UNL A   1      45.595  32.749  30.875  1.00  0.00    -0.014 A 
ATOM     81  C   UNL A   1      45.824  33.872  30.064  1.00  0.00     0.009 A 
ATOM     82  C   UNL A   1      45.684  32.887  32.269  1.00  0.00     0.009 A 
ATOM     83  C   UNL A   1      46.176  35.095  30.636  1.00  0.00     0.001 A 
ATOM     84  C   UNL A   1      46.007  34.119  32.840  1.00  0.00     0.001 A 
ATOM     85  C   UNL A   1      46.264  35.218  32.023  1.00  0.00     0.000 A 
ENDBRANCH  67  80
ENDBRANCH  41  42
ENDBRANCH  34  36
ENDBRANCH  33  34
ENDBRANCH  32  33
ENDBRANCH   1  32
TORSDOF 17
ENDMDL
MODEL 3
REMARK VINA RESULT:     -10.1      2.566      4.099
REMARK SMILES COc1ccc(/C=C2/C(=O)N(c3ccccc3)C(=O)N=C2OCCOCCOC(=O)c2ccc(-c3c4nc(c(-c5ccccc5)c5ccc([nH]5)c(-c5ccccc5)c5nc(c(-c6ccccc6)c6ccc3[nH]6)C=C5)C=C4)cc2)cc1C(=O)[O-]
REMARK SMILES IDX 26 1 25 2 24 3 23 4 22 5 21 6 7 7 8 8 9 9 10 10 11 11 20 12
REMARK SMILES IDX 18 13 19 14 6 15 3 16 4 17 80 18 5 19 79 20 2 21 1 22 81 23
REMARK SMILES IDX 82 24 83 25 12 26 13 27 17 28 14 29 16 30 15 31 27 32 28 33
REMARK SMILES IDX 29 34 30 35 31 36 32 37 78 38 33 39 77 40 34 41 35 42 36 43
REMARK SMILES IDX 71 44 37 45 76 46 70 47 72 48 38 49 75 50 69 51 68 52 39 54
REMARK SMILES IDX 61 55 46 56 60 57 47 58 50 59 59 60 73 61 48 62 49 63 58 65
REMARK SMILES IDX 74 66 51 67 40 68 41 69 45 70 42 71 44 72 43 73 62 74 63 75
REMARK SMILES IDX 67 76 64 77 66 78 65 79 52 80 53 81 57 82 54 83 56 84 55 85
REMARK H PARENT 72 53 50 64
REMARK Flexibility Score: inf
ROOT
ATOM      1  C   UNL A   1      40.239  23.329  27.498  1.00  0.00     0.202 C 
ENDROOT
BRANCH   1   2
ATOM      2  O   UNL A   1      39.149  24.213  27.240  1.00  0.00    -0.374 OA
BRANCH   2   3
ATOM      3  C   UNL A   1      38.391  23.963  26.054  1.00  0.00     0.202 C 
BRANCH   3   4
ATOM      4  C   UNL A   1      36.890  23.780  26.299  1.00  0.00     0.260 C 
BRANCH   4   5
ATOM      5  O   UNL A   1      36.208  23.613  25.031  1.00  0.00    -0.475 OA
BRANCH   5   6
ATOM      6  C   UNL A   1      35.575  22.457  24.805  1.00  0.00     0.231 C 
ATOM      7  C   UNL A   1      33.308  23.671  24.511  1.00  0.00     0.027 C 
ATOM      8  C   UNL A   1      34.135  22.587  24.519  1.00  0.00     0.103 C 
ATOM      9  C   UNL A   1      33.461  21.240  24.314  1.00  0.00     0.272 C 
ATOM     10  O   UNL A   1      32.282  21.177  23.966  1.00  0.00    -0.268 OA
ATOM     11  N   UNL A   1      34.247  20.124  24.614  1.00  0.00    -0.226 N 
ATOM     12  N   UNL A   1      36.237  21.374  24.914  1.00  0.00    -0.156 NA
ATOM     13  C   UNL A   1      35.628  20.168  24.831  1.00  0.00     0.358 C 
ATOM     14  O   UNL A   1      36.321  19.159  24.934  1.00  0.00    -0.245 OA
BRANCH   7  15
ATOM     15  C   UNL A   1      33.370  25.154  24.749  1.00  0.00    -0.024 A 
ATOM     16  C   UNL A   1      33.411  28.018  24.986  1.00  0.00     0.127 A 
ATOM     17  C   UNL A   1      33.537  27.197  26.098  1.00  0.00     0.048 A 
ATOM     18  C   UNL A   1      33.350  27.420  23.728  1.00  0.00     0.040 A 
ATOM     19  C   UNL A   1      33.541  25.799  25.973  1.00  0.00     0.012 A 
ATOM     20  C   UNL A   1      33.284  26.007  23.623  1.00  0.00     0.022 A 
BRANCH  16  21
ATOM     21  O   UNL A   1      33.436  29.360  25.244  1.00  0.00    -0.496 OA
ATOM     22  C   UNL A   1      32.202  29.857  25.764  1.00  0.00     0.278 C 
ENDBRANCH  16  21
BRANCH  18  23
ATOM     23  C   UNL A   1      33.408  28.192  22.470  1.00  0.00     0.075 C 
ATOM     24  O   UNL A   1      34.318  28.160  21.661  1.00  0.00    -0.545 OA
ATOM     25  O   UNL A   1      32.374  29.040  22.338  1.00  0.00    -0.545 OA
ENDBRANCH  18  23
ENDBRANCH   7  15
BRANCH  11  26
ATOM     26  C   UNL A   1      33.669  18.816  24.598  1.00  0.00     0.054 A 
ATOM     27  C   UNL A   1      32.984  18.345  25.733  1.00  0.00     0.027 A 
ATOM     28  C   UNL A   1      33.915  17.940  23.537  1.00  0.00     0.027 A 
ATOM     29  C   UNL A   1      32.584  17.013  25.821  1.00  0.00     0.002 A 
ATOM     30  C   UNL A   1      33.538  16.597  23.642  1.00  0.00     0.002 A 
ATOM     31  C   UNL A   1      32.878  16.135  24.782  1.00  0.00     0.000 A 
ENDBRANCH  11  26
ENDBRANCH   5   6
ENDBRANCH   4   5
ENDBRANCH   3   4
ENDBRANCH   2   3
ENDBRANCH   1   2
BRANCH   1  32
ATOM     32  C   UNL A   1      41.534  23.652  26.750  1.00  0.00     0.261 C 
BRANCH  32  33
ATOM     33  O   UNL A   1      42.635  22.899  27.286  1.00  0.00    -0.460 OA
BRANCH  33  34
ATOM     34  C   UNL A   1      43.784  23.021  26.582  1.00  0.00     0.338 C 
ATOM     35  O   UNL A   1      44.319  22.177  25.884  1.00  0.00    -0.246 OA
BRANCH  34  36
ATOM     36  C   UNL A   1      44.258  24.415  26.643  1.00  0.00     0.060 A 
ATOM     37  C   UNL A   1      44.391  25.101  25.430  1.00  0.00     0.016 A 
ATOM     38  C   UNL A   1      44.650  25.008  27.843  1.00  0.00     0.016 A 
ATOM     39  C   UNL A   1      44.978  26.363  25.404  1.00  0.00     0.010 A 
ATOM     40  C   UNL A   1      45.249  26.270  27.813  1.00  0.00     0.010 A 
ATOM     41  C   UNL A   1      45.451  26.936  26.592  1.00  0.00    -0.014 A 
BRANCH  41  42
ATOM     42  C   UNL A   1      46.298  28.152  26.526  1.00  0.00     0.031 A 
ATOM     43  C   UNL A   1      47.775  27.998  26.286  1.00  0.00     0.074 A 
ATOM     44  C   UNL A   1      45.757  29.378  26.630  1.00  0.00     0.049 A 
ATOM     45  N   UNL A   1      48.696  28.922  26.169  1.00  0.00    -0.248 NA
ATOM     46  C   UNL A   1      48.284  26.622  26.168  1.00  0.00     0.031 C 
ATOM     47  C   UNL A   1      44.338  29.662  26.835  1.00  0.00     0.029 A 
ATOM     48  N   UNL A   1      46.343  30.617  26.573  1.00  0.00    -0.354 N 
ATOM     49  C   UNL A   1      49.889  28.238  25.968  1.00  0.00     0.074 A 
ATOM     50  C   UNL A   1      49.584  26.826  26.028  1.00  0.00     0.031 C 
ATOM     51  C   UNL A   1      44.160  30.994  26.875  1.00  0.00     0.029 A 
ATOM     52  C   UNL A   1      45.454  31.653  26.721  1.00  0.00     0.049 A 
ATOM     53  H   UNL A   1      47.309  30.750  26.438  1.00  0.00     0.167 HD
ATOM     54  C   UNL A   1      51.126  28.738  25.735  1.00  0.00     0.031 A 
ATOM     55  C   UNL A   1      45.661  32.982  26.730  1.00  0.00     0.031 A 
ATOM     56  C   UNL A   1      51.434  30.141  25.678  1.00  0.00     0.049 A 
ATOM     57  C   UNL A   1      47.055  33.514  26.528  1.00  0.00     0.074 A 
ATOM     58  C   UNL A   1      52.655  30.748  25.435  1.00  0.00     0.029 A 
ATOM     59  N   UNL A   1      50.513  31.158  25.868  1.00  0.00    -0.354 N 
ATOM     60  N   UNL A   1      48.168  32.856  26.311  1.00  0.00    -0.248 NA
ATOM     61  C   UNL A   1      47.214  34.974  26.560  1.00  0.00     0.031 C 
ATOM     62  C   UNL A   1      52.478  32.133  25.524  1.00  0.00     0.029 A 
ATOM     63  C   UNL A   1      51.139  32.389  25.768  1.00  0.00     0.049 A 
ATOM     64  H   UNL A   1      49.554  31.025  26.049  1.00  0.00     0.167 HD
ATOM     65  C   UNL A   1      49.153  33.823  26.145  1.00  0.00     0.074 A 
ATOM     66  C   UNL A   1      48.501  35.110  26.275  1.00  0.00     0.031 C 
ATOM     67  C   UNL A   1      50.476  33.661  25.902  1.00  0.00     0.031 A 
BRANCH  54  68
ATOM     68  C   UNL A   1      52.240  27.747  25.549  1.00  0.00    -0.014 A 
ATOM     69  C   UNL A   1      52.554  27.234  24.279  1.00  0.00     0.009 A 
ATOM     70  C   UNL A   1      52.987  27.320  26.657  1.00  0.00     0.009 A 
ATOM     71  C   UNL A   1      53.567  26.284  24.130  1.00  0.00     0.001 A 
ATOM     72  C   UNL A   1      54.019  26.393  26.500  1.00  0.00     0.001 A 
ATOM     73  C   UNL A   1      54.300  25.868  25.240  1.00  0.00     0.000 A 
ENDBRANCH  54  68
BRANCH  55  74
ATOM     74  C   UNL A   1      44.520  33.916  26.920  1.00  0.00    -0.014 A 
ATOM     75  C   UNL A   1      43.840  34.445  25.812  1.00  0.00     0.009 A 
ATOM     76  C   UNL A   1      44.121  34.300  28.210  1.00  0.00     0.009 A 
ATOM     77  C   UNL A   1      42.802  35.362  25.991  1.00  0.00     0.001 A 
ATOM     78  C   UNL A   1      43.065  35.196  28.386  1.00  0.00     0.001 A 
ATOM     79  C   UNL A   1      42.413  35.734  27.277  1.00  0.00     0.000 A 
ENDBRANCH  55  74
BRANCH  67  80
ATOM     80  C   UNL A   1      51.297  34.907  25.719  1.00  0.00    -0.014 A 
ATOM     81  C   UNL A   1      51.430  35.518  24.462  1.00  0.00     0.009 A 
ATOM     82  C   UNL A   1      51.928  35.490  26.829  1.00  0.00     0.009 A 
ATOM     83  C   UNL A   1      52.214  36.664  24.314  1.00  0.00     0.001 A 
ATOM     84  C   UNL A   1      52.686  36.653  26.684  1.00  0.00     0.001 A 
ATOM     85  C   UNL A   1      52.839  37.231  25.425  1.00  0.00     0.000 A 
ENDBRANCH  67  80
ENDBRANCH  41  42
ENDBRANCH  34  36
ENDBRANCH  33  34
ENDBRANCH  32  33
ENDBRANCH   1  32
TORSDOF 17
ENDMDL
