MODEL 1
REMARK VINA RESULT:      -8.1      0.000      0.000
REMARK SMILES Cc1[nH]c2ccccc2c1/C=C1/SC(=S)N(c2cccc(C(=O)OCCOCCOC(=O)c3ccc(-c4c5nc(c(-c6ccccc6)c6ccc([nH]6)c(-c6ccccc6)c6nc(c(-c7ccccc7)c7ccc4[nH]7)C=C6)C=C5)cc3)c2)C1=O
REMARK SMILES IDX 27 1 26 2 25 3 24 4 22 5 23 6 21 7 17 8 18 9 81 10 19 11
REMARK SMILES IDX 20 12 16 13 11 14 12 15 13 16 82 17 14 18 83 19 15 20 10 21
REMARK SMILES IDX 1 22 2 23 3 24 4 25 9 27 5 28 8 29 6 30 7 31 28 32 29 33
REMARK SMILES IDX 30 34 31 35 32 36 33 37 34 38 80 39 35 40 79 41 36 42 37 43
REMARK SMILES IDX 38 44 73 45 39 46 78 47 72 48 74 49 40 50 77 51 71 52 70 53
REMARK SMILES IDX 41 55 63 56 48 57 62 58 49 59 52 60 61 61 75 62 50 63 51 64
REMARK SMILES IDX 60 66 76 67 53 68 42 69 43 70 47 71 44 72 46 73 45 74 64 75
REMARK SMILES IDX 65 76 69 77 66 78 68 79 67 80 54 81 55 82 59 83 56 84 58 85
REMARK SMILES IDX 57 86
REMARK H PARENT 3 26 74 54 52 65
REMARK Flexibility Score: inf
ROOT
ATOM      1  O   UNL A   1      44.623  20.825  25.609  1.00  0.00    -0.374 OA
ENDROOT
BRANCH   1   2
ATOM      2  C   UNL A   1      45.025  21.317  24.331  1.00  0.00     0.202 C 
BRANCH   2   3
ATOM      3  C   UNL A   1      46.215  22.282  24.321  1.00  0.00     0.261 C 
BRANCH   3   4
ATOM      4  O   UNL A   1      46.366  22.935  25.594  1.00  0.00    -0.460 OA
BRANCH   4   5
ATOM      5  C   UNL A   1      46.655  24.256  25.529  1.00  0.00     0.338 C 
ATOM      6  O   UNL A   1      46.836  24.921  24.519  1.00  0.00    -0.246 OA
BRANCH   5   7
ATOM      7  C   UNL A   1      46.529  24.864  26.872  1.00  0.00     0.062 A 
ATOM      8  C   UNL A   1      46.982  26.618  28.499  1.00  0.00     0.051 A 
ATOM      9  C   UNL A   1      46.283  25.854  29.454  1.00  0.00     0.027 A 
ATOM     10  C   UNL A   1      47.121  26.092  27.204  1.00  0.00     0.042 A 
ATOM     11  C   UNL A   1      45.709  24.624  29.127  1.00  0.00     0.003 A 
ATOM     12  C   UNL A   1      45.820  24.136  27.834  1.00  0.00     0.016 A 
BRANCH   8  13
ATOM     13  N   UNL A   1      47.544  27.886  28.876  1.00  0.00    -0.261 N 
ATOM     14  C   UNL A   1      47.087  31.505  29.287  1.00  0.00     0.032 C 
ATOM     15  C   UNL A   1      47.529  30.240  29.205  1.00  0.00     0.081 C 
ATOM     16  S   UNL A   1      49.130  29.786  29.641  1.00  0.00    -0.054 SA
ATOM     17  C   UNL A   1      46.758  29.038  28.771  1.00  0.00     0.270 C 
ATOM     18  C   UNL A   1      48.851  28.077  29.306  1.00  0.00     0.152 C 
ATOM     19  O   UNL A   1      45.589  29.080  28.411  1.00  0.00    -0.268 OA
ATOM     20  S   UNL A   1      50.123  26.994  29.427  1.00  0.00    -0.051 S 
BRANCH  14  21
ATOM     21  C   UNL A   1      45.759  31.955  29.029  1.00  0.00     0.004 A 
ATOM     22  C   UNL A   1      45.964  32.562  26.484  1.00  0.00     0.065 C 
ATOM     23  C   UNL A   1      45.302  32.407  27.804  1.00  0.00     0.020 A 
ATOM     24  N   UNL A   1      43.998  32.798  27.986  1.00  0.00    -0.358 N 
ATOM     25  C   UNL A   1      43.596  32.573  29.282  1.00  0.00     0.046 A 
ATOM     26  H   UNL A   1      43.428  33.186  27.284  1.00  0.00     0.166 HD
ATOM     27  C   UNL A   1      44.681  32.018  29.960  1.00  0.00     0.007 A 
ATOM     28  C   UNL A   1      42.365  32.828  29.897  1.00  0.00     0.027 A 
ATOM     29  C   UNL A   1      44.522  31.687  31.323  1.00  0.00     0.011 A 
ATOM     30  C   UNL A   1      42.236  32.498  31.249  1.00  0.00     0.002 A 
ATOM     31  C   UNL A   1      43.296  31.931  31.953  1.00  0.00     0.001 A 
ENDBRANCH  14  21
ENDBRANCH   8  13
ENDBRANCH   5   7
ENDBRANCH   4   5
ENDBRANCH   3   4
ENDBRANCH   2   3
ENDBRANCH   1   2
BRANCH   1  32
ATOM     32  C   UNL A   1      43.220  20.683  25.839  1.00  0.00     0.202 C 
BRANCH  32  33
ATOM     33  C   UNL A   1      42.376  21.955  25.694  1.00  0.00     0.261 C 
BRANCH  33  34
ATOM     34  O   UNL A   1      42.856  23.018  26.536  1.00  0.00    -0.460 OA
BRANCH  34  35
ATOM     35  C   UNL A   1      42.940  24.223  25.926  1.00  0.00     0.338 C 
ATOM     36  O   UNL A   1      43.302  24.453  24.781  1.00  0.00    -0.246 OA
BRANCH  35  37
ATOM     37  C   UNL A   1      42.366  25.271  26.791  1.00  0.00     0.060 A 
ATOM     38  C   UNL A   1      43.092  26.461  26.925  1.00  0.00     0.016 A 
ATOM     39  C   UNL A   1      41.194  25.066  27.522  1.00  0.00     0.016 A 
ATOM     40  C   UNL A   1      42.686  27.424  27.844  1.00  0.00     0.010 A 
ATOM     41  C   UNL A   1      40.789  26.035  28.448  1.00  0.00     0.010 A 
ATOM     42  C   UNL A   1      41.560  27.195  28.645  1.00  0.00    -0.014 A 
BRANCH  42  43
ATOM     43  C   UNL A   1      41.295  28.093  29.795  1.00  0.00     0.031 A 
ATOM     44  C   UNL A   1      40.152  29.068  29.712  1.00  0.00     0.074 A 
ATOM     45  C   UNL A   1      42.028  28.010  30.919  1.00  0.00     0.049 A 
ATOM     46  N   UNL A   1      39.729  29.930  30.601  1.00  0.00    -0.248 NA
ATOM     47  C   UNL A   1      39.381  29.072  28.457  1.00  0.00     0.031 C 
ATOM     48  C   UNL A   1      43.132  27.077  31.144  1.00  0.00     0.029 A 
ATOM     49  N   UNL A   1      41.944  28.723  32.089  1.00  0.00    -0.354 N 
ATOM     50  C   UNL A   1      38.655  30.586  30.010  1.00  0.00     0.074 A 
ATOM     51  C   UNL A   1      38.509  30.044  28.677  1.00  0.00     0.031 C 
ATOM     52  C   UNL A   1      43.618  27.269  32.382  1.00  0.00     0.029 A 
ATOM     53  C   UNL A   1      42.882  28.358  33.022  1.00  0.00     0.049 A 
ATOM     54  H   UNL A   1      41.276  29.428  32.243  1.00  0.00     0.167 HD
ATOM     55  C   UNL A   1      37.856  31.548  30.531  1.00  0.00     0.031 A 
ATOM     56  C   UNL A   1      43.125  28.853  34.251  1.00  0.00     0.031 A 
ATOM     57  C   UNL A   1      38.001  32.091  31.856  1.00  0.00     0.049 A 
ATOM     58  C   UNL A   1      42.267  29.972  34.780  1.00  0.00     0.074 A 
ATOM     59  C   UNL A   1      37.223  33.047  32.485  1.00  0.00     0.029 A 
ATOM     60  N   UNL A   1      38.995  31.729  32.752  1.00  0.00    -0.354 N 
ATOM     61  N   UNL A   1      41.234  30.559  34.225  1.00  0.00    -0.248 NA
ATOM     62  C   UNL A   1      42.608  30.489  36.114  1.00  0.00     0.031 C 
ATOM     63  C   UNL A   1      37.785  33.309  33.740  1.00  0.00     0.029 A 
ATOM     64  C   UNL A   1      38.872  32.468  33.916  1.00  0.00     0.049 A 
ATOM     65  H   UNL A   1      39.686  31.048  32.584  1.00  0.00     0.167 HD
ATOM     66  C   UNL A   1      40.780  31.487  35.154  1.00  0.00     0.074 A 
ATOM     67  C   UNL A   1      41.644  31.377  36.313  1.00  0.00     0.031 C 
ATOM     68  C   UNL A   1      39.738  32.349  35.060  1.00  0.00     0.031 A 
BRANCH  55  69
ATOM     69  C   UNL A   1      36.776  32.104  29.645  1.00  0.00    -0.014 A 
ATOM     70  C   UNL A   1      35.485  31.553  29.627  1.00  0.00     0.009 A 
ATOM     71  C   UNL A   1      37.051  33.215  28.832  1.00  0.00     0.009 A 
ATOM     72  C   UNL A   1      34.503  32.081  28.784  1.00  0.00     0.001 A 
ATOM     73  C   UNL A   1      36.060  33.759  28.014  1.00  0.00     0.001 A 
ATOM     74  C   UNL A   1      34.790  33.185  27.982  1.00  0.00     0.000 A 
ENDBRANCH  55  69
BRANCH  56  75
ATOM     75  C   UNL A   1      44.232  28.299  35.074  1.00  0.00    -0.014 A 
ATOM     76  C   UNL A   1      45.530  28.823  34.970  1.00  0.00     0.009 A 
ATOM     77  C   UNL A   1      44.002  27.226  35.949  1.00  0.00     0.009 A 
ATOM     78  C   UNL A   1      46.578  28.268  35.708  1.00  0.00     0.001 A 
ATOM     79  C   UNL A   1      45.046  26.692  36.706  1.00  0.00     0.001 A 
ATOM     80  C   UNL A   1      46.334  27.207  36.578  1.00  0.00     0.000 A 
ENDBRANCH  56  75
BRANCH  68  81
ATOM     81  C   UNL A   1      39.446  33.211  36.258  1.00  0.00    -0.014 A 
ATOM     82  C   UNL A   1      38.604  32.771  37.291  1.00  0.00     0.009 A 
ATOM     83  C   UNL A   1      40.054  34.472  36.367  1.00  0.00     0.009 A 
ATOM     84  C   UNL A   1      38.346  33.594  38.389  1.00  0.00     0.001 A 
ATOM     85  C   UNL A   1      39.818  35.279  37.481  1.00  0.00     0.001 A 
ATOM     86  C   UNL A   1      38.956  34.844  38.487  1.00  0.00     0.000 A 
ENDBRANCH  68  81
ENDBRANCH  42  43
ENDBRANCH  35  37
ENDBRANCH  34  35
ENDBRANCH  33  34
ENDBRANCH  32  33
ENDBRANCH   1  32
TORSDOF 16
ENDMDL
MODEL 2
REMARK VINA RESULT:      -8.0      3.947     10.894
REMARK SMILES Cc1[nH]c2ccccc2c1/C=C1/SC(=S)N(c2cccc(C(=O)OCCOCCOC(=O)c3ccc(-c4c5nc(c(-c6ccccc6)c6ccc([nH]6)c(-c6ccccc6)c6nc(c(-c7ccccc7)c7ccc4[nH]7)C=C6)C=C5)cc3)c2)C1=O
REMARK SMILES IDX 27 1 26 2 25 3 24 4 22 5 23 6 21 7 17 8 18 9 81 10 19 11
REMARK SMILES IDX 20 12 16 13 11 14 12 15 13 16 82 17 14 18 83 19 15 20 10 21
REMARK SMILES IDX 1 22 2 23 3 24 4 25 9 27 5 28 8 29 6 30 7 31 28 32 29 33
REMARK SMILES IDX 30 34 31 35 32 36 33 37 34 38 80 39 35 40 79 41 36 42 37 43
REMARK SMILES IDX 38 44 73 45 39 46 78 47 72 48 74 49 40 50 77 51 71 52 70 53
REMARK SMILES IDX 41 55 63 56 48 57 62 58 49 59 52 60 61 61 75 62 50 63 51 64
REMARK SMILES IDX 60 66 76 67 53 68 42 69 43 70 47 71 44 72 46 73 45 74 64 75
REMARK SMILES IDX 65 76 69 77 66 78 68 79 67 80 54 81 55 82 59 83 56 84 58 85
REMARK SMILES IDX 57 86
REMARK H PARENT 3 26 74 54 52 65
REMARK Flexibility Score: inf
ROOT
ATOM      1  O   UNL A   1      33.303  34.552  30.854  1.00  0.00    -0.374 OA
ENDROOT
BRANCH   1   2
ATOM      2  C   UNL A   1      33.885  35.514  31.733  1.00  0.00     0.202 C 
BRANCH   2   3
ATOM      3  C   UNL A   1      34.604  34.957  32.966  1.00  0.00     0.261 C 
BRANCH   3   4
ATOM      4  O   UNL A   1      36.002  35.296  32.950  1.00  0.00    -0.460 OA
BRANCH   4   5
ATOM      5  C   UNL A   1      36.790  34.511  33.722  1.00  0.00     0.338 C 
ATOM      6  O   UNL A   1      36.461  33.907  34.733  1.00  0.00    -0.246 OA
BRANCH   5   7
ATOM      7  C   UNL A   1      38.099  34.309  33.062  1.00  0.00     0.062 A 
ATOM      8  C   UNL A   1      40.476  33.787  33.098  1.00  0.00     0.051 A 
ATOM      9  C   UNL A   1      40.509  34.041  31.713  1.00  0.00     0.027 A 
ATOM     10  C   UNL A   1      39.256  33.952  33.772  1.00  0.00     0.042 A 
ATOM     11  C   UNL A   1      39.361  34.412  31.011  1.00  0.00     0.003 A 
ATOM     12  C   UNL A   1      38.154  34.533  31.683  1.00  0.00     0.016 A 
BRANCH   8  13
ATOM     13  N   UNL A   1      41.679  33.392  33.778  1.00  0.00    -0.261 N 
ATOM     14  C   UNL A   1      43.927  30.687  34.829  1.00  0.00     0.032 C 
ATOM     15  C   UNL A   1      43.283  31.842  34.602  1.00  0.00     0.081 C 
ATOM     16  S   UNL A   1      43.882  33.361  35.141  1.00  0.00    -0.054 SA
ATOM     17  C   UNL A   1      42.005  32.034  33.855  1.00  0.00     0.270 C 
ATOM     18  C   UNL A   1      42.550  34.264  34.420  1.00  0.00     0.152 C 
ATOM     19  O   UNL A   1      41.368  31.114  33.359  1.00  0.00    -0.268 OA
ATOM     20  S   UNL A   1      42.441  35.916  34.671  1.00  0.00    -0.051 S 
BRANCH  14  21
ATOM     21  C   UNL A   1      43.549  29.398  34.349  1.00  0.00     0.004 A 
ATOM     22  C   UNL A   1      41.535  28.882  35.951  1.00  0.00     0.065 C 
ATOM     23  C   UNL A   1      42.508  28.642  34.855  1.00  0.00     0.020 A 
ATOM     24  N   UNL A   1      42.509  27.453  34.165  1.00  0.00    -0.358 N 
ATOM     25  C   UNL A   1      43.496  27.445  33.206  1.00  0.00     0.046 A 
ATOM     26  H   UNL A   1      41.888  26.708  34.333  1.00  0.00     0.166 HD
ATOM     27  C   UNL A   1      44.155  28.672  33.282  1.00  0.00     0.007 A 
ATOM     28  C   UNL A   1      43.854  26.446  32.295  1.00  0.00     0.027 A 
ATOM     29  C   UNL A   1      45.220  28.918  32.390  1.00  0.00     0.011 A 
ATOM     30  C   UNL A   1      44.916  26.711  31.425  1.00  0.00     0.002 A 
ATOM     31  C   UNL A   1      45.588  27.930  31.467  1.00  0.00     0.001 A 
ENDBRANCH  14  21
ENDBRANCH   8  13
ENDBRANCH   5   7
ENDBRANCH   4   5
ENDBRANCH   3   4
ENDBRANCH   2   3
ENDBRANCH   1   2
BRANCH   1  32
ATOM     32  C   UNL A   1      33.964  34.327  29.607  1.00  0.00     0.202 C 
BRANCH  32  33
ATOM     33  C   UNL A   1      35.344  33.664  29.678  1.00  0.00     0.261 C 
BRANCH  33  34
ATOM     34  O   UNL A   1      35.248  32.231  29.773  1.00  0.00    -0.460 OA
BRANCH  34  35
ATOM     35  C   UNL A   1      35.903  31.693  30.827  1.00  0.00     0.338 C 
ATOM     36  O   UNL A   1      35.594  31.764  32.008  1.00  0.00    -0.246 OA
BRANCH  35  37
ATOM     37  C   UNL A   1      37.002  30.830  30.356  1.00  0.00     0.060 A 
ATOM     38  C   UNL A   1      37.832  30.259  31.329  1.00  0.00     0.016 A 
ATOM     39  C   UNL A   1      37.272  30.652  28.997  1.00  0.00     0.016 A 
ATOM     40  C   UNL A   1      38.976  29.565  30.948  1.00  0.00     0.010 A 
ATOM     41  C   UNL A   1      38.425  29.956  28.616  1.00  0.00     0.010 A 
ATOM     42  C   UNL A   1      39.305  29.451  29.590  1.00  0.00    -0.014 A 
BRANCH  42  43
ATOM     43  C   UNL A   1      40.649  28.952  29.211  1.00  0.00     0.031 A 
ATOM     44  C   UNL A   1      41.825  29.888  29.296  1.00  0.00     0.074 A 
ATOM     45  C   UNL A   1      40.832  27.672  28.844  1.00  0.00     0.049 A 
ATOM     46  N   UNL A   1      43.087  29.661  29.033  1.00  0.00    -0.248 NA
ATOM     47  C   UNL A   1      41.540  31.263  29.737  1.00  0.00     0.031 C 
ATOM     48  C   UNL A   1      39.784  26.654  28.766  1.00  0.00     0.029 A 
ATOM     49  N   UNL A   1      41.975  27.009  28.474  1.00  0.00    -0.354 N 
ATOM     50  C   UNL A   1      43.742  30.865  29.263  1.00  0.00     0.074 A 
ATOM     51  C   UNL A   1      42.736  31.827  29.657  1.00  0.00     0.031 C 
ATOM     52  C   UNL A   1      40.336  25.491  28.380  1.00  0.00     0.029 A 
ATOM     53  C   UNL A   1      41.766  25.691  28.153  1.00  0.00     0.049 A 
ATOM     54  H   UNL A   1      42.861  27.438  28.441  1.00  0.00     0.167 HD
ATOM     55  C   UNL A   1      45.064  31.146  29.162  1.00  0.00     0.031 A 
ATOM     56  C   UNL A   1      42.630  24.754  27.718  1.00  0.00     0.031 A 
ATOM     57  C   UNL A   1      46.065  30.192  28.766  1.00  0.00     0.049 A 
ATOM     58  C   UNL A   1      44.083  25.110  27.545  1.00  0.00     0.074 A 
ATOM     59  C   UNL A   1      47.434  30.373  28.662  1.00  0.00     0.029 A 
ATOM     60  N   UNL A   1      45.806  28.880  28.402  1.00  0.00    -0.354 N 
ATOM     61  N   UNL A   1      44.695  26.242  27.799  1.00  0.00    -0.248 NA
ATOM     62  C   UNL A   1      44.966  24.051  27.033  1.00  0.00     0.031 C 
ATOM     63  C   UNL A   1      47.995  29.187  28.175  1.00  0.00     0.029 A 
ATOM     64  C   UNL A   1      46.983  28.249  28.040  1.00  0.00     0.049 A 
ATOM     65  H   UNL A   1      44.915  28.460  28.401  1.00  0.00     0.167 HD
ATOM     66  C   UNL A   1      46.037  26.021  27.513  1.00  0.00     0.074 A 
ATOM     67  C   UNL A   1      46.150  24.644  27.077  1.00  0.00     0.031 C 
ATOM     68  C   UNL A   1      47.082  26.879  27.607  1.00  0.00     0.031 A 
BRANCH  55  69
ATOM     69  C   UNL A   1      45.493  32.559  29.446  1.00  0.00    -0.014 A 
ATOM     70  C   UNL A   1      45.862  32.968  30.737  1.00  0.00     0.009 A 
ATOM     71  C   UNL A   1      45.554  33.488  28.396  1.00  0.00     0.009 A 
ATOM     72  C   UNL A   1      46.246  34.290  30.977  1.00  0.00     0.001 A 
ATOM     73  C   UNL A   1      45.966  34.800  28.633  1.00  0.00     0.001 A 
ATOM     74  C   UNL A   1      46.301  35.203  29.924  1.00  0.00     0.000 A 
ENDBRANCH  55  69
BRANCH  56  75
ATOM     75  C   UNL A   1      42.150  23.381  27.409  1.00  0.00    -0.014 A 
ATOM     76  C   UNL A   1      41.873  22.472  28.441  1.00  0.00     0.009 A 
ATOM     77  C   UNL A   1      41.988  22.966  26.078  1.00  0.00     0.009 A 
ATOM     78  C   UNL A   1      41.469  21.168  28.146  1.00  0.00     0.001 A 
ATOM     79  C   UNL A   1      41.556  21.671  25.786  1.00  0.00     0.001 A 
ATOM     80  C   UNL A   1      41.306  20.771  26.820  1.00  0.00     0.000 A 
ENDBRANCH  56  75
BRANCH  68  81
ATOM     81  C   UNL A   1      48.447  26.341  27.276  1.00  0.00    -0.014 A 
ATOM     82  C   UNL A   1      48.991  26.462  25.988  1.00  0.00     0.009 A 
ATOM     83  C   UNL A   1      49.214  25.731  28.282  1.00  0.00     0.009 A 
ATOM     84  C   UNL A   1      50.259  25.949  25.706  1.00  0.00     0.001 A 
ATOM     85  C   UNL A   1      50.493  25.248  28.006  1.00  0.00     0.001 A 
ATOM     86  C   UNL A   1      51.011  25.347  26.715  1.00  0.00     0.000 A 
ENDBRANCH  68  81
ENDBRANCH  42  43
ENDBRANCH  35  37
ENDBRANCH  34  35
ENDBRANCH  33  34
ENDBRANCH  32  33
ENDBRANCH   1  32
TORSDOF 16
ENDMDL
MODEL 3
REMARK VINA RESULT:      -8.0      0.293      5.656
REMARK SMILES Cc1[nH]c2ccccc2c1/C=C1/SC(=S)N(c2cccc(C(=O)OCCOCCOC(=O)c3ccc(-c4c5nc(c(-c6ccccc6)c6ccc([nH]6)c(-c6ccccc6)c6nc(c(-c7ccccc7)c7ccc4[nH]7)C=C6)C=C5)cc3)c2)C1=O
REMARK SMILES IDX 27 1 26 2 25 3 24 4 22 5 23 6 21 7 17 8 18 9 81 10 19 11
REMARK SMILES IDX 20 12 16 13 11 14 12 15 13 16 82 17 14 18 83 19 15 20 10 21
REMARK SMILES IDX 1 22 2 23 3 24 4 25 9 27 5 28 8 29 6 30 7 31 28 32 29 33
REMARK SMILES IDX 30 34 31 35 32 36 33 37 34 38 80 39 35 40 79 41 36 42 37 43
REMARK SMILES IDX 38 44 73 45 39 46 78 47 72 48 74 49 40 50 77 51 71 52 70 53
REMARK SMILES IDX 41 55 63 56 48 57 62 58 49 59 52 60 61 61 75 62 50 63 51 64
REMARK SMILES IDX 60 66 76 67 53 68 42 69 43 70 47 71 44 72 46 73 45 74 64 75
REMARK SMILES IDX 65 76 69 77 66 78 68 79 67 80 54 81 55 82 59 83 56 84 58 85
REMARK SMILES IDX 57 86
REMARK H PARENT 3 26 74 54 52 65
REMARK Flexibility Score: inf
ROOT
ATOM      1  O   UNL A   1      44.640  20.799  25.614  1.00  0.00    -0.374 OA
ENDROOT
BRANCH   1   2
ATOM      2  C   UNL A   1      45.045  21.289  24.336  1.00  0.00     0.202 C 
BRANCH   2   3
ATOM      3  C   UNL A   1      46.216  22.277  24.330  1.00  0.00     0.261 C 
BRANCH   3   4
ATOM      4  O   UNL A   1      46.344  22.937  25.602  1.00  0.00    -0.460 OA
BRANCH   4   5
ATOM      5  C   UNL A   1      46.620  24.262  25.534  1.00  0.00     0.338 C 
ATOM      6  O   UNL A   1      46.783  24.928  24.522  1.00  0.00    -0.246 OA
BRANCH   5   7
ATOM      7  C   UNL A   1      46.503  24.868  26.879  1.00  0.00     0.062 A 
ATOM      8  C   UNL A   1      46.971  26.618  28.505  1.00  0.00     0.051 A 
ATOM      9  C   UNL A   1      46.276  25.854  29.463  1.00  0.00     0.027 A 
ATOM     10  C   UNL A   1      47.101  26.094  27.209  1.00  0.00     0.042 A 
ATOM     11  C   UNL A   1      45.696  24.627  29.138  1.00  0.00     0.003 A 
ATOM     12  C   UNL A   1      45.798  24.140  27.843  1.00  0.00     0.016 A 
BRANCH   8  13
ATOM     13  N   UNL A   1      47.540  27.883  28.880  1.00  0.00    -0.261 N 
ATOM     14  C   UNL A   1      47.106  31.508  29.269  1.00  0.00     0.032 C 
ATOM     15  C   UNL A   1      47.540  30.240  29.198  1.00  0.00     0.081 C 
ATOM     16  S   UNL A   1      49.133  29.776  29.650  1.00  0.00    -0.054 SA
ATOM     17  C   UNL A   1      46.763  29.041  28.763  1.00  0.00     0.270 C 
ATOM     18  C   UNL A   1      48.844  28.067  29.321  1.00  0.00     0.152 C 
ATOM     19  O   UNL A   1      45.597  29.090  28.392  1.00  0.00    -0.268 OA
ATOM     20  S   UNL A   1      50.106  26.975  29.460  1.00  0.00    -0.051 S 
BRANCH  14  21
ATOM     21  C   UNL A   1      45.784  31.967  28.997  1.00  0.00     0.004 A 
ATOM     22  C   UNL A   1      46.011  32.540  26.445  1.00  0.00     0.065 C 
ATOM     23  C   UNL A   1      45.340  32.407  27.763  1.00  0.00     0.020 A 
ATOM     24  N   UNL A   1      44.038  32.812  27.932  1.00  0.00    -0.358 N 
ATOM     25  C   UNL A   1      43.625  32.607  29.228  1.00  0.00     0.046 A 
ATOM     26  H   UNL A   1      43.475  33.197  27.221  1.00  0.00     0.166 HD
ATOM     27  C   UNL A   1      44.701  32.051  29.920  1.00  0.00     0.007 A 
ATOM     28  C   UNL A   1      42.393  32.881  29.832  1.00  0.00     0.027 A 
ATOM     29  C   UNL A   1      44.531  31.739  31.285  1.00  0.00     0.011 A 
ATOM     30  C   UNL A   1      42.252  32.569  31.187  1.00  0.00     0.002 A 
ATOM     31  C   UNL A   1      43.302  32.002  31.905  1.00  0.00     0.001 A 
ENDBRANCH  14  21
ENDBRANCH   8  13
ENDBRANCH   5   7
ENDBRANCH   4   5
ENDBRANCH   3   4
ENDBRANCH   2   3
ENDBRANCH   1   2
BRANCH   1  32
ATOM     32  C   UNL A   1      43.237  20.646  25.836  1.00  0.00     0.202 C 
BRANCH  32  33
ATOM     33  C   UNL A   1      42.380  21.906  25.660  1.00  0.00     0.261 C 
BRANCH  33  34
ATOM     34  O   UNL A   1      42.837  22.988  26.491  1.00  0.00    -0.460 OA
BRANCH  34  35
ATOM     35  C   UNL A   1      42.913  24.184  25.865  1.00  0.00     0.338 C 
ATOM     36  O   UNL A   1      43.299  24.403  24.726  1.00  0.00    -0.246 OA
BRANCH  35  37
ATOM     37  C   UNL A   1      42.296  25.233  26.698  1.00  0.00     0.060 A 
ATOM     38  C   UNL A   1      42.976  26.452  26.802  1.00  0.00     0.016 A 
ATOM     39  C   UNL A   1      41.128  25.005  27.431  1.00  0.00     0.016 A 
ATOM     40  C   UNL A   1      42.530  27.425  27.693  1.00  0.00     0.010 A 
ATOM     41  C   UNL A   1      40.683  25.982  28.328  1.00  0.00     0.010 A 
ATOM     42  C   UNL A   1      41.409  27.176  28.496  1.00  0.00    -0.014 A 
BRANCH  42  43
ATOM     43  C   UNL A   1      41.106  28.094  29.620  1.00  0.00     0.031 A 
ATOM     44  C   UNL A   1      41.957  28.034  30.860  1.00  0.00     0.074 A 
ATOM     45  C   UNL A   1      40.121  29.004  29.522  1.00  0.00     0.049 A 
ATOM     46  N   UNL A   1      41.884  28.752  31.952  1.00  0.00    -0.248 NA
ATOM     47  C   UNL A   1      43.033  27.030  30.871  1.00  0.00     0.031 C 
ATOM     48  C   UNL A   1      39.256  29.195  28.358  1.00  0.00     0.029 A 
ATOM     49  N   UNL A   1      39.689  29.945  30.423  1.00  0.00    -0.354 N 
ATOM     50  C   UNL A   1      42.894  28.279  32.782  1.00  0.00     0.074 A 
ATOM     51  C   UNL A   1      43.545  27.194  32.082  1.00  0.00     0.031 C 
ATOM     52  C   UNL A   1      38.400  30.200  28.613  1.00  0.00     0.029 A 
ATOM     53  C   UNL A   1      38.636  30.699  29.967  1.00  0.00     0.049 A 
ATOM     54  H   UNL A   1      40.095  30.067  31.311  1.00  0.00     0.167 HD
ATOM     55  C   UNL A   1      43.253  28.712  34.014  1.00  0.00     0.031 A 
ATOM     56  C   UNL A   1      37.937  31.675  30.576  1.00  0.00     0.031 A 
ATOM     57  C   UNL A   1      42.604  29.788  34.715  1.00  0.00     0.049 A 
ATOM     58  C   UNL A   1      38.310  32.090  31.975  1.00  0.00     0.074 A 
ATOM     59  C   UNL A   1      42.914  30.319  35.955  1.00  0.00     0.029 A 
ATOM     60  N   UNL A   1      41.511  30.493  34.239  1.00  0.00    -0.354 N 
ATOM     61  N   UNL A   1      39.288  31.658  32.735  1.00  0.00    -0.248 NA
ATOM     62  C   UNL A   1      37.485  33.137  32.595  1.00  0.00     0.031 C 
ATOM     63  C   UNL A   1      41.967  31.306  36.256  1.00  0.00     0.029 A 
ATOM     64  C   UNL A   1      41.110  31.432  35.174  1.00  0.00     0.049 A 
ATOM     65  H   UNL A   1      41.081  30.347  33.364  1.00  0.00     0.167 HD
ATOM     66  C   UNL A   1      39.218  32.404  33.905  1.00  0.00     0.074 A 
ATOM     67  C   UNL A   1      38.108  33.323  33.749  1.00  0.00     0.031 C 
ATOM     68  C   UNL A   1      40.004  32.339  35.007  1.00  0.00     0.031 A 
BRANCH  55  69
ATOM     69  C   UNL A   1      44.378  27.987  34.701  1.00  0.00    -0.014 A 
ATOM     70  C   UNL A   1      45.710  28.411  34.575  1.00  0.00     0.009 A 
ATOM     71  C   UNL A   1      44.093  26.874  35.508  1.00  0.00     0.009 A 
ATOM     72  C   UNL A   1      46.738  27.712  35.213  1.00  0.00     0.001 A 
ATOM     73  C   UNL A   1      45.119  26.196  36.168  1.00  0.00     0.001 A 
ATOM     74  C   UNL A   1      46.441  26.608  36.012  1.00  0.00     0.000 A 
ENDBRANCH  55  69
BRANCH  56  75
ATOM     75  C   UNL A   1      36.805  32.333  29.872  1.00  0.00    -0.014 A 
ATOM     76  C   UNL A   1      35.509  31.802  29.953  1.00  0.00     0.009 A 
ATOM     77  C   UNL A   1      37.020  33.483  29.096  1.00  0.00     0.009 A 
ATOM     78  C   UNL A   1      34.457  32.394  29.251  1.00  0.00     0.001 A 
ATOM     79  C   UNL A   1      35.961  34.089  28.419  1.00  0.00     0.001 A 
ATOM     80  C   UNL A   1      34.682  33.539  28.488  1.00  0.00     0.000 A 
ENDBRANCH  56  75
BRANCH  68  81
ATOM     81  C   UNL A   1      39.721  33.317  36.114  1.00  0.00    -0.014 A 
ATOM     82  C   UNL A   1      40.310  34.591  36.137  1.00  0.00     0.009 A 
ATOM     83  C   UNL A   1      38.822  32.966  37.135  1.00  0.00     0.009 A 
ATOM     84  C   UNL A   1      40.034  35.478  37.180  1.00  0.00     0.001 A 
ATOM     85  C   UNL A   1      38.524  33.866  38.158  1.00  0.00     0.001 A 
ATOM     86  C   UNL A   1      39.139  35.117  38.186  1.00  0.00     0.000 A 
ENDBRANCH  68  81
ENDBRANCH  42  43
ENDBRANCH  35  37
ENDBRANCH  34  35
ENDBRANCH  33  34
ENDBRANCH  32  33
ENDBRANCH   1  32
TORSDOF 16
ENDMDL
