MODEL 1
REMARK VINA RESULT:     -11.8      0.000      0.000
REMARK SMILES Cc1cc(C(=O)OCCOCCOC(=O)c2ccc(-c3c4nc(c(-c5ccccc5)c5ccc([nH]5)c(-c5ccccc5)c5nc(c(-c6ccccc6)c6ccc3[nH]6)C=C5)C=C4)cc2)ccc1NS(=O)(=O)c1c(F)cccc1F
REMARK SMILES IDX 9 1 8 2 7 3 5 4 6 5 4 6 1 7 2 8 3 9 66 10 65 11 64 12 67 13
REMARK SMILES IDX 68 15 69 16 70 17 71 18 72 19 77 20 73 21 74 22 76 23 78 24
REMARK SMILES IDX 75 25 10 26 11 27 12 28 13 29 14 30 15 31 16 32 17 33 63 34
REMARK SMILES IDX 18 35 62 36 19 37 20 38 21 39 56 40 22 41 61 42 55 43 57 44
REMARK SMILES IDX 23 45 60 46 54 47 53 48 24 50 46 51 31 52 45 53 32 54 35 55
REMARK SMILES IDX 44 56 58 57 33 58 34 59 43 61 59 62 36 63 25 64 26 65 30 66
REMARK SMILES IDX 27 67 29 68 28 69 47 70 48 71 52 72 49 73 51 74 50 75 37 76
REMARK SMILES IDX 38 77 42 78 39 79 41 80 40 81
REMARK H PARENT 67 14 57 49 35 60
REMARK Flexibility Score: inf
ROOT
ATOM      1  C   UNL A   1      33.418  34.190  28.034  1.00  0.00     0.202 C 
ENDROOT
BRANCH   1   2
ATOM      2  C   UNL A   1      34.096  32.893  28.348  1.00  0.00     0.261 C 
BRANCH   2   3
ATOM      3  O   UNL A   1      33.501  31.761  27.677  1.00  0.00    -0.460 OA
BRANCH   3   4
ATOM      4  C   UNL A   1      34.265  30.670  27.351  1.00  0.00     0.338 C 
ATOM      5  O   UNL A   1      35.400  30.416  27.636  1.00  0.00    -0.246 OA
BRANCH   4   6
ATOM      6  C   UNL A   1      33.331  29.724  26.704  1.00  0.00     0.060 A 
ATOM      7  C   UNL A   1      33.700  27.394  23.773  1.00  0.00     0.046 C 
ATOM      8  C   UNL A   1      33.234  27.949  25.088  1.00  0.00    -0.026 A 
ATOM      9  C   UNL A   1      33.709  29.207  25.470  1.00  0.00     0.021 A 
ATOM     10  C   UNL A   1      32.410  27.248  25.988  1.00  0.00     0.052 A 
ATOM     11  C   UNL A   1      31.754  27.945  27.002  1.00  0.00     0.028 A 
ATOM     12  C   UNL A   1      32.258  29.175  27.403  1.00  0.00     0.018 A 
BRANCH  10  13
ATOM     13  N   UNL A   1      32.532  25.826  26.027  1.00  0.00    -0.279 N 
ATOM     14  H   UNL A   1      33.356  25.467  26.430  1.00  0.00     0.180 HD
BRANCH  13  15
ATOM     15  S   UNL A   1      31.428  24.704  25.461  1.00  0.00     0.267 S 
ATOM     16  O   UNL A   1      30.440  24.565  26.510  1.00  0.00    -0.201 OA
ATOM     17  O   UNL A   1      31.061  25.161  24.137  1.00  0.00    -0.201 OA
BRANCH  15  18
ATOM     18  C   UNL A   1      32.198  23.136  25.249  1.00  0.00     0.158 A 
ATOM     19  C   UNL A   1      33.454  23.123  24.650  1.00  0.00     0.146 A 
ATOM     20  C   UNL A   1      31.567  21.927  25.503  1.00  0.00     0.146 A 
ATOM     21  F   UNL A   1      34.145  24.255  24.465  1.00  0.00    -0.205 F 
ATOM     22  C   UNL A   1      34.037  21.931  24.220  1.00  0.00     0.041 A 
ATOM     23  C   UNL A   1      32.127  20.726  25.049  1.00  0.00     0.041 A 
ATOM     24  F   UNL A   1      30.392  21.866  26.143  1.00  0.00    -0.205 F 
ATOM     25  C   UNL A   1      33.357  20.728  24.390  1.00  0.00     0.006 A 
ENDBRANCH  15  18
ENDBRANCH  13  15
ENDBRANCH  10  13
ENDBRANCH   4   6
ENDBRANCH   3   4
ENDBRANCH   2   3
ENDBRANCH   1   2
BRANCH   1  26
ATOM     26  O   UNL A   1      32.719  34.549  29.213  1.00  0.00    -0.374 OA
BRANCH  26  27
ATOM     27  C   UNL A   1      32.892  35.884  29.642  1.00  0.00     0.202 C 
BRANCH  27  28
ATOM     28  C   UNL A   1      32.722  36.058  31.157  1.00  0.00     0.261 C 
BRANCH  28  29
ATOM     29  O   UNL A   1      33.984  36.432  31.750  1.00  0.00    -0.460 OA
BRANCH  29  30
ATOM     30  C   UNL A   1      34.328  35.773  32.892  1.00  0.00     0.338 C 
ATOM     31  O   UNL A   1      34.369  36.265  34.008  1.00  0.00    -0.246 OA
BRANCH  30  32
ATOM     32  C   UNL A   1      34.927  34.452  32.545  1.00  0.00     0.060 A 
ATOM     33  C   UNL A   1      34.918  33.406  33.487  1.00  0.00     0.016 A 
ATOM     34  C   UNL A   1      35.781  34.386  31.449  1.00  0.00     0.016 A 
ATOM     35  C   UNL A   1      35.887  32.393  33.424  1.00  0.00     0.010 A 
ATOM     36  C   UNL A   1      36.797  33.457  31.459  1.00  0.00     0.010 A 
ATOM     37  C   UNL A   1      36.888  32.476  32.460  1.00  0.00    -0.014 A 
BRANCH  37  38
ATOM     38  C   UNL A   1      38.131  31.693  32.421  1.00  0.00     0.031 A 
ATOM     39  C   UNL A   1      38.125  30.420  31.663  1.00  0.00     0.074 A 
ATOM     40  C   UNL A   1      39.320  32.232  32.796  1.00  0.00     0.049 A 
ATOM     41  N   UNL A   1      39.113  29.598  31.657  1.00  0.00    -0.248 NA
ATOM     42  C   UNL A   1      36.996  29.932  30.870  1.00  0.00     0.031 C 
ATOM     43  C   UNL A   1      40.673  31.858  32.372  1.00  0.00     0.029 A 
ATOM     44  N   UNL A   1      39.573  33.281  33.682  1.00  0.00    -0.354 N 
ATOM     45  C   UNL A   1      38.916  28.713  30.629  1.00  0.00     0.074 A 
ATOM     46  C   UNL A   1      37.537  28.877  30.252  1.00  0.00     0.031 C 
ATOM     47  C   UNL A   1      41.580  32.424  33.189  1.00  0.00     0.029 A 
ATOM     48  C   UNL A   1      40.845  33.107  34.240  1.00  0.00     0.049 A 
ATOM     49  H   UNL A   1      38.957  34.023  33.882  1.00  0.00     0.167 HD
ATOM     50  C   UNL A   1      39.998  28.044  30.148  1.00  0.00     0.031 A 
ATOM     51  C   UNL A   1      40.991  32.986  35.586  1.00  0.00     0.031 A 
ATOM     52  C   UNL A   1      41.178  28.284  30.993  1.00  0.00     0.049 A 
ATOM     53  C   UNL A   1      41.468  31.587  35.844  1.00  0.00     0.074 A 
ATOM     54  C   UNL A   1      42.343  29.013  30.824  1.00  0.00     0.029 A 
ATOM     55  N   UNL A   1      41.088  28.004  32.359  1.00  0.00    -0.354 N 
ATOM     56  N   UNL A   1      41.243  30.611  35.003  1.00  0.00    -0.248 NA
ATOM     57  C   UNL A   1      42.342  31.196  36.944  1.00  0.00     0.031 C 
ATOM     58  C   UNL A   1      42.889  29.260  32.122  1.00  0.00     0.029 A 
ATOM     59  C   UNL A   1      42.082  28.648  33.072  1.00  0.00     0.049 A 
ATOM     60  H   UNL A   1      40.404  27.422  32.762  1.00  0.00     0.167 HD
ATOM     61  C   UNL A   1      42.035  29.558  35.325  1.00  0.00     0.074 A 
ATOM     62  C   UNL A   1      42.645  29.933  36.591  1.00  0.00     0.031 C 
ATOM     63  C   UNL A   1      42.190  28.471  34.519  1.00  0.00     0.031 A 
BRANCH  50  64
ATOM     64  C   UNL A   1      40.047  27.315  28.824  1.00  0.00    -0.014 A 
ATOM     65  C   UNL A   1      39.463  26.039  28.719  1.00  0.00     0.009 A 
ATOM     66  C   UNL A   1      40.701  27.779  27.668  1.00  0.00     0.009 A 
ATOM     67  C   UNL A   1      39.524  25.285  27.537  1.00  0.00     0.001 A 
ATOM     68  C   UNL A   1      40.747  27.043  26.474  1.00  0.00     0.001 A 
ATOM     69  C   UNL A   1      40.159  25.790  26.410  1.00  0.00     0.000 A 
ENDBRANCH  50  64
BRANCH  51  70
ATOM     70  C   UNL A   1      40.000  33.826  36.331  1.00  0.00    -0.014 A 
ATOM     71  C   UNL A   1      39.098  33.140  37.182  1.00  0.00     0.009 A 
ATOM     72  C   UNL A   1      40.248  35.179  36.603  1.00  0.00     0.009 A 
ATOM     73  C   UNL A   1      38.580  33.744  38.338  1.00  0.00     0.001 A 
ATOM     74  C   UNL A   1      39.729  35.779  37.766  1.00  0.00     0.001 A 
ATOM     75  C   UNL A   1      38.933  35.052  38.651  1.00  0.00     0.000 A 
ENDBRANCH  51  70
BRANCH  63  76
ATOM     76  C   UNL A   1      42.496  27.115  35.074  1.00  0.00    -0.014 A 
ATOM     77  C   UNL A   1      41.701  26.502  36.055  1.00  0.00     0.009 A 
ATOM     78  C   UNL A   1      43.483  26.321  34.457  1.00  0.00     0.009 A 
ATOM     79  C   UNL A   1      41.917  25.180  36.441  1.00  0.00     0.001 A 
ATOM     80  C   UNL A   1      43.660  24.982  34.797  1.00  0.00     0.001 A 
ATOM     81  C   UNL A   1      42.888  24.417  35.802  1.00  0.00     0.000 A 
ENDBRANCH  63  76
ENDBRANCH  37  38
ENDBRANCH  30  32
ENDBRANCH  29  30
ENDBRANCH  28  29
ENDBRANCH  27  28
ENDBRANCH  26  27
ENDBRANCH   1  26
TORSDOF 17
ENDMDL
MODEL 2
REMARK VINA RESULT:     -11.2      5.086     10.040
REMARK SMILES Cc1cc(C(=O)OCCOCCOC(=O)c2ccc(-c3c4nc(c(-c5ccccc5)c5ccc([nH]5)c(-c5ccccc5)c5nc(c(-c6ccccc6)c6ccc3[nH]6)C=C5)C=C4)cc2)ccc1NS(=O)(=O)c1c(F)cccc1F
REMARK SMILES IDX 9 1 8 2 7 3 5 4 6 5 4 6 1 7 2 8 3 9 66 10 65 11 64 12 67 13
REMARK SMILES IDX 68 15 69 16 70 17 71 18 72 19 77 20 73 21 74 22 76 23 78 24
REMARK SMILES IDX 75 25 10 26 11 27 12 28 13 29 14 30 15 31 16 32 17 33 63 34
REMARK SMILES IDX 18 35 62 36 19 37 20 38 21 39 56 40 22 41 61 42 55 43 57 44
REMARK SMILES IDX 23 45 60 46 54 47 53 48 24 50 46 51 31 52 45 53 32 54 35 55
REMARK SMILES IDX 44 56 58 57 33 58 34 59 43 61 59 62 36 63 25 64 26 65 30 66
REMARK SMILES IDX 27 67 29 68 28 69 47 70 48 71 52 72 49 73 51 74 50 75 37 76
REMARK SMILES IDX 38 77 42 78 39 79 41 80 40 81
REMARK H PARENT 67 14 57 49 35 60
REMARK Flexibility Score: inf
ROOT
ATOM      1  C   UNL A   1      37.514  22.495  26.082  1.00  0.00     0.202 C 
ENDROOT
BRANCH   1   2
ATOM      2  C   UNL A   1      37.252  23.667  25.188  1.00  0.00     0.261 C 
BRANCH   2   3
ATOM      3  O   UNL A   1      35.918  23.675  24.636  1.00  0.00    -0.460 OA
BRANCH   3   4
ATOM      4  C   UNL A   1      35.681  23.152  23.390  1.00  0.00     0.338 C 
ATOM      5  O   UNL A   1      36.407  23.072  22.442  1.00  0.00    -0.246 OA
BRANCH   4   6
ATOM      6  C   UNL A   1      34.357  22.502  23.490  1.00  0.00     0.060 A 
ATOM      7  C   UNL A   1      33.019  19.798  25.739  1.00  0.00     0.046 C 
ATOM      8  C   UNL A   1      33.062  21.023  24.872  1.00  0.00    -0.026 A 
ATOM      9  C   UNL A   1      34.277  21.348  24.261  1.00  0.00     0.021 A 
ATOM     10  C   UNL A   1      31.975  21.901  24.699  1.00  0.00     0.052 A 
ATOM     11  C   UNL A   1      31.983  22.800  23.633  1.00  0.00     0.028 A 
ATOM     12  C   UNL A   1      33.200  23.148  23.060  1.00  0.00     0.018 A 
BRANCH  10  13
ATOM     13  N   UNL A   1      31.071  22.058  25.792  1.00  0.00    -0.279 N 
ATOM     14  H   UNL A   1      30.366  21.376  25.879  1.00  0.00     0.180 HD
BRANCH  13  15
ATOM     15  S   UNL A   1      31.079  23.275  26.941  1.00  0.00     0.267 S 
ATOM     16  O   UNL A   1      29.693  23.472  27.310  1.00  0.00    -0.201 OA
ATOM     17  O   UNL A   1      32.068  22.871  27.920  1.00  0.00    -0.201 OA
BRANCH  15  18
ATOM     18  C   UNL A   1      31.659  24.779  26.239  1.00  0.00     0.158 A 
ATOM     19  C   UNL A   1      33.035  24.988  26.236  1.00  0.00     0.146 A 
ATOM     20  C   UNL A   1      30.826  25.814  25.837  1.00  0.00     0.146 A 
ATOM     21  F   UNL A   1      33.887  23.996  26.528  1.00  0.00    -0.205 F 
ATOM     22  C   UNL A   1      33.576  26.237  25.929  1.00  0.00     0.041 A 
ATOM     23  C   UNL A   1      31.354  27.080  25.555  1.00  0.00     0.041 A 
ATOM     24  F   UNL A   1      29.499  25.655  25.746  1.00  0.00    -0.205 F 
ATOM     25  C   UNL A   1      32.731  27.299  25.619  1.00  0.00     0.006 A 
ENDBRANCH  15  18
ENDBRANCH  13  15
ENDBRANCH  10  13
ENDBRANCH   4   6
ENDBRANCH   3   4
ENDBRANCH   2   3
ENDBRANCH   1   2
BRANCH   1  26
ATOM     26  O   UNL A   1      37.795  21.410  25.216  1.00  0.00    -0.374 OA
BRANCH  26  27
ATOM     27  C   UNL A   1      38.917  20.626  25.567  1.00  0.00     0.202 C 
BRANCH  27  28
ATOM     28  C   UNL A   1      39.939  21.385  26.423  1.00  0.00     0.261 C 
BRANCH  28  29
ATOM     29  O   UNL A   1      41.196  21.475  25.718  1.00  0.00    -0.460 OA
BRANCH  29  30
ATOM     30  C   UNL A   1      42.280  20.952  26.357  1.00  0.00     0.338 C 
ATOM     31  O   UNL A   1      42.513  19.763  26.497  1.00  0.00    -0.246 OA
BRANCH  30  32
ATOM     32  C   UNL A   1      42.983  22.030  27.111  1.00  0.00     0.060 A 
ATOM     33  C   UNL A   1      42.737  22.201  28.487  1.00  0.00     0.016 A 
ATOM     34  C   UNL A   1      43.592  23.049  26.387  1.00  0.00     0.016 A 
ATOM     35  C   UNL A   1      42.933  23.455  29.086  1.00  0.00     0.010 A 
ATOM     36  C   UNL A   1      43.673  24.302  26.952  1.00  0.00     0.010 A 
ATOM     37  C   UNL A   1      43.312  24.532  28.290  1.00  0.00    -0.014 A 
BRANCH  37  38
ATOM     38  C   UNL A   1      43.281  25.952  28.667  1.00  0.00     0.031 A 
ATOM     39  C   UNL A   1      42.017  26.696  28.467  1.00  0.00     0.074 A 
ATOM     40  C   UNL A   1      44.254  26.500  29.442  1.00  0.00     0.049 A 
ATOM     41  N   UNL A   1      41.907  27.963  28.649  1.00  0.00    -0.248 NA
ATOM     42  C   UNL A   1      40.764  26.094  28.007  1.00  0.00     0.031 C 
ATOM     43  C   UNL A   1      44.174  27.664  30.330  1.00  0.00     0.029 A 
ATOM     44  N   UNL A   1      45.583  26.104  29.601  1.00  0.00    -0.354 N 
ATOM     45  C   UNL A   1      40.571  28.267  28.694  1.00  0.00     0.074 A 
ATOM     46  C   UNL A   1      39.905  27.106  28.166  1.00  0.00     0.031 C 
ATOM     47  C   UNL A   1      45.412  28.057  30.680  1.00  0.00     0.029 A 
ATOM     48  C   UNL A   1      46.351  27.222  29.949  1.00  0.00     0.049 A 
ATOM     49  H   UNL A   1      45.926  25.188  29.487  1.00  0.00     0.167 HD
ATOM     50  C   UNL A   1      40.202  29.428  29.300  1.00  0.00     0.031 A 
ATOM     51  C   UNL A   1      47.389  27.611  29.164  1.00  0.00     0.031 A 
ATOM     52  C   UNL A   1      41.381  30.241  29.632  1.00  0.00     0.049 A 
ATOM     53  C   UNL A   1      47.013  28.940  28.577  1.00  0.00     0.074 A 
ATOM     54  C   UNL A   1      42.019  30.562  30.818  1.00  0.00     0.029 A 
ATOM     55  N   UNL A   1      42.273  30.571  28.608  1.00  0.00    -0.354 N 
ATOM     56  N   UNL A   1      45.767  29.314  28.447  1.00  0.00    -0.248 NA
ATOM     57  C   UNL A   1      47.958  29.999  28.245  1.00  0.00     0.031 C 
ATOM     58  C   UNL A   1      43.346  30.982  30.494  1.00  0.00     0.029 A 
ATOM     59  C   UNL A   1      43.500  30.958  29.114  1.00  0.00     0.049 A 
ATOM     60  H   UNL A   1      42.056  30.532  27.648  1.00  0.00     0.167 HD
ATOM     61  C   UNL A   1      45.727  30.645  28.193  1.00  0.00     0.074 A 
ATOM     62  C   UNL A   1      47.118  31.020  27.993  1.00  0.00     0.031 C 
ATOM     63  C   UNL A   1      44.576  31.372  28.215  1.00  0.00     0.031 A 
BRANCH  50  64
ATOM     64  C   UNL A   1      38.797  29.758  29.754  1.00  0.00    -0.014 A 
ATOM     65  C   UNL A   1      38.165  30.910  29.251  1.00  0.00     0.009 A 
ATOM     66  C   UNL A   1      38.066  29.034  30.714  1.00  0.00     0.009 A 
ATOM     67  C   UNL A   1      36.886  31.305  29.676  1.00  0.00     0.001 A 
ATOM     68  C   UNL A   1      36.778  29.407  31.126  1.00  0.00     0.001 A 
ATOM     69  C   UNL A   1      36.188  30.548  30.608  1.00  0.00     0.000 A 
ENDBRANCH  50  64
BRANCH  51  70
ATOM     70  C   UNL A   1      48.086  26.440  28.541  1.00  0.00    -0.014 A 
ATOM     71  C   UNL A   1      48.200  26.444  27.129  1.00  0.00     0.009 A 
ATOM     72  C   UNL A   1      49.009  25.671  29.266  1.00  0.00     0.009 A 
ATOM     73  C   UNL A   1      49.277  25.823  26.481  1.00  0.00     0.001 A 
ATOM     74  C   UNL A   1      50.090  25.053  28.610  1.00  0.00     0.001 A 
ATOM     75  C   UNL A   1      50.247  25.164  27.229  1.00  0.00     0.000 A 
ENDBRANCH  51  70
BRANCH  63  76
ATOM     76  C   UNL A   1      44.398  32.594  27.368  1.00  0.00    -0.014 A 
ATOM     77  C   UNL A   1      44.395  32.548  25.966  1.00  0.00     0.009 A 
ATOM     78  C   UNL A   1      44.009  33.804  27.974  1.00  0.00     0.009 A 
ATOM     79  C   UNL A   1      44.073  33.671  25.205  1.00  0.00     0.001 A 
ATOM     80  C   UNL A   1      43.627  34.910  27.217  1.00  0.00     0.001 A 
ATOM     81  C   UNL A   1      43.677  34.847  25.832  1.00  0.00     0.000 A 
ENDBRANCH  63  76
ENDBRANCH  37  38
ENDBRANCH  30  32
ENDBRANCH  29  30
ENDBRANCH  28  29
ENDBRANCH  27  28
ENDBRANCH  26  27
ENDBRANCH   1  26
TORSDOF 17
ENDMDL
MODEL 3
REMARK VINA RESULT:     -11.1      5.562     11.075
REMARK SMILES Cc1cc(C(=O)OCCOCCOC(=O)c2ccc(-c3c4nc(c(-c5ccccc5)c5ccc([nH]5)c(-c5ccccc5)c5nc(c(-c6ccccc6)c6ccc3[nH]6)C=C5)C=C4)cc2)ccc1NS(=O)(=O)c1c(F)cccc1F
REMARK SMILES IDX 9 1 8 2 7 3 5 4 6 5 4 6 1 7 2 8 3 9 66 10 65 11 64 12 67 13
REMARK SMILES IDX 68 15 69 16 70 17 71 18 72 19 77 20 73 21 74 22 76 23 78 24
REMARK SMILES IDX 75 25 10 26 11 27 12 28 13 29 14 30 15 31 16 32 17 33 63 34
REMARK SMILES IDX 18 35 62 36 19 37 20 38 21 39 56 40 22 41 61 42 55 43 57 44
REMARK SMILES IDX 23 45 60 46 54 47 53 48 24 50 46 51 31 52 45 53 32 54 35 55
REMARK SMILES IDX 44 56 58 57 33 58 34 59 43 61 59 62 36 63 25 64 26 65 30 66
REMARK SMILES IDX 27 67 29 68 28 69 47 70 48 71 52 72 49 73 51 74 50 75 37 76
REMARK SMILES IDX 38 77 42 78 39 79 41 80 40 81
REMARK H PARENT 67 14 57 49 35 60
REMARK Flexibility Score: inf
ROOT
ATOM      1  C   UNL A   1      40.751  20.436  27.304  1.00  0.00     0.202 C 
ENDROOT
BRANCH   1   2
ATOM      2  C   UNL A   1      40.266  20.632  25.901  1.00  0.00     0.261 C 
BRANCH   2   3
ATOM      3  O   UNL A   1      39.041  21.393  25.822  1.00  0.00    -0.460 OA
BRANCH   3   4
ATOM      4  C   UNL A   1      37.989  20.932  25.073  1.00  0.00     0.338 C 
ATOM      5  O   UNL A   1      37.787  19.841  24.623  1.00  0.00    -0.246 OA
BRANCH   4   6
ATOM      6  C   UNL A   1      37.002  22.034  25.076  1.00  0.00     0.060 A 
ATOM      7  C   UNL A   1      34.181  22.922  22.751  1.00  0.00     0.046 C 
ATOM      8  C   UNL A   1      34.982  22.783  24.013  1.00  0.00    -0.026 A 
ATOM      9  C   UNL A   1      36.257  22.217  23.916  1.00  0.00     0.021 A 
ATOM     10  C   UNL A   1      34.498  23.118  25.291  1.00  0.00     0.052 A 
ATOM     11  C   UNL A   1      35.398  23.284  26.343  1.00  0.00     0.028 A 
ATOM     12  C   UNL A   1      36.648  22.684  26.256  1.00  0.00     0.018 A 
BRANCH  10  13
ATOM     13  N   UNL A   1      33.100  22.960  25.532  1.00  0.00    -0.279 N 
ATOM     14  H   UNL A   1      32.784  22.041  25.691  1.00  0.00     0.180 HD
BRANCH  13  15
ATOM     15  S   UNL A   1      31.941  24.166  25.572  1.00  0.00     0.267 S 
ATOM     16  O   UNL A   1      30.686  23.512  25.263  1.00  0.00    -0.201 OA
ATOM     17  O   UNL A   1      32.143  24.849  26.833  1.00  0.00    -0.201 OA
BRANCH  15  18
ATOM     18  C   UNL A   1      32.244  25.353  24.310  1.00  0.00     0.158 A 
ATOM     19  C   UNL A   1      31.475  25.257  23.153  1.00  0.00     0.146 A 
ATOM     20  C   UNL A   1      33.290  26.263  24.343  1.00  0.00     0.146 A 
ATOM     21  F   UNL A   1      30.400  24.461  23.100  1.00  0.00    -0.205 F 
ATOM     22  C   UNL A   1      31.798  25.987  22.009  1.00  0.00     0.041 A 
ATOM     23  C   UNL A   1      33.643  26.980  23.192  1.00  0.00     0.041 A 
ATOM     24  F   UNL A   1      34.021  26.457  25.449  1.00  0.00    -0.205 F 
ATOM     25  C   UNL A   1      32.907  26.829  22.016  1.00  0.00     0.006 A 
ENDBRANCH  15  18
ENDBRANCH  13  15
ENDBRANCH  10  13
ENDBRANCH   4   6
ENDBRANCH   3   4
ENDBRANCH   2   3
ENDBRANCH   1   2
BRANCH   1  26
ATOM     26  O   UNL A   1      41.862  19.562  27.204  1.00  0.00    -0.374 OA
BRANCH  26  27
ATOM     27  C   UNL A   1      42.123  19.056  25.911  1.00  0.00     0.202 C 
BRANCH  27  28
ATOM     28  C   UNL A   1      43.621  18.905  25.614  1.00  0.00     0.261 C 
BRANCH  28  29
ATOM     29  O   UNL A   1      44.022  19.870  24.619  1.00  0.00    -0.460 OA
BRANCH  29  30
ATOM     30  C   UNL A   1      44.891  20.834  25.034  1.00  0.00     0.338 C 
ATOM     31  O   UNL A   1      46.015  20.634  25.466  1.00  0.00    -0.246 OA
BRANCH  30  32
ATOM     32  C   UNL A   1      44.172  22.134  25.164  1.00  0.00     0.060 A 
ATOM     33  C   UNL A   1      44.529  23.221  24.342  1.00  0.00     0.016 A 
ATOM     34  C   UNL A   1      43.414  22.354  26.309  1.00  0.00     0.016 A 
ATOM     35  C   UNL A   1      44.282  24.535  24.768  1.00  0.00     0.010 A 
ATOM     36  C   UNL A   1      43.279  23.643  26.773  1.00  0.00     0.010 A 
ATOM     37  C   UNL A   1      43.741  24.745  26.034  1.00  0.00    -0.014 A 
BRANCH  37  38
ATOM     38  C   UNL A   1      43.685  26.020  26.760  1.00  0.00     0.031 A 
ATOM     39  C   UNL A   1      42.368  26.685  26.893  1.00  0.00     0.074 A 
ATOM     40  C   UNL A   1      44.718  26.439  27.538  1.00  0.00     0.049 A 
ATOM     41  N   UNL A   1      42.217  27.856  27.401  1.00  0.00    -0.248 NA
ATOM     42  C   UNL A   1      41.100  26.115  26.435  1.00  0.00     0.031 C 
ATOM     43  C   UNL A   1      44.689  27.339  28.695  1.00  0.00     0.029 A 
ATOM     44  N   UNL A   1      46.075  26.126  27.446  1.00  0.00    -0.354 N 
ATOM     45  C   UNL A   1      40.883  28.029  27.667  1.00  0.00     0.074 A 
ATOM     46  C   UNL A   1      40.217  26.982  26.938  1.00  0.00     0.031 C 
ATOM     47  C   UNL A   1      45.940  27.733  28.997  1.00  0.00     0.029 A 
ATOM     48  C   UNL A   1      46.821  27.183  27.980  1.00  0.00     0.049 A 
ATOM     49  H   UNL A   1      46.448  25.297  27.066  1.00  0.00     0.167 HD
ATOM     50  C   UNL A   1      40.533  28.971  28.584  1.00  0.00     0.031 A 
ATOM     51  C   UNL A   1      47.731  27.837  27.212  1.00  0.00     0.031 A 
ATOM     52  C   UNL A   1      41.701  29.772  28.981  1.00  0.00     0.049 A 
ATOM     53  C   UNL A   1      47.216  29.234  27.026  1.00  0.00     0.074 A 
ATOM     54  C   UNL A   1      42.465  29.842  30.133  1.00  0.00     0.029 A 
ATOM     55  N   UNL A   1      42.439  30.415  27.984  1.00  0.00    -0.354 N 
ATOM     56  N   UNL A   1      45.946  29.525  27.131  1.00  0.00    -0.248 NA
ATOM     57  C   UNL A   1      48.056  30.416  26.872  1.00  0.00     0.031 C 
ATOM     58  C   UNL A   1      43.718  30.436  29.784  1.00  0.00     0.029 A 
ATOM     59  C   UNL A   1      43.698  30.764  28.435  1.00  0.00     0.049 A 
ATOM     60  H   UNL A   1      42.105  30.595  27.075  1.00  0.00     0.167 HD
ATOM     61  C   UNL A   1      45.805  30.870  27.228  1.00  0.00     0.074 A 
ATOM     62  C   UNL A   1      47.139  31.395  26.981  1.00  0.00     0.031 C 
ATOM     63  C   UNL A   1      44.630  31.473  27.559  1.00  0.00     0.031 A 
BRANCH  50  64
ATOM     64  C   UNL A   1      39.182  29.064  29.257  1.00  0.00    -0.014 A 
ATOM     65  C   UNL A   1      38.081  29.544  28.525  1.00  0.00     0.009 A 
ATOM     66  C   UNL A   1      38.929  28.768  30.609  1.00  0.00     0.009 A 
ATOM     67  C   UNL A   1      36.813  29.710  29.105  1.00  0.00     0.001 A 
ATOM     68  C   UNL A   1      37.661  28.908  31.192  1.00  0.00     0.001 A 
ATOM     69  C   UNL A   1      36.600  29.384  30.438  1.00  0.00     0.000 A 
ENDBRANCH  50  64
BRANCH  51  70
ATOM     70  C   UNL A   1      48.404  26.915  26.241  1.00  0.00    -0.014 A 
ATOM     71  C   UNL A   1      47.920  26.931  24.909  1.00  0.00     0.009 A 
ATOM     72  C   UNL A   1      49.716  26.466  26.451  1.00  0.00     0.009 A 
ATOM     73  C   UNL A   1      48.761  26.647  23.823  1.00  0.00     0.001 A 
ATOM     74  C   UNL A   1      50.556  26.186  25.357  1.00  0.00     0.001 A 
ATOM     75  C   UNL A   1      50.093  26.317  24.048  1.00  0.00     0.000 A 
ENDBRANCH  51  70
BRANCH  63  76
ATOM     76  C   UNL A   1      44.284  32.847  27.075  1.00  0.00    -0.014 A 
ATOM     77  C   UNL A   1      44.142  33.154  25.713  1.00  0.00     0.009 A 
ATOM     78  C   UNL A   1      43.876  33.825  28.003  1.00  0.00     0.009 A 
ATOM     79  C   UNL A   1      43.669  34.398  25.297  1.00  0.00     0.001 A 
ATOM     80  C   UNL A   1      43.345  35.045  27.590  1.00  0.00     0.001 A 
ATOM     81  C   UNL A   1      43.259  35.338  26.236  1.00  0.00     0.000 A 
ENDBRANCH  63  76
ENDBRANCH  37  38
ENDBRANCH  30  32
ENDBRANCH  29  30
ENDBRANCH  28  29
ENDBRANCH  27  28
ENDBRANCH  26  27
ENDBRANCH   1  26
TORSDOF 17
ENDMDL
