MODEL 1
REMARK VINA RESULT:      -8.5      0.000      0.000
REMARK SMILES C[C@@H](C(=O)OCCOCCOC(=O)c1ccc(-c2c3nc(c(-c4ccccc4)c4ccc([nH]4)c(-c4ccccc4)c4nc(c(-c5ccccc5)c5ccc2[nH]5)C=C4)C=C3)cc1)c1ccc(C[C@@H]2CCC[C@@H]2O)cc1
REMARK SMILES IDX 7 1 6 2 5 3 3 4 4 5 2 6 1 7 62 8 63 9 74 10 64 11 73 12
REMARK SMILES IDX 65 13 66 14 67 15 68 16 71 17 69 18 70 19 72 20 8 22 9 23
REMARK SMILES IDX 10 24 11 25 12 26 13 27 14 28 15 29 61 30 16 31 60 32 17 33
REMARK SMILES IDX 18 34 19 35 54 36 20 37 59 38 53 39 55 40 21 41 58 42 52 43
REMARK SMILES IDX 51 44 22 46 44 47 29 48 43 49 30 50 33 51 42 52 56 53 31 54
REMARK SMILES IDX 32 55 41 57 57 58 34 59 23 60 24 61 28 62 25 63 27 64 26 65
REMARK SMILES IDX 45 66 46 67 50 68 47 69 49 70 48 71 35 72 36 73 40 74 37 75
REMARK SMILES IDX 39 76 38 77
REMARK H PARENT 72 21 55 45 33 56
REMARK Flexibility Score: inf
ROOT
ATOM      1  C   UNL A   1      32.897  35.578  29.858  1.00  0.00     0.202 C 
ENDROOT
BRANCH   1   2
ATOM      2  C   UNL A   1      33.355  35.673  31.316  1.00  0.00     0.261 C 
BRANCH   2   3
ATOM      3  O   UNL A   1      34.605  34.992  31.489  1.00  0.00    -0.463 OA
BRANCH   3   4
ATOM      4  C   UNL A   1      34.527  33.774  32.093  1.00  0.00     0.313 C 
ATOM      5  O   UNL A   1      33.666  33.468  32.911  1.00  0.00    -0.252 OA
BRANCH   4   6
ATOM      6  C   UNL A   1      35.553  32.788  31.532  1.00  0.00     0.126 C 
ATOM      7  C   UNL A   1      35.873  31.658  32.519  1.00  0.00     0.025 C 
BRANCH   6   8
ATOM      8  C   UNL A   1      36.809  33.451  30.958  1.00  0.00    -0.034 A 
ATOM      9  C   UNL A   1      37.176  33.344  29.606  1.00  0.00     0.005 A 
ATOM     10  C   UNL A   1      37.695  34.121  31.817  1.00  0.00     0.005 A 
ATOM     11  C   UNL A   1      38.408  33.823  29.147  1.00  0.00     0.004 A 
ATOM     12  C   UNL A   1      38.929  34.593  31.360  1.00  0.00     0.004 A 
ATOM     13  C   UNL A   1      39.322  34.398  30.032  1.00  0.00    -0.048 A 
BRANCH  13  14
ATOM     14  C   UNL A   1      40.730  34.725  29.598  1.00  0.00     0.041 C 
BRANCH  14  15
ATOM     15  C   UNL A   1      41.885  34.312  30.545  1.00  0.00     0.022 C 
ATOM     16  C   UNL A   1      42.934  35.400  30.800  1.00  0.00     0.007 C 
ATOM     17  C   UNL A   1      42.753  33.116  30.132  1.00  0.00     0.117 C 
ATOM     18  C   UNL A   1      44.119  35.095  29.880  1.00  0.00     0.003 C 
ATOM     19  C   UNL A   1      43.867  33.714  29.283  1.00  0.00     0.032 C 
BRANCH  17  20
ATOM     20  O   UNL A   1      42.050  32.097  29.454  1.00  0.00    -0.393 OA
ATOM     21  H   UNL A   1      41.542  32.485  28.724  1.00  0.00     0.210 HD
ENDBRANCH  17  20
ENDBRANCH  14  15
ENDBRANCH  13  14
ENDBRANCH   6   8
ENDBRANCH   4   6
ENDBRANCH   3   4
ENDBRANCH   2   3
ENDBRANCH   1   2
BRANCH   1  22
ATOM     22  O   UNL A   1      33.846  35.996  28.875  1.00  0.00    -0.374 OA
BRANCH  22  23
ATOM     23  C   UNL A   1      34.381  35.000  27.998  1.00  0.00     0.202 C 
BRANCH  23  24
ATOM     24  C   UNL A   1      33.896  33.560  28.212  1.00  0.00     0.261 C 
BRANCH  24  25
ATOM     25  O   UNL A   1      34.757  32.588  27.588  1.00  0.00    -0.460 OA
BRANCH  25  26
ATOM     26  C   UNL A   1      34.408  31.299  27.811  1.00  0.00     0.338 C 
ATOM     27  O   UNL A   1      33.302  30.794  27.680  1.00  0.00    -0.246 OA
BRANCH  26  28
ATOM     28  C   UNL A   1      35.602  30.482  28.092  1.00  0.00     0.060 A 
ATOM     29  C   UNL A   1      35.640  29.792  29.310  1.00  0.00     0.016 A 
ATOM     30  C   UNL A   1      36.708  30.479  27.239  1.00  0.00     0.016 A 
ATOM     31  C   UNL A   1      36.803  29.134  29.704  1.00  0.00     0.010 A 
ATOM     32  C   UNL A   1      37.880  29.826  27.642  1.00  0.00     0.010 A 
ATOM     33  C   UNL A   1      37.944  29.182  28.891  1.00  0.00    -0.014 A 
BRANCH  33  34
ATOM     34  C   UNL A   1      39.236  28.684  29.423  1.00  0.00     0.031 A 
ATOM     35  C   UNL A   1      39.898  29.423  30.554  1.00  0.00     0.074 A 
ATOM     36  C   UNL A   1      39.795  27.561  28.937  1.00  0.00     0.049 A 
ATOM     37  N   UNL A   1      41.024  29.164  31.167  1.00  0.00    -0.248 NA
ATOM     38  C   UNL A   1      39.193  30.611  31.064  1.00  0.00     0.031 C 
ATOM     39  C   UNL A   1      39.233  26.728  27.876  1.00  0.00     0.029 A 
ATOM     40  N   UNL A   1      40.965  26.931  29.280  1.00  0.00    -0.354 N 
ATOM     41  C   UNL A   1      41.165  30.153  32.132  1.00  0.00     0.074 A 
ATOM     42  C   UNL A   1      40.025  31.034  32.005  1.00  0.00     0.031 C 
ATOM     43  C   UNL A   1      40.065  25.696  27.649  1.00  0.00     0.029 A 
ATOM     44  C   UNL A   1      41.227  25.813  28.528  1.00  0.00     0.049 A 
ATOM     45  H   UNL A   1      41.559  27.250  29.997  1.00  0.00     0.167 HD
ATOM     46  C   UNL A   1      42.150  30.311  33.049  1.00  0.00     0.031 A 
ATOM     47  C   UNL A   1      42.291  24.989  28.535  1.00  0.00     0.031 A 
ATOM     48  C   UNL A   1      43.294  29.449  33.169  1.00  0.00     0.049 A 
ATOM     49  C   UNL A   1      43.414  25.232  29.509  1.00  0.00     0.074 A 
ATOM     50  C   UNL A   1      44.343  29.528  34.071  1.00  0.00     0.029 A 
ATOM     51  N   UNL A   1      43.545  28.354  32.359  1.00  0.00    -0.354 N 
ATOM     52  N   UNL A   1      43.524  26.160  30.428  1.00  0.00    -0.248 NA
ATOM     53  C   UNL A   1      44.555  24.308  29.448  1.00  0.00     0.031 C 
ATOM     54  C   UNL A   1      45.253  28.507  33.773  1.00  0.00     0.029 A 
ATOM     55  C   UNL A   1      44.743  27.761  32.722  1.00  0.00     0.049 A 
ATOM     56  H   UNL A   1      42.957  28.041  31.634  1.00  0.00     0.167 HD
ATOM     57  C   UNL A   1      44.731  25.916  31.070  1.00  0.00     0.074 A 
ATOM     58  C   UNL A   1      45.312  24.746  30.445  1.00  0.00     0.031 C 
ATOM     59  C   UNL A   1      45.308  26.600  32.089  1.00  0.00     0.031 A 
BRANCH  46  60
ATOM     60  C   UNL A   1      42.044  31.489  33.976  1.00  0.00    -0.014 A 
ATOM     61  C   UNL A   1      42.632  32.722  33.655  1.00  0.00     0.009 A 
ATOM     62  C   UNL A   1      41.320  31.371  35.172  1.00  0.00     0.009 A 
ATOM     63  C   UNL A   1      42.524  33.805  34.529  1.00  0.00     0.001 A 
ATOM     64  C   UNL A   1      41.191  32.462  36.032  1.00  0.00     0.001 A 
ATOM     65  C   UNL A   1      41.800  33.676  35.715  1.00  0.00     0.000 A 
ENDBRANCH  46  60
BRANCH  47  66
ATOM     66  C   UNL A   1      42.364  23.861  27.570  1.00  0.00    -0.014 A 
ATOM     67  C   UNL A   1      41.892  22.587  27.916  1.00  0.00     0.009 A 
ATOM     68  C   UNL A   1      42.928  24.055  26.298  1.00  0.00     0.009 A 
ATOM     69  C   UNL A   1      42.004  21.523  27.018  1.00  0.00     0.001 A 
ATOM     70  C   UNL A   1      43.014  22.996  25.393  1.00  0.00     0.001 A 
ATOM     71  C   UNL A   1      42.560  21.730  25.756  1.00  0.00     0.000 A 
ENDBRANCH  47  66
BRANCH  59  72
ATOM     72  C   UNL A   1      46.618  26.082  32.612  1.00  0.00    -0.014 A 
ATOM     73  C   UNL A   1      46.666  25.085  33.599  1.00  0.00     0.009 A 
ATOM     74  C   UNL A   1      47.821  26.570  32.079  1.00  0.00     0.009 A 
ATOM     75  C   UNL A   1      47.894  24.610  34.063  1.00  0.00     0.001 A 
ATOM     76  C   UNL A   1      49.048  26.074  32.525  1.00  0.00     0.001 A 
ATOM     77  C   UNL A   1      49.082  25.100  33.523  1.00  0.00     0.000 A 
ENDBRANCH  59  72
ENDBRANCH  33  34
ENDBRANCH  26  28
ENDBRANCH  25  26
ENDBRANCH  24  25
ENDBRANCH  23  24
ENDBRANCH  22  23
ENDBRANCH   1  22
TORSDOF 18
ENDMDL
MODEL 2
REMARK VINA RESULT:      -8.4      4.555     11.195
REMARK SMILES C[C@@H](C(=O)OCCOCCOC(=O)c1ccc(-c2c3nc(c(-c4ccccc4)c4ccc([nH]4)c(-c4ccccc4)c4nc(c(-c5ccccc5)c5ccc2[nH]5)C=C4)C=C3)cc1)c1ccc(C[C@@H]2CCC[C@@H]2O)cc1
REMARK SMILES IDX 7 1 6 2 5 3 3 4 4 5 2 6 1 7 62 8 63 9 74 10 64 11 73 12
REMARK SMILES IDX 65 13 66 14 67 15 68 16 71 17 69 18 70 19 72 20 8 22 9 23
REMARK SMILES IDX 10 24 11 25 12 26 13 27 14 28 15 29 61 30 16 31 60 32 17 33
REMARK SMILES IDX 18 34 19 35 54 36 20 37 59 38 53 39 55 40 21 41 58 42 52 43
REMARK SMILES IDX 51 44 22 46 44 47 29 48 43 49 30 50 33 51 42 52 56 53 31 54
REMARK SMILES IDX 32 55 41 57 57 58 34 59 23 60 24 61 28 62 25 63 27 64 26 65
REMARK SMILES IDX 45 66 46 67 50 68 47 69 49 70 48 71 35 72 36 73 40 74 37 75
REMARK SMILES IDX 39 76 38 77
REMARK H PARENT 72 21 55 45 33 56
REMARK Flexibility Score: inf
ROOT
ATOM      1  C   UNL A   1      44.404  19.288  25.085  1.00  0.00     0.202 C 
ENDROOT
BRANCH   1   2
ATOM      2  C   UNL A   1      43.010  18.852  25.548  1.00  0.00     0.261 C 
BRANCH   2   3
ATOM      3  O   UNL A   1      42.127  19.981  25.590  1.00  0.00    -0.463 OA
BRANCH   3   4
ATOM      4  C   UNL A   1      41.553  20.227  26.800  1.00  0.00     0.313 C 
ATOM      5  O   UNL A   1      41.377  19.374  27.662  1.00  0.00    -0.252 OA
BRANCH   4   6
ATOM      6  C   UNL A   1      41.280  21.717  27.012  1.00  0.00     0.126 C 
ATOM      7  C   UNL A   1      41.493  22.145  28.471  1.00  0.00     0.025 C 
BRANCH   6   8
ATOM      8  C   UNL A   1      39.942  22.197  26.440  1.00  0.00    -0.034 A 
ATOM      9  C   UNL A   1      39.416  23.473  26.702  1.00  0.00     0.005 A 
ATOM     10  C   UNL A   1      39.147  21.310  25.696  1.00  0.00     0.005 A 
ATOM     11  C   UNL A   1      38.123  23.822  26.298  1.00  0.00     0.004 A 
ATOM     12  C   UNL A   1      37.852  21.656  25.300  1.00  0.00     0.004 A 
ATOM     13  C   UNL A   1      37.306  22.896  25.647  1.00  0.00    -0.048 A 
BRANCH  13  14
ATOM     14  C   UNL A   1      35.846  23.183  25.395  1.00  0.00     0.041 C 
BRANCH  14  15
ATOM     15  C   UNL A   1      35.114  22.305  24.349  1.00  0.00     0.022 C 
ATOM     16  C   UNL A   1      34.264  23.079  23.335  1.00  0.00     0.007 C 
ATOM     17  C   UNL A   1      34.123  21.254  24.866  1.00  0.00     0.117 C 
ATOM     18  C   UNL A   1      32.815  22.997  23.820  1.00  0.00     0.003 C 
ATOM     19  C   UNL A   1      32.790  21.984  24.960  1.00  0.00     0.032 C 
BRANCH  17  20
ATOM     20  O   UNL A   1      34.497  20.660  26.091  1.00  0.00    -0.393 OA
ATOM     21  H   UNL A   1      34.143  19.758  26.135  1.00  0.00     0.210 HD
ENDBRANCH  17  20
ENDBRANCH  14  15
ENDBRANCH  13  14
ENDBRANCH   6   8
ENDBRANCH   4   6
ENDBRANCH   3   4
ENDBRANCH   2   3
ENDBRANCH   1   2
BRANCH   1  22
ATOM     22  O   UNL A   1      44.441  20.299  24.077  1.00  0.00    -0.374 OA
BRANCH  22  23
ATOM     23  C   UNL A   1      45.402  21.349  24.220  1.00  0.00     0.202 C 
BRANCH  23  24
ATOM     24  C   UNL A   1      45.137  22.380  25.324  1.00  0.00     0.261 C 
BRANCH  24  25
ATOM     25  O   UNL A   1      44.283  23.455  24.885  1.00  0.00    -0.460 OA
BRANCH  25  26
ATOM     26  C   UNL A   1      44.785  24.696  25.092  1.00  0.00     0.338 C 
ATOM     27  O   UNL A   1      45.748  25.211  24.540  1.00  0.00    -0.246 OA
BRANCH  26  28
ATOM     28  C   UNL A   1      43.905  25.466  25.988  1.00  0.00     0.060 A 
ATOM     29  C   UNL A   1      44.160  26.836  26.122  1.00  0.00     0.016 A 
ATOM     30  C   UNL A   1      42.926  24.847  26.768  1.00  0.00     0.016 A 
ATOM     31  C   UNL A   1      43.469  27.586  27.071  1.00  0.00     0.010 A 
ATOM     32  C   UNL A   1      42.240  25.600  27.729  1.00  0.00     0.010 A 
ATOM     33  C   UNL A   1      42.534  26.964  27.909  1.00  0.00    -0.014 A 
BRANCH  33  34
ATOM     34  C   UNL A   1      41.981  27.713  29.064  1.00  0.00     0.031 A 
ATOM     35  C   UNL A   1      42.692  27.650  30.388  1.00  0.00     0.074 A 
ATOM     36  C   UNL A   1      40.884  28.478  28.927  1.00  0.00     0.049 A 
ATOM     37  N   UNL A   1      42.385  28.225  31.523  1.00  0.00    -0.248 NA
ATOM     38  C   UNL A   1      43.917  26.833  30.438  1.00  0.00     0.031 C 
ATOM     39  C   UNL A   1      40.130  28.662  27.689  1.00  0.00     0.029 A 
ATOM     40  N   UNL A   1      40.215  29.245  29.849  1.00  0.00    -0.354 N 
ATOM     41  C   UNL A   1      43.372  27.840  32.420  1.00  0.00     0.074 A 
ATOM     42  C   UNL A   1      44.273  26.961  31.708  1.00  0.00     0.031 C 
ATOM     43  C   UNL A   1      39.094  29.486  27.930  1.00  0.00     0.029 A 
ATOM     44  C   UNL A   1      39.099  29.863  29.342  1.00  0.00     0.049 A 
ATOM     45  H   UNL A   1      40.508  29.343  30.783  1.00  0.00     0.167 HD
ATOM     46  C   UNL A   1      43.523  28.192  33.720  1.00  0.00     0.031 A 
ATOM     47  C   UNL A   1      38.177  30.631  29.952  1.00  0.00     0.031 A 
ATOM     48  C   UNL A   1      42.621  29.052  34.438  1.00  0.00     0.049 A 
ATOM     49  C   UNL A   1      38.320  30.943  31.418  1.00  0.00     0.074 A 
ATOM     50  C   UNL A   1      42.694  29.469  35.757  1.00  0.00     0.029 A 
ATOM     51  N   UNL A   1      41.479  29.621  33.901  1.00  0.00    -0.354 N 
ATOM     52  N   UNL A   1      39.270  30.589  32.250  1.00  0.00    -0.248 NA
ATOM     53  C   UNL A   1      37.266  31.768  32.026  1.00  0.00     0.031 C 
ATOM     54  C   UNL A   1      41.567  30.252  36.030  1.00  0.00     0.029 A 
ATOM     55  C   UNL A   1      40.823  30.366  34.867  1.00  0.00     0.049 A 
ATOM     56  H   UNL A   1      41.178  29.513  32.969  1.00  0.00     0.167 HD
ATOM     57  C   UNL A   1      38.941  31.167  33.469  1.00  0.00     0.074 A 
ATOM     58  C   UNL A   1      37.713  31.906  33.267  1.00  0.00     0.031 C 
ATOM     59  C   UNL A   1      39.600  31.093  34.651  1.00  0.00     0.031 A 
BRANCH  46  60
ATOM     60  C   UNL A   1      44.697  27.615  34.458  1.00  0.00    -0.014 A 
ATOM     61  C   UNL A   1      45.913  28.310  34.546  1.00  0.00     0.009 A 
ATOM     62  C   UNL A   1      44.575  26.373  35.099  1.00  0.00     0.009 A 
ATOM     63  C   UNL A   1      46.994  27.757  35.236  1.00  0.00     0.001 A 
ATOM     64  C   UNL A   1      45.649  25.834  35.810  1.00  0.00     0.001 A 
ATOM     65  C   UNL A   1      46.860  26.522  35.870  1.00  0.00     0.000 A 
ENDBRANCH  46  60
BRANCH  47  66
ATOM     66  C   UNL A   1      37.013  31.145  29.184  1.00  0.00    -0.014 A 
ATOM     67  C   UNL A   1      35.944  30.302  28.849  1.00  0.00     0.009 A 
ATOM     68  C   UNL A   1      36.979  32.485  28.766  1.00  0.00     0.009 A 
ATOM     69  C   UNL A   1      34.875  30.783  28.089  1.00  0.00     0.001 A 
ATOM     70  C   UNL A   1      35.897  32.971  28.030  1.00  0.00     0.001 A 
ATOM     71  C   UNL A   1      34.850  32.118  27.685  1.00  0.00     0.000 A 
ENDBRANCH  47  66
BRANCH  59  72
ATOM     72  C   UNL A   1      39.024  31.857  35.811  1.00  0.00    -0.014 A 
ATOM     73  C   UNL A   1      39.310  33.218  36.002  1.00  0.00     0.009 A 
ATOM     74  C   UNL A   1      38.147  31.214  36.699  1.00  0.00     0.009 A 
ATOM     75  C   UNL A   1      38.754  33.911  37.078  1.00  0.00     0.001 A 
ATOM     76  C   UNL A   1      37.572  31.917  37.759  1.00  0.00     0.001 A 
ATOM     77  C   UNL A   1      37.882  33.262  37.952  1.00  0.00     0.000 A 
ENDBRANCH  59  72
ENDBRANCH  33  34
ENDBRANCH  26  28
ENDBRANCH  25  26
ENDBRANCH  24  25
ENDBRANCH  23  24
ENDBRANCH  22  23
ENDBRANCH   1  22
TORSDOF 18
ENDMDL
MODEL 3
REMARK VINA RESULT:      -8.0      5.238     10.888
REMARK SMILES C[C@@H](C(=O)OCCOCCOC(=O)c1ccc(-c2c3nc(c(-c4ccccc4)c4ccc([nH]4)c(-c4ccccc4)c4nc(c(-c5ccccc5)c5ccc2[nH]5)C=C4)C=C3)cc1)c1ccc(C[C@@H]2CCC[C@@H]2O)cc1
REMARK SMILES IDX 7 1 6 2 5 3 3 4 4 5 2 6 1 7 62 8 63 9 74 10 64 11 73 12
REMARK SMILES IDX 65 13 66 14 67 15 68 16 71 17 69 18 70 19 72 20 8 22 9 23
REMARK SMILES IDX 10 24 11 25 12 26 13 27 14 28 15 29 61 30 16 31 60 32 17 33
REMARK SMILES IDX 18 34 19 35 54 36 20 37 59 38 53 39 55 40 21 41 58 42 52 43
REMARK SMILES IDX 51 44 22 46 44 47 29 48 43 49 30 50 33 51 42 52 56 53 31 54
REMARK SMILES IDX 32 55 41 57 57 58 34 59 23 60 24 61 28 62 25 63 27 64 26 65
REMARK SMILES IDX 45 66 46 67 50 68 47 69 49 70 48 71 35 72 36 73 40 74 37 75
REMARK SMILES IDX 39 76 38 77
REMARK H PARENT 72 21 55 45 33 56
REMARK Flexibility Score: inf
ROOT
ATOM      1  C   UNL A   1      33.946  20.404  24.626  1.00  0.00     0.202 C 
ENDROOT
BRANCH   1   2
ATOM      2  C   UNL A   1      33.025  21.519  24.123  1.00  0.00     0.261 C 
BRANCH   2   3
ATOM      3  O   UNL A   1      32.360  22.148  25.227  1.00  0.00    -0.463 OA
BRANCH   3   4
ATOM      4  C   UNL A   1      33.032  23.184  25.800  1.00  0.00     0.313 C 
ATOM      5  O   UNL A   1      33.153  23.338  27.010  1.00  0.00    -0.252 OA
BRANCH   4   6
ATOM      6  C   UNL A   1      33.736  24.056  24.758  1.00  0.00     0.126 C 
ATOM      7  C   UNL A   1      35.187  24.370  25.149  1.00  0.00     0.025 C 
BRANCH   6   8
ATOM      8  C   UNL A   1      32.946  25.303  24.349  1.00  0.00    -0.034 A 
ATOM      9  C   UNL A   1      33.445  26.607  24.506  1.00  0.00     0.005 A 
ATOM     10  C   UNL A   1      31.628  25.168  23.880  1.00  0.00     0.005 A 
ATOM     11  C   UNL A   1      32.640  27.726  24.273  1.00  0.00     0.004 A 
ATOM     12  C   UNL A   1      30.821  26.287  23.656  1.00  0.00     0.004 A 
ATOM     13  C   UNL A   1      31.302  27.577  23.904  1.00  0.00    -0.048 A 
BRANCH  13  14
ATOM     14  C   UNL A   1      30.367  28.760  23.855  1.00  0.00     0.041 C 
BRANCH  14  15
ATOM     15  C   UNL A   1      29.530  28.959  22.566  1.00  0.00     0.022 C 
ATOM     16  C   UNL A   1      29.530  30.386  22.008  1.00  0.00     0.007 C 
ATOM     17  C   UNL A   1      28.032  28.637  22.631  1.00  0.00     0.117 C 
ATOM     18  C   UNL A   1      28.226  31.042  22.471  1.00  0.00     0.003 C 
ATOM     19  C   UNL A   1      27.370  29.934  23.077  1.00  0.00     0.032 C 
BRANCH  17  20
ATOM     20  O   UNL A   1      27.709  27.553  23.476  1.00  0.00    -0.393 OA
ATOM     21  H   UNL A   1      28.235  27.607  24.289  1.00  0.00     0.210 HD
ENDBRANCH  17  20
ENDBRANCH  14  15
ENDBRANCH  13  14
ENDBRANCH   6   8
ENDBRANCH   4   6
ENDBRANCH   3   4
ENDBRANCH   2   3
ENDBRANCH   1   2
BRANCH   1  22
ATOM     22  O   UNL A   1      35.324  20.749  24.774  1.00  0.00    -0.374 OA
BRANCH  22  23
ATOM     23  C   UNL A   1      36.258  19.688  24.995  1.00  0.00     0.202 C 
BRANCH  23  24
ATOM     24  C   UNL A   1      37.735  20.002  24.726  1.00  0.00     0.261 C 
BRANCH  24  25
ATOM     25  O   UNL A   1      38.186  21.180  25.421  1.00  0.00    -0.460 OA
BRANCH  25  26
ATOM     26  C   UNL A   1      39.348  21.026  26.100  1.00  0.00     0.338 C 
ATOM     27  O   UNL A   1      40.078  20.045  26.112  1.00  0.00    -0.246 OA
BRANCH  26  28
ATOM     28  C   UNL A   1      39.747  22.294  26.735  1.00  0.00     0.060 A 
ATOM     29  C   UNL A   1      39.076  23.456  26.333  1.00  0.00     0.016 A 
ATOM     30  C   UNL A   1      40.826  22.368  27.619  1.00  0.00     0.016 A 
ATOM     31  C   UNL A   1      39.512  24.703  26.775  1.00  0.00     0.010 A 
ATOM     32  C   UNL A   1      41.269  23.623  28.054  1.00  0.00     0.010 A 
ATOM     33  C   UNL A   1      40.638  24.797  27.605  1.00  0.00    -0.014 A 
BRANCH  33  34
ATOM     34  C   UNL A   1      41.231  26.129  27.876  1.00  0.00     0.031 A 
ATOM     35  C   UNL A   1      42.564  26.475  27.271  1.00  0.00     0.074 A 
ATOM     36  C   UNL A   1      40.573  27.039  28.616  1.00  0.00     0.049 A 
ATOM     37  N   UNL A   1      43.262  27.577  27.377  1.00  0.00    -0.248 NA
ATOM     38  C   UNL A   1      43.192  25.442  26.430  1.00  0.00     0.031 C 
ATOM     39  C   UNL A   1      39.256  26.847  29.219  1.00  0.00     0.029 A 
ATOM     40  N   UNL A   1      40.931  28.313  28.982  1.00  0.00    -0.354 N 
ATOM     41  C   UNL A   1      44.409  27.372  26.621  1.00  0.00     0.074 A 
ATOM     42  C   UNL A   1      44.328  26.031  26.084  1.00  0.00     0.031 C 
ATOM     43  C   UNL A   1      38.919  27.963  29.889  1.00  0.00     0.029 A 
ATOM     44  C   UNL A   1      40.006  28.934  29.783  1.00  0.00     0.049 A 
ATOM     45  H   UNL A   1      41.771  28.740  28.697  1.00  0.00     0.167 HD
ATOM     46  C   UNL A   1      45.435  28.225  26.386  1.00  0.00     0.031 A 
ATOM     47  C   UNL A   1      40.040  30.142  30.377  1.00  0.00     0.031 A 
ATOM     48  C   UNL A   1      45.530  29.552  26.930  1.00  0.00     0.049 A 
ATOM     49  C   UNL A   1      41.229  31.041  30.167  1.00  0.00     0.074 A 
ATOM     50  C   UNL A   1      46.531  30.492  26.744  1.00  0.00     0.029 A 
ATOM     51  N   UNL A   1      44.593  30.127  27.773  1.00  0.00    -0.354 N 
ATOM     52  N   UNL A   1      42.297  30.842  29.434  1.00  0.00    -0.248 NA
ATOM     53  C   UNL A   1      41.211  32.336  30.864  1.00  0.00     0.031 C 
ATOM     54  C   UNL A   1      46.221  31.618  27.515  1.00  0.00     0.029 A 
ATOM     55  C   UNL A   1      45.002  31.399  28.137  1.00  0.00     0.049 A 
ATOM     56  H   UNL A   1      43.758  29.695  28.068  1.00  0.00     0.167 HD
ATOM     57  C   UNL A   1      43.064  31.992  29.560  1.00  0.00     0.074 A 
ATOM     58  C   UNL A   1      42.334  32.891  30.430  1.00  0.00     0.031 C 
ATOM     59  C   UNL A   1      44.266  32.280  29.004  1.00  0.00     0.031 A 
BRANCH  46  60
ATOM     60  C   UNL A   1      46.559  27.727  25.522  1.00  0.00    -0.014 A 
ATOM     61  C   UNL A   1      46.621  28.043  24.156  1.00  0.00     0.009 A 
ATOM     62  C   UNL A   1      47.586  26.957  26.090  1.00  0.00     0.009 A 
ATOM     63  C   UNL A   1      47.673  27.571  23.368  1.00  0.00     0.001 A 
ATOM     64  C   UNL A   1      48.650  26.508  25.306  1.00  0.00     0.001 A 
ATOM     65  C   UNL A   1      48.688  26.807  23.945  1.00  0.00     0.000 A 
ENDBRANCH  46  60
BRANCH  47  66
ATOM     66  C   UNL A   1      38.919  30.570  31.254  1.00  0.00    -0.014 A 
ATOM     67  C   UNL A   1      37.836  31.294  30.734  1.00  0.00     0.009 A 
ATOM     68  C   UNL A   1      38.939  30.268  32.626  1.00  0.00     0.009 A 
ATOM     69  C   UNL A   1      36.809  31.730  31.574  1.00  0.00     0.001 A 
ATOM     70  C   UNL A   1      37.898  30.682  33.458  1.00  0.00     0.001 A 
ATOM     71  C   UNL A   1      36.838  31.419  32.933  1.00  0.00     0.000 A 
ENDBRANCH  47  66
BRANCH  59  72
ATOM     72  C   UNL A   1      44.853  33.634  29.292  1.00  0.00    -0.014 A 
ATOM     73  C   UNL A   1      44.548  34.746  28.492  1.00  0.00     0.009 A 
ATOM     74  C   UNL A   1      45.690  33.805  30.406  1.00  0.00     0.009 A 
ATOM     75  C   UNL A   1      45.095  35.996  28.786  1.00  0.00     0.001 A 
ATOM     76  C   UNL A   1      46.215  35.062  30.712  1.00  0.00     0.001 A 
ATOM     77  C   UNL A   1      45.923  36.155  29.896  1.00  0.00     0.000 A 
ENDBRANCH  59  72
ENDBRANCH  33  34
ENDBRANCH  26  28
ENDBRANCH  25  26
ENDBRANCH  24  25
ENDBRANCH  23  24
ENDBRANCH  22  23
ENDBRANCH   1  22
TORSDOF 18
ENDMDL
