MODEL 1
REMARK VINA RESULT:     -10.3      0.000      0.000
REMARK SMILES O=C(OCCOCCOC(=O)[C@@H]1CCC(=O)N(CCCOC2CCCCC2)[C@H]1c1ccco1)c1ccc(-c2c3nc(c(-c4ccccc4)c4ccc([nH]4)c(-c4ccccc4)c4nc(c(-c5ccccc5)c5ccc2[nH]5)C=C4)C=C3)cc1
REMARK SMILES IDX 7 1 6 2 5 3 4 4 3 5 2 6 1 7 34 8 35 9 81 10 36 11 80 12
REMARK SMILES IDX 37 13 38 14 39 15 74 16 40 17 79 18 73 19 75 20 41 21 78 22
REMARK SMILES IDX 72 23 71 24 42 26 64 27 49 28 63 29 50 30 53 31 62 32 76 33
REMARK SMILES IDX 51 34 52 35 61 37 77 38 54 39 43 40 44 41 48 42 45 43 47 44
REMARK SMILES IDX 46 45 65 46 66 47 70 48 67 49 69 50 68 51 55 52 56 53 60 54
REMARK SMILES IDX 57 55 59 56 58 57 8 58 9 59 10 60 11 61 12 62 13 63 28 64
REMARK SMILES IDX 14 65 17 66 15 67 16 68 29 69 30 70 33 71 31 72 32 73 18 74
REMARK SMILES IDX 19 75 20 76 21 77 22 78 23 79 27 80 24 81 26 82 25 83
REMARK H PARENT 75 25 53 36
REMARK Flexibility Score: inf
ROOT
ATOM      1  C   UNL A   1      34.838  31.663  27.780  1.00  0.00     0.202 C 
ENDROOT
BRANCH   1   2
ATOM      2  O   UNL A   1      34.693  33.076  27.916  1.00  0.00    -0.374 OA
BRANCH   2   3
ATOM      3  C   UNL A   1      33.506  33.520  28.557  1.00  0.00     0.202 C 
BRANCH   3   4
ATOM      4  C   UNL A   1      33.351  35.024  28.796  1.00  0.00     0.261 C 
BRANCH   4   5
ATOM      5  O   UNL A   1      32.454  35.344  29.874  1.00  0.00    -0.460 OA
BRANCH   5   6
ATOM      6  C   UNL A   1      32.877  35.805  31.078  1.00  0.00     0.338 C 
ATOM      7  O   UNL A   1      32.445  36.844  31.558  1.00  0.00    -0.246 OA
BRANCH   6   8
ATOM      8  C   UNL A   1      33.888  35.024  31.821  1.00  0.00     0.060 A 
ATOM      9  C   UNL A   1      33.561  33.792  32.380  1.00  0.00     0.016 A 
ATOM     10  C   UNL A   1      35.203  35.478  31.885  1.00  0.00     0.016 A 
ATOM     11  C   UNL A   1      34.485  33.072  33.117  1.00  0.00     0.010 A 
ATOM     12  C   UNL A   1      36.174  34.675  32.489  1.00  0.00     0.010 A 
ATOM     13  C   UNL A   1      35.822  33.456  33.099  1.00  0.00    -0.014 A 
BRANCH  13  14
ATOM     14  C   UNL A   1      36.869  32.538  33.611  1.00  0.00     0.031 A 
ATOM     15  C   UNL A   1      37.463  32.783  34.960  1.00  0.00     0.074 A 
ATOM     16  C   UNL A   1      37.337  31.546  32.826  1.00  0.00     0.049 A 
ATOM     17  N   UNL A   1      38.613  32.394  35.437  1.00  0.00    -0.248 NA
ATOM     18  C   UNL A   1      36.667  33.608  35.881  1.00  0.00     0.031 C 
ATOM     19  C   UNL A   1      36.794  31.153  31.521  1.00  0.00     0.029 A 
ATOM     20  N   UNL A   1      38.398  30.694  33.005  1.00  0.00    -0.354 N 
ATOM     21  C   UNL A   1      38.728  33.009  36.676  1.00  0.00     0.074 A 
ATOM     22  C   UNL A   1      37.513  33.769  36.888  1.00  0.00     0.031 C 
ATOM     23  C   UNL A   1      37.501  30.125  31.035  1.00  0.00     0.029 A 
ATOM     24  C   UNL A   1      38.628  29.881  31.920  1.00  0.00     0.049 A 
ATOM     25  H   UNL A   1      38.941  30.668  33.826  1.00  0.00     0.167 HD
ATOM     26  C   UNL A   1      39.778  32.966  37.529  1.00  0.00     0.031 A 
ATOM     27  C   UNL A   1      39.674  29.092  31.618  1.00  0.00     0.031 A 
ATOM     28  C   UNL A   1      40.959  32.180  37.288  1.00  0.00     0.049 A 
ATOM     29  C   UNL A   1      40.838  29.072  32.562  1.00  0.00     0.074 A 
ATOM     30  C   UNL A   1      42.099  32.063  38.061  1.00  0.00     0.029 A 
ATOM     31  N   UNL A   1      41.137  31.358  36.182  1.00  0.00    -0.354 N 
ATOM     32  N   UNL A   1      40.993  29.731  33.686  1.00  0.00    -0.248 NA
ATOM     33  C   UNL A   1      41.977  28.227  32.189  1.00  0.00     0.031 C 
ATOM     34  C   UNL A   1      42.980  31.196  37.404  1.00  0.00     0.029 A 
ATOM     35  C   UNL A   1      42.368  30.732  36.249  1.00  0.00     0.049 A 
ATOM     36  H   UNL A   1      40.482  31.239  35.456  1.00  0.00     0.167 HD
ATOM     37  C   UNL A   1      42.243  29.371  34.164  1.00  0.00     0.074 A 
ATOM     38  C   UNL A   1      42.797  28.425  33.214  1.00  0.00     0.031 C 
ATOM     39  C   UNL A   1      42.876  29.785  35.289  1.00  0.00     0.031 A 
BRANCH  26  40
ATOM     40  C   UNL A   1      39.717  33.867  38.732  1.00  0.00    -0.014 A 
ATOM     41  C   UNL A   1      39.236  33.423  39.974  1.00  0.00     0.009 A 
ATOM     42  C   UNL A   1      40.107  35.210  38.600  1.00  0.00     0.009 A 
ATOM     43  C   UNL A   1      39.090  34.320  41.037  1.00  0.00     0.001 A 
ATOM     44  C   UNL A   1      39.990  36.096  39.673  1.00  0.00     0.001 A 
ATOM     45  C   UNL A   1      39.465  35.654  40.885  1.00  0.00     0.000 A 
ENDBRANCH  26  40
BRANCH  27  46
ATOM     46  C   UNL A   1      39.684  28.338  30.336  1.00  0.00    -0.014 A 
ATOM     47  C   UNL A   1      40.303  28.876  29.199  1.00  0.00     0.009 A 
ATOM     48  C   UNL A   1      39.139  27.044  30.262  1.00  0.00     0.009 A 
ATOM     49  C   UNL A   1      40.373  28.136  28.015  1.00  0.00     0.001 A 
ATOM     50  C   UNL A   1      39.239  26.296  29.087  1.00  0.00     0.001 A 
ATOM     51  C   UNL A   1      39.852  26.845  27.963  1.00  0.00     0.000 A 
ENDBRANCH  27  46
BRANCH  39  52
ATOM     52  C   UNL A   1      44.212  29.170  35.576  1.00  0.00    -0.014 A 
ATOM     53  C   UNL A   1      45.403  29.790  35.172  1.00  0.00     0.009 A 
ATOM     54  C   UNL A   1      44.272  27.986  36.326  1.00  0.00     0.009 A 
ATOM     55  C   UNL A   1      46.634  29.222  35.501  1.00  0.00     0.001 A 
ATOM     56  C   UNL A   1      45.504  27.433  36.674  1.00  0.00     0.001 A 
ATOM     57  C   UNL A   1      46.683  28.050  36.258  1.00  0.00     0.000 A 
ENDBRANCH  39  52
ENDBRANCH  13  14
ENDBRANCH   6   8
ENDBRANCH   5   6
ENDBRANCH   4   5
ENDBRANCH   3   4
ENDBRANCH   2   3
ENDBRANCH   1   2
BRANCH   1  58
ATOM     58  C   UNL A   1      33.549  31.061  27.232  1.00  0.00     0.261 C 
BRANCH  58  59
ATOM     59  O   UNL A   1      33.847  29.807  26.587  1.00  0.00    -0.463 OA
BRANCH  59  60
ATOM     60  C   UNL A   1      32.899  29.322  25.745  1.00  0.00     0.311 C 
ATOM     61  O   UNL A   1      31.700  29.550  25.835  1.00  0.00    -0.252 OA
BRANCH  60  62
ATOM     62  C   UNL A   1      33.485  28.354  24.730  1.00  0.00     0.130 C 
ATOM     63  C   UNL A   1      33.674  28.864  23.309  1.00  0.00     0.028 C 
ATOM     64  C   UNL A   1      32.689  27.034  24.734  1.00  0.00     0.166 C 
ATOM     65  C   UNL A   1      32.380  28.970  22.543  1.00  0.00     0.101 C 
ATOM     66  N   UNL A   1      31.564  26.944  23.778  1.00  0.00    -0.332 N 
ATOM     67  C   UNL A   1      31.375  27.855  22.747  1.00  0.00     0.223 C 
ATOM     68  O   UNL A   1      30.359  27.867  22.046  1.00  0.00    -0.275 OA
BRANCH  64  69
ATOM     69  C   UNL A   1      33.654  25.894  24.571  1.00  0.00     0.127 A 
ATOM     70  C   UNL A   1      34.469  25.249  25.482  1.00  0.00     0.048 A 
ATOM     71  O   UNL A   1      33.808  25.338  23.337  1.00  0.00    -0.467 OA
ATOM     72  C   UNL A   1      35.101  24.200  24.779  1.00  0.00     0.042 A 
ATOM     73  C   UNL A   1      34.655  24.286  23.482  1.00  0.00     0.195 A 
ENDBRANCH  64  69
BRANCH  66  74
ATOM     74  C   UNL A   1      30.461  25.980  24.025  1.00  0.00     0.122 C 
BRANCH  74  75
ATOM     75  C   UNL A   1      30.306  24.743  23.139  1.00  0.00     0.050 C 
BRANCH  75  76
ATOM     76  C   UNL A   1      30.830  23.423  23.708  1.00  0.00     0.162 C 
BRANCH  76  77
ATOM     77  O   UNL A   1      31.319  23.572  25.030  1.00  0.00    -0.378 OA
BRANCH  77  78
ATOM     78  C   UNL A   1      31.612  22.469  25.894  1.00  0.00     0.118 C 
ATOM     79  C   UNL A   1      32.397  21.253  25.371  1.00  0.00     0.032 C 
ATOM     80  C   UNL A   1      32.102  23.086  27.211  1.00  0.00     0.032 C 
ATOM     81  C   UNL A   1      33.778  20.963  25.959  1.00  0.00     0.003 C 
ATOM     82  C   UNL A   1      33.051  22.205  28.003  1.00  0.00     0.003 C 
ATOM     83  C   UNL A   1      34.224  21.838  27.121  1.00  0.00     0.000 C 
ENDBRANCH  77  78
ENDBRANCH  76  77
ENDBRANCH  75  76
ENDBRANCH  74  75
ENDBRANCH  66  74
ENDBRANCH  60  62
ENDBRANCH  59  60
ENDBRANCH  58  59
ENDBRANCH   1  58
TORSDOF 20
ENDMDL
MODEL 2
REMARK VINA RESULT:     -10.2      5.212      7.227
REMARK SMILES O=C(OCCOCCOC(=O)[C@@H]1CCC(=O)N(CCCOC2CCCCC2)[C@H]1c1ccco1)c1ccc(-c2c3nc(c(-c4ccccc4)c4ccc([nH]4)c(-c4ccccc4)c4nc(c(-c5ccccc5)c5ccc2[nH]5)C=C4)C=C3)cc1
REMARK SMILES IDX 7 1 6 2 5 3 4 4 3 5 2 6 1 7 34 8 35 9 81 10 36 11 80 12
REMARK SMILES IDX 37 13 38 14 39 15 74 16 40 17 79 18 73 19 75 20 41 21 78 22
REMARK SMILES IDX 72 23 71 24 42 26 64 27 49 28 63 29 50 30 53 31 62 32 76 33
REMARK SMILES IDX 51 34 52 35 61 37 77 38 54 39 43 40 44 41 48 42 45 43 47 44
REMARK SMILES IDX 46 45 65 46 66 47 70 48 67 49 69 50 68 51 55 52 56 53 60 54
REMARK SMILES IDX 57 55 59 56 58 57 8 58 9 59 10 60 11 61 12 62 13 63 28 64
REMARK SMILES IDX 14 65 17 66 15 67 16 68 29 69 30 70 33 71 31 72 32 73 18 74
REMARK SMILES IDX 19 75 20 76 21 77 22 78 23 79 27 80 24 81 26 82 25 83
REMARK H PARENT 75 25 53 36
REMARK Flexibility Score: inf
ROOT
ATOM      1  C   UNL A   1      30.533  29.625  24.213  1.00  0.00     0.202 C 
ENDROOT
BRANCH   1   2
ATOM      2  O   UNL A   1      31.948  29.573  24.388  1.00  0.00    -0.374 OA
BRANCH   2   3
ATOM      3  C   UNL A   1      32.429  29.938  25.673  1.00  0.00     0.202 C 
BRANCH   3   4
ATOM      4  C   UNL A   1      33.652  29.190  26.210  1.00  0.00     0.261 C 
BRANCH   4   5
ATOM      5  O   UNL A   1      33.895  29.418  27.609  1.00  0.00    -0.460 OA
BRANCH   5   6
ATOM      6  C   UNL A   1      34.732  30.383  28.068  1.00  0.00     0.338 C 
ATOM      7  O   UNL A   1      34.343  31.523  28.286  1.00  0.00    -0.246 OA
BRANCH   6   8
ATOM      8  C   UNL A   1      36.149  30.038  28.307  1.00  0.00     0.060 A 
ATOM      9  C   UNL A   1      36.551  29.495  29.525  1.00  0.00     0.016 A 
ATOM     10  C   UNL A   1      37.076  30.169  27.276  1.00  0.00     0.016 A 
ATOM     11  C   UNL A   1      37.881  29.210  29.778  1.00  0.00     0.010 A 
ATOM     12  C   UNL A   1      38.388  29.731  27.477  1.00  0.00     0.010 A 
ATOM     13  C   UNL A   1      38.796  29.234  28.730  1.00  0.00    -0.014 A 
BRANCH  13  14
ATOM     14  C   UNL A   1      40.143  28.636  28.902  1.00  0.00     0.031 A 
ATOM     15  C   UNL A   1      41.296  29.518  29.258  1.00  0.00     0.074 A 
ATOM     16  C   UNL A   1      40.334  27.325  28.653  1.00  0.00     0.049 A 
ATOM     17  N   UNL A   1      42.573  29.319  29.074  1.00  0.00    -0.248 NA
ATOM     18  C   UNL A   1      40.961  30.812  29.871  1.00  0.00     0.031 C 
ATOM     19  C   UNL A   1      39.284  26.341  28.371  1.00  0.00     0.029 A 
ATOM     20  N   UNL A   1      41.492  26.592  28.576  1.00  0.00    -0.354 N 
ATOM     21  C   UNL A   1      43.190  30.503  29.453  1.00  0.00     0.074 A 
ATOM     22  C   UNL A   1      42.148  31.399  29.910  1.00  0.00     0.031 C 
ATOM     23  C   UNL A   1      39.838  25.136  28.183  1.00  0.00     0.029 A 
ATOM     24  C   UNL A   1      41.283  25.289  28.190  1.00  0.00     0.049 A 
ATOM     25  H   UNL A   1      42.382  26.962  28.776  1.00  0.00     0.167 HD
ATOM     26  C   UNL A   1      44.506  30.812  29.382  1.00  0.00     0.031 A 
ATOM     27  C   UNL A   1      42.149  24.340  27.793  1.00  0.00     0.031 A 
ATOM     28  C   UNL A   1      45.512  29.882  28.940  1.00  0.00     0.049 A 
ATOM     29  C   UNL A   1      43.600  24.704  27.698  1.00  0.00     0.074 A 
ATOM     30  C   UNL A   1      46.874  30.073  28.804  1.00  0.00     0.029 A 
ATOM     31  N   UNL A   1      45.252  28.566  28.577  1.00  0.00    -0.354 N 
ATOM     32  N   UNL A   1      44.175  25.853  27.960  1.00  0.00    -0.248 NA
ATOM     33  C   UNL A   1      44.514  23.657  27.231  1.00  0.00     0.031 C 
ATOM     34  C   UNL A   1      47.433  28.882  28.325  1.00  0.00     0.029 A 
ATOM     35  C   UNL A   1      46.427  27.933  28.214  1.00  0.00     0.049 A 
ATOM     36  H   UNL A   1      44.362  28.145  28.577  1.00  0.00     0.167 HD
ATOM     37  C   UNL A   1      45.524  25.667  27.703  1.00  0.00     0.074 A 
ATOM     38  C   UNL A   1      45.681  24.289  27.277  1.00  0.00     0.031 C 
ATOM     39  C   UNL A   1      46.543  26.555  27.809  1.00  0.00     0.031 A 
BRANCH  26  40
ATOM     40  C   UNL A   1      44.892  32.231  29.695  1.00  0.00    -0.014 A 
ATOM     41  C   UNL A   1      45.327  32.622  30.971  1.00  0.00     0.009 A 
ATOM     42  C   UNL A   1      44.768  33.210  28.695  1.00  0.00     0.009 A 
ATOM     43  C   UNL A   1      45.569  33.970  31.253  1.00  0.00     0.001 A 
ATOM     44  C   UNL A   1      45.041  34.551  28.971  1.00  0.00     0.001 A 
ATOM     45  C   UNL A   1      45.424  34.932  30.255  1.00  0.00     0.000 A 
ENDBRANCH  26  40
BRANCH  27  46
ATOM     46  C   UNL A   1      41.642  23.003  27.385  1.00  0.00    -0.014 A 
ATOM     47  C   UNL A   1      42.166  21.837  27.960  1.00  0.00     0.009 A 
ATOM     48  C   UNL A   1      40.579  22.888  26.472  1.00  0.00     0.009 A 
ATOM     49  C   UNL A   1      41.639  20.585  27.628  1.00  0.00     0.001 A 
ATOM     50  C   UNL A   1      40.034  21.639  26.167  1.00  0.00     0.001 A 
ATOM     51  C   UNL A   1      40.568  20.488  26.742  1.00  0.00     0.000 A 
ENDBRANCH  27  46
BRANCH  39  52
ATOM     52  C   UNL A   1      47.919  26.042  27.514  1.00  0.00    -0.014 A 
ATOM     53  C   UNL A   1      48.505  26.206  26.251  1.00  0.00     0.009 A 
ATOM     54  C   UNL A   1      48.662  25.447  28.545  1.00  0.00     0.009 A 
ATOM     55  C   UNL A   1      49.809  25.767  26.022  1.00  0.00     0.001 A 
ATOM     56  C   UNL A   1      49.973  25.031  28.320  1.00  0.00     0.001 A 
ATOM     57  C   UNL A   1      50.543  25.188  27.057  1.00  0.00     0.000 A 
ENDBRANCH  39  52
ENDBRANCH  13  14
ENDBRANCH   6   8
ENDBRANCH   5   6
ENDBRANCH   4   5
ENDBRANCH   3   4
ENDBRANCH   2   3
ENDBRANCH   1   2
BRANCH   1  58
ATOM     58  C   UNL A   1      30.056  28.377  23.479  1.00  0.00     0.261 C 
BRANCH  58  59
ATOM     59  O   UNL A   1      31.087  27.370  23.535  1.00  0.00    -0.463 OA
BRANCH  59  60
ATOM     60  C   UNL A   1      31.019  26.494  24.569  1.00  0.00     0.311 C 
ATOM     61  O   UNL A   1      30.027  26.301  25.259  1.00  0.00    -0.252 OA
BRANCH  60  62
ATOM     62  C   UNL A   1      32.366  25.852  24.856  1.00  0.00     0.130 C 
ATOM     63  C   UNL A   1      33.567  26.375  24.083  1.00  0.00     0.028 C 
ATOM     64  C   UNL A   1      32.262  24.319  24.730  1.00  0.00     0.166 C 
ATOM     65  C   UNL A   1      33.592  25.914  22.647  1.00  0.00     0.101 C 
ATOM     66  N   UNL A   1      32.570  23.749  23.400  1.00  0.00    -0.332 N 
ATOM     67  C   UNL A   1      33.175  24.481  22.387  1.00  0.00     0.223 C 
ATOM     68  O   UNL A   1      33.294  24.053  21.235  1.00  0.00    -0.275 OA
BRANCH  64  69
ATOM     69  C   UNL A   1      33.094  23.693  25.812  1.00  0.00     0.127 A 
ATOM     70  C   UNL A   1      32.748  23.181  27.050  1.00  0.00     0.048 A 
ATOM     71  O   UNL A   1      34.436  23.565  25.617  1.00  0.00    -0.467 OA
ATOM     72  C   UNL A   1      33.933  22.652  27.607  1.00  0.00     0.042 A 
ATOM     73  C   UNL A   1      34.929  22.896  26.691  1.00  0.00     0.195 A 
ENDBRANCH  64  69
BRANCH  66  74
ATOM     74  C   UNL A   1      32.038  22.412  23.030  1.00  0.00     0.122 C 
BRANCH  74  75
ATOM     75  C   UNL A   1      32.684  21.144  23.591  1.00  0.00     0.050 C 
BRANCH  75  76
ATOM     76  C   UNL A   1      31.943  20.446  24.732  1.00  0.00     0.162 C 
BRANCH  76  77
ATOM     77  O   UNL A   1      32.639  19.301  25.196  1.00  0.00    -0.378 OA
BRANCH  77  78
ATOM     78  C   UNL A   1      32.526  18.008  24.593  1.00  0.00     0.118 C 
ATOM     79  C   UNL A   1      33.316  17.668  23.317  1.00  0.00     0.032 C 
ATOM     80  C   UNL A   1      32.619  16.998  25.745  1.00  0.00     0.032 C 
ATOM     81  C   UNL A   1      34.396  16.588  23.387  1.00  0.00     0.003 C 
ATOM     82  C   UNL A   1      33.169  15.640  25.347  1.00  0.00     0.003 C 
ATOM     83  C   UNL A   1      34.523  15.834  24.701  1.00  0.00     0.000 C 
ENDBRANCH  77  78
ENDBRANCH  76  77
ENDBRANCH  75  76
ENDBRANCH  74  75
ENDBRANCH  66  74
ENDBRANCH  60  62
ENDBRANCH  59  60
ENDBRANCH  58  59
ENDBRANCH   1  58
TORSDOF 20
ENDMDL
MODEL 3
REMARK VINA RESULT:     -10.1      4.624      7.011
REMARK SMILES O=C(OCCOCCOC(=O)[C@@H]1CCC(=O)N(CCCOC2CCCCC2)[C@H]1c1ccco1)c1ccc(-c2c3nc(c(-c4ccccc4)c4ccc([nH]4)c(-c4ccccc4)c4nc(c(-c5ccccc5)c5ccc2[nH]5)C=C4)C=C3)cc1
REMARK SMILES IDX 7 1 6 2 5 3 4 4 3 5 2 6 1 7 34 8 35 9 81 10 36 11 80 12
REMARK SMILES IDX 37 13 38 14 39 15 74 16 40 17 79 18 73 19 75 20 41 21 78 22
REMARK SMILES IDX 72 23 71 24 42 26 64 27 49 28 63 29 50 30 53 31 62 32 76 33
REMARK SMILES IDX 51 34 52 35 61 37 77 38 54 39 43 40 44 41 48 42 45 43 47 44
REMARK SMILES IDX 46 45 65 46 66 47 70 48 67 49 69 50 68 51 55 52 56 53 60 54
REMARK SMILES IDX 57 55 59 56 58 57 8 58 9 59 10 60 11 61 12 62 13 63 28 64
REMARK SMILES IDX 14 65 17 66 15 67 16 68 29 69 30 70 33 71 31 72 32 73 18 74
REMARK SMILES IDX 19 75 20 76 21 77 22 78 23 79 27 80 24 81 26 82 25 83
REMARK H PARENT 75 25 53 36
REMARK Flexibility Score: inf
ROOT
ATOM      1  C   UNL A   1      33.619  30.123  26.508  1.00  0.00     0.202 C 
ENDROOT
BRANCH   1   2
ATOM      2  O   UNL A   1      33.596  30.835  27.744  1.00  0.00    -0.374 OA
BRANCH   2   3
ATOM      3  C   UNL A   1      33.568  32.252  27.645  1.00  0.00     0.202 C 
BRANCH   3   4
ATOM      4  C   UNL A   1      34.103  33.055  28.833  1.00  0.00     0.261 C 
BRANCH   4   5
ATOM      5  O   UNL A   1      34.231  32.282  30.038  1.00  0.00    -0.460 OA
BRANCH   5   6
ATOM      6  C   UNL A   1      35.306  32.366  30.863  1.00  0.00     0.338 C 
ATOM      7  O   UNL A   1      35.293  33.063  31.869  1.00  0.00    -0.246 OA
BRANCH   6   8
ATOM      8  C   UNL A   1      36.520  31.593  30.527  1.00  0.00     0.060 A 
ATOM      9  C   UNL A   1      37.073  31.661  29.251  1.00  0.00     0.016 A 
ATOM     10  C   UNL A   1      37.170  30.862  31.518  1.00  0.00     0.016 A 
ATOM     11  C   UNL A   1      38.182  30.907  28.910  1.00  0.00     0.010 A 
ATOM     12  C   UNL A   1      38.380  30.230  31.217  1.00  0.00     0.010 A 
ATOM     13  C   UNL A   1      38.902  30.260  29.910  1.00  0.00    -0.014 A 
BRANCH  13  14
ATOM     14  C   UNL A   1      40.252  29.716  29.623  1.00  0.00     0.031 A 
ATOM     15  C   UNL A   1      41.427  30.638  29.610  1.00  0.00     0.074 A 
ATOM     16  C   UNL A   1      40.397  28.416  29.291  1.00  0.00     0.049 A 
ATOM     17  N   UNL A   1      42.581  30.495  29.019  1.00  0.00    -0.248 NA
ATOM     18  C   UNL A   1      41.264  31.909  30.332  1.00  0.00     0.031 C 
ATOM     19  C   UNL A   1      39.346  27.394  29.338  1.00  0.00     0.029 A 
ATOM     20  N   UNL A   1      41.492  27.733  28.826  1.00  0.00    -0.354 N 
ATOM     21  C   UNL A   1      43.247  31.697  29.209  1.00  0.00     0.074 A 
ATOM     22  C   UNL A   1      42.379  32.544  30.001  1.00  0.00     0.031 C 
ATOM     23  C   UNL A   1      39.851  26.216  28.950  1.00  0.00     0.029 A 
ATOM     24  C   UNL A   1      41.214  26.428  28.494  1.00  0.00     0.049 A 
ATOM     25  H   UNL A   1      42.386  28.136  28.737  1.00  0.00     0.167 HD
ATOM     26  C   UNL A   1      44.458  32.061  28.725  1.00  0.00     0.031 A 
ATOM     27  C   UNL A   1      41.937  25.520  27.814  1.00  0.00     0.031 A 
ATOM     28  C   UNL A   1      45.298  31.178  27.958  1.00  0.00     0.049 A 
ATOM     29  C   UNL A   1      43.265  25.944  27.266  1.00  0.00     0.074 A 
ATOM     30  C   UNL A   1      46.535  31.427  27.395  1.00  0.00     0.029 A 
ATOM     31  N   UNL A   1      44.980  29.858  27.664  1.00  0.00    -0.354 N 
ATOM     32  N   UNL A   1      43.855  27.112  27.358  1.00  0.00    -0.248 NA
ATOM     33  C   UNL A   1      44.015  24.942  26.501  1.00  0.00     0.031 C 
ATOM     34  C   UNL A   1      46.950  30.267  26.731  1.00  0.00     0.029 A 
ATOM     35  C   UNL A   1      45.995  29.279  26.925  1.00  0.00     0.049 A 
ATOM     36  H   UNL A   1      44.153  29.401  27.940  1.00  0.00     0.167 HD
ATOM     37  C   UNL A   1      45.054  26.984  26.674  1.00  0.00     0.074 A 
ATOM     38  C   UNL A   1      45.111  25.620  26.185  1.00  0.00     0.031 C 
ATOM     39  C   UNL A   1      46.021  27.912  26.469  1.00  0.00     0.031 A 
BRANCH  26  40
ATOM     40  C   UNL A   1      44.875  33.490  28.934  1.00  0.00    -0.014 A 
ATOM     41  C   UNL A   1      45.613  33.896  30.057  1.00  0.00     0.009 A 
ATOM     42  C   UNL A   1      44.475  34.462  28.002  1.00  0.00     0.009 A 
ATOM     43  C   UNL A   1      45.885  35.250  30.272  1.00  0.00     0.001 A 
ATOM     44  C   UNL A   1      44.776  35.810  28.203  1.00  0.00     0.001 A 
ATOM     45  C   UNL A   1      45.466  36.205  29.347  1.00  0.00     0.000 A 
ENDBRANCH  26  40
BRANCH  27  46
ATOM     46  C   UNL A   1      41.371  24.169  27.557  1.00  0.00    -0.014 A 
ATOM     47  C   UNL A   1      41.811  23.061  28.295  1.00  0.00     0.009 A 
ATOM     48  C   UNL A   1      40.334  23.992  26.624  1.00  0.00     0.009 A 
ATOM     49  C   UNL A   1      41.227  21.805  28.102  1.00  0.00     0.001 A 
ATOM     50  C   UNL A   1      39.733  22.744  26.456  1.00  0.00     0.001 A 
ATOM     51  C   UNL A   1      40.182  21.650  27.192  1.00  0.00     0.000 A 
ENDBRANCH  27  46
BRANCH  39  52
ATOM     52  C   UNL A   1      47.244  27.460  25.732  1.00  0.00    -0.014 A 
ATOM     53  C   UNL A   1      48.348  26.923  26.410  1.00  0.00     0.009 A 
ATOM     54  C   UNL A   1      47.256  27.512  24.330  1.00  0.00     0.009 A 
ATOM     55  C   UNL A   1      49.452  26.460  25.693  1.00  0.00     0.001 A 
ATOM     56  C   UNL A   1      48.350  27.026  23.615  1.00  0.00     0.001 A 
ATOM     57  C   UNL A   1      49.448  26.504  24.299  1.00  0.00     0.000 A 
ENDBRANCH  39  52
ENDBRANCH  13  14
ENDBRANCH   6   8
ENDBRANCH   5   6
ENDBRANCH   4   5
ENDBRANCH   3   4
ENDBRANCH   2   3
ENDBRANCH   1   2
BRANCH   1  58
ATOM     58  C   UNL A   1      33.127  28.697  26.724  1.00  0.00     0.261 C 
BRANCH  58  59
ATOM     59  O   UNL A   1      33.760  27.825  25.765  1.00  0.00    -0.463 OA
BRANCH  59  60
ATOM     60  C   UNL A   1      33.111  27.655  24.585  1.00  0.00     0.311 C 
ATOM     61  O   UNL A   1      32.141  28.306  24.219  1.00  0.00    -0.252 OA
BRANCH  60  62
ATOM     62  C   UNL A   1      33.659  26.473  23.803  1.00  0.00     0.130 C 
ATOM     63  C   UNL A   1      33.150  26.281  22.382  1.00  0.00     0.028 C 
ATOM     64  C   UNL A   1      33.499  25.176  24.619  1.00  0.00     0.166 C 
ATOM     65  C   UNL A   1      31.745  25.738  22.326  1.00  0.00     0.101 C 
ATOM     66  N   UNL A   1      32.253  24.410  24.395  1.00  0.00    -0.332 N 
ATOM     67  C   UNL A   1      31.391  24.665  23.336  1.00  0.00     0.223 C 
ATOM     68  O   UNL A   1      30.283  24.130  23.235  1.00  0.00    -0.275 OA
BRANCH  64  69
ATOM     69  C   UNL A   1      34.721  24.327  24.413  1.00  0.00     0.127 A 
ATOM     70  C   UNL A   1      35.732  23.956  25.279  1.00  0.00     0.048 A 
ATOM     71  O   UNL A   1      34.944  23.787  23.183  1.00  0.00    -0.467 OA
ATOM     72  C   UNL A   1      36.578  23.087  24.556  1.00  0.00     0.042 A 
ATOM     73  C   UNL A   1      36.048  23.003  23.290  1.00  0.00     0.195 A 
ENDBRANCH  64  69
BRANCH  66  74
ATOM     74  C   UNL A   1      31.769  23.467  25.435  1.00  0.00     0.122 C 
BRANCH  74  75
ATOM     75  C   UNL A   1      31.945  21.958  25.250  1.00  0.00     0.050 C 
BRANCH  75  76
ATOM     76  C   UNL A   1      33.120  21.311  25.985  1.00  0.00     0.162 C 
BRANCH  76  77
ATOM     77  O   UNL A   1      33.195  19.916  25.741  1.00  0.00    -0.378 OA
BRANCH  77  78
ATOM     78  C   UNL A   1      33.749  19.350  24.549  1.00  0.00     0.118 C 
ATOM     79  C   UNL A   1      34.993  18.447  24.617  1.00  0.00     0.032 C 
ATOM     80  C   UNL A   1      32.556  18.814  23.746  1.00  0.00     0.032 C 
ATOM     81  C   UNL A   1      34.857  16.977  24.217  1.00  0.00     0.003 C 
ATOM     82  C   UNL A   1      32.888  17.649  22.831  1.00  0.00     0.003 C 
ATOM     83  C   UNL A   1      33.510  16.545  23.656  1.00  0.00     0.000 C 
ENDBRANCH  77  78
ENDBRANCH  76  77
ENDBRANCH  75  76
ENDBRANCH  74  75
ENDBRANCH  66  74
ENDBRANCH  60  62
ENDBRANCH  59  60
ENDBRANCH  58  59
ENDBRANCH   1  58
TORSDOF 20
ENDMDL
