MODEL 1
REMARK VINA RESULT:      -9.1      0.000      0.000
REMARK SMILES C/C=C/c1cncc(-c2ccc([C@@H](C)C(=O)OCCOCCOC(=O)c3ccc(-c4c5nc(c(-c6ccccc6)c6ccc([nH]6)c(-c6ccccc6)c6nc(c(-c7ccccc7)c7ccc4[nH]7)C=C6)C=C5)cc3)cc2)c1
REMARK SMILES IDX 19 1 18 2 17 3 15 4 16 5 13 6 14 7 12 8 9 9 10 10 75 11
REMARK SMILES IDX 11 12 74 13 8 14 4 15 5 16 76 17 6 18 7 19 3 20 1 21 2 22
REMARK SMILES IDX 20 23 21 24 22 25 23 26 24 27 25 28 26 29 27 30 73 31 28 32
REMARK SMILES IDX 72 33 29 34 30 35 31 36 66 37 32 38 71 39 65 40 67 41 33 42
REMARK SMILES IDX 70 43 64 44 63 45 34 47 56 48 41 49 55 50 42 51 45 52 54 53
REMARK SMILES IDX 68 54 43 55 44 56 53 58 69 59 46 60 35 61 36 62 40 63 37 64
REMARK SMILES IDX 39 65 38 66 57 67 58 68 62 69 59 70 61 71 60 72 47 73 48 74
REMARK SMILES IDX 52 75 49 76 51 77 50 78
REMARK H PARENT 67 46 45 57
REMARK Flexibility Score: inf
ROOT
ATOM      1  C   UNL A   1      32.919  36.117  30.295  1.00  0.00     0.202 C 
ENDROOT
BRANCH   1   2
ATOM      2  C   UNL A   1      33.700  35.896  31.593  1.00  0.00     0.261 C 
BRANCH   2   3
ATOM      3  O   UNL A   1      33.573  34.534  32.043  1.00  0.00    -0.463 OA
BRANCH   3   4
ATOM      4  C   UNL A   1      34.575  33.689  31.685  1.00  0.00     0.313 C 
ATOM      5  O   UNL A   1      34.401  32.565  31.226  1.00  0.00    -0.252 OA
BRANCH   4   6
ATOM      6  C   UNL A   1      35.969  34.241  31.948  1.00  0.00     0.126 C 
ATOM      7  C   UNL A   1      36.897  33.816  30.813  1.00  0.00     0.025 C 
BRANCH   6   8
ATOM      8  C   UNL A   1      36.587  33.981  33.319  1.00  0.00    -0.034 A 
ATOM      9  C   UNL A   1      37.654  33.689  35.944  1.00  0.00    -0.017 A 
ATOM     10  C   UNL A   1      38.490  33.919  34.840  1.00  0.00     0.009 A 
ATOM     11  C   UNL A   1      36.278  33.571  35.708  1.00  0.00     0.009 A 
ATOM     12  C   UNL A   1      37.966  34.062  33.549  1.00  0.00     0.005 A 
ATOM     13  C   UNL A   1      35.752  33.716  34.418  1.00  0.00     0.005 A 
BRANCH   9  14
ATOM     14  C   UNL A   1      38.200  33.624  37.305  1.00  0.00     0.001 A 
ATOM     15  C   UNL A   1      39.400  34.592  39.190  1.00  0.00    -0.007 A 
ATOM     16  C   UNL A   1      39.201  33.388  39.859  1.00  0.00     0.119 A 
ATOM     17  C   UNL A   1      38.901  34.692  37.885  1.00  0.00     0.020 A 
ATOM     18  N   UNL A   1      38.538  32.328  39.343  1.00  0.00    -0.263 NA
ATOM     19  C   UNL A   1      38.057  32.476  38.086  1.00  0.00     0.119 A 
BRANCH  15  20
ATOM     20  C   UNL A   1      40.141  35.675  39.845  1.00  0.00     0.005 C 
ATOM     21  C   UNL A   1      40.850  38.061  40.102  1.00  0.00     0.035 C 
ATOM     22  C   UNL A   1      40.132  36.945  39.412  1.00  0.00    -0.030 C 
ENDBRANCH  15  20
ENDBRANCH   9  14
ENDBRANCH   6   8
ENDBRANCH   4   6
ENDBRANCH   3   4
ENDBRANCH   2   3
ENDBRANCH   1   2
BRANCH   1  23
ATOM     23  O   UNL A   1      32.541  34.934  29.591  1.00  0.00    -0.374 OA
BRANCH  23  24
ATOM     24  C   UNL A   1      33.232  34.653  28.373  1.00  0.00     0.202 C 
BRANCH  24  25
ATOM     25  C   UNL A   1      33.212  33.192  27.912  1.00  0.00     0.261 C 
BRANCH  25  26
ATOM     26  O   UNL A   1      34.540  32.666  27.728  1.00  0.00    -0.460 OA
BRANCH  26  27
ATOM     27  C   UNL A   1      34.619  31.317  27.679  1.00  0.00     0.338 C 
ATOM     28  O   UNL A   1      33.937  30.555  27.010  1.00  0.00    -0.246 OA
BRANCH  27  29
ATOM     29  C   UNL A   1      35.793  30.854  28.442  1.00  0.00     0.060 A 
ATOM     30  C   UNL A   1      37.028  31.446  28.150  1.00  0.00     0.016 A 
ATOM     31  C   UNL A   1      35.707  29.812  29.368  1.00  0.00     0.016 A 
ATOM     32  C   UNL A   1      38.191  30.969  28.749  1.00  0.00     0.010 A 
ATOM     33  C   UNL A   1      36.878  29.327  29.962  1.00  0.00     0.010 A 
ATOM     34  C   UNL A   1      38.128  29.882  29.631  1.00  0.00    -0.014 A 
BRANCH  34  35
ATOM     35  C   UNL A   1      39.385  29.248  30.097  1.00  0.00     0.031 A 
ATOM     36  C   UNL A   1      40.078  29.798  31.313  1.00  0.00     0.074 A 
ATOM     37  C   UNL A   1      39.888  28.172  29.466  1.00  0.00     0.049 A 
ATOM     38  N   UNL A   1      41.187  29.402  31.885  1.00  0.00    -0.248 NA
ATOM     39  C   UNL A   1      39.430  30.941  31.978  1.00  0.00     0.031 C 
ATOM     40  C   UNL A   1      39.289  27.512  28.308  1.00  0.00     0.029 A 
ATOM     41  N   UNL A   1      41.026  27.447  29.719  1.00  0.00    -0.354 N 
ATOM     42  C   UNL A   1      41.374  30.249  32.970  1.00  0.00     0.074 A 
ATOM     43  C   UNL A   1      40.278  31.194  32.965  1.00  0.00     0.031 C 
ATOM     44  C   UNL A   1      40.070  26.479  27.944  1.00  0.00     0.029 A 
ATOM     45  C   UNL A   1      41.235  26.425  28.826  1.00  0.00     0.049 A 
ATOM     46  H   UNL A   1      41.633  27.639  30.469  1.00  0.00     0.167 HD
ATOM     47  C   UNL A   1      42.364  30.238  33.893  1.00  0.00     0.031 A 
ATOM     48  C   UNL A   1      42.260  25.558  28.718  1.00  0.00     0.031 A 
ATOM     49  C   UNL A   1      43.465  29.312  33.895  1.00  0.00     0.049 A 
ATOM     50  C   UNL A   1      43.397  25.626  29.702  1.00  0.00     0.074 A 
ATOM     51  C   UNL A   1      44.509  29.215  34.799  1.00  0.00     0.029 A 
ATOM     52  N   UNL A   1      43.669  28.330  32.940  1.00  0.00    -0.354 N 
ATOM     53  N   UNL A   1      43.547  26.414  30.738  1.00  0.00    -0.248 NA
ATOM     54  C   UNL A   1      44.504  24.679  29.499  1.00  0.00     0.031 C 
ATOM     55  C   UNL A   1      45.374  28.206  34.361  1.00  0.00     0.029 A 
ATOM     56  C   UNL A   1      44.839  27.642  33.214  1.00  0.00     0.049 A 
ATOM     57  H   UNL A   1      43.070  28.148  32.180  1.00  0.00     0.167 HD
ATOM     58  C   UNL A   1      44.752  26.044  31.323  1.00  0.00     0.074 A 
ATOM     59  C   UNL A   1      45.285  24.952  30.535  1.00  0.00     0.031 C 
ATOM     60  C   UNL A   1      45.360  26.562  32.419  1.00  0.00     0.031 A 
BRANCH  47  61
ATOM     61  C   UNL A   1      42.321  31.291  34.963  1.00  0.00    -0.014 A 
ATOM     62  C   UNL A   1      42.933  32.541  34.780  1.00  0.00     0.009 A 
ATOM     63  C   UNL A   1      41.628  31.041  36.158  1.00  0.00     0.009 A 
ATOM     64  C   UNL A   1      42.879  33.508  35.786  1.00  0.00     0.001 A 
ATOM     65  C   UNL A   1      41.553  32.019  37.152  1.00  0.00     0.001 A 
ATOM     66  C   UNL A   1      42.185  33.247  36.968  1.00  0.00     0.000 A 
ENDBRANCH  47  61
BRANCH  48  67
ATOM     67  C   UNL A   1      42.277  24.561  27.617  1.00  0.00    -0.014 A 
ATOM     68  C   UNL A   1      41.679  23.302  27.781  1.00  0.00     0.009 A 
ATOM     69  C   UNL A   1      42.912  24.858  26.400  1.00  0.00     0.009 A 
ATOM     70  C   UNL A   1      41.736  22.355  26.756  1.00  0.00     0.001 A 
ATOM     71  C   UNL A   1      42.945  23.919  25.369  1.00  0.00     0.001 A 
ATOM     72  C   UNL A   1      42.364  22.665  25.550  1.00  0.00     0.000 A 
ENDBRANCH  48  67
BRANCH  60  73
ATOM     73  C   UNL A   1      46.659  25.937  32.846  1.00  0.00    -0.014 A 
ATOM     74  C   UNL A   1      47.887  26.400  32.347  1.00  0.00     0.009 A 
ATOM     75  C   UNL A   1      46.654  24.901  33.793  1.00  0.00     0.009 A 
ATOM     76  C   UNL A   1      49.084  25.817  32.770  1.00  0.00     0.001 A 
ATOM     77  C   UNL A   1      47.853  24.338  34.232  1.00  0.00     0.001 A 
ATOM     78  C   UNL A   1      49.067  24.791  33.715  1.00  0.00     0.000 A 
ENDBRANCH  60  73
ENDBRANCH  34  35
ENDBRANCH  27  29
ENDBRANCH  26  27
ENDBRANCH  25  26
ENDBRANCH  24  25
ENDBRANCH  23  24
ENDBRANCH   1  23
TORSDOF 17
ENDMDL
MODEL 2
REMARK VINA RESULT:      -8.9      5.411     11.028
REMARK SMILES C/C=C/c1cncc(-c2ccc([C@@H](C)C(=O)OCCOCCOC(=O)c3ccc(-c4c5nc(c(-c6ccccc6)c6ccc([nH]6)c(-c6ccccc6)c6nc(c(-c7ccccc7)c7ccc4[nH]7)C=C6)C=C5)cc3)cc2)c1
REMARK SMILES IDX 19 1 18 2 17 3 15 4 16 5 13 6 14 7 12 8 9 9 10 10 75 11
REMARK SMILES IDX 11 12 74 13 8 14 4 15 5 16 76 17 6 18 7 19 3 20 1 21 2 22
REMARK SMILES IDX 20 23 21 24 22 25 23 26 24 27 25 28 26 29 27 30 73 31 28 32
REMARK SMILES IDX 72 33 29 34 30 35 31 36 66 37 32 38 71 39 65 40 67 41 33 42
REMARK SMILES IDX 70 43 64 44 63 45 34 47 56 48 41 49 55 50 42 51 45 52 54 53
REMARK SMILES IDX 68 54 43 55 44 56 53 58 69 59 46 60 35 61 36 62 40 63 37 64
REMARK SMILES IDX 39 65 38 66 57 67 58 68 62 69 59 70 61 71 60 72 47 73 48 74
REMARK SMILES IDX 52 75 49 76 51 77 50 78
REMARK H PARENT 67 46 45 57
REMARK Flexibility Score: inf
ROOT
ATOM      1  C   UNL A   1      45.468  21.747  24.300  1.00  0.00     0.202 C 
ENDROOT
BRANCH   1   2
ATOM      2  C   UNL A   1      45.397  22.393  25.686  1.00  0.00     0.261 C 
BRANCH   2   3
ATOM      3  O   UNL A   1      45.448  23.828  25.587  1.00  0.00    -0.463 OA
BRANCH   3   4
ATOM      4  C   UNL A   1      46.655  24.402  25.829  1.00  0.00     0.313 C 
ATOM      5  O   UNL A   1      47.480  23.969  26.627  1.00  0.00    -0.252 OA
BRANCH   4   6
ATOM      6  C   UNL A   1      46.893  25.686  25.046  1.00  0.00     0.126 C 
ATOM      7  C   UNL A   1      48.238  25.593  24.331  1.00  0.00     0.025 C 
BRANCH   6   8
ATOM      8  C   UNL A   1      46.733  27.009  25.790  1.00  0.00    -0.034 A 
ATOM      9  C   UNL A   1      46.364  29.568  26.984  1.00  0.00    -0.017 A 
ATOM     10  C   UNL A   1      47.647  29.030  26.799  1.00  0.00     0.009 A 
ATOM     11  C   UNL A   1      45.267  28.790  26.596  1.00  0.00     0.009 A 
ATOM     12  C   UNL A   1      47.830  27.772  26.211  1.00  0.00     0.005 A 
ATOM     13  C   UNL A   1      45.446  27.532  26.007  1.00  0.00     0.005 A 
BRANCH   9  14
ATOM     14  C   UNL A   1      46.184  30.922  27.523  1.00  0.00     0.001 A 
ATOM     15  C   UNL A   1      44.854  32.926  27.905  1.00  0.00    -0.007 A 
ATOM     16  C   UNL A   1      45.961  33.464  28.555  1.00  0.00     0.119 A 
ATOM     17  C   UNL A   1      44.988  31.639  27.369  1.00  0.00     0.020 A 
ATOM     18  N   UNL A   1      47.136  32.819  28.725  1.00  0.00    -0.263 NA
ATOM     19  C   UNL A   1      47.214  31.570  28.208  1.00  0.00     0.119 A 
BRANCH  15  20
ATOM     20  C   UNL A   1      43.629  33.721  27.773  1.00  0.00     0.005 C 
ATOM     21  C   UNL A   1      42.377  35.878  27.568  1.00  0.00     0.035 C 
ATOM     22  C   UNL A   1      43.618  35.063  27.747  1.00  0.00    -0.030 C 
ENDBRANCH  15  20
ENDBRANCH   9  14
ENDBRANCH   6   8
ENDBRANCH   4   6
ENDBRANCH   3   4
ENDBRANCH   2   3
ENDBRANCH   1   2
BRANCH   1  23
ATOM     23  O   UNL A   1      44.627  20.609  24.104  1.00  0.00    -0.374 OA
BRANCH  23  24
ATOM     24  C   UNL A   1      44.743  19.544  25.047  1.00  0.00     0.202 C 
BRANCH  24  25
ATOM     25  C   UNL A   1      43.437  19.080  25.699  1.00  0.00     0.261 C 
BRANCH  25  26
ATOM     26  O   UNL A   1      42.338  19.958  25.391  1.00  0.00    -0.460 OA
BRANCH  26  27
ATOM     27  C   UNL A   1      41.595  20.340  26.455  1.00  0.00     0.338 C 
ATOM     28  O   UNL A   1      40.798  19.662  27.087  1.00  0.00    -0.246 OA
BRANCH  27  29
ATOM     29  C   UNL A   1      41.995  21.690  26.890  1.00  0.00     0.060 A 
ATOM     30  C   UNL A   1      42.332  21.860  28.240  1.00  0.00     0.016 A 
ATOM     31  C   UNL A   1      41.971  22.784  26.022  1.00  0.00     0.016 A 
ATOM     32  C   UNL A   1      42.601  23.133  28.738  1.00  0.00     0.010 A 
ATOM     33  C   UNL A   1      42.231  24.063  26.527  1.00  0.00     0.010 A 
ATOM     34  C   UNL A   1      42.516  24.247  27.892  1.00  0.00    -0.014 A 
BRANCH  34  35
ATOM     35  C   UNL A   1      42.595  25.610  28.472  1.00  0.00     0.031 A 
ATOM     36  C   UNL A   1      43.906  26.098  29.023  1.00  0.00     0.074 A 
ATOM     37  C   UNL A   1      41.520  26.419  28.477  1.00  0.00     0.049 A 
ATOM     38  N   UNL A   1      44.193  27.247  29.581  1.00  0.00    -0.248 NA
ATOM     39  C   UNL A   1      45.045  25.172  28.927  1.00  0.00     0.031 C 
ATOM     40  C   UNL A   1      40.207  26.086  27.930  1.00  0.00     0.029 A 
ATOM     41  N   UNL A   1      41.371  27.693  28.964  1.00  0.00    -0.354 N 
ATOM     42  C   UNL A   1      45.541  27.181  29.908  1.00  0.00     0.074 A 
ATOM     43  C   UNL A   1      46.011  25.871  29.508  1.00  0.00     0.031 C 
ATOM     44  C   UNL A   1      39.380  27.130  28.118  1.00  0.00     0.029 A 
ATOM     45  C   UNL A   1      40.099  28.189  28.822  1.00  0.00     0.049 A 
ATOM     46  H   UNL A   1      42.106  28.203  29.375  1.00  0.00     0.167 HD
ATOM     47  C   UNL A   1      46.323  28.125  30.482  1.00  0.00     0.031 A 
ATOM     48  C   UNL A   1      39.568  29.356  29.234  1.00  0.00     0.031 A 
ATOM     49  C   UNL A   1      45.859  29.422  30.897  1.00  0.00     0.049 A 
ATOM     50  C   UNL A   1      40.436  30.354  29.954  1.00  0.00     0.074 A 
ATOM     51  C   UNL A   1      46.582  30.452  31.474  1.00  0.00     0.029 A 
ATOM     52  N   UNL A   1      44.551  29.864  30.787  1.00  0.00    -0.354 N 
ATOM     53  N   UNL A   1      41.714  30.288  30.232  1.00  0.00    -0.248 NA
ATOM     54  C   UNL A   1      39.781  31.589  30.414  1.00  0.00     0.031 C 
ATOM     55  C   UNL A   1      45.698  31.498  31.763  1.00  0.00     0.029 A 
ATOM     56  C   UNL A   1      44.437  31.138  31.315  1.00  0.00     0.049 A 
ATOM     57  H   UNL A   1      43.812  29.347  30.391  1.00  0.00     0.167 HD
ATOM     58  C   UNL A   1      42.023  31.480  30.877  1.00  0.00     0.074 A 
ATOM     59  C   UNL A   1      40.801  32.255  30.938  1.00  0.00     0.031 C 
ATOM     60  C   UNL A   1      43.214  31.895  31.373  1.00  0.00     0.031 A 
BRANCH  47  61
ATOM     61  C   UNL A   1      47.761  27.772  30.731  1.00  0.00    -0.014 A 
ATOM     62  C   UNL A   1      48.753  28.041  29.774  1.00  0.00     0.009 A 
ATOM     63  C   UNL A   1      48.134  27.194  31.955  1.00  0.00     0.009 A 
ATOM     64  C   UNL A   1      50.085  27.707  30.026  1.00  0.00     0.001 A 
ATOM     65  C   UNL A   1      49.471  26.885  32.214  1.00  0.00     0.001 A 
ATOM     66  C   UNL A   1      50.443  27.134  31.247  1.00  0.00     0.000 A 
ENDBRANCH  47  61
BRANCH  48  67
ATOM     67  C   UNL A   1      38.130  29.643  28.999  1.00  0.00    -0.014 A 
ATOM     68  C   UNL A   1      37.191  29.490  30.030  1.00  0.00     0.009 A 
ATOM     69  C   UNL A   1      37.686  30.052  27.731  1.00  0.00     0.009 A 
ATOM     70  C   UNL A   1      35.834  29.722  29.790  1.00  0.00     0.001 A 
ATOM     71  C   UNL A   1      36.334  30.306  27.500  1.00  0.00     0.001 A 
ATOM     72  C   UNL A   1      35.408  30.134  28.528  1.00  0.00     0.000 A 
ENDBRANCH  48  67
BRANCH  60  73
ATOM     73  C   UNL A   1      43.262  33.260  32.002  1.00  0.00    -0.014 A 
ATOM     74  C   UNL A   1      43.525  34.405  31.235  1.00  0.00     0.009 A 
ATOM     75  C   UNL A   1      42.995  33.403  33.373  1.00  0.00     0.009 A 
ATOM     76  C   UNL A   1      43.548  35.666  31.836  1.00  0.00     0.001 A 
ATOM     77  C   UNL A   1      42.994  34.667  33.965  1.00  0.00     0.001 A 
ATOM     78  C   UNL A   1      43.278  35.796  33.198  1.00  0.00     0.000 A 
ENDBRANCH  60  73
ENDBRANCH  34  35
ENDBRANCH  27  29
ENDBRANCH  26  27
ENDBRANCH  25  26
ENDBRANCH  24  25
ENDBRANCH  23  24
ENDBRANCH   1  23
TORSDOF 17
ENDMDL
MODEL 3
REMARK VINA RESULT:      -8.9      4.263      9.217
REMARK SMILES C/C=C/c1cncc(-c2ccc([C@@H](C)C(=O)OCCOCCOC(=O)c3ccc(-c4c5nc(c(-c6ccccc6)c6ccc([nH]6)c(-c6ccccc6)c6nc(c(-c7ccccc7)c7ccc4[nH]7)C=C6)C=C5)cc3)cc2)c1
REMARK SMILES IDX 19 1 18 2 17 3 15 4 16 5 13 6 14 7 12 8 9 9 10 10 75 11
REMARK SMILES IDX 11 12 74 13 8 14 4 15 5 16 76 17 6 18 7 19 3 20 1 21 2 22
REMARK SMILES IDX 20 23 21 24 22 25 23 26 24 27 25 28 26 29 27 30 73 31 28 32
REMARK SMILES IDX 72 33 29 34 30 35 31 36 66 37 32 38 71 39 65 40 67 41 33 42
REMARK SMILES IDX 70 43 64 44 63 45 34 47 56 48 41 49 55 50 42 51 45 52 54 53
REMARK SMILES IDX 68 54 43 55 44 56 53 58 69 59 46 60 35 61 36 62 40 63 37 64
REMARK SMILES IDX 39 65 38 66 57 67 58 68 62 69 59 70 61 71 60 72 47 73 48 74
REMARK SMILES IDX 52 75 49 76 51 77 50 78
REMARK H PARENT 67 46 45 57
REMARK Flexibility Score: inf
ROOT
ATOM      1  C   UNL A   1      32.476  30.140  26.236  1.00  0.00     0.202 C 
ENDROOT
BRANCH   1   2
ATOM      2  C   UNL A   1      32.694  29.234  25.022  1.00  0.00     0.261 C 
BRANCH   2   3
ATOM      3  O   UNL A   1      31.453  28.644  24.592  1.00  0.00    -0.463 OA
BRANCH   3   4
ATOM      4  C   UNL A   1      31.304  28.474  23.252  1.00  0.00     0.313 C 
ATOM      5  O   UNL A   1      31.721  29.257  22.404  1.00  0.00    -0.252 OA
BRANCH   4   6
ATOM      6  C   UNL A   1      30.516  27.227  22.874  1.00  0.00     0.126 C 
ATOM      7  C   UNL A   1      29.129  27.302  23.509  1.00  0.00     0.025 C 
BRANCH   6   8
ATOM      8  C   UNL A   1      31.178  25.872  23.107  1.00  0.00    -0.034 A 
ATOM      9  C   UNL A   1      32.428  23.397  23.757  1.00  0.00    -0.017 A 
ATOM     10  C   UNL A   1      33.101  24.377  23.012  1.00  0.00     0.009 A 
ATOM     11  C   UNL A   1      31.106  23.659  24.140  1.00  0.00     0.009 A 
ATOM     12  C   UNL A   1      32.488  25.596  22.692  1.00  0.00     0.005 A 
ATOM     13  C   UNL A   1      30.492  24.877  23.823  1.00  0.00     0.005 A 
BRANCH   9  14
ATOM     14  C   UNL A   1      33.105  22.159  24.161  1.00  0.00     0.001 A 
ATOM     15  C   UNL A   1      35.097  20.895  24.765  1.00  0.00    -0.007 A 
ATOM     16  C   UNL A   1      34.276  19.779  24.899  1.00  0.00     0.119 A 
ATOM     17  C   UNL A   1      34.490  22.095  24.371  1.00  0.00     0.020 A 
ATOM     18  N   UNL A   1      32.938  19.786  24.703  1.00  0.00    -0.263 NA
ATOM     19  C   UNL A   1      32.392  20.972  24.343  1.00  0.00     0.119 A 
BRANCH  15  20
ATOM     20  C   UNL A   1      36.539  20.769  24.996  1.00  0.00     0.005 C 
ATOM     21  C   UNL A   1      38.765  21.630  25.748  1.00  0.00     0.035 C 
ATOM     22  C   UNL A   1      37.303  21.767  25.468  1.00  0.00    -0.030 C 
ENDBRANCH  15  20
ENDBRANCH   9  14
ENDBRANCH   6   8
ENDBRANCH   4   6
ENDBRANCH   3   4
ENDBRANCH   2   3
ENDBRANCH   1   2
BRANCH   1  23
ATOM     23  O   UNL A   1      31.351  31.017  26.160  1.00  0.00    -0.374 OA
BRANCH  23  24
ATOM     24  C   UNL A   1      31.527  32.345  26.656  1.00  0.00     0.202 C 
BRANCH  24  25
ATOM     25  C   UNL A   1      32.675  32.542  27.651  1.00  0.00     0.261 C 
BRANCH  25  26
ATOM     26  O   UNL A   1      33.187  33.888  27.625  1.00  0.00    -0.460 OA
BRANCH  26  27
ATOM     27  C   UNL A   1      33.323  34.472  28.838  1.00  0.00     0.338 C 
ATOM     28  O   UNL A   1      32.517  35.189  29.413  1.00  0.00    -0.246 OA
BRANCH  27  29
ATOM     29  C   UNL A   1      34.551  33.989  29.494  1.00  0.00     0.060 A 
ATOM     30  C   UNL A   1      35.768  34.227  28.843  1.00  0.00     0.016 A 
ATOM     31  C   UNL A   1      34.514  33.253  30.681  1.00  0.00     0.016 A 
ATOM     32  C   UNL A   1      36.949  33.692  29.351  1.00  0.00     0.010 A 
ATOM     33  C   UNL A   1      35.700  32.707  31.184  1.00  0.00     0.010 A 
ATOM     34  C   UNL A   1      36.918  32.897  30.504  1.00  0.00    -0.014 A 
BRANCH  34  35
ATOM     35  C   UNL A   1      38.137  32.161  30.916  1.00  0.00     0.031 A 
ATOM     36  C   UNL A   1      38.963  32.688  32.056  1.00  0.00     0.074 A 
ATOM     37  C   UNL A   1      38.488  31.015  30.305  1.00  0.00     0.049 A 
ATOM     38  N   UNL A   1      40.067  32.208  32.571  1.00  0.00    -0.248 NA
ATOM     39  C   UNL A   1      38.478  33.916  32.707  1.00  0.00     0.031 C 
ATOM     40  C   UNL A   1      37.748  30.371  29.222  1.00  0.00     0.029 A 
ATOM     41  N   UNL A   1      39.565  30.191  30.516  1.00  0.00    -0.354 N 
ATOM     42  C   UNL A   1      40.411  33.075  33.600  1.00  0.00     0.074 A 
ATOM     43  C   UNL A   1      39.414  34.124  33.622  1.00  0.00     0.031 C 
ATOM     44  C   UNL A   1      38.398  29.251  28.857  1.00  0.00     0.029 A 
ATOM     45  C   UNL A   1      39.611  29.118  29.661  1.00  0.00     0.049 A 
ATOM     46  H   UNL A   1      40.240  30.353  31.215  1.00  0.00     0.167 HD
ATOM     47  C   UNL A   1      41.459  33.004  34.454  1.00  0.00     0.031 A 
ATOM     48  C   UNL A   1      40.538  28.150  29.526  1.00  0.00     0.031 A 
ATOM     49  C   UNL A   1      42.462  31.974  34.427  1.00  0.00     0.049 A 
ATOM     50  C   UNL A   1      41.743  28.145  30.429  1.00  0.00     0.074 A 
ATOM     51  C   UNL A   1      43.553  31.811  35.264  1.00  0.00     0.029 A 
ATOM     52  N   UNL A   1      42.503  30.938  33.510  1.00  0.00    -0.354 N 
ATOM     53  N   UNL A   1      42.041  28.956  31.414  1.00  0.00    -0.248 NA
ATOM     54  C   UNL A   1      42.737  27.085  30.198  1.00  0.00     0.031 C 
ATOM     55  C   UNL A   1      44.284  30.704  34.818  1.00  0.00     0.029 A 
ATOM     56  C   UNL A   1      43.617  30.149  33.737  1.00  0.00     0.049 A 
ATOM     57  H   UNL A   1      41.837  30.785  32.800  1.00  0.00     0.167 HD
ATOM     58  C   UNL A   1      43.243  28.491  31.935  1.00  0.00     0.074 A 
ATOM     59  C   UNL A   1      43.612  27.321  31.166  1.00  0.00     0.031 C 
ATOM     60  C   UNL A   1      43.974  28.990  32.962  1.00  0.00     0.031 A 
BRANCH  47  61
ATOM     61  C   UNL A   1      41.592  34.099  35.474  1.00  0.00    -0.014 A 
ATOM     62  C   UNL A   1      40.940  34.022  36.715  1.00  0.00     0.009 A 
ATOM     63  C   UNL A   1      42.410  35.208  35.202  1.00  0.00     0.009 A 
ATOM     64  C   UNL A   1      41.080  35.049  37.650  1.00  0.00     0.001 A 
ATOM     65  C   UNL A   1      42.567  36.221  36.150  1.00  0.00     0.001 A 
ATOM     66  C   UNL A   1      41.896  36.145  37.368  1.00  0.00     0.000 A 
ENDBRANCH  47  61
BRANCH  48  67
ATOM     67  C   UNL A   1      40.381  27.111  28.476  1.00  0.00    -0.014 A 
ATOM     68  C   UNL A   1      40.928  27.296  27.198  1.00  0.00     0.009 A 
ATOM     69  C   UNL A   1      39.661  25.935  28.744  1.00  0.00     0.009 A 
ATOM     70  C   UNL A   1      40.740  26.333  26.204  1.00  0.00     0.001 A 
ATOM     71  C   UNL A   1      39.497  24.964  27.757  1.00  0.00     0.001 A 
ATOM     72  C   UNL A   1      40.030  25.166  26.485  1.00  0.00     0.000 A 
ENDBRANCH  48  67
BRANCH  60  73
ATOM     73  C   UNL A   1      45.234  28.258  33.331  1.00  0.00    -0.014 A 
ATOM     74  C   UNL A   1      46.473  28.618  32.780  1.00  0.00     0.009 A 
ATOM     75  C   UNL A   1      45.184  27.222  34.278  1.00  0.00     0.009 A 
ATOM     76  C   UNL A   1      47.634  27.936  33.149  1.00  0.00     0.001 A 
ATOM     77  C   UNL A   1      46.349  26.559  34.663  1.00  0.00     0.001 A 
ATOM     78  C   UNL A   1      47.572  26.911  34.093  1.00  0.00     0.000 A 
ENDBRANCH  60  73
ENDBRANCH  34  35
ENDBRANCH  27  29
ENDBRANCH  26  27
ENDBRANCH  25  26
ENDBRANCH  24  25
ENDBRANCH  23  24
ENDBRANCH   1  23
TORSDOF 17
ENDMDL
