MODEL 1
REMARK VINA RESULT:     -11.8      0.000      0.000
REMARK SMILES Cc1ccccc1/[NH+]=C1\S[C@@H](CC(=O)Nc2ccc(C(=O)OCCOCCOC(=O)c3ccc(-c4c5nc(c(-c6ccccc6)c6ccc([nH]6)c(-c6ccccc6)c6nc(c(-c7ccccc7)c7ccc4[nH]7)C=C6)C=C5)cc3)cc2)C(=O)N1C
REMARK SMILES IDX 24 1 23 2 22 3 20 4 21 5 19 6 16 7 17 8 80 9 18 10 79 11
REMARK SMILES IDX 15 12 13 13 14 14 12 16 11 17 8 18 9 19 10 21 83 22 81 23
REMARK SMILES IDX 84 24 82 25 7 26 1 27 2 28 3 29 4 30 6 31 5 32 25 33 26 34
REMARK SMILES IDX 27 35 28 36 29 37 30 38 31 39 32 40 78 41 33 42 77 43 34 44
REMARK SMILES IDX 35 45 36 46 71 47 37 48 76 49 70 50 72 51 38 52 75 53 69 54
REMARK SMILES IDX 68 55 39 57 61 58 46 59 60 60 47 61 50 62 59 63 73 64 48 65
REMARK SMILES IDX 49 66 58 68 74 69 51 70 40 71 41 72 45 73 42 74 44 75 43 76
REMARK SMILES IDX 62 77 63 78 67 79 64 80 66 81 65 82 52 83 53 84 57 85 54 86
REMARK SMILES IDX 56 87 55 88
REMARK H PARENT 15 15 8 20 72 56 50 67
REMARK Flexibility Score: inf
ROOT
ATOM      1  C   UNL A   1      39.150  21.758  26.133  1.00  0.00     0.202 C 
ENDROOT
BRANCH   1   2
ATOM      2  C   UNL A   1      38.862  23.225  26.163  1.00  0.00     0.261 C 
BRANCH   2   3
ATOM      3  O   UNL A   1      37.514  23.510  25.714  1.00  0.00    -0.460 OA
BRANCH   3   4
ATOM      4  C   UNL A   1      36.811  22.757  24.820  1.00  0.00     0.338 C 
ATOM      5  O   UNL A   1      37.093  22.442  23.679  1.00  0.00    -0.246 OA
BRANCH   4   6
ATOM      6  C   UNL A   1      35.567  22.370  25.518  1.00  0.00     0.060 A 
ATOM      7  C   UNL A   1      33.127  21.933  26.753  1.00  0.00     0.041 A 
ATOM      8  C   UNL A   1      33.976  22.927  27.210  1.00  0.00     0.027 A 
ATOM      9  C   UNL A   1      33.585  20.999  25.830  1.00  0.00     0.027 A 
ATOM     10  C   UNL A   1      35.159  23.184  26.571  1.00  0.00     0.018 A 
ATOM     11  C   UNL A   1      34.822  21.223  25.198  1.00  0.00     0.018 A 
BRANCH   7  12
ATOM     12  N   UNL A   1      31.796  22.004  27.181  1.00  0.00    -0.326 N 
ATOM     13  C   UNL A   1      30.912  22.975  26.721  1.00  0.00     0.226 C 
ATOM     14  O   UNL A   1      29.940  23.328  27.383  1.00  0.00    -0.275 OA
ATOM     15  H   UNL A   1      31.472  21.341  27.832  1.00  0.00     0.169 HD
BRANCH  13  16
ATOM     16  C   UNL A   1      31.078  23.389  25.256  1.00  0.00     0.128 C 
BRANCH  16  17
ATOM     17  C   UNL A   1      32.034  24.507  24.890  1.00  0.00     0.183 C 
ATOM     18  N   UNL A   1      32.913  27.928  23.971  1.00  0.00    -0.234 N 
ATOM     19  C   UNL A   1      32.309  26.798  23.914  1.00  0.00     0.319 C 
ATOM     20  H   UNL A   1      33.512  28.107  23.212  1.00  0.00     0.313 HD
ATOM     21  S   UNL A   1      31.086  26.089  24.901  1.00  0.00    -0.022 SA
ATOM     22  N   UNL A   1      32.670  25.850  23.001  1.00  0.00    -0.193 N 
ATOM     23  C   UNL A   1      32.726  24.573  23.529  1.00  0.00     0.324 C 
ATOM     24  C   UNL A   1      33.156  26.169  21.673  1.00  0.00     0.301 C 
ATOM     25  O   UNL A   1      33.381  23.656  23.047  1.00  0.00    -0.245 OA
BRANCH  18  26
ATOM     26  C   UNL A   1      32.868  28.957  24.931  1.00  0.00     0.128 A 
ATOM     27  C   UNL A   1      30.566  30.069  24.444  1.00  0.00     0.049 C 
ATOM     28  C   UNL A   1      31.828  29.869  25.228  1.00  0.00    -0.004 A 
ATOM     29  C   UNL A   1      31.926  30.688  26.377  1.00  0.00     0.008 A 
ATOM     30  C   UNL A   1      32.982  30.575  27.271  1.00  0.00     0.001 A 
ATOM     31  C   UNL A   1      33.933  28.882  25.853  1.00  0.00     0.052 A 
ATOM     32  C   UNL A   1      33.989  29.663  27.010  1.00  0.00     0.004 A 
ENDBRANCH  18  26
ENDBRANCH  16  17
ENDBRANCH  13  16
ENDBRANCH   7  12
ENDBRANCH   4   6
ENDBRANCH   3   4
ENDBRANCH   2   3
ENDBRANCH   1   2
BRANCH   1  33
ATOM     33  O   UNL A   1      40.560  21.669  26.128  1.00  0.00    -0.374 OA
BRANCH  33  34
ATOM     34  C   UNL A   1      41.108  20.568  26.817  1.00  0.00     0.202 C 
BRANCH  34  35
ATOM     35  C   UNL A   1      41.974  19.707  25.896  1.00  0.00     0.261 C 
BRANCH  35  36
ATOM     36  O   UNL A   1      43.363  20.060  26.083  1.00  0.00    -0.460 OA
BRANCH  36  37
ATOM     37  C   UNL A   1      43.970  20.658  25.019  1.00  0.00     0.338 C 
ATOM     38  O   UNL A   1      44.179  20.129  23.939  1.00  0.00    -0.246 OA
BRANCH  37  39
ATOM     39  C   UNL A   1      44.600  21.944  25.444  1.00  0.00     0.060 A 
ATOM     40  C   UNL A   1      44.970  22.128  26.790  1.00  0.00     0.016 A 
ATOM     41  C   UNL A   1      44.507  23.047  24.599  1.00  0.00     0.016 A 
ATOM     42  C   UNL A   1      45.075  23.423  27.325  1.00  0.00     0.010 A 
ATOM     43  C   UNL A   1      44.525  24.313  25.151  1.00  0.00     0.010 A 
ATOM     44  C   UNL A   1      44.757  24.516  26.521  1.00  0.00    -0.014 A 
BRANCH  44  45
ATOM     45  C   UNL A   1      44.515  25.887  26.997  1.00  0.00     0.031 A 
ATOM     46  C   UNL A   1      43.150  26.441  26.925  1.00  0.00     0.074 A 
ATOM     47  C   UNL A   1      45.432  26.548  27.746  1.00  0.00     0.049 A 
ATOM     48  N   UNL A   1      42.873  27.687  27.100  1.00  0.00    -0.248 NA
ATOM     49  C   UNL A   1      41.971  25.644  26.594  1.00  0.00     0.031 C 
ATOM     50  C   UNL A   1      45.224  27.610  28.733  1.00  0.00     0.029 A 
ATOM     51  N   UNL A   1      46.812  26.370  27.787  1.00  0.00    -0.354 N 
ATOM     52  C   UNL A   1      41.522  27.765  27.326  1.00  0.00     0.074 A 
ATOM     53  C   UNL A   1      40.994  26.527  26.812  1.00  0.00     0.031 C 
ATOM     54  C   UNL A   1      46.407  28.161  29.061  1.00  0.00     0.029 A 
ATOM     55  C   UNL A   1      47.415  27.560  28.202  1.00  0.00     0.049 A 
ATOM     56  H   UNL A   1      47.288  25.538  27.561  1.00  0.00     0.167 HD
ATOM     57  C   UNL A   1      41.047  28.780  28.103  1.00  0.00     0.031 A 
ATOM     58  C   UNL A   1      48.348  28.183  27.437  1.00  0.00     0.031 A 
ATOM     59  C   UNL A   1      42.119  29.729  28.475  1.00  0.00     0.049 A 
ATOM     60  C   UNL A   1      47.783  29.522  27.088  1.00  0.00     0.074 A 
ATOM     61  C   UNL A   1      42.708  30.071  29.682  1.00  0.00     0.029 A 
ATOM     62  N   UNL A   1      42.946  30.271  27.481  1.00  0.00    -0.354 N 
ATOM     63  N   UNL A   1      46.497  29.719  26.954  1.00  0.00    -0.248 NA
ATOM     64  C   UNL A   1      48.565  30.751  27.055  1.00  0.00     0.031 C 
ATOM     65  C   UNL A   1      43.921  30.767  29.402  1.00  0.00     0.029 A 
ATOM     66  C   UNL A   1      44.063  30.878  28.027  1.00  0.00     0.049 A 
ATOM     67  H   UNL A   1      42.756  30.225  26.517  1.00  0.00     0.167 HD
ATOM     68  C   UNL A   1      46.263  31.056  27.016  1.00  0.00     0.074 A 
ATOM     69  C   UNL A   1      47.584  31.670  26.992  1.00  0.00     0.031 C 
ATOM     70  C   UNL A   1      45.027  31.595  27.193  1.00  0.00     0.031 A 
BRANCH  57  71
ATOM     71  C   UNL A   1      39.668  28.770  28.751  1.00  0.00    -0.014 A 
ATOM     72  C   UNL A   1      38.574  29.350  28.084  1.00  0.00     0.009 A 
ATOM     73  C   UNL A   1      39.376  28.258  30.031  1.00  0.00     0.009 A 
ATOM     74  C   UNL A   1      37.299  29.443  28.670  1.00  0.00     0.001 A 
ATOM     75  C   UNL A   1      38.109  28.342  30.625  1.00  0.00     0.001 A 
ATOM     76  C   UNL A   1      37.066  28.942  29.944  1.00  0.00     0.000 A 
ENDBRANCH  57  71
BRANCH  58  77
ATOM     77  C   UNL A   1      49.149  27.247  26.594  1.00  0.00    -0.014 A 
ATOM     78  C   UNL A   1      49.005  27.348  25.193  1.00  0.00     0.009 A 
ATOM     79  C   UNL A   1      50.311  26.635  27.088  1.00  0.00     0.009 A 
ATOM     80  C   UNL A   1      50.036  26.963  24.323  1.00  0.00     0.001 A 
ATOM     81  C   UNL A   1      51.347  26.263  26.216  1.00  0.00     0.001 A 
ATOM     82  C   UNL A   1      51.226  26.461  24.840  1.00  0.00     0.000 A 
ENDBRANCH  58  77
BRANCH  70  83
ATOM     83  C   UNL A   1      44.653  32.922  26.603  1.00  0.00    -0.014 A 
ATOM     84  C   UNL A   1      44.048  33.057  25.344  1.00  0.00     0.009 A 
ATOM     85  C   UNL A   1      44.705  34.071  27.416  1.00  0.00     0.009 A 
ATOM     86  C   UNL A   1      43.557  34.286  24.901  1.00  0.00     0.001 A 
ATOM     87  C   UNL A   1      44.166  35.287  27.000  1.00  0.00     0.001 A 
ATOM     88  C   UNL A   1      43.602  35.395  25.736  1.00  0.00     0.000 A 
ENDBRANCH  70  83
ENDBRANCH  44  45
ENDBRANCH  37  39
ENDBRANCH  36  37
ENDBRANCH  35  36
ENDBRANCH  34  35
ENDBRANCH  33  34
ENDBRANCH   1  33
TORSDOF 18
ENDMDL
MODEL 2
REMARK VINA RESULT:     -11.5      4.798     10.416
REMARK SMILES Cc1ccccc1/[NH+]=C1\S[C@@H](CC(=O)Nc2ccc(C(=O)OCCOCCOC(=O)c3ccc(-c4c5nc(c(-c6ccccc6)c6ccc([nH]6)c(-c6ccccc6)c6nc(c(-c7ccccc7)c7ccc4[nH]7)C=C6)C=C5)cc3)cc2)C(=O)N1C
REMARK SMILES IDX 24 1 23 2 22 3 20 4 21 5 19 6 16 7 17 8 80 9 18 10 79 11
REMARK SMILES IDX 15 12 13 13 14 14 12 16 11 17 8 18 9 19 10 21 83 22 81 23
REMARK SMILES IDX 84 24 82 25 7 26 1 27 2 28 3 29 4 30 6 31 5 32 25 33 26 34
REMARK SMILES IDX 27 35 28 36 29 37 30 38 31 39 32 40 78 41 33 42 77 43 34 44
REMARK SMILES IDX 35 45 36 46 71 47 37 48 76 49 70 50 72 51 38 52 75 53 69 54
REMARK SMILES IDX 68 55 39 57 61 58 46 59 60 60 47 61 50 62 59 63 73 64 48 65
REMARK SMILES IDX 49 66 58 68 74 69 51 70 40 71 41 72 45 73 42 74 44 75 43 76
REMARK SMILES IDX 62 77 63 78 67 79 64 80 66 81 65 82 52 83 53 84 57 85 54 86
REMARK SMILES IDX 56 87 55 88
REMARK H PARENT 15 15 8 20 72 56 50 67
REMARK Flexibility Score: inf
ROOT
ATOM      1  C   UNL A   1      33.054  32.071  27.893  1.00  0.00     0.202 C 
ENDROOT
BRANCH   1   2
ATOM      2  C   UNL A   1      33.915  31.076  27.181  1.00  0.00     0.261 C 
BRANCH   2   3
ATOM      3  O   UNL A   1      33.524  29.717  27.496  1.00  0.00    -0.460 OA
BRANCH   3   4
ATOM      4  C   UNL A   1      32.370  29.118  27.085  1.00  0.00     0.338 C 
ATOM      5  O   UNL A   1      31.387  28.802  27.728  1.00  0.00    -0.246 OA
BRANCH   4   6
ATOM      6  C   UNL A   1      32.531  28.901  25.632  1.00  0.00     0.060 A 
ATOM      7  C   UNL A   1      32.871  28.189  22.977  1.00  0.00     0.041 A 
ATOM      8  C   UNL A   1      33.892  27.993  23.891  1.00  0.00     0.027 A 
ATOM      9  C   UNL A   1      31.762  28.953  23.327  1.00  0.00     0.027 A 
ATOM     10  C   UNL A   1      33.712  28.293  25.215  1.00  0.00     0.018 A 
ATOM     11  C   UNL A   1      31.587  29.310  24.677  1.00  0.00     0.018 A 
BRANCH   7  12
ATOM     12  N   UNL A   1      32.976  27.493  21.767  1.00  0.00    -0.326 N 
ATOM     13  C   UNL A   1      32.762  26.122  21.668  1.00  0.00     0.226 C 
ATOM     14  O   UNL A   1      33.270  25.452  20.773  1.00  0.00    -0.275 OA
ATOM     15  H   UNL A   1      33.209  27.994  20.952  1.00  0.00     0.169 HD
BRANCH  13  16
ATOM     16  C   UNL A   1      31.671  25.550  22.578  1.00  0.00     0.128 C 
BRANCH  16  17
ATOM     17  C   UNL A   1      32.054  24.793  23.834  1.00  0.00     0.183 C 
ATOM     18  N   UNL A   1      32.573  21.797  25.853  1.00  0.00    -0.234 N 
ATOM     19  C   UNL A   1      31.960  22.628  25.092  1.00  0.00     0.319 C 
ATOM     20  H   UNL A   1      32.206  21.734  26.763  1.00  0.00     0.313 HD
ATOM     21  S   UNL A   1      32.124  22.998  23.416  1.00  0.00    -0.022 SA
ATOM     22  N   UNL A   1      31.046  23.506  25.596  1.00  0.00    -0.193 N 
ATOM     23  C   UNL A   1      31.170  24.784  25.080  1.00  0.00     0.324 C 
ATOM     24  C   UNL A   1      30.177  23.195  26.714  1.00  0.00     0.301 C 
ATOM     25  O   UNL A   1      30.758  25.794  25.638  1.00  0.00    -0.245 OA
BRANCH  18  26
ATOM     26  C   UNL A   1      33.678  20.958  25.612  1.00  0.00     0.128 A 
ATOM     27  C   UNL A   1      32.575  18.902  24.461  1.00  0.00     0.049 C 
ATOM     28  C   UNL A   1      33.741  19.718  24.935  1.00  0.00    -0.004 A 
ATOM     29  C   UNL A   1      35.001  19.150  24.634  1.00  0.00     0.008 A 
ATOM     30  C   UNL A   1      36.189  19.810  24.917  1.00  0.00     0.001 A 
ATOM     31  C   UNL A   1      34.906  21.591  25.899  1.00  0.00     0.052 A 
ATOM     32  C   UNL A   1      36.142  21.040  25.548  1.00  0.00     0.004 A 
ENDBRANCH  18  26
ENDBRANCH  16  17
ENDBRANCH  13  16
ENDBRANCH   7  12
ENDBRANCH   4   6
ENDBRANCH   3   4
ENDBRANCH   2   3
ENDBRANCH   1   2
BRANCH   1  33
ATOM     33  O   UNL A   1      33.810  33.266  27.891  1.00  0.00    -0.374 OA
BRANCH  33  34
ATOM     34  C   UNL A   1      33.087  34.450  28.138  1.00  0.00     0.202 C 
BRANCH  34  35
ATOM     35  C   UNL A   1      32.896  34.686  29.637  1.00  0.00     0.261 C 
BRANCH  35  36
ATOM     36  O   UNL A   1      34.069  35.342  30.168  1.00  0.00    -0.460 OA
BRANCH  36  37
ATOM     37  C   UNL A   1      34.597  34.788  31.297  1.00  0.00     0.338 C 
ATOM     38  O   UNL A   1      34.658  35.335  32.387  1.00  0.00    -0.246 OA
BRANCH  37  39
ATOM     39  C   UNL A   1      35.345  33.541  30.955  1.00  0.00     0.060 A 
ATOM     40  C   UNL A   1      35.168  32.384  31.738  1.00  0.00     0.016 A 
ATOM     41  C   UNL A   1      36.437  33.630  30.096  1.00  0.00     0.016 A 
ATOM     42  C   UNL A   1      36.172  31.402  31.787  1.00  0.00     0.010 A 
ATOM     43  C   UNL A   1      37.457  32.706  30.216  1.00  0.00     0.010 A 
ATOM     44  C   UNL A   1      37.362  31.614  31.094  1.00  0.00    -0.014 A 
BRANCH  44  45
ATOM     45  C   UNL A   1      38.609  30.857  31.283  1.00  0.00     0.031 A 
ATOM     46  C   UNL A   1      38.850  29.656  30.462  1.00  0.00     0.074 A 
ATOM     47  C   UNL A   1      39.652  31.375  31.977  1.00  0.00     0.049 A 
ATOM     48  N   UNL A   1      39.788  28.804  30.699  1.00  0.00    -0.248 NA
ATOM     49  C   UNL A   1      38.018  29.275  29.322  1.00  0.00     0.031 C 
ATOM     50  C   UNL A   1      41.082  31.087  31.843  1.00  0.00     0.029 A 
ATOM     51  N   UNL A   1      39.636  32.337  32.983  1.00  0.00    -0.354 N 
ATOM     52  C   UNL A   1      39.941  28.056  29.558  1.00  0.00     0.074 A 
ATOM     53  C   UNL A   1      38.714  28.249  28.828  1.00  0.00     0.031 C 
ATOM     54  C   UNL A   1      41.751  31.622  32.881  1.00  0.00     0.029 A 
ATOM     55  C   UNL A   1      40.760  32.169  33.795  1.00  0.00     0.049 A 
ATOM     56  H   UNL A   1      38.942  33.026  33.104  1.00  0.00     0.167 HD
ATOM     57  C   UNL A   1      41.168  27.531  29.281  1.00  0.00     0.031 A 
ATOM     58  C   UNL A   1      40.642  31.958  35.131  1.00  0.00     0.031 A 
ATOM     59  C   UNL A   1      42.126  27.774  30.382  1.00  0.00     0.049 A 
ATOM     60  C   UNL A   1      41.232  30.612  35.402  1.00  0.00     0.074 A 
ATOM     61  C   UNL A   1      43.288  28.523  30.482  1.00  0.00     0.029 A 
ATOM     62  N   UNL A   1      41.777  27.436  31.697  1.00  0.00    -0.354 N 
ATOM     63  N   UNL A   1      41.196  29.649  34.517  1.00  0.00    -0.248 NA
ATOM     64  C   UNL A   1      42.054  30.303  36.564  1.00  0.00     0.031 C 
ATOM     65  C   UNL A   1      43.596  28.681  31.866  1.00  0.00     0.029 A 
ATOM     66  C   UNL A   1      42.642  28.005  32.613  1.00  0.00     0.049 A 
ATOM     67  H   UNL A   1      41.013  26.865  31.937  1.00  0.00     0.167 HD
ATOM     68  C   UNL A   1      42.110  28.710  34.875  1.00  0.00     0.074 A 
ATOM     69  C   UNL A   1      42.562  29.111  36.201  1.00  0.00     0.031 C 
ATOM     70  C   UNL A   1      42.536  27.720  34.044  1.00  0.00     0.031 A 
BRANCH  57  71
ATOM     71  C   UNL A   1      41.580  27.034  27.900  1.00  0.00    -0.014 A 
ATOM     72  C   UNL A   1      41.776  27.951  26.852  1.00  0.00     0.009 A 
ATOM     73  C   UNL A   1      41.742  25.681  27.540  1.00  0.00     0.009 A 
ATOM     74  C   UNL A   1      42.075  27.542  25.541  1.00  0.00     0.001 A 
ATOM     75  C   UNL A   1      42.042  25.261  26.236  1.00  0.00     0.001 A 
ATOM     76  C   UNL A   1      42.204  26.195  25.230  1.00  0.00     0.000 A 
ENDBRANCH  57  71
BRANCH  58  77
ATOM     77  C   UNL A   1      39.433  32.597  35.730  1.00  0.00    -0.014 A 
ATOM     78  C   UNL A   1      38.432  31.743  36.242  1.00  0.00     0.009 A 
ATOM     79  C   UNL A   1      39.465  33.920  36.199  1.00  0.00     0.009 A 
ATOM     80  C   UNL A   1      37.573  32.159  37.270  1.00  0.00     0.001 A 
ATOM     81  C   UNL A   1      38.613  34.329  37.238  1.00  0.00     0.001 A 
ATOM     82  C   UNL A   1      37.695  33.440  37.798  1.00  0.00     0.000 A 
ENDBRANCH  58  77
BRANCH  70  83
ATOM     83  C   UNL A   1      42.946  26.375  34.564  1.00  0.00    -0.014 A 
ATOM     84  C   UNL A   1      42.051  25.487  35.182  1.00  0.00     0.009 A 
ATOM     85  C   UNL A   1      44.222  25.877  34.239  1.00  0.00     0.009 A 
ATOM     86  C   UNL A   1      42.425  24.180  35.496  1.00  0.00     0.001 A 
ATOM     87  C   UNL A   1      44.581  24.556  34.501  1.00  0.00     0.001 A 
ATOM     88  C   UNL A   1      43.683  23.711  35.141  1.00  0.00     0.000 A 
ENDBRANCH  70  83
ENDBRANCH  44  45
ENDBRANCH  37  39
ENDBRANCH  36  37
ENDBRANCH  35  36
ENDBRANCH  34  35
ENDBRANCH  33  34
ENDBRANCH   1  33
TORSDOF 18
ENDMDL
MODEL 3
REMARK VINA RESULT:     -11.1      2.238      4.319
REMARK SMILES Cc1ccccc1/[NH+]=C1\S[C@@H](CC(=O)Nc2ccc(C(=O)OCCOCCOC(=O)c3ccc(-c4c5nc(c(-c6ccccc6)c6ccc([nH]6)c(-c6ccccc6)c6nc(c(-c7ccccc7)c7ccc4[nH]7)C=C6)C=C5)cc3)cc2)C(=O)N1C
REMARK SMILES IDX 24 1 23 2 22 3 20 4 21 5 19 6 16 7 17 8 80 9 18 10 79 11
REMARK SMILES IDX 15 12 13 13 14 14 12 16 11 17 8 18 9 19 10 21 83 22 81 23
REMARK SMILES IDX 84 24 82 25 7 26 1 27 2 28 3 29 4 30 6 31 5 32 25 33 26 34
REMARK SMILES IDX 27 35 28 36 29 37 30 38 31 39 32 40 78 41 33 42 77 43 34 44
REMARK SMILES IDX 35 45 36 46 71 47 37 48 76 49 70 50 72 51 38 52 75 53 69 54
REMARK SMILES IDX 68 55 39 57 61 58 46 59 60 60 47 61 50 62 59 63 73 64 48 65
REMARK SMILES IDX 49 66 58 68 74 69 51 70 40 71 41 72 45 73 42 74 44 75 43 76
REMARK SMILES IDX 62 77 63 78 67 79 64 80 66 81 65 82 52 83 53 84 57 85 54 86
REMARK SMILES IDX 56 87 55 88
REMARK H PARENT 15 15 8 20 72 56 50 67
REMARK Flexibility Score: inf
ROOT
ATOM      1  C   UNL A   1      34.570  20.921  25.035  1.00  0.00     0.202 C 
ENDROOT
BRANCH   1   2
ATOM      2  C   UNL A   1      34.031  21.562  26.274  1.00  0.00     0.261 C 
BRANCH   2   3
ATOM      3  O   UNL A   1      33.640  22.936  26.031  1.00  0.00    -0.460 OA
BRANCH   3   4
ATOM      4  C   UNL A   1      34.442  23.894  25.484  1.00  0.00     0.338 C 
ATOM      5  O   UNL A   1      35.562  24.245  25.804  1.00  0.00    -0.246 OA
BRANCH   4   6
ATOM      6  C   UNL A   1      33.665  24.471  24.367  1.00  0.00     0.060 A 
ATOM      7  C   UNL A   1      32.139  25.792  22.470  1.00  0.00     0.041 A 
ATOM      8  C   UNL A   1      31.559  25.335  23.641  1.00  0.00     0.027 A 
ATOM      9  C   UNL A   1      33.427  25.391  22.130  1.00  0.00     0.027 A 
ATOM     10  C   UNL A   1      32.318  24.729  24.607  1.00  0.00     0.018 A 
ATOM     11  C   UNL A   1      34.205  24.725  23.096  1.00  0.00     0.018 A 
BRANCH   7  12
ATOM     12  N   UNL A   1      31.410  26.740  21.742  1.00  0.00    -0.326 N 
ATOM     13  C   UNL A   1      31.271  28.060  22.159  1.00  0.00     0.226 C 
ATOM     14  O   UNL A   1      30.315  28.749  21.810  1.00  0.00    -0.275 OA
ATOM     15  H   UNL A   1      30.980  26.462  20.901  1.00  0.00     0.169 HD
BRANCH  13  16
ATOM     16  C   UNL A   1      32.488  28.671  22.859  1.00  0.00     0.128 C 
BRANCH  16  17
ATOM     17  C   UNL A   1      32.343  29.261  24.248  1.00  0.00     0.183 C 
ATOM     18  N   UNL A   1      33.470  30.074  27.622  1.00  0.00    -0.234 N 
ATOM     19  C   UNL A   1      33.219  29.351  26.593  1.00  0.00     0.319 C 
ATOM     20  H   UNL A   1      32.904  29.879  28.403  1.00  0.00     0.313 HD
ATOM     21  S   UNL A   1      33.998  29.212  25.061  1.00  0.00    -0.022 SA
ATOM     22  N   UNL A   1      32.106  28.566  26.536  1.00  0.00    -0.193 N 
ATOM     23  C   UNL A   1      31.457  28.621  25.316  1.00  0.00     0.324 C 
ATOM     24  C   UNL A   1      31.534  27.910  27.696  1.00  0.00     0.301 C 
ATOM     25  O   UNL A   1      30.275  28.342  25.151  1.00  0.00    -0.245 OA
BRANCH  18  26
ATOM     26  C   UNL A   1      34.415  31.097  27.831  1.00  0.00     0.128 A 
ATOM     27  C   UNL A   1      32.940  33.239  27.749  1.00  0.00     0.049 C 
ATOM     28  C   UNL A   1      34.220  32.491  27.974  1.00  0.00    -0.004 A 
ATOM     29  C   UNL A   1      35.299  33.309  28.382  1.00  0.00     0.008 A 
ATOM     30  C   UNL A   1      36.535  32.776  28.723  1.00  0.00     0.001 A 
ATOM     31  C   UNL A   1      35.689  30.594  28.170  1.00  0.00     0.052 A 
ATOM     32  C   UNL A   1      36.730  31.410  28.621  1.00  0.00     0.004 A 
ENDBRANCH  18  26
ENDBRANCH  16  17
ENDBRANCH  13  16
ENDBRANCH   7  12
ENDBRANCH   4   6
ENDBRANCH   3   4
ENDBRANCH   2   3
ENDBRANCH   1   2
BRANCH   1  33
ATOM     33  O   UNL A   1      35.973  20.933  25.206  1.00  0.00    -0.374 OA
BRANCH  33  34
ATOM     34  C   UNL A   1      36.627  19.702  25.001  1.00  0.00     0.202 C 
BRANCH  34  35
ATOM     35  C   UNL A   1      38.138  19.889  24.853  1.00  0.00     0.261 C 
BRANCH  35  36
ATOM     36  O   UNL A   1      38.518  21.161  25.424  1.00  0.00    -0.460 OA
BRANCH  36  37
ATOM     37  C   UNL A   1      39.728  21.190  26.050  1.00  0.00     0.338 C 
ATOM     38  O   UNL A   1      40.533  20.273  26.069  1.00  0.00    -0.246 OA
BRANCH  37  39
ATOM     39  C   UNL A   1      39.813  22.382  26.948  1.00  0.00     0.060 A 
ATOM     40  C   UNL A   1      39.045  23.527  26.662  1.00  0.00     0.016 A 
ATOM     41  C   UNL A   1      40.877  22.472  27.842  1.00  0.00     0.016 A 
ATOM     42  C   UNL A   1      39.449  24.786  27.133  1.00  0.00     0.010 A 
ATOM     43  C   UNL A   1      41.317  23.723  28.228  1.00  0.00     0.010 A 
ATOM     44  C   UNL A   1      40.645  24.894  27.841  1.00  0.00    -0.014 A 
BRANCH  44  45
ATOM     45  C   UNL A   1      41.359  26.146  28.131  1.00  0.00     0.031 A 
ATOM     46  C   UNL A   1      40.581  27.366  28.415  1.00  0.00     0.074 A 
ATOM     47  C   UNL A   1      42.685  26.155  28.416  1.00  0.00     0.049 A 
ATOM     48  N   UNL A   1      41.093  28.548  28.457  1.00  0.00    -0.248 NA
ATOM     49  C   UNL A   1      39.135  27.372  28.628  1.00  0.00     0.031 C 
ATOM     50  C   UNL A   1      43.449  27.110  29.222  1.00  0.00     0.029 A 
ATOM     51  N   UNL A   1      43.662  25.240  28.035  1.00  0.00    -0.354 N 
ATOM     52  C   UNL A   1      40.183  29.352  29.095  1.00  0.00     0.074 A 
ATOM     53  C   UNL A   1      38.934  28.638  28.999  1.00  0.00     0.031 C 
ATOM     54  C   UNL A   1      44.766  26.899  29.048  1.00  0.00     0.029 A 
ATOM     55  C   UNL A   1      44.905  25.877  28.022  1.00  0.00     0.049 A 
ATOM     56  H   UNL A   1      43.503  24.294  27.810  1.00  0.00     0.167 HD
ATOM     57  C   UNL A   1      40.640  30.426  29.801  1.00  0.00     0.031 A 
ATOM     58  C   UNL A   1      45.670  25.911  26.901  1.00  0.00     0.031 A 
ATOM     59  C   UNL A   1      42.099  30.604  29.636  1.00  0.00     0.049 A 
ATOM     60  C   UNL A   1      45.820  27.353  26.533  1.00  0.00     0.074 A 
ATOM     61  C   UNL A   1      43.172  30.510  30.509  1.00  0.00     0.029 A 
ATOM     62  N   UNL A   1      42.657  30.639  28.351  1.00  0.00    -0.354 N 
ATOM     63  N   UNL A   1      44.890  28.234  26.796  1.00  0.00    -0.248 NA
ATOM     64  C   UNL A   1      47.057  27.942  26.039  1.00  0.00     0.031 C 
ATOM     65  C   UNL A   1      44.367  30.427  29.735  1.00  0.00     0.029 A 
ATOM     66  C   UNL A   1      44.032  30.501  28.391  1.00  0.00     0.049 A 
ATOM     67  H   UNL A   1      42.135  30.748  27.523  1.00  0.00     0.167 HD
ATOM     68  C   UNL A   1      45.442  29.473  26.702  1.00  0.00     0.074 A 
ATOM     69  C   UNL A   1      46.770  29.252  26.145  1.00  0.00     0.031 C 
ATOM     70  C   UNL A   1      44.846  30.599  27.179  1.00  0.00     0.031 A 
BRANCH  57  71
ATOM     71  C   UNL A   1      39.815  31.154  30.855  1.00  0.00    -0.014 A 
ATOM     72  C   UNL A   1      39.234  30.433  31.914  1.00  0.00     0.009 A 
ATOM     73  C   UNL A   1      39.523  32.533  30.848  1.00  0.00     0.009 A 
ATOM     74  C   UNL A   1      38.397  31.040  32.867  1.00  0.00     0.001 A 
ATOM     75  C   UNL A   1      38.691  33.150  31.793  1.00  0.00     0.001 A 
ATOM     76  C   UNL A   1      38.121  32.400  32.805  1.00  0.00     0.000 A 
ENDBRANCH  57  71
BRANCH  58  77
ATOM     77  C   UNL A   1      45.481  24.726  26.014  1.00  0.00    -0.014 A 
ATOM     78  C   UNL A   1      45.991  23.488  26.464  1.00  0.00     0.009 A 
ATOM     79  C   UNL A   1      44.473  24.700  25.038  1.00  0.00     0.009 A 
ATOM     80  C   UNL A   1      45.432  22.272  26.044  1.00  0.00     0.001 A 
ATOM     81  C   UNL A   1      43.906  23.481  24.630  1.00  0.00     0.001 A 
ATOM     82  C   UNL A   1      44.357  22.272  25.160  1.00  0.00     0.000 A 
ENDBRANCH  58  77
BRANCH  70  83
ATOM     83  C   UNL A   1      45.047  31.934  26.527  1.00  0.00    -0.014 A 
ATOM     84  C   UNL A   1      44.109  32.510  25.657  1.00  0.00     0.009 A 
ATOM     85  C   UNL A   1      46.109  32.752  26.959  1.00  0.00     0.009 A 
ATOM     86  C   UNL A   1      44.246  33.824  25.207  1.00  0.00     0.001 A 
ATOM     87  C   UNL A   1      46.218  34.082  26.556  1.00  0.00     0.001 A 
ATOM     88  C   UNL A   1      45.291  34.613  25.669  1.00  0.00     0.000 A 
ENDBRANCH  70  83
ENDBRANCH  44  45
ENDBRANCH  37  39
ENDBRANCH  36  37
ENDBRANCH  35  36
ENDBRANCH  34  35
ENDBRANCH  33  34
ENDBRANCH   1  33
TORSDOF 18
ENDMDL
