MODEL 1
REMARK VINA RESULT:      -8.9      0.000      0.000
REMARK SMILES O=C(NCc1ccc(C(=O)OCCOCCOC(=O)c2ccc(-c3c4nc(c(-c5ccccc5)c5ccc([nH]5)c(-c5ccccc5)c5nc(c(-c6ccccc6)c6ccc3[nH]6)C=C5)C=C4)cc2)o1)Nc1ccc(F)c(Cl)c1
REMARK SMILES IDX 13 1 12 2 11 3 9 4 10 5 8 6 5 7 6 8 68 9 7 10 4 11 3 12 1 13
REMARK SMILES IDX 2 14 69 15 70 18 71 19 77 20 72 21 75 22 73 23 76 24 74 25
REMARK SMILES IDX 14 26 15 27 16 28 17 29 18 30 19 31 20 32 21 33 67 34 22 35
REMARK SMILES IDX 66 36 23 37 24 38 25 39 60 40 26 41 65 42 59 43 61 44 27 45
REMARK SMILES IDX 64 46 58 47 57 48 28 50 50 51 35 52 49 53 36 54 39 55 48 56
REMARK SMILES IDX 62 57 37 58 38 59 47 61 63 62 40 63 29 64 30 65 34 66 31 67
REMARK SMILES IDX 33 68 32 69 51 70 52 71 56 72 53 73 55 74 54 75 41 76 42 77
REMARK SMILES IDX 46 78 43 79 45 80 44 81
REMARK H PARENT 3 16 69 17 61 49 39 60
REMARK Flexibility Score: inf
ROOT
ATOM      1  C   UNL A   1      46.033  21.576  24.610  1.00  0.00     0.202 C 
ENDROOT
BRANCH   1   2
ATOM      2  C   UNL A   1      45.481  22.949  24.218  1.00  0.00     0.261 C 
BRANCH   2   3
ATOM      3  O   UNL A   1      45.557  23.845  25.340  1.00  0.00    -0.457 OA
BRANCH   3   4
ATOM      4  C   UNL A   1      45.951  25.120  25.058  1.00  0.00     0.374 C 
ATOM      5  O   UNL A   1      47.019  25.424  24.541  1.00  0.00    -0.242 OA
BRANCH   4   6
ATOM      6  C   UNL A   1      44.867  26.029  25.351  1.00  0.00     0.211 A 
ATOM      7  C   UNL A   1      44.019  27.881  26.198  1.00  0.00     0.124 A 
ATOM      8  C   UNL A   1      43.001  27.282  25.484  1.00  0.00     0.048 A 
ATOM      9  O   UNL A   1      45.145  27.123  26.126  1.00  0.00    -0.452 OA
ATOM     10  C   UNL A   1      43.546  26.092  24.940  1.00  0.00     0.058 A 
BRANCH   7  11
ATOM     11  C   UNL A   1      44.113  29.119  27.011  1.00  0.00     0.193 C 
BRANCH  11  12
ATOM     12  N   UNL A   1      45.321  29.805  26.613  1.00  0.00    -0.331 N 
ATOM     13  O   UNL A   1      46.533  31.485  25.840  1.00  0.00    -0.248 OA
ATOM     14  C   UNL A   1      45.570  31.134  26.517  1.00  0.00     0.319 C 
ATOM     15  N   UNL A   1      44.755  31.966  27.231  1.00  0.00    -0.308 N 
ATOM     16  H   UNL A   1      46.076  29.219  26.376  1.00  0.00     0.165 HD
ATOM     17  H   UNL A   1      44.135  31.551  27.872  1.00  0.00     0.171 HD
BRANCH  15  18
ATOM     18  C   UNL A   1      44.728  33.372  27.123  1.00  0.00     0.044 A 
ATOM     19  C   UNL A   1      43.735  33.951  26.321  1.00  0.00     0.029 A 
ATOM     20  C   UNL A   1      45.655  34.198  27.770  1.00  0.00     0.049 A 
ATOM     21  C   UNL A   1      43.637  35.340  26.213  1.00  0.00     0.043 A 
ATOM     22  C   UNL A   1      45.569  35.585  27.642  1.00  0.00     0.078 A 
ATOM     23  C   UNL A   1      44.553  36.150  26.877  1.00  0.00     0.141 A 
ATOM     24  Cl  UNL A   1      46.728  36.584  28.433  1.00  0.00    -0.081 Cl
ATOM     25  F   UNL A   1      44.439  37.481  26.761  1.00  0.00    -0.205 F 
ENDBRANCH  15  18
ENDBRANCH  11  12
ENDBRANCH   7  11
ENDBRANCH   4   6
ENDBRANCH   3   4
ENDBRANCH   2   3
ENDBRANCH   1   2
BRANCH   1  26
ATOM     26  O   UNL A   1      45.151  20.795  25.418  1.00  0.00    -0.374 OA
BRANCH  26  27
ATOM     27  C   UNL A   1      45.165  19.384  25.198  1.00  0.00     0.202 C 
BRANCH  27  28
ATOM     28  C   UNL A   1      43.806  18.694  25.354  1.00  0.00     0.261 C 
BRANCH  28  29
ATOM     29  O   UNL A   1      42.738  19.552  24.911  1.00  0.00    -0.460 OA
BRANCH  29  30
ATOM     30  C   UNL A   1      41.716  19.691  25.788  1.00  0.00     0.338 C 
ATOM     31  O   UNL A   1      40.903  18.846  26.119  1.00  0.00    -0.246 OA
BRANCH  30  32
ATOM     32  C   UNL A   1      41.806  21.008  26.451  1.00  0.00     0.060 A 
ATOM     33  C   UNL A   1      42.090  22.117  25.646  1.00  0.00     0.016 A 
ATOM     34  C   UNL A   1      41.667  21.154  27.834  1.00  0.00     0.016 A 
ATOM     35  C   UNL A   1      42.281  23.370  26.223  1.00  0.00     0.010 A 
ATOM     36  C   UNL A   1      41.864  22.412  28.414  1.00  0.00     0.010 A 
ATOM     37  C   UNL A   1      42.203  23.519  27.615  1.00  0.00    -0.014 A 
BRANCH  37  38
ATOM     38  C   UNL A   1      42.598  24.804  28.239  1.00  0.00     0.031 A 
ATOM     39  C   UNL A   1      41.562  25.879  28.424  1.00  0.00     0.074 A 
ATOM     40  C   UNL A   1      43.858  25.005  28.661  1.00  0.00     0.049 A 
ATOM     41  N   UNL A   1      41.694  27.076  28.936  1.00  0.00    -0.248 NA
ATOM     42  C   UNL A   1      40.198  25.561  27.972  1.00  0.00     0.031 C 
ATOM     43  C   UNL A   1      44.946  24.032  28.575  1.00  0.00     0.029 A 
ATOM     44  N   UNL A   1      44.434  26.104  29.247  1.00  0.00    -0.354 N 
ATOM     45  C   UNL A   1      40.433  27.656  28.865  1.00  0.00     0.074 A 
ATOM     46  C   UNL A   1      39.557  26.691  28.234  1.00  0.00     0.031 C 
ATOM     47  C   UNL A   1      46.061  24.579  29.086  1.00  0.00     0.029 A 
ATOM     48  C   UNL A   1      45.772  25.949  29.509  1.00  0.00     0.049 A 
ATOM     49  H   UNL A   1      43.934  26.925  29.460  1.00  0.00     0.167 HD
ATOM     50  C   UNL A   1      40.038  28.879  29.291  1.00  0.00     0.031 A 
ATOM     51  C   UNL A   1      46.667  26.818  30.017  1.00  0.00     0.031 A 
ATOM     52  C   UNL A   1      40.906  29.846  29.907  1.00  0.00     0.049 A 
ATOM     53  C   UNL A   1      46.219  28.198  30.416  1.00  0.00     0.074 A 
ATOM     54  C   UNL A   1      40.591  31.105  30.389  1.00  0.00     0.029 A 
ATOM     55  N   UNL A   1      42.263  29.664  30.118  1.00  0.00    -0.354 N 
ATOM     56  N   UNL A   1      45.018  28.722  30.370  1.00  0.00    -0.248 NA
ATOM     57  C   UNL A   1      47.252  29.103  30.941  1.00  0.00     0.031 C 
ATOM     58  C   UNL A   1      41.769  31.704  30.846  1.00  0.00     0.029 A 
ATOM     59  C   UNL A   1      42.806  30.798  30.698  1.00  0.00     0.049 A 
ATOM     60  H   UNL A   1      42.767  28.849  29.891  1.00  0.00     0.167 HD
ATOM     61  C   UNL A   1      45.145  30.006  30.887  1.00  0.00     0.074 A 
ATOM     62  C   UNL A   1      46.537  30.177  31.248  1.00  0.00     0.031 C 
ATOM     63  C   UNL A   1      44.193  30.955  31.052  1.00  0.00     0.031 A 
BRANCH  50  64
ATOM     64  C   UNL A   1      38.599  29.251  29.074  1.00  0.00    -0.014 A 
ATOM     65  C   UNL A   1      38.142  29.696  27.824  1.00  0.00     0.009 A 
ATOM     66  C   UNL A   1      37.680  29.123  30.128  1.00  0.00     0.009 A 
ATOM     67  C   UNL A   1      36.800  30.036  27.642  1.00  0.00     0.001 A 
ATOM     68  C   UNL A   1      36.335  29.441  29.936  1.00  0.00     0.001 A 
ATOM     69  C   UNL A   1      35.898  29.905  28.697  1.00  0.00     0.000 A 
ENDBRANCH  50  64
BRANCH  51  70
ATOM     70  C   UNL A   1      48.089  26.416  30.167  1.00  0.00    -0.014 A 
ATOM     71  C   UNL A   1      48.546  25.833  31.358  1.00  0.00     0.009 A 
ATOM     72  C   UNL A   1      49.001  26.629  29.120  1.00  0.00     0.009 A 
ATOM     73  C   UNL A   1      49.893  25.491  31.505  1.00  0.00     0.001 A 
ATOM     74  C   UNL A   1      50.340  26.262  29.262  1.00  0.00     0.001 A 
ATOM     75  C   UNL A   1      50.787  25.702  30.456  1.00  0.00     0.000 A 
ENDBRANCH  51  70
BRANCH  63  76
ATOM     76  C   UNL A   1      44.613  32.253  31.681  1.00  0.00    -0.014 A 
ATOM     77  C   UNL A   1      44.913  33.379  30.898  1.00  0.00     0.009 A 
ATOM     78  C   UNL A   1      44.661  32.363  33.080  1.00  0.00     0.009 A 
ATOM     79  C   UNL A   1      45.284  34.581  31.505  1.00  0.00     0.001 A 
ATOM     80  C   UNL A   1      45.006  33.574  33.682  1.00  0.00     0.001 A 
ATOM     81  C   UNL A   1      45.325  34.679  32.896  1.00  0.00     0.000 A 
ENDBRANCH  63  76
ENDBRANCH  37  38
ENDBRANCH  30  32
ENDBRANCH  29  30
ENDBRANCH  28  29
ENDBRANCH  27  28
ENDBRANCH  26  27
ENDBRANCH   1  26
TORSDOF 17
ENDMDL
MODEL 2
REMARK VINA RESULT:      -8.9      5.779     10.347
REMARK SMILES O=C(NCc1ccc(C(=O)OCCOCCOC(=O)c2ccc(-c3c4nc(c(-c5ccccc5)c5ccc([nH]5)c(-c5ccccc5)c5nc(c(-c6ccccc6)c6ccc3[nH]6)C=C5)C=C4)cc2)o1)Nc1ccc(F)c(Cl)c1
REMARK SMILES IDX 13 1 12 2 11 3 9 4 10 5 8 6 5 7 6 8 68 9 7 10 4 11 3 12 1 13
REMARK SMILES IDX 2 14 69 15 70 18 71 19 77 20 72 21 75 22 73 23 76 24 74 25
REMARK SMILES IDX 14 26 15 27 16 28 17 29 18 30 19 31 20 32 21 33 67 34 22 35
REMARK SMILES IDX 66 36 23 37 24 38 25 39 60 40 26 41 65 42 59 43 61 44 27 45
REMARK SMILES IDX 64 46 58 47 57 48 28 50 50 51 35 52 49 53 36 54 39 55 48 56
REMARK SMILES IDX 62 57 37 58 38 59 47 61 63 62 40 63 29 64 30 65 34 66 31 67
REMARK SMILES IDX 33 68 32 69 51 70 52 71 56 72 53 73 55 74 54 75 41 76 42 77
REMARK SMILES IDX 46 78 43 79 45 80 44 81
REMARK H PARENT 3 16 69 17 61 49 39 60
REMARK Flexibility Score: inf
ROOT
ATOM      1  C   UNL A   1      42.748  19.555  25.893  1.00  0.00     0.202 C 
ENDROOT
BRANCH   1   2
ATOM      2  C   UNL A   1      42.231  20.008  27.262  1.00  0.00     0.261 C 
BRANCH   2   3
ATOM      3  O   UNL A   1      40.818  19.760  27.357  1.00  0.00    -0.457 OA
BRANCH   3   4
ATOM      4  C   UNL A   1      40.076  20.124  26.272  1.00  0.00     0.374 C 
ATOM      5  O   UNL A   1      39.744  19.369  25.366  1.00  0.00    -0.242 OA
BRANCH   4   6
ATOM      6  C   UNL A   1      39.648  21.496  26.426  1.00  0.00     0.211 A 
ATOM      7  C   UNL A   1      38.193  23.142  26.231  1.00  0.00     0.124 A 
ATOM      8  C   UNL A   1      39.245  23.643  26.969  1.00  0.00     0.048 A 
ATOM      9  O   UNL A   1      38.436  21.847  25.894  1.00  0.00    -0.452 OA
ATOM     10  C   UNL A   1      40.180  22.585  27.095  1.00  0.00     0.058 A 
BRANCH   7  11
ATOM     11  C   UNL A   1      36.919  23.720  25.734  1.00  0.00     0.193 C 
BRANCH  11  12
ATOM     12  N   UNL A   1      35.854  23.177  26.547  1.00  0.00    -0.331 N 
ATOM     13  O   UNL A   1      33.951  22.126  26.951  1.00  0.00    -0.248 OA
ATOM     14  C   UNL A   1      34.970  22.189  26.268  1.00  0.00     0.319 C 
ATOM     15  N   UNL A   1      35.319  21.311  25.280  1.00  0.00    -0.308 N 
ATOM     16  H   UNL A   1      35.758  23.587  27.437  1.00  0.00     0.165 HD
ATOM     17  H   UNL A   1      36.238  21.364  24.933  1.00  0.00     0.171 HD
BRANCH  15  18
ATOM     18  C   UNL A   1      34.469  20.337  24.716  1.00  0.00     0.044 A 
ATOM     19  C   UNL A   1      33.259  20.766  24.155  1.00  0.00     0.029 A 
ATOM     20  C   UNL A   1      34.783  18.973  24.710  1.00  0.00     0.049 A 
ATOM     21  C   UNL A   1      32.400  19.848  23.545  1.00  0.00     0.043 A 
ATOM     22  C   UNL A   1      33.912  18.054  24.120  1.00  0.00     0.078 A 
ATOM     23  C   UNL A   1      32.733  18.498  23.529  1.00  0.00     0.141 A 
ATOM     24  Cl  UNL A   1      34.308  16.378  24.136  1.00  0.00    -0.081 Cl
ATOM     25  F   UNL A   1      31.895  17.634  22.937  1.00  0.00    -0.205 F 
ENDBRANCH  15  18
ENDBRANCH  11  12
ENDBRANCH   7  11
ENDBRANCH   4   6
ENDBRANCH   3   4
ENDBRANCH   2   3
ENDBRANCH   1   2
BRANCH   1  26
ATOM     26  O   UNL A   1      43.502  20.545  25.192  1.00  0.00    -0.374 OA
BRANCH  26  27
ATOM     27  C   UNL A   1      44.912  20.333  25.111  1.00  0.00     0.202 C 
BRANCH  27  28
ATOM     28  C   UNL A   1      45.763  21.599  25.253  1.00  0.00     0.261 C 
BRANCH  28  29
ATOM     29  O   UNL A   1      45.121  22.558  26.114  1.00  0.00    -0.460 OA
BRANCH  29  30
ATOM     30  C   UNL A   1      44.936  23.783  25.568  1.00  0.00     0.338 C 
ATOM     31  O   UNL A   1      45.255  24.153  24.451  1.00  0.00    -0.246 OA
BRANCH  30  32
ATOM     32  C   UNL A   1      44.116  24.613  26.474  1.00  0.00     0.060 A 
ATOM     33  C   UNL A   1      44.307  25.999  26.428  1.00  0.00     0.016 A 
ATOM     34  C   UNL A   1      43.216  24.052  27.385  1.00  0.00     0.016 A 
ATOM     35  C   UNL A   1      43.634  26.828  27.322  1.00  0.00     0.010 A 
ATOM     36  C   UNL A   1      42.545  24.886  28.286  1.00  0.00     0.010 A 
ATOM     37  C   UNL A   1      42.774  26.273  28.280  1.00  0.00    -0.014 A 
BRANCH  37  38
ATOM     38  C   UNL A   1      42.215  27.133  29.349  1.00  0.00     0.031 A 
ATOM     39  C   UNL A   1      42.923  27.214  30.673  1.00  0.00     0.074 A 
ATOM     40  C   UNL A   1      41.102  27.857  29.137  1.00  0.00     0.049 A 
ATOM     41  N   UNL A   1      42.601  27.894  31.744  1.00  0.00    -0.248 NA
ATOM     42  C   UNL A   1      44.156  26.422  30.808  1.00  0.00     0.031 C 
ATOM     43  C   UNL A   1      40.343  27.898  27.887  1.00  0.00     0.029 A 
ATOM     44  N   UNL A   1      40.416  28.698  29.976  1.00  0.00    -0.354 N 
ATOM     45  C   UNL A   1      43.588  27.611  32.680  1.00  0.00     0.074 A 
ATOM     46  C   UNL A   1      44.504  26.675  32.061  1.00  0.00     0.031 C 
ATOM     47  C   UNL A   1      39.291  28.719  28.044  1.00  0.00     0.029 A 
ATOM     48  C   UNL A   1      39.288  29.239  29.410  1.00  0.00     0.049 A 
ATOM     49  H   UNL A   1      40.706  28.895  30.896  1.00  0.00     0.167 HD
ATOM     50  C   UNL A   1      43.725  28.090  33.939  1.00  0.00     0.031 A 
ATOM     51  C   UNL A   1      38.350  30.049  29.939  1.00  0.00     0.031 A 
ATOM     52  C   UNL A   1      42.813  29.010  34.563  1.00  0.00     0.049 A 
ATOM     53  C   UNL A   1      38.486  30.510  31.366  1.00  0.00     0.074 A 
ATOM     54  C   UNL A   1      42.880  29.567  35.828  1.00  0.00     0.029 A 
ATOM     55  N   UNL A   1      41.663  29.502  33.969  1.00  0.00    -0.354 N 
ATOM     56  N   UNL A   1      39.439  30.257  32.229  1.00  0.00    -0.248 NA
ATOM     57  C   UNL A   1      37.415  31.373  31.886  1.00  0.00     0.031 C 
ATOM     58  C   UNL A   1      41.742  30.357  36.019  1.00  0.00     0.029 A 
ATOM     59  C   UNL A   1      40.996  30.335  34.852  1.00  0.00     0.049 A 
ATOM     60  H   UNL A   1      41.363  29.293  33.055  1.00  0.00     0.167 HD
ATOM     61  C   UNL A   1      39.099  30.952  33.383  1.00  0.00     0.074 A 
ATOM     62  C   UNL A   1      37.857  31.644  33.106  1.00  0.00     0.031 C 
ATOM     63  C   UNL A   1      39.760  31.016  34.564  1.00  0.00     0.031 A 
BRANCH  50  64
ATOM     64  C   UNL A   1      44.898  27.598  34.739  1.00  0.00    -0.014 A 
ATOM     65  C   UNL A   1      46.051  28.381  34.900  1.00  0.00     0.009 A 
ATOM     66  C   UNL A   1      44.833  26.344  35.367  1.00  0.00     0.009 A 
ATOM     67  C   UNL A   1      47.129  27.905  35.649  1.00  0.00     0.001 A 
ATOM     68  C   UNL A   1      45.902  25.882  36.136  1.00  0.00     0.001 A 
ATOM     69  C   UNL A   1      47.052  26.658  36.269  1.00  0.00     0.000 A 
ENDBRANCH  50  64
BRANCH  51  70
ATOM     70  C   UNL A   1      37.184  30.468  29.120  1.00  0.00    -0.014 A 
ATOM     71  C   UNL A   1      37.057  31.795  28.684  1.00  0.00     0.009 A 
ATOM     72  C   UNL A   1      36.184  29.542  28.782  1.00  0.00     0.009 A 
ATOM     73  C   UNL A   1      35.939  32.191  27.945  1.00  0.00     0.001 A 
ATOM     74  C   UNL A   1      35.082  29.936  28.022  1.00  0.00     0.001 A 
ATOM     75  C   UNL A   1      34.956  31.261  27.611  1.00  0.00     0.000 A 
ENDBRANCH  51  70
BRANCH  63  76
ATOM     76  C   UNL A   1      39.174  31.888  35.637  1.00  0.00    -0.014 A 
ATOM     77  C   UNL A   1      38.237  31.386  36.554  1.00  0.00     0.009 A 
ATOM     78  C   UNL A   1      39.603  33.219  35.762  1.00  0.00     0.009 A 
ATOM     79  C   UNL A   1      37.719  32.210  37.556  1.00  0.00     0.001 A 
ATOM     80  C   UNL A   1      39.104  34.032  36.780  1.00  0.00     0.001 A 
ATOM     81  C   UNL A   1      38.157  33.531  37.671  1.00  0.00     0.000 A 
ENDBRANCH  63  76
ENDBRANCH  37  38
ENDBRANCH  30  32
ENDBRANCH  29  30
ENDBRANCH  28  29
ENDBRANCH  27  28
ENDBRANCH  26  27
ENDBRANCH   1  26
TORSDOF 17
ENDMDL
MODEL 3
REMARK VINA RESULT:      -8.9      0.354      5.851
REMARK SMILES O=C(NCc1ccc(C(=O)OCCOCCOC(=O)c2ccc(-c3c4nc(c(-c5ccccc5)c5ccc([nH]5)c(-c5ccccc5)c5nc(c(-c6ccccc6)c6ccc3[nH]6)C=C5)C=C4)cc2)o1)Nc1ccc(F)c(Cl)c1
REMARK SMILES IDX 13 1 12 2 11 3 9 4 10 5 8 6 5 7 6 8 68 9 7 10 4 11 3 12 1 13
REMARK SMILES IDX 2 14 69 15 70 18 71 19 77 20 72 21 75 22 73 23 76 24 74 25
REMARK SMILES IDX 14 26 15 27 16 28 17 29 18 30 19 31 20 32 21 33 67 34 22 35
REMARK SMILES IDX 66 36 23 37 24 38 25 39 60 40 26 41 65 42 59 43 61 44 27 45
REMARK SMILES IDX 64 46 58 47 57 48 28 50 50 51 35 52 49 53 36 54 39 55 48 56
REMARK SMILES IDX 62 57 37 58 38 59 47 61 63 62 40 63 29 64 30 65 34 66 31 67
REMARK SMILES IDX 33 68 32 69 51 70 52 71 56 72 53 73 55 74 54 75 41 76 42 77
REMARK SMILES IDX 46 78 43 79 45 80 44 81
REMARK H PARENT 3 16 69 17 61 49 39 60
REMARK Flexibility Score: inf
ROOT
ATOM      1  C   UNL A   1      46.348  21.485  24.380  1.00  0.00     0.202 C 
ENDROOT
BRANCH   1   2
ATOM      2  C   UNL A   1      45.897  22.923  24.107  1.00  0.00     0.261 C 
BRANCH   2   3
ATOM      3  O   UNL A   1      45.852  23.663  25.339  1.00  0.00    -0.457 OA
BRANCH   3   4
ATOM      4  C   UNL A   1      46.273  24.959  25.270  1.00  0.00     0.374 C 
ATOM      5  O   UNL A   1      47.414  25.311  24.996  1.00  0.00    -0.242 OA
BRANCH   4   6
ATOM      6  C   UNL A   1      45.139  25.837  25.447  1.00  0.00     0.211 A 
ATOM      7  C   UNL A   1      44.168  27.686  26.155  1.00  0.00     0.124 A 
ATOM      8  C   UNL A   1      43.227  27.023  25.395  1.00  0.00     0.048 A 
ATOM      9  O   UNL A   1      45.322  26.969  26.195  1.00  0.00    -0.452 OA
ATOM     10  C   UNL A   1      43.850  25.835  24.940  1.00  0.00     0.058 A 
BRANCH   7  11
ATOM     11  C   UNL A   1      44.159  28.957  26.922  1.00  0.00     0.193 C 
BRANCH  11  12
ATOM     12  N   UNL A   1      45.351  29.688  26.558  1.00  0.00    -0.331 N 
ATOM     13  O   UNL A   1      46.522  31.418  25.833  1.00  0.00    -0.248 OA
ATOM     14  C   UNL A   1      45.558  31.026  26.485  1.00  0.00     0.319 C 
ATOM     15  N   UNL A   1      44.701  31.820  27.194  1.00  0.00    -0.308 N 
ATOM     16  H   UNL A   1      46.130  29.131  26.329  1.00  0.00     0.165 HD
ATOM     17  H   UNL A   1      44.083  31.376  27.817  1.00  0.00     0.171 HD
BRANCH  15  18
ATOM     18  C   UNL A   1      44.630  33.226  27.104  1.00  0.00     0.044 A 
ATOM     19  C   UNL A   1      43.751  33.781  26.165  1.00  0.00     0.029 A 
ATOM     20  C   UNL A   1      45.407  34.074  27.902  1.00  0.00     0.049 A 
ATOM     21  C   UNL A   1      43.610  35.167  26.064  1.00  0.00     0.043 A 
ATOM     22  C   UNL A   1      45.280  35.460  27.785  1.00  0.00     0.078 A 
ATOM     23  C   UNL A   1      44.374  35.999  26.877  1.00  0.00     0.141 A 
ATOM     24  Cl  UNL A   1      46.256  36.488  28.764  1.00  0.00    -0.081 Cl
ATOM     25  F   UNL A   1      44.221  37.327  26.765  1.00  0.00    -0.205 F 
ENDBRANCH  15  18
ENDBRANCH  11  12
ENDBRANCH   7  11
ENDBRANCH   4   6
ENDBRANCH   3   4
ENDBRANCH   2   3
ENDBRANCH   1   2
BRANCH   1  26
ATOM     26  O   UNL A   1      45.557  20.794  25.348  1.00  0.00    -0.374 OA
BRANCH  26  27
ATOM     27  C   UNL A   1      45.624  19.367  25.324  1.00  0.00     0.202 C 
BRANCH  27  28
ATOM     28  C   UNL A   1      44.273  18.656  25.458  1.00  0.00     0.261 C 
BRANCH  28  29
ATOM     29  O   UNL A   1      43.203  19.486  24.967  1.00  0.00    -0.460 OA
BRANCH  29  30
ATOM     30  C   UNL A   1      42.118  19.555  25.773  1.00  0.00     0.338 C 
ATOM     31  O   UNL A   1      41.346  18.655  26.056  1.00  0.00    -0.246 OA
BRANCH  30  32
ATOM     32  C   UNL A   1      42.071  20.877  26.431  1.00  0.00     0.060 A 
ATOM     33  C   UNL A   1      42.305  22.003  25.632  1.00  0.00     0.016 A 
ATOM     34  C   UNL A   1      41.853  21.016  27.804  1.00  0.00     0.016 A 
ATOM     35  C   UNL A   1      42.368  23.268  26.210  1.00  0.00     0.010 A 
ATOM     36  C   UNL A   1      41.921  22.288  28.384  1.00  0.00     0.010 A 
ATOM     37  C   UNL A   1      42.210  23.415  27.595  1.00  0.00    -0.014 A 
BRANCH  37  38
ATOM     38  C   UNL A   1      42.471  24.730  28.228  1.00  0.00     0.031 A 
ATOM     39  C   UNL A   1      43.851  25.038  28.741  1.00  0.00     0.074 A 
ATOM     40  C   UNL A   1      41.497  25.652  28.322  1.00  0.00     0.049 A 
ATOM     41  N   UNL A   1      44.291  26.118  29.335  1.00  0.00    -0.248 NA
ATOM     42  C   UNL A   1      44.867  23.989  28.561  1.00  0.00     0.031 C 
ATOM     43  C   UNL A   1      40.129  25.493  27.830  1.00  0.00     0.029 A 
ATOM     44  N   UNL A   1      41.515  26.910  28.870  1.00  0.00    -0.354 N 
ATOM     45  C   UNL A   1      45.633  25.879  29.602  1.00  0.00     0.074 A 
ATOM     46  C   UNL A   1      45.928  24.541  29.133  1.00  0.00     0.031 C 
ATOM     47  C   UNL A   1      39.436  26.612  28.103  1.00  0.00     0.029 A 
ATOM     48  C   UNL A   1      40.303  27.551  28.813  1.00  0.00     0.049 A 
ATOM     49  H   UNL A   1      42.321  27.314  29.266  1.00  0.00     0.167 HD
ATOM     50  C   UNL A   1      46.541  26.699  30.182  1.00  0.00     0.031 A 
ATOM     51  C   UNL A   1      39.930  28.754  29.291  1.00  0.00     0.031 A 
ATOM     52  C   UNL A   1      46.251  28.023  30.661  1.00  0.00     0.049 A 
ATOM     53  C   UNL A   1      40.940  29.618  29.997  1.00  0.00     0.074 A 
ATOM     54  C   UNL A   1      47.112  28.937  31.245  1.00  0.00     0.029 A 
ATOM     55  N   UNL A   1      45.002  28.620  30.619  1.00  0.00    -0.354 N 
ATOM     56  N   UNL A   1      42.212  29.392  30.217  1.00  0.00    -0.248 NA
ATOM     57  C   UNL A   1      40.459  30.908  30.516  1.00  0.00     0.031 C 
ATOM     58  C   UNL A   1      46.371  30.068  31.602  1.00  0.00     0.029 A 
ATOM     59  C   UNL A   1      45.062  29.880  31.192  1.00  0.00     0.049 A 
ATOM     60  H   UNL A   1      44.192  28.211  30.238  1.00  0.00     0.167 HD
ATOM     61  C   UNL A   1      42.691  30.520  30.872  1.00  0.00     0.074 A 
ATOM     62  C   UNL A   1      41.574  31.433  31.005  1.00  0.00     0.031 C 
ATOM     63  C   UNL A   1      43.944  30.778  31.318  1.00  0.00     0.031 A 
BRANCH  50  64
ATOM     64  C   UNL A   1      47.935  26.168  30.357  1.00  0.00    -0.014 A 
ATOM     65  C   UNL A   1      48.862  26.192  29.303  1.00  0.00     0.009 A 
ATOM     66  C   UNL A   1      48.337  25.667  31.605  1.00  0.00     0.009 A 
ATOM     67  C   UNL A   1      50.154  25.694  29.487  1.00  0.00     0.001 A 
ATOM     68  C   UNL A   1      49.636  25.193  31.793  1.00  0.00     0.001 A 
ATOM     69  C   UNL A   1      50.540  25.199  30.732  1.00  0.00     0.000 A 
ENDBRANCH  50  64
BRANCH  51  70
ATOM     70  C   UNL A   1      38.525  29.212  29.134  1.00  0.00    -0.014 A 
ATOM     71  C   UNL A   1      38.094  29.798  27.935  1.00  0.00     0.009 A 
ATOM     72  C   UNL A   1      37.613  29.078  30.193  1.00  0.00     0.009 A 
ATOM     73  C   UNL A   1      36.781  30.260  27.808  1.00  0.00     0.001 A 
ATOM     74  C   UNL A   1      36.296  29.517  30.052  1.00  0.00     0.001 A 
ATOM     75  C   UNL A   1      35.884  30.115  28.864  1.00  0.00     0.000 A 
ENDBRANCH  51  70
BRANCH  63  76
ATOM     76  C   UNL A   1      44.186  32.113  31.962  1.00  0.00    -0.014 A 
ATOM     77  C   UNL A   1      44.005  32.301  33.341  1.00  0.00     0.009 A 
ATOM     78  C   UNL A   1      44.650  33.185  31.183  1.00  0.00     0.009 A 
ATOM     79  C   UNL A   1      44.255  33.546  33.922  1.00  0.00     0.001 A 
ATOM     80  C   UNL A   1      44.923  34.421  31.772  1.00  0.00     0.001 A 
ATOM     81  C   UNL A   1      44.719  34.604  33.138  1.00  0.00     0.000 A 
ENDBRANCH  63  76
ENDBRANCH  37  38
ENDBRANCH  30  32
ENDBRANCH  29  30
ENDBRANCH  28  29
ENDBRANCH  27  28
ENDBRANCH  26  27
ENDBRANCH   1  26
TORSDOF 17
ENDMDL
