MODEL 1
REMARK VINA RESULT:     -10.0      0.000      0.000
REMARK SMILES COc1cccc(O[C@@H](C)c2nnc(SCC(=O)OCCOCCOC(=O)c3ccc(-c4c5nc(c(-c6ccccc6)c6ccc([nH]6)c(-c6ccccc6)c6nc(c(-c7ccccc7)c7ccc4[nH]7)C=C6)C=C5)cc3)n2C)c1
REMARK SMILES IDX 20 1 19 2 17 3 18 4 16 5 15 6 14 7 11 8 12 9 76 10 13 11
REMARK SMILES IDX 77 12 9 13 10 14 8 15 7 16 3 17 4 18 78 19 5 20 6 21 2 22
REMARK SMILES IDX 1 23 21 24 22 25 23 26 24 27 25 28 26 29 27 30 28 31 29 32
REMARK SMILES IDX 75 33 30 34 74 35 31 36 32 37 33 38 68 39 34 40 73 41 67 42
REMARK SMILES IDX 69 43 35 44 72 45 66 46 65 47 36 49 58 50 43 51 57 52 44 53
REMARK SMILES IDX 47 54 56 55 70 56 45 57 46 58 55 60 71 61 48 62 37 63 38 64
REMARK SMILES IDX 42 65 39 66 41 67 40 68 59 69 60 70 64 71 61 72 63 73 62 74
REMARK SMILES IDX 49 75 50 76 54 77 51 78 53 79 52 80
REMARK H PARENT 69 48 47 59
REMARK Flexibility Score: inf
ROOT
ATOM      1  C   UNL A   1      44.329  18.452  25.157  1.00  0.00     0.261 C 
ENDROOT
BRANCH   1   2
ATOM      2  O   UNL A   1      43.102  19.210  25.020  1.00  0.00    -0.463 OA
BRANCH   2   3
ATOM      3  C   UNL A   1      42.438  19.531  26.164  1.00  0.00     0.316 C 
ATOM      4  O   UNL A   1      42.014  18.704  26.966  1.00  0.00    -0.251 OA
BRANCH   3   5
ATOM      5  C   UNL A   1      42.239  21.022  26.381  1.00  0.00     0.200 C 
BRANCH   5   6
ATOM      6  S   UNL A   1      40.815  21.450  27.386  1.00  0.00    -0.074 SA
BRANCH   6   7
ATOM      7  C   UNL A   1      39.644  22.325  26.450  1.00  0.00     0.191 A 
ATOM      8  C   UNL A   1      37.656  22.928  25.705  1.00  0.00     0.174 A 
ATOM      9  N   UNL A   1      38.320  24.007  26.086  1.00  0.00    -0.130 NA
ATOM     10  N   UNL A   1      38.541  21.859  25.766  1.00  0.00    -0.306 N 
ATOM     11  N   UNL A   1      39.546  23.630  26.556  1.00  0.00    -0.123 NA
ATOM     12  C   UNL A   1      38.368  20.550  25.215  1.00  0.00     0.154 C 
BRANCH   8  13
ATOM     13  C   UNL A   1      36.162  22.953  25.454  1.00  0.00     0.238 C 
ATOM     14  C   UNL A   1      35.557  22.396  24.178  1.00  0.00     0.062 C 
BRANCH  13  15
ATOM     15  O   UNL A   1      35.548  24.194  25.826  1.00  0.00    -0.483 OA
BRANCH  15  16
ATOM     16  C   UNL A   1      34.203  24.359  25.928  1.00  0.00     0.124 A 
ATOM     17  C   UNL A   1      31.965  23.934  26.748  1.00  0.00     0.122 A 
ATOM     18  C   UNL A   1      31.456  24.814  25.792  1.00  0.00     0.046 A 
ATOM     19  C   UNL A   1      33.344  23.726  26.825  1.00  0.00     0.092 A 
ATOM     20  C   UNL A   1      32.315  25.513  24.948  1.00  0.00     0.008 A 
ATOM     21  C   UNL A   1      33.685  25.283  25.019  1.00  0.00     0.047 A 
BRANCH  17  22
ATOM     22  O   UNL A   1      31.015  23.319  27.515  1.00  0.00    -0.497 OA
ATOM     23  C   UNL A   1      29.886  22.774  26.848  1.00  0.00     0.278 C 
ENDBRANCH  17  22
ENDBRANCH  15  16
ENDBRANCH  13  15
ENDBRANCH   8  13
ENDBRANCH   6   7
ENDBRANCH   5   6
ENDBRANCH   3   5
ENDBRANCH   2   3
ENDBRANCH   1   2
BRANCH   1  24
ATOM     24  C   UNL A   1      45.558  19.346  24.938  1.00  0.00     0.202 C 
BRANCH  24  25
ATOM     25  O   UNL A   1      45.388  20.440  24.025  1.00  0.00    -0.374 OA
BRANCH  25  26
ATOM     26  C   UNL A   1      45.619  21.741  24.542  1.00  0.00     0.202 C 
BRANCH  26  27
ATOM     27  C   UNL A   1      44.923  22.893  23.816  1.00  0.00     0.261 C 
BRANCH  27  28
ATOM     28  O   UNL A   1      44.162  23.723  24.673  1.00  0.00    -0.460 OA
BRANCH  28  29
ATOM     29  C   UNL A   1      44.842  24.795  25.122  1.00  0.00     0.338 C 
ATOM     30  O   UNL A   1      45.886  25.273  24.698  1.00  0.00    -0.246 OA
BRANCH  29  31
ATOM     31  C   UNL A   1      43.994  25.455  26.102  1.00  0.00     0.060 A 
ATOM     32  C   UNL A   1      44.033  26.851  26.130  1.00  0.00     0.016 A 
ATOM     33  C   UNL A   1      43.185  24.717  26.967  1.00  0.00     0.016 A 
ATOM     34  C   UNL A   1      43.284  27.526  27.078  1.00  0.00     0.010 A 
ATOM     35  C   UNL A   1      42.435  25.397  27.921  1.00  0.00     0.010 A 
ATOM     36  C   UNL A   1      42.517  26.797  27.997  1.00  0.00    -0.014 A 
BRANCH  36  37
ATOM     37  C   UNL A   1      41.928  27.520  29.137  1.00  0.00     0.031 A 
ATOM     38  C   UNL A   1      42.655  27.490  30.448  1.00  0.00     0.074 A 
ATOM     39  C   UNL A   1      40.806  28.235  28.965  1.00  0.00     0.049 A 
ATOM     40  N   UNL A   1      42.372  28.113  31.560  1.00  0.00    -0.248 NA
ATOM     41  C   UNL A   1      43.864  26.649  30.517  1.00  0.00     0.031 C 
ATOM     42  C   UNL A   1      40.048  28.334  27.716  1.00  0.00     0.029 A 
ATOM     43  N   UNL A   1      40.113  29.022  29.845  1.00  0.00    -0.354 N 
ATOM     44  C   UNL A   1      43.363  27.739  32.458  1.00  0.00     0.074 A 
ATOM     45  C   UNL A   1      44.240  26.816  31.775  1.00  0.00     0.031 C 
ATOM     46  C   UNL A   1      38.990  29.139  27.912  1.00  0.00     0.029 A 
ATOM     47  C   UNL A   1      38.989  29.591  29.301  1.00  0.00     0.049 A 
ATOM     48  H   UNL A   1      40.393  29.164  30.778  1.00  0.00     0.167 HD
ATOM     49  C   UNL A   1      43.524  28.138  33.740  1.00  0.00     0.031 A 
ATOM     50  C   UNL A   1      38.064  30.381  29.874  1.00  0.00     0.031 A 
ATOM     51  C   UNL A   1      42.636  29.051  34.404  1.00  0.00     0.049 A 
ATOM     52  C   UNL A   1      38.249  30.778  31.313  1.00  0.00     0.074 A 
ATOM     53  C   UNL A   1      42.718  29.551  35.690  1.00  0.00     0.029 A 
ATOM     54  N   UNL A   1      41.496  29.591  33.830  1.00  0.00    -0.354 N 
ATOM     55  N   UNL A   1      39.226  30.471  32.135  1.00  0.00    -0.248 NA
ATOM     56  C   UNL A   1      37.216  31.641  31.900  1.00  0.00     0.031 C 
ATOM     57  C   UNL A   1      41.594  30.353  35.913  1.00  0.00     0.029 A 
ATOM     58  C   UNL A   1      40.844  30.394  34.747  1.00  0.00     0.049 A 
ATOM     59  H   UNL A   1      41.194  29.426  32.907  1.00  0.00     0.167 HD
ATOM     60  C   UNL A   1      38.936  31.120  33.327  1.00  0.00     0.074 A 
ATOM     61  C   UNL A   1      37.704  31.854  33.114  1.00  0.00     0.031 C 
ATOM     62  C   UNL A   1      39.622  31.111  34.497  1.00  0.00     0.031 A 
BRANCH  49  63
ATOM     63  C   UNL A   1      44.674  27.560  34.511  1.00  0.00    -0.014 A 
ATOM     64  C   UNL A   1      45.986  28.022  34.323  1.00  0.00     0.009 A 
ATOM     65  C   UNL A   1      44.434  26.560  35.466  1.00  0.00     0.009 A 
ATOM     66  C   UNL A   1      47.038  27.480  35.065  1.00  0.00     0.001 A 
ATOM     67  C   UNL A   1      45.484  26.036  36.221  1.00  0.00     0.001 A 
ATOM     68  C   UNL A   1      46.785  26.491  36.016  1.00  0.00     0.000 A 
ENDBRANCH  49  63
BRANCH  50  69
ATOM     69  C   UNL A   1      36.876  30.827  29.101  1.00  0.00    -0.014 A 
ATOM     70  C   UNL A   1      35.849  29.931  28.768  1.00  0.00     0.009 A 
ATOM     71  C   UNL A   1      36.775  32.160  28.672  1.00  0.00     0.009 A 
ATOM     72  C   UNL A   1      34.765  30.353  27.993  1.00  0.00     0.001 A 
ATOM     73  C   UNL A   1      35.677  32.586  27.922  1.00  0.00     0.001 A 
ATOM     74  C   UNL A   1      34.679  31.679  27.573  1.00  0.00     0.000 A 
ENDBRANCH  50  69
BRANCH  62  75
ATOM     75  C   UNL A   1      39.064  31.939  35.617  1.00  0.00    -0.014 A 
ATOM     76  C   UNL A   1      39.301  33.320  35.687  1.00  0.00     0.009 A 
ATOM     77  C   UNL A   1      38.249  31.334  36.587  1.00  0.00     0.009 A 
ATOM     78  C   UNL A   1      38.759  34.075  36.727  1.00  0.00     0.001 A 
ATOM     79  C   UNL A   1      37.683  32.096  37.609  1.00  0.00     0.001 A 
ATOM     80  C   UNL A   1      37.946  33.463  37.683  1.00  0.00     0.000 A 
ENDBRANCH  62  75
ENDBRANCH  36  37
ENDBRANCH  29  31
ENDBRANCH  28  29
ENDBRANCH  27  28
ENDBRANCH  26  27
ENDBRANCH  25  26
ENDBRANCH  24  25
ENDBRANCH   1  24
TORSDOF 20
ENDMDL
MODEL 2
REMARK VINA RESULT:      -9.7      1.559      6.137
REMARK SMILES COc1cccc(O[C@@H](C)c2nnc(SCC(=O)OCCOCCOC(=O)c3ccc(-c4c5nc(c(-c6ccccc6)c6ccc([nH]6)c(-c6ccccc6)c6nc(c(-c7ccccc7)c7ccc4[nH]7)C=C6)C=C5)cc3)n2C)c1
REMARK SMILES IDX 20 1 19 2 17 3 18 4 16 5 15 6 14 7 11 8 12 9 76 10 13 11
REMARK SMILES IDX 77 12 9 13 10 14 8 15 7 16 3 17 4 18 78 19 5 20 6 21 2 22
REMARK SMILES IDX 1 23 21 24 22 25 23 26 24 27 25 28 26 29 27 30 28 31 29 32
REMARK SMILES IDX 75 33 30 34 74 35 31 36 32 37 33 38 68 39 34 40 73 41 67 42
REMARK SMILES IDX 69 43 35 44 72 45 66 46 65 47 36 49 58 50 43 51 57 52 44 53
REMARK SMILES IDX 47 54 56 55 70 56 45 57 46 58 55 60 71 61 48 62 37 63 38 64
REMARK SMILES IDX 42 65 39 66 41 67 40 68 59 69 60 70 64 71 61 72 63 73 62 74
REMARK SMILES IDX 49 75 50 76 54 77 51 78 53 79 52 80
REMARK H PARENT 69 48 47 59
REMARK Flexibility Score: inf
ROOT
ATOM      1  C   UNL A   1      44.663  18.557  25.418  1.00  0.00     0.261 C 
ENDROOT
BRANCH   1   2
ATOM      2  O   UNL A   1      43.364  19.074  25.038  1.00  0.00    -0.463 OA
BRANCH   2   3
ATOM      3  C   UNL A   1      42.633  19.691  26.007  1.00  0.00     0.316 C 
ATOM      4  O   UNL A   1      42.179  19.118  26.994  1.00  0.00    -0.251 OA
BRANCH   3   5
ATOM      5  C   UNL A   1      42.398  21.174  25.772  1.00  0.00     0.200 C 
BRANCH   5   6
ATOM      6  S   UNL A   1      41.162  21.916  26.842  1.00  0.00    -0.074 SA
BRANCH   6   7
ATOM      7  C   UNL A   1      39.563  21.478  26.329  1.00  0.00     0.191 A 
ATOM      8  C   UNL A   1      37.705  21.541  25.141  1.00  0.00     0.174 A 
ATOM      9  N   UNL A   1      38.155  20.298  25.173  1.00  0.00    -0.130 NA
ATOM     10  N   UNL A   1      38.490  22.284  26.013  1.00  0.00    -0.306 N 
ATOM     11  N   UNL A   1      39.311  20.263  25.901  1.00  0.00    -0.123 NA
ATOM     12  C   UNL A   1      38.237  23.602  26.510  1.00  0.00     0.154 C 
BRANCH   8  13
ATOM     13  C   UNL A   1      36.645  21.986  24.154  1.00  0.00     0.238 C 
ATOM     14  C   UNL A   1      36.875  23.147  23.203  1.00  0.00     0.062 C 
BRANCH  13  15
ATOM     15  O   UNL A   1      35.328  22.026  24.719  1.00  0.00    -0.483 OA
BRANCH  15  16
ATOM     16  C   UNL A   1      34.389  21.071  24.491  1.00  0.00     0.124 A 
ATOM     17  C   UNL A   1      33.434  18.846  24.485  1.00  0.00     0.122 A 
ATOM     18  C   UNL A   1      32.350  19.322  23.748  1.00  0.00     0.046 A 
ATOM     19  C   UNL A   1      34.442  19.731  24.873  1.00  0.00     0.092 A 
ATOM     20  C   UNL A   1      32.248  20.674  23.435  1.00  0.00     0.008 A 
ATOM     21  C   UNL A   1      33.268  21.543  23.807  1.00  0.00     0.047 A 
BRANCH  17  22
ATOM     22  O   UNL A   1      33.407  17.501  24.730  1.00  0.00    -0.497 OA
ATOM     23  C   UNL A   1      34.590  16.763  24.460  1.00  0.00     0.278 C 
ENDBRANCH  17  22
ENDBRANCH  15  16
ENDBRANCH  13  15
ENDBRANCH   8  13
ENDBRANCH   6   7
ENDBRANCH   5   6
ENDBRANCH   3   5
ENDBRANCH   2   3
ENDBRANCH   1   2
BRANCH   1  24
ATOM     24  C   UNL A   1      45.766  19.593  25.160  1.00  0.00     0.202 C 
BRANCH  24  25
ATOM     25  O   UNL A   1      45.466  20.607  24.190  1.00  0.00    -0.374 OA
BRANCH  25  26
ATOM     26  C   UNL A   1      45.863  21.931  24.509  1.00  0.00     0.202 C 
BRANCH  26  27
ATOM     27  C   UNL A   1      45.006  23.056  23.927  1.00  0.00     0.261 C 
BRANCH  27  28
ATOM     28  O   UNL A   1      44.356  23.837  24.913  1.00  0.00    -0.460 OA
BRANCH  28  29
ATOM     29  C   UNL A   1      45.012  24.974  25.214  1.00  0.00     0.338 C 
ATOM     30  O   UNL A   1      45.991  25.461  24.664  1.00  0.00    -0.246 OA
BRANCH  29  31
ATOM     31  C   UNL A   1      44.213  25.674  26.207  1.00  0.00     0.060 A 
ATOM     32  C   UNL A   1      44.346  27.063  26.256  1.00  0.00     0.016 A 
ATOM     33  C   UNL A   1      43.358  24.979  27.063  1.00  0.00     0.016 A 
ATOM     34  C   UNL A   1      43.648  27.772  27.217  1.00  0.00     0.010 A 
ATOM     35  C   UNL A   1      42.658  25.693  28.030  1.00  0.00     0.010 A 
ATOM     36  C   UNL A   1      42.835  27.083  28.127  1.00  0.00    -0.014 A 
BRANCH  36  37
ATOM     37  C   UNL A   1      42.299  27.826  29.280  1.00  0.00     0.031 A 
ATOM     38  C   UNL A   1      40.942  28.452  29.153  1.00  0.00     0.074 A 
ATOM     39  C   UNL A   1      42.995  27.869  30.427  1.00  0.00     0.049 A 
ATOM     40  N   UNL A   1      40.239  29.081  30.056  1.00  0.00    -0.248 NA
ATOM     41  C   UNL A   1      40.288  28.356  27.835  1.00  0.00     0.031 C 
ATOM     42  C   UNL A   1      44.313  27.268  30.641  1.00  0.00     0.029 A 
ATOM     43  N   UNL A   1      42.684  28.440  31.631  1.00  0.00    -0.354 N 
ATOM     44  C   UNL A   1      39.064  29.456  29.416  1.00  0.00     0.074 A 
ATOM     45  C   UNL A   1      39.157  29.010  28.045  1.00  0.00     0.031 C 
ATOM     46  C   UNL A   1      44.698  27.504  31.906  1.00  0.00     0.029 A 
ATOM     47  C   UNL A   1      43.665  28.287  32.578  1.00  0.00     0.049 A 
ATOM     48  H   UNL A   1      41.838  28.915  31.801  1.00  0.00     0.167 HD
ATOM     49  C   UNL A   1      38.002  30.112  29.935  1.00  0.00     0.031 A 
ATOM     50  C   UNL A   1      43.716  28.741  33.843  1.00  0.00     0.031 A 
ATOM     51  C   UNL A   1      37.932  30.553  31.300  1.00  0.00     0.049 A 
ATOM     52  C   UNL A   1      42.534  29.501  34.381  1.00  0.00     0.074 A 
ATOM     53  C   UNL A   1      36.893  31.199  31.945  1.00  0.00     0.029 A 
ATOM     54  N   UNL A   1      38.952  30.401  32.226  1.00  0.00    -0.354 N 
ATOM     55  N   UNL A   1      41.400  29.794  33.788  1.00  0.00    -0.248 NA
ATOM     56  C   UNL A   1      42.631  29.980  35.767  1.00  0.00     0.031 C 
ATOM     57  C   UNL A   1      37.308  31.486  33.249  1.00  0.00     0.029 A 
ATOM     58  C   UNL A   1      38.583  30.970  33.430  1.00  0.00     0.049 A 
ATOM     59  H   UNL A   1      39.813  29.954  32.051  1.00  0.00     0.167 HD
ATOM     60  C   UNL A   1      40.641  30.471  34.733  1.00  0.00     0.074 A 
ATOM     61  C   UNL A   1      41.436  30.526  35.944  1.00  0.00     0.031 C 
ATOM     62  C   UNL A   1      39.400  31.003  34.614  1.00  0.00     0.031 A 
BRANCH  49  63
ATOM     63  C   UNL A   1      36.857  30.421  29.017  1.00  0.00    -0.014 A 
ATOM     64  C   UNL A   1      35.944  29.429  28.626  1.00  0.00     0.009 A 
ATOM     65  C   UNL A   1      36.669  31.736  28.564  1.00  0.00     0.009 A 
ATOM     66  C   UNL A   1      34.876  29.745  27.783  1.00  0.00     0.001 A 
ATOM     67  C   UNL A   1      35.589  32.054  27.741  1.00  0.00     0.001 A 
ATOM     68  C   UNL A   1      34.697  31.058  27.345  1.00  0.00     0.000 A 
ENDBRANCH  49  63
BRANCH  50  69
ATOM     69  C   UNL A   1      44.926  28.514  34.673  1.00  0.00    -0.014 A 
ATOM     70  C   UNL A   1      45.050  27.372  35.478  1.00  0.00     0.009 A 
ATOM     71  C   UNL A   1      45.963  29.462  34.680  1.00  0.00     0.009 A 
ATOM     72  C   UNL A   1      46.170  27.201  36.296  1.00  0.00     0.001 A 
ATOM     73  C   UNL A   1      47.094  29.274  35.477  1.00  0.00     0.001 A 
ATOM     74  C   UNL A   1      47.191  28.150  36.293  1.00  0.00     0.000 A 
ENDBRANCH  50  69
BRANCH  62  75
ATOM     75  C   UNL A   1      38.825  31.664  35.833  1.00  0.00    -0.014 A 
ATOM     76  C   UNL A   1      38.964  33.044  36.045  1.00  0.00     0.009 A 
ATOM     77  C   UNL A   1      38.091  30.899  36.754  1.00  0.00     0.009 A 
ATOM     78  C   UNL A   1      38.407  33.640  37.175  1.00  0.00     0.001 A 
ATOM     79  C   UNL A   1      37.509  31.504  37.867  1.00  0.00     0.001 A 
ATOM     80  C   UNL A   1      37.676  32.872  38.081  1.00  0.00     0.000 A 
ENDBRANCH  62  75
ENDBRANCH  36  37
ENDBRANCH  29  31
ENDBRANCH  28  29
ENDBRANCH  27  28
ENDBRANCH  26  27
ENDBRANCH  25  26
ENDBRANCH  24  25
ENDBRANCH   1  24
TORSDOF 20
ENDMDL
MODEL 3
REMARK VINA RESULT:      -9.6      3.928      9.667
REMARK SMILES COc1cccc(O[C@@H](C)c2nnc(SCC(=O)OCCOCCOC(=O)c3ccc(-c4c5nc(c(-c6ccccc6)c6ccc([nH]6)c(-c6ccccc6)c6nc(c(-c7ccccc7)c7ccc4[nH]7)C=C6)C=C5)cc3)n2C)c1
REMARK SMILES IDX 20 1 19 2 17 3 18 4 16 5 15 6 14 7 11 8 12 9 76 10 13 11
REMARK SMILES IDX 77 12 9 13 10 14 8 15 7 16 3 17 4 18 78 19 5 20 6 21 2 22
REMARK SMILES IDX 1 23 21 24 22 25 23 26 24 27 25 28 26 29 27 30 28 31 29 32
REMARK SMILES IDX 75 33 30 34 74 35 31 36 32 37 33 38 68 39 34 40 73 41 67 42
REMARK SMILES IDX 69 43 35 44 72 45 66 46 65 47 36 49 58 50 43 51 57 52 44 53
REMARK SMILES IDX 47 54 56 55 70 56 45 57 46 58 55 60 71 61 48 62 37 63 38 64
REMARK SMILES IDX 42 65 39 66 41 67 40 68 59 69 60 70 64 71 61 72 63 73 62 74
REMARK SMILES IDX 49 75 50 76 54 77 51 78 53 79 52 80
REMARK H PARENT 69 48 47 59
REMARK Flexibility Score: inf
ROOT
ATOM      1  C   UNL A   1      34.332  31.769  27.664  1.00  0.00     0.261 C 
ENDROOT
BRANCH   1   2
ATOM      2  O   UNL A   1      33.419  30.655  27.506  1.00  0.00    -0.463 OA
BRANCH   2   3
ATOM      3  C   UNL A   1      32.408  30.803  26.606  1.00  0.00     0.316 C 
ATOM      4  O   UNL A   1      31.530  31.657  26.695  1.00  0.00    -0.251 OA
BRANCH   3   5
ATOM      5  C   UNL A   1      32.430  29.804  25.462  1.00  0.00     0.200 C 
BRANCH   5   6
ATOM      6  S   UNL A   1      33.369  28.308  25.789  1.00  0.00    -0.074 SA
BRANCH   6   7
ATOM      7  C   UNL A   1      32.321  26.926  25.847  1.00  0.00     0.191 A 
ATOM      8  C   UNL A   1      31.741  24.797  25.903  1.00  0.00     0.174 A 
ATOM      9  N   UNL A   1      31.136  25.436  26.890  1.00  0.00    -0.130 NA
ATOM     10  N   UNL A   1      32.368  25.757  25.118  1.00  0.00    -0.306 N 
ATOM     11  N   UNL A   1      31.504  26.752  26.860  1.00  0.00    -0.123 NA
ATOM     12  C   UNL A   1      32.929  25.587  23.812  1.00  0.00     0.154 C 
BRANCH   8  13
ATOM     13  C   UNL A   1      31.820  23.286  25.855  1.00  0.00     0.238 C 
ATOM     14  C   UNL A   1      30.573  22.419  25.880  1.00  0.00     0.062 C 
BRANCH  13  15
ATOM     15  O   UNL A   1      32.848  22.746  26.697  1.00  0.00    -0.483 OA
BRANCH  15  16
ATOM     16  C   UNL A   1      34.039  22.296  26.223  1.00  0.00     0.124 A 
ATOM     17  C   UNL A   1      36.397  22.390  25.678  1.00  0.00     0.122 A 
ATOM     18  C   UNL A   1      36.287  21.161  25.028  1.00  0.00     0.046 A 
ATOM     19  C   UNL A   1      35.272  22.944  26.294  1.00  0.00     0.092 A 
ATOM     20  C   UNL A   1      35.080  20.468  25.026  1.00  0.00     0.008 A 
ATOM     21  C   UNL A   1      33.960  21.038  25.624  1.00  0.00     0.047 A 
BRANCH  17  22
ATOM     22  O   UNL A   1      37.638  22.960  25.611  1.00  0.00    -0.497 OA
ATOM     23  C   UNL A   1      38.741  22.178  26.043  1.00  0.00     0.278 C 
ENDBRANCH  17  22
ENDBRANCH  15  16
ENDBRANCH  13  15
ENDBRANCH   8  13
ENDBRANCH   6   7
ENDBRANCH   5   6
ENDBRANCH   3   5
ENDBRANCH   2   3
ENDBRANCH   1   2
BRANCH   1  24
ATOM     24  C   UNL A   1      34.652  32.013  29.146  1.00  0.00     0.202 C 
BRANCH  24  25
ATOM     25  O   UNL A   1      34.622  33.380  29.581  1.00  0.00    -0.374 OA
BRANCH  25  26
ATOM     26  C   UNL A   1      33.665  34.225  28.959  1.00  0.00     0.202 C 
BRANCH  26  27
ATOM     27  C   UNL A   1      33.147  35.395  29.796  1.00  0.00     0.261 C 
BRANCH  27  28
ATOM     28  O   UNL A   1      32.521  34.993  31.001  1.00  0.00    -0.460 OA
BRANCH  28  29
ATOM     29  C   UNL A   1      32.952  35.673  32.080  1.00  0.00     0.338 C 
ATOM     30  O   UNL A   1      32.405  36.591  32.676  1.00  0.00    -0.246 OA
BRANCH  29  31
ATOM     31  C   UNL A   1      34.125  34.973  32.580  1.00  0.00     0.060 A 
ATOM     32  C   UNL A   1      35.351  35.630  32.454  1.00  0.00     0.016 A 
ATOM     33  C   UNL A   1      34.016  33.707  33.157  1.00  0.00     0.016 A 
ATOM     34  C   UNL A   1      36.504  34.986  32.866  1.00  0.00     0.010 A 
ATOM     35  C   UNL A   1      35.177  33.060  33.569  1.00  0.00     0.010 A 
ATOM     36  C   UNL A   1      36.421  33.688  33.388  1.00  0.00    -0.014 A 
BRANCH  36  37
ATOM     37  C   UNL A   1      37.673  32.939  33.591  1.00  0.00     0.031 A 
ATOM     38  C   UNL A   1      38.447  33.181  34.852  1.00  0.00     0.074 A 
ATOM     39  C   UNL A   1      38.053  32.021  32.689  1.00  0.00     0.049 A 
ATOM     40  N   UNL A   1      39.527  32.584  35.281  1.00  0.00    -0.248 NA
ATOM     41  C   UNL A   1      37.939  34.233  35.751  1.00  0.00     0.031 C 
ATOM     42  C   UNL A   1      37.345  31.709  31.447  1.00  0.00     0.029 A 
ATOM     43  N   UNL A   1      39.129  31.174  32.687  1.00  0.00    -0.354 N 
ATOM     44  C   UNL A   1      39.827  33.188  36.495  1.00  0.00     0.074 A 
ATOM     45  C   UNL A   1      38.835  34.214  36.725  1.00  0.00     0.031 C 
ATOM     46  C   UNL A   1      38.009  30.737  30.800  1.00  0.00     0.029 A 
ATOM     47  C   UNL A   1      39.194  30.377  31.573  1.00  0.00     0.049 A 
ATOM     48  H   UNL A   1      39.792  31.143  33.415  1.00  0.00     0.167 HD
ATOM     49  C   UNL A   1      40.841  32.903  37.343  1.00  0.00     0.031 A 
ATOM     50  C   UNL A   1      40.119  29.466  31.222  1.00  0.00     0.031 A 
ATOM     51  C   UNL A   1      41.821  31.884  37.093  1.00  0.00     0.049 A 
ATOM     52  C   UNL A   1      41.258  29.197  32.169  1.00  0.00     0.074 A 
ATOM     53  C   UNL A   1      42.875  31.486  37.894  1.00  0.00     0.029 A 
ATOM     54  N   UNL A   1      41.870  31.109  35.944  1.00  0.00    -0.354 N 
ATOM     55  N   UNL A   1      41.496  29.727  33.346  1.00  0.00    -0.248 NA
ATOM     56  C   UNL A   1      42.246  28.195  31.748  1.00  0.00     0.031 C 
ATOM     57  C   UNL A   1      43.595  30.505  37.204  1.00  0.00     0.029 A 
ATOM     58  C   UNL A   1      42.956  30.256  35.998  1.00  0.00     0.049 A 
ATOM     59  H   UNL A   1      41.227  31.160  35.199  1.00  0.00     0.167 HD
ATOM     60  C   UNL A   1      42.647  29.108  33.815  1.00  0.00     0.074 A 
ATOM     61  C   UNL A   1      43.046  28.149  32.804  1.00  0.00     0.031 C 
ATOM     62  C   UNL A   1      43.319  29.313  34.974  1.00  0.00     0.031 A 
BRANCH  49  63
ATOM     63  C   UNL A   1      40.959  33.727  38.590  1.00  0.00    -0.014 A 
ATOM     64  C   UNL A   1      40.336  33.338  39.787  1.00  0.00     0.009 A 
ATOM     65  C   UNL A   1      41.736  34.896  38.576  1.00  0.00     0.009 A 
ATOM     66  C   UNL A   1      40.475  34.114  40.940  1.00  0.00     0.001 A 
ATOM     67  C   UNL A   1      41.892  35.657  39.735  1.00  0.00     0.001 A 
ATOM     68  C   UNL A   1      41.256  35.270  40.914  1.00  0.00     0.000 A 
ENDBRANCH  49  63
BRANCH  50  69
ATOM     69  C   UNL A   1      40.023  28.763  29.917  1.00  0.00    -0.014 A 
ATOM     70  C   UNL A   1      39.427  27.497  29.816  1.00  0.00     0.009 A 
ATOM     71  C   UNL A   1      40.553  29.355  28.759  1.00  0.00     0.009 A 
ATOM     72  C   UNL A   1      39.395  26.826  28.591  1.00  0.00     0.001 A 
ATOM     73  C   UNL A   1      40.494  28.695  27.530  1.00  0.00     0.001 A 
ATOM     74  C   UNL A   1      39.926  27.425  27.450  1.00  0.00     0.000 A 
ENDBRANCH  50  69
BRANCH  62  75
ATOM     75  C   UNL A   1      44.534  28.465  35.213  1.00  0.00    -0.014 A 
ATOM     76  C   UNL A   1      45.811  28.899  34.826  1.00  0.00     0.009 A 
ATOM     77  C   UNL A   1      44.401  27.238  35.882  1.00  0.00     0.009 A 
ATOM     78  C   UNL A   1      46.929  28.103  35.074  1.00  0.00     0.001 A 
ATOM     79  C   UNL A   1      45.524  26.458  36.156  1.00  0.00     0.001 A 
ATOM     80  C   UNL A   1      46.785  26.888  35.743  1.00  0.00     0.000 A 
ENDBRANCH  62  75
ENDBRANCH  36  37
ENDBRANCH  29  31
ENDBRANCH  28  29
ENDBRANCH  27  28
ENDBRANCH  26  27
ENDBRANCH  25  26
ENDBRANCH  24  25
ENDBRANCH   1  24
TORSDOF 20
ENDMDL
