MODEL 1
REMARK VINA RESULT:     -11.4      0.000      0.000
REMARK SMILES O=C(OCCOCCOC(=O)[C@@H]1[C@H](C(=O)Nc2ccc(Cn3cncn3)cc2)[C@@H]2C=C[C@H]1CC2)c1ccc(-c2c3nc(c(-c4ccccc4)c4ccc([nH]4)c(-c4ccccc4)c4nc(c(-c5ccccc5)c5ccc2[nH]5)C=C4)C=C3)cc1
REMARK SMILES IDX 7 1 6 2 5 3 4 4 3 5 2 6 1 7 35 8 36 9 82 10 37 11 81 12
REMARK SMILES IDX 38 13 39 14 40 15 75 16 41 17 80 18 74 19 76 20 42 21 79 22
REMARK SMILES IDX 73 23 72 24 43 26 65 27 50 28 64 29 51 30 54 31 63 32 77 33
REMARK SMILES IDX 52 34 53 35 62 37 78 38 55 39 44 40 45 41 49 42 46 43 48 44
REMARK SMILES IDX 47 45 66 46 67 47 71 48 68 49 70 50 69 51 56 52 57 53 61 54
REMARK SMILES IDX 58 55 60 56 59 57 8 58 9 59 10 60 11 61 12 62 13 63 32 64
REMARK SMILES IDX 29 65 31 66 33 67 30 68 34 69 14 70 15 71 16 72 17 74 18 75
REMARK SMILES IDX 28 76 19 77 27 78 20 79 21 80 22 81 23 82 26 83 24 84 25 85
REMARK H PARENT 76 25 54 36 16 73
REMARK Flexibility Score: inf
ROOT
ATOM      1  C   UNL A   1      36.217  23.723  24.812  1.00  0.00     0.202 C 
ENDROOT
BRANCH   1   2
ATOM      2  O   UNL A   1      36.315  22.292  24.692  1.00  0.00    -0.374 OA
BRANCH   2   3
ATOM      3  C   UNL A   1      37.088  21.642  25.698  1.00  0.00     0.202 C 
BRANCH   3   4
ATOM      4  C   UNL A   1      38.593  21.804  25.528  1.00  0.00     0.261 C 
BRANCH   4   5
ATOM      5  O   UNL A   1      39.241  22.238  26.742  1.00  0.00    -0.460 OA
BRANCH   5   6
ATOM      6  C   UNL A   1      40.537  22.633  26.717  1.00  0.00     0.338 C 
ATOM      7  O   UNL A   1      41.422  22.079  26.074  1.00  0.00    -0.246 OA
BRANCH   6   8
ATOM      8  C   UNL A   1      40.746  24.003  27.148  1.00  0.00     0.060 A 
ATOM      9  C   UNL A   1      41.766  24.361  28.016  1.00  0.00     0.016 A 
ATOM     10  C   UNL A   1      39.818  24.938  26.672  1.00  0.00     0.016 A 
ATOM     11  C   UNL A   1      41.724  25.603  28.590  1.00  0.00     0.010 A 
ATOM     12  C   UNL A   1      39.820  26.213  27.186  1.00  0.00     0.010 A 
ATOM     13  C   UNL A   1      40.727  26.505  28.199  1.00  0.00    -0.014 A 
BRANCH  13  14
ATOM     14  C   UNL A   1      40.759  27.787  28.861  1.00  0.00     0.031 A 
ATOM     15  C   UNL A   1      41.770  28.735  28.331  1.00  0.00     0.074 A 
ATOM     16  C   UNL A   1      39.933  28.114  29.864  1.00  0.00     0.049 A 
ATOM     17  N   UNL A   1      42.766  29.269  28.957  1.00  0.00    -0.248 NA
ATOM     18  C   UNL A   1      41.724  29.020  26.889  1.00  0.00     0.031 C 
ATOM     19  C   UNL A   1      38.718  27.435  30.315  1.00  0.00     0.029 A 
ATOM     20  N   UNL A   1      39.979  29.233  30.625  1.00  0.00    -0.354 N 
ATOM     21  C   UNL A   1      43.415  30.063  28.020  1.00  0.00     0.074 A 
ATOM     22  C   UNL A   1      42.793  29.801  26.746  1.00  0.00     0.031 C 
ATOM     23  C   UNL A   1      38.014  28.285  31.094  1.00  0.00     0.029 A 
ATOM     24  C   UNL A   1      38.807  29.487  31.303  1.00  0.00     0.049 A 
ATOM     25  H   UNL A   1      40.775  29.810  30.689  1.00  0.00     0.167 HD
ATOM     26  C   UNL A   1      44.331  31.006  28.363  1.00  0.00     0.031 A 
ATOM     27  C   UNL A   1      38.484  30.652  31.904  1.00  0.00     0.031 A 
ATOM     28  C   UNL A   1      44.871  30.807  29.676  1.00  0.00     0.049 A 
ATOM     29  C   UNL A   1      39.735  31.410  32.144  1.00  0.00     0.074 A 
ATOM     30  C   UNL A   1      45.646  29.828  30.265  1.00  0.00     0.029 A 
ATOM     31  N   UNL A   1      44.343  31.540  30.710  1.00  0.00    -0.354 N 
ATOM     32  N   UNL A   1      40.654  31.039  32.989  1.00  0.00    -0.248 NA
ATOM     33  C   UNL A   1      40.168  32.384  31.152  1.00  0.00     0.031 C 
ATOM     34  C   UNL A   1      45.177  29.737  31.608  1.00  0.00     0.029 A 
ATOM     35  C   UNL A   1      44.152  30.675  31.760  1.00  0.00     0.049 A 
ATOM     36  H   UNL A   1      44.140  32.503  30.701  1.00  0.00     0.167 HD
ATOM     37  C   UNL A   1      41.858  31.404  32.402  1.00  0.00     0.074 A 
ATOM     38  C   UNL A   1      41.490  32.338  31.343  1.00  0.00     0.031 C 
ATOM     39  C   UNL A   1      43.010  30.709  32.649  1.00  0.00     0.031 A 
BRANCH  26  40
ATOM     40  C   UNL A   1      44.504  32.276  27.583  1.00  0.00    -0.014 A 
ATOM     41  C   UNL A   1      43.772  33.419  27.939  1.00  0.00     0.009 A 
ATOM     42  C   UNL A   1      45.194  32.313  26.354  1.00  0.00     0.009 A 
ATOM     43  C   UNL A   1      43.723  34.536  27.094  1.00  0.00     0.001 A 
ATOM     44  C   UNL A   1      45.181  33.439  25.531  1.00  0.00     0.001 A 
ATOM     45  C   UNL A   1      44.429  34.546  25.893  1.00  0.00     0.000 A 
ENDBRANCH  26  40
BRANCH  27  46
ATOM     46  C   UNL A   1      37.137  31.243  31.981  1.00  0.00    -0.014 A 
ATOM     47  C   UNL A   1      36.664  31.804  33.172  1.00  0.00     0.009 A 
ATOM     48  C   UNL A   1      36.388  31.454  30.806  1.00  0.00     0.009 A 
ATOM     49  C   UNL A   1      35.487  32.561  33.182  1.00  0.00     0.001 A 
ATOM     50  C   UNL A   1      35.210  32.201  30.817  1.00  0.00     0.001 A 
ATOM     51  C   UNL A   1      34.765  32.765  32.006  1.00  0.00     0.000 A 
ENDBRANCH  27  46
BRANCH  39  52
ATOM     52  C   UNL A   1      42.973  29.664  33.741  1.00  0.00    -0.014 A 
ATOM     53  C   UNL A   1      42.450  28.376  33.527  1.00  0.00     0.009 A 
ATOM     54  C   UNL A   1      43.610  29.924  34.964  1.00  0.00     0.009 A 
ATOM     55  C   UNL A   1      42.521  27.393  34.518  1.00  0.00     0.001 A 
ATOM     56  C   UNL A   1      43.701  28.934  35.947  1.00  0.00     0.001 A 
ATOM     57  C   UNL A   1      43.149  27.673  35.728  1.00  0.00     0.000 A 
ENDBRANCH  39  52
ENDBRANCH  13  14
ENDBRANCH   6   8
ENDBRANCH   5   6
ENDBRANCH   4   5
ENDBRANCH   3   4
ENDBRANCH   2   3
ENDBRANCH   1   2
BRANCH   1  58
ATOM     58  C   UNL A   1      34.821  24.335  24.687  1.00  0.00     0.261 C 
BRANCH  58  59
ATOM     59  O   UNL A   1      34.463  24.521  23.296  1.00  0.00    -0.463 OA
BRANCH  59  60
ATOM     60  C   UNL A   1      33.520  25.446  23.024  1.00  0.00     0.310 C 
ATOM     61  O   UNL A   1      32.984  25.579  21.928  1.00  0.00    -0.252 OA
BRANCH  60  62
ATOM     62  C   UNL A   1      33.101  26.292  24.205  1.00  0.00     0.119 C 
ATOM     63  C   UNL A   1      31.729  26.129  24.891  1.00  0.00     0.100 C 
ATOM     64  C   UNL A   1      33.506  27.808  24.151  1.00  0.00     0.026 C 
ATOM     65  C   UNL A   1      31.398  27.445  25.655  1.00  0.00     0.025 C 
ATOM     66  C   UNL A   1      32.345  28.748  23.887  1.00  0.00    -0.027 C 
ATOM     67  C   UNL A   1      33.867  28.193  25.607  1.00  0.00     0.009 C 
ATOM     68  C   UNL A   1      31.270  28.577  24.677  1.00  0.00    -0.027 C 
ATOM     69  C   UNL A   1      32.648  27.841  26.523  1.00  0.00     0.009 C 
BRANCH  63  70
ATOM     70  C   UNL A   1      30.583  25.325  24.235  1.00  0.00     0.228 C 
ATOM     71  O   UNL A   1      29.551  25.956  23.946  1.00  0.00    -0.274 OA
ATOM     72  N   UNL A   1      30.580  24.025  23.832  1.00  0.00    -0.326 N 
ATOM     73  H   UNL A   1      29.876  23.843  23.169  1.00  0.00     0.169 HD
BRANCH  72  74
ATOM     74  C   UNL A   1      31.334  22.885  24.132  1.00  0.00     0.041 A 
ATOM     75  C   UNL A   1      31.773  22.063  23.088  1.00  0.00     0.026 A 
ATOM     76  C   UNL A   1      31.619  22.488  25.418  1.00  0.00     0.026 A 
ATOM     77  C   UNL A   1      32.616  20.962  23.338  1.00  0.00     0.008 A 
ATOM     78  C   UNL A   1      32.511  21.439  25.671  1.00  0.00     0.008 A 
ATOM     79  C   UNL A   1      33.029  20.664  24.639  1.00  0.00    -0.026 A 
BRANCH  79  80
ATOM     80  C   UNL A   1      33.991  19.555  24.976  1.00  0.00     0.181 C 
BRANCH  80  81
ATOM     81  N   UNL A   1      33.482  18.228  24.672  1.00  0.00    -0.249 N 
ATOM     82  C   UNL A   1      34.037  17.304  23.840  1.00  0.00     0.220 A 
ATOM     83  N   UNL A   1      32.500  17.669  25.415  1.00  0.00    -0.160 NA
ATOM     84  N   UNL A   1      33.422  16.151  23.982  1.00  0.00    -0.224 NA
ATOM     85  C   UNL A   1      32.499  16.416  24.952  1.00  0.00     0.246 A 
ENDBRANCH  80  81
ENDBRANCH  79  80
ENDBRANCH  72  74
ENDBRANCH  63  70
ENDBRANCH  60  62
ENDBRANCH  59  60
ENDBRANCH  58  59
ENDBRANCH   1  58
TORSDOF 18
ENDMDL
MODEL 2
REMARK VINA RESULT:     -11.3      3.013      7.344
REMARK SMILES O=C(OCCOCCOC(=O)[C@@H]1[C@H](C(=O)Nc2ccc(Cn3cncn3)cc2)[C@@H]2C=C[C@H]1CC2)c1ccc(-c2c3nc(c(-c4ccccc4)c4ccc([nH]4)c(-c4ccccc4)c4nc(c(-c5ccccc5)c5ccc2[nH]5)C=C4)C=C3)cc1
REMARK SMILES IDX 7 1 6 2 5 3 4 4 3 5 2 6 1 7 35 8 36 9 82 10 37 11 81 12
REMARK SMILES IDX 38 13 39 14 40 15 75 16 41 17 80 18 74 19 76 20 42 21 79 22
REMARK SMILES IDX 73 23 72 24 43 26 65 27 50 28 64 29 51 30 54 31 63 32 77 33
REMARK SMILES IDX 52 34 53 35 62 37 78 38 55 39 44 40 45 41 49 42 46 43 48 44
REMARK SMILES IDX 47 45 66 46 67 47 71 48 68 49 70 50 69 51 56 52 57 53 61 54
REMARK SMILES IDX 58 55 60 56 59 57 8 58 9 59 10 60 11 61 12 62 13 63 32 64
REMARK SMILES IDX 29 65 31 66 33 67 30 68 34 69 14 70 15 71 16 72 17 74 18 75
REMARK SMILES IDX 28 76 19 77 27 78 20 79 21 80 22 81 23 82 26 83 24 84 25 85
REMARK H PARENT 76 25 54 36 16 73
REMARK Flexibility Score: inf
ROOT
ATOM      1  C   UNL A   1      33.113  30.001  27.203  1.00  0.00     0.202 C 
ENDROOT
BRANCH   1   2
ATOM      2  O   UNL A   1      33.104  31.397  27.551  1.00  0.00    -0.374 OA
BRANCH   2   3
ATOM      3  C   UNL A   1      34.379  31.967  27.837  1.00  0.00     0.202 C 
BRANCH   3   4
ATOM      4  C   UNL A   1      34.414  32.807  29.108  1.00  0.00     0.261 C 
BRANCH   4   5
ATOM      5  O   UNL A   1      35.643  32.639  29.846  1.00  0.00    -0.460 OA
BRANCH   5   6
ATOM      6  C   UNL A   1      36.834  32.682  29.201  1.00  0.00     0.338 C 
ATOM      7  O   UNL A   1      37.282  33.671  28.630  1.00  0.00    -0.246 OA
BRANCH   6   8
ATOM      8  C   UNL A   1      37.754  31.627  29.586  1.00  0.00     0.060 A 
ATOM      9  C   UNL A   1      39.073  31.881  29.929  1.00  0.00     0.016 A 
ATOM     10  C   UNL A   1      37.239  30.325  29.540  1.00  0.00     0.016 A 
ATOM     11  C   UNL A   1      39.939  30.824  30.003  1.00  0.00     0.010 A 
ATOM     12  C   UNL A   1      38.091  29.257  29.693  1.00  0.00     0.010 A 
ATOM     13  C   UNL A   1      39.447  29.523  29.844  1.00  0.00    -0.014 A 
BRANCH  13  14
ATOM     14  C   UNL A   1      40.434  28.473  29.934  1.00  0.00     0.031 A 
ATOM     15  C   UNL A   1      41.013  28.278  31.286  1.00  0.00     0.074 A 
ATOM     16  C   UNL A   1      40.794  27.717  28.888  1.00  0.00     0.049 A 
ATOM     17  N   UNL A   1      42.248  28.392  31.648  1.00  0.00    -0.248 NA
ATOM     18  C   UNL A   1      40.067  28.044  32.388  1.00  0.00     0.031 C 
ATOM     19  C   UNL A   1      40.144  27.577  27.585  1.00  0.00     0.029 A 
ATOM     20  N   UNL A   1      41.798  26.808  28.848  1.00  0.00    -0.354 N 
ATOM     21  C   UNL A   1      42.265  28.124  33.011  1.00  0.00     0.074 A 
ATOM     22  C   UNL A   1      40.891  28.011  33.433  1.00  0.00     0.031 C 
ATOM     23  C   UNL A   1      40.618  26.463  26.985  1.00  0.00     0.029 A 
ATOM     24  C   UNL A   1      41.695  25.920  27.799  1.00  0.00     0.049 A 
ATOM     25  H   UNL A   1      42.531  26.784  29.505  1.00  0.00     0.167 HD
ATOM     26  C   UNL A   1      43.409  27.862  33.695  1.00  0.00     0.031 A 
ATOM     27  C   UNL A   1      42.386  24.767  27.676  1.00  0.00     0.031 A 
ATOM     28  C   UNL A   1      44.585  28.308  33.006  1.00  0.00     0.049 A 
ATOM     29  C   UNL A   1      43.581  24.849  28.550  1.00  0.00     0.074 A 
ATOM     30  C   UNL A   1      45.080  29.543  32.636  1.00  0.00     0.029 A 
ATOM     31  N   UNL A   1      45.298  27.386  32.280  1.00  0.00    -0.354 N 
ATOM     32  N   UNL A   1      44.577  25.661  28.337  1.00  0.00    -0.248 NA
ATOM     33  C   UNL A   1      43.503  24.312  29.901  1.00  0.00     0.031 C 
ATOM     34  C   UNL A   1      45.730  29.327  31.385  1.00  0.00     0.029 A 
ATOM     35  C   UNL A   1      45.602  27.970  31.075  1.00  0.00     0.049 A 
ATOM     36  H   UNL A   1      45.546  26.478  32.570  1.00  0.00     0.167 HD
ATOM     37  C   UNL A   1      45.003  26.054  29.598  1.00  0.00     0.074 A 
ATOM     38  C   UNL A   1      44.392  25.097  30.515  1.00  0.00     0.031 C 
ATOM     39  C   UNL A   1      45.582  27.276  29.804  1.00  0.00     0.031 A 
BRANCH  26  40
ATOM     40  C   UNL A   1      43.445  26.931  34.870  1.00  0.00    -0.014 A 
ATOM     41  C   UNL A   1      44.025  27.351  36.076  1.00  0.00     0.009 A 
ATOM     42  C   UNL A   1      43.135  25.560  34.750  1.00  0.00     0.009 A 
ATOM     43  C   UNL A   1      44.295  26.437  37.104  1.00  0.00     0.001 A 
ATOM     44  C   UNL A   1      43.365  24.656  35.787  1.00  0.00     0.001 A 
ATOM     45  C   UNL A   1      43.963  25.091  36.959  1.00  0.00     0.000 A 
ENDBRANCH  26  40
BRANCH  27  46
ATOM     46  C   UNL A   1      41.883  23.514  27.087  1.00  0.00    -0.014 A 
ATOM     47  C   UNL A   1      42.699  22.723  26.272  1.00  0.00     0.009 A 
ATOM     48  C   UNL A   1      40.650  22.978  27.510  1.00  0.00     0.009 A 
ATOM     49  C   UNL A   1      42.300  21.433  25.904  1.00  0.00     0.001 A 
ATOM     50  C   UNL A   1      40.247  21.696  27.137  1.00  0.00     0.001 A 
ATOM     51  C   UNL A   1      41.079  20.918  26.341  1.00  0.00     0.000 A 
ENDBRANCH  27  46
BRANCH  39  52
ATOM     52  C   UNL A   1      45.936  28.095  28.583  1.00  0.00    -0.014 A 
ATOM     53  C   UNL A   1      45.005  28.941  27.954  1.00  0.00     0.009 A 
ATOM     54  C   UNL A   1      47.268  28.134  28.144  1.00  0.00     0.009 A 
ATOM     55  C   UNL A   1      45.382  29.766  26.891  1.00  0.00     0.001 A 
ATOM     56  C   UNL A   1      47.650  28.977  27.095  1.00  0.00     0.001 A 
ATOM     57  C   UNL A   1      46.707  29.786  26.464  1.00  0.00     0.000 A 
ENDBRANCH  39  52
ENDBRANCH  13  14
ENDBRANCH   6   8
ENDBRANCH   5   6
ENDBRANCH   4   5
ENDBRANCH   3   4
ENDBRANCH   2   3
ENDBRANCH   1   2
BRANCH   1  58
ATOM     58  C   UNL A   1      31.766  29.275  27.218  1.00  0.00     0.261 C 
BRANCH  58  59
ATOM     59  O   UNL A   1      31.952  27.849  27.386  1.00  0.00    -0.463 OA
BRANCH  59  60
ATOM     60  C   UNL A   1      31.440  27.046  26.432  1.00  0.00     0.310 C 
ATOM     61  O   UNL A   1      30.535  26.240  26.625  1.00  0.00    -0.252 OA
BRANCH  60  62
ATOM     62  C   UNL A   1      32.019  27.253  25.050  1.00  0.00     0.119 C 
ATOM     63  C   UNL A   1      31.296  26.776  23.774  1.00  0.00     0.100 C 
ATOM     64  C   UNL A   1      33.569  27.044  24.908  1.00  0.00     0.026 C 
ATOM     65  C   UNL A   1      32.346  26.635  22.633  1.00  0.00     0.025 C 
ATOM     66  C   UNL A   1      33.956  25.772  24.178  1.00  0.00    -0.027 C 
ATOM     67  C   UNL A   1      34.041  28.116  23.897  1.00  0.00     0.009 C 
ATOM     68  C   UNL A   1      33.344  25.574  22.996  1.00  0.00    -0.027 C 
ATOM     69  C   UNL A   1      33.204  27.953  22.584  1.00  0.00     0.009 C 
BRANCH  63  70
ATOM     70  C   UNL A   1      30.105  25.792  23.833  1.00  0.00     0.228 C 
ATOM     71  O   UNL A   1      28.969  26.281  23.692  1.00  0.00    -0.274 OA
ATOM     72  N   UNL A   1      30.128  24.435  23.918  1.00  0.00    -0.326 N 
ATOM     73  H   UNL A   1      29.284  24.029  23.618  1.00  0.00     0.169 HD
BRANCH  72  74
ATOM     74  C   UNL A   1      31.061  23.476  24.330  1.00  0.00     0.041 A 
ATOM     75  C   UNL A   1      31.725  22.711  23.365  1.00  0.00     0.026 A 
ATOM     76  C   UNL A   1      31.319  23.196  25.652  1.00  0.00     0.026 A 
ATOM     77  C   UNL A   1      32.741  21.807  23.730  1.00  0.00     0.008 A 
ATOM     78  C   UNL A   1      32.372  22.352  26.021  1.00  0.00     0.008 A 
ATOM     79  C   UNL A   1      33.104  21.649  25.070  1.00  0.00    -0.026 A 
BRANCH  79  80
ATOM     80  C   UNL A   1      34.232  20.762  25.530  1.00  0.00     0.181 C 
BRANCH  80  81
ATOM     81  N   UNL A   1      35.544  21.371  25.397  1.00  0.00    -0.249 N 
ATOM     82  C   UNL A   1      36.683  20.781  24.935  1.00  0.00     0.220 A 
ATOM     83  N   UNL A   1      35.707  22.710  25.486  1.00  0.00    -0.160 NA
ATOM     84  N   UNL A   1      37.613  21.692  24.751  1.00  0.00    -0.224 NA
ATOM     85  C   UNL A   1      36.975  22.850  25.094  1.00  0.00     0.246 A 
ENDBRANCH  80  81
ENDBRANCH  79  80
ENDBRANCH  72  74
ENDBRANCH  63  70
ENDBRANCH  60  62
ENDBRANCH  59  60
ENDBRANCH  58  59
ENDBRANCH   1  58
TORSDOF 18
ENDMDL
MODEL 3
REMARK VINA RESULT:     -11.1      2.987      7.441
REMARK SMILES O=C(OCCOCCOC(=O)[C@@H]1[C@H](C(=O)Nc2ccc(Cn3cncn3)cc2)[C@@H]2C=C[C@H]1CC2)c1ccc(-c2c3nc(c(-c4ccccc4)c4ccc([nH]4)c(-c4ccccc4)c4nc(c(-c5ccccc5)c5ccc2[nH]5)C=C4)C=C3)cc1
REMARK SMILES IDX 7 1 6 2 5 3 4 4 3 5 2 6 1 7 35 8 36 9 82 10 37 11 81 12
REMARK SMILES IDX 38 13 39 14 40 15 75 16 41 17 80 18 74 19 76 20 42 21 79 22
REMARK SMILES IDX 73 23 72 24 43 26 65 27 50 28 64 29 51 30 54 31 63 32 77 33
REMARK SMILES IDX 52 34 53 35 62 37 78 38 55 39 44 40 45 41 49 42 46 43 48 44
REMARK SMILES IDX 47 45 66 46 67 47 71 48 68 49 70 50 69 51 56 52 57 53 61 54
REMARK SMILES IDX 58 55 60 56 59 57 8 58 9 59 10 60 11 61 12 62 13 63 32 64
REMARK SMILES IDX 29 65 31 66 33 67 30 68 34 69 14 70 15 71 16 72 17 74 18 75
REMARK SMILES IDX 28 76 19 77 27 78 20 79 21 80 22 81 23 82 26 83 24 84 25 85
REMARK H PARENT 76 25 54 36 16 73
REMARK Flexibility Score: inf
ROOT
ATOM      1  C   UNL A   1      33.210  30.306  27.181  1.00  0.00     0.202 C 
ENDROOT
BRANCH   1   2
ATOM      2  O   UNL A   1      34.035  31.477  27.312  1.00  0.00    -0.374 OA
BRANCH   2   3
ATOM      3  C   UNL A   1      33.335  32.699  27.537  1.00  0.00     0.202 C 
BRANCH   3   4
ATOM      4  C   UNL A   1      33.967  33.591  28.598  1.00  0.00     0.261 C 
BRANCH   4   5
ATOM      5  O   UNL A   1      35.335  33.229  28.881  1.00  0.00    -0.460 OA
BRANCH   5   6
ATOM      6  C   UNL A   1      35.626  32.461  29.959  1.00  0.00     0.338 C 
ATOM      7  O   UNL A   1      34.847  32.223  30.876  1.00  0.00    -0.246 OA
BRANCH   6   8
ATOM      8  C   UNL A   1      36.762  31.579  29.766  1.00  0.00     0.060 A 
ATOM      9  C   UNL A   1      36.617  30.212  29.579  1.00  0.00     0.016 A 
ATOM     10  C   UNL A   1      38.022  32.187  29.833  1.00  0.00     0.016 A 
ATOM     11  C   UNL A   1      37.729  29.421  29.688  1.00  0.00     0.010 A 
ATOM     12  C   UNL A   1      39.150  31.401  29.862  1.00  0.00     0.010 A 
ATOM     13  C   UNL A   1      38.981  30.021  29.869  1.00  0.00    -0.014 A 
BRANCH  13  14
ATOM     14  C   UNL A   1      40.095  29.108  29.977  1.00  0.00     0.031 A 
ATOM     15  C   UNL A   1      40.455  28.729  31.365  1.00  0.00     0.074 A 
ATOM     16  C   UNL A   1      40.748  28.622  28.913  1.00  0.00     0.049 A 
ATOM     17  N   UNL A   1      41.573  28.926  31.980  1.00  0.00    -0.248 NA
ATOM     18  C   UNL A   1      39.383  28.165  32.200  1.00  0.00     0.031 C 
ATOM     19  C   UNL A   1      40.365  28.657  27.502  1.00  0.00     0.029 A 
ATOM     20  N   UNL A   1      41.877  27.874  28.923  1.00  0.00    -0.354 N 
ATOM     21  C   UNL A   1      41.397  28.403  33.255  1.00  0.00     0.074 A 
ATOM     22  C   UNL A   1      40.007  28.035  33.369  1.00  0.00     0.031 C 
ATOM     23  C   UNL A   1      41.110  27.751  26.831  1.00  0.00     0.029 A 
ATOM     24  C   UNL A   1      42.103  27.202  27.741  1.00  0.00     0.049 A 
ATOM     25  H   UNL A   1      42.480  27.816  29.699  1.00  0.00     0.167 HD
ATOM     26  C   UNL A   1      42.433  28.160  34.100  1.00  0.00     0.031 A 
ATOM     27  C   UNL A   1      42.982  26.192  27.567  1.00  0.00     0.031 A 
ATOM     28  C   UNL A   1      43.623  28.879  33.745  1.00  0.00     0.049 A 
ATOM     29  C   UNL A   1      43.979  26.254  28.664  1.00  0.00     0.074 A 
ATOM     30  C   UNL A   1      43.967  30.215  33.693  1.00  0.00     0.029 A 
ATOM     31  N   UNL A   1      44.590  28.214  33.033  1.00  0.00    -0.354 N 
ATOM     32  N   UNL A   1      44.852  27.212  28.793  1.00  0.00    -0.248 NA
ATOM     33  C   UNL A   1      43.756  25.459  29.862  1.00  0.00     0.031 C 
ATOM     34  C   UNL A   1      44.850  30.330  32.579  1.00  0.00     0.029 A 
ATOM     35  C   UNL A   1      44.999  29.055  32.027  1.00  0.00     0.049 A 
ATOM     36  H   UNL A   1      44.927  27.306  33.210  1.00  0.00     0.167 HD
ATOM     37  C   UNL A   1      44.983  27.404  30.161  1.00  0.00     0.074 A 
ATOM     38  C   UNL A   1      44.387  26.216  30.764  1.00  0.00     0.031 C 
ATOM     39  C   UNL A   1      45.312  28.625  30.681  1.00  0.00     0.031 A 
BRANCH  26  40
ATOM     40  C   UNL A   1      42.415  27.030  35.086  1.00  0.00    -0.014 A 
ATOM     41  C   UNL A   1      42.657  25.719  34.649  1.00  0.00     0.009 A 
ATOM     42  C   UNL A   1      41.930  27.189  36.400  1.00  0.00     0.009 A 
ATOM     43  C   UNL A   1      42.408  24.622  35.485  1.00  0.00     0.001 A 
ATOM     44  C   UNL A   1      41.720  26.101  37.249  1.00  0.00     0.001 A 
ATOM     45  C   UNL A   1      41.942  24.814  36.784  1.00  0.00     0.000 A 
ENDBRANCH  26  40
BRANCH  27  46
ATOM     46  C   UNL A   1      42.798  25.025  26.689  1.00  0.00    -0.014 A 
ATOM     47  C   UNL A   1      43.619  24.827  25.573  1.00  0.00     0.009 A 
ATOM     48  C   UNL A   1      41.944  23.974  27.077  1.00  0.00     0.009 A 
ATOM     49  C   UNL A   1      43.593  23.612  24.878  1.00  0.00     0.001 A 
ATOM     50  C   UNL A   1      41.911  22.766  26.380  1.00  0.00     0.001 A 
ATOM     51  C   UNL A   1      42.746  22.581  25.285  1.00  0.00     0.000 A 
ENDBRANCH  27  46
BRANCH  39  52
ATOM     52  C   UNL A   1      45.735  29.705  29.710  1.00  0.00    -0.014 A 
ATOM     53  C   UNL A   1      44.801  30.508  29.030  1.00  0.00     0.009 A 
ATOM     54  C   UNL A   1      47.095  30.024  29.585  1.00  0.00     0.009 A 
ATOM     55  C   UNL A   1      45.215  31.567  28.217  1.00  0.00     0.001 A 
ATOM     56  C   UNL A   1      47.508  31.098  28.790  1.00  0.00     0.001 A 
ATOM     57  C   UNL A   1      46.570  31.863  28.100  1.00  0.00     0.000 A 
ENDBRANCH  39  52
ENDBRANCH  13  14
ENDBRANCH   6   8
ENDBRANCH   5   6
ENDBRANCH   4   5
ENDBRANCH   3   4
ENDBRANCH   2   3
ENDBRANCH   1   2
BRANCH   1  58
ATOM     58  C   UNL A   1      33.890  28.952  27.398  1.00  0.00     0.261 C 
BRANCH  58  59
ATOM     59  O   UNL A   1      33.250  27.922  26.607  1.00  0.00    -0.463 OA
BRANCH  59  60
ATOM     60  C   UNL A   1      31.929  27.733  26.799  1.00  0.00     0.310 C 
ATOM     61  O   UNL A   1      31.395  27.686  27.903  1.00  0.00    -0.252 OA
BRANCH  60  62
ATOM     62  C   UNL A   1      31.108  27.646  25.532  1.00  0.00     0.119 C 
ATOM     63  C   UNL A   1      30.188  26.446  25.226  1.00  0.00     0.100 C 
ATOM     64  C   UNL A   1      31.806  28.146  24.217  1.00  0.00     0.026 C 
ATOM     65  C   UNL A   1      29.939  26.391  23.690  1.00  0.00     0.025 C 
ATOM     66  C   UNL A   1      32.206  27.031  23.268  1.00  0.00    -0.027 C 
ATOM     67  C   UNL A   1      30.693  28.842  23.397  1.00  0.00     0.009 C 
ATOM     68  C   UNL A   1      31.238  26.143  22.979  1.00  0.00    -0.027 C 
ATOM     69  C   UNL A   1      29.518  27.827  23.205  1.00  0.00     0.009 C 
BRANCH  63  70
ATOM     70  C   UNL A   1      30.279  25.127  26.027  1.00  0.00     0.228 C 
ATOM     71  O   UNL A   1      29.392  24.926  26.876  1.00  0.00    -0.274 OA
ATOM     72  N   UNL A   1      31.147  24.092  25.863  1.00  0.00    -0.326 N 
ATOM     73  H   UNL A   1      30.808  23.257  26.257  1.00  0.00     0.169 HD
BRANCH  72  74
ATOM     74  C   UNL A   1      32.404  23.927  25.270  1.00  0.00     0.041 A 
ATOM     75  C   UNL A   1      33.494  24.648  25.770  1.00  0.00     0.026 A 
ATOM     76  C   UNL A   1      32.618  23.133  24.167  1.00  0.00     0.026 A 
ATOM     77  C   UNL A   1      34.793  24.439  25.267  1.00  0.00     0.008 A 
ATOM     78  C   UNL A   1      33.912  22.867  23.707  1.00  0.00     0.008 A 
ATOM     79  C   UNL A   1      35.020  23.507  24.250  1.00  0.00    -0.026 A 
BRANCH  79  80
ATOM     80  C   UNL A   1      36.389  23.170  23.717  1.00  0.00     0.181 C 
BRANCH  80  81
ATOM     81  N   UNL A   1      37.174  22.337  24.611  1.00  0.00    -0.249 N 
ATOM     82  C   UNL A   1      37.352  20.989  24.536  1.00  0.00     0.220 A 
ATOM     83  N   UNL A   1      38.043  22.882  25.493  1.00  0.00    -0.160 NA
ATOM     84  N   UNL A   1      38.293  20.616  25.375  1.00  0.00    -0.224 NA
ATOM     85  C   UNL A   1      38.688  21.799  25.932  1.00  0.00     0.246 A 
ENDBRANCH  80  81
ENDBRANCH  79  80
ENDBRANCH  72  74
ENDBRANCH  63  70
ENDBRANCH  60  62
ENDBRANCH  59  60
ENDBRANCH  58  59
ENDBRANCH   1  58
TORSDOF 18
ENDMDL
