MODEL 1
REMARK VINA RESULT:     -11.6      0.000      0.000
REMARK SMILES O=C(OCCOCCOC(=O)[C@H]1Cc2c([nH]c3ccccc23)[C@@H](c2ccc(OC(F)(F)F)cc2)[NH2+]1)c1ccc(-c2c3nc(c(-c4ccccc4)c4ccc([nH]4)c(-c4ccccc4)c4nc(c(-c5ccccc5)c5ccc2[nH]5)C=C4)C=C3)cc1
REMARK SMILES IDX 7 1 6 2 5 3 4 4 3 5 2 6 1 7 36 8 37 9 83 10 38 11 82 12
REMARK SMILES IDX 39 13 40 14 41 15 76 16 42 17 81 18 75 19 77 20 43 21 80 22
REMARK SMILES IDX 74 23 73 24 44 26 66 27 51 28 65 29 52 30 55 31 64 32 78 33
REMARK SMILES IDX 53 34 54 35 63 37 79 38 56 39 45 40 46 41 50 42 47 43 49 44
REMARK SMILES IDX 48 45 67 46 68 47 72 48 69 49 71 50 70 51 57 52 58 53 62 54
REMARK SMILES IDX 59 55 61 56 60 57 8 58 9 59 10 60 11 61 12 62 13 63 35 64
REMARK SMILES IDX 14 65 23 66 15 69 22 70 16 71 17 72 21 73 18 75 20 76 19 77
REMARK SMILES IDX 24 78 25 79 34 80 26 81 33 82 27 83 28 84 29 85 30 86 31 87
REMARK SMILES IDX 32 88
REMARK H PARENT 77 25 55 36 35 67 35 68 16 74
REMARK Flexibility Score: inf
ROOT
ATOM      1  C   UNL A   1      33.329  22.123  24.509  1.00  0.00     0.202 C 
ENDROOT
BRANCH   1   2
ATOM      2  O   UNL A   1      34.553  21.381  24.489  1.00  0.00    -0.374 OA
BRANCH   2   3
ATOM      3  C   UNL A   1      35.742  22.168  24.347  1.00  0.00     0.202 C 
BRANCH   3   4
ATOM      4  C   UNL A   1      37.050  21.376  24.399  1.00  0.00     0.261 C 
BRANCH   4   5
ATOM      5  O   UNL A   1      37.556  21.359  25.748  1.00  0.00    -0.460 OA
BRANCH   5   6
ATOM      6  C   UNL A   1      38.848  21.421  26.145  1.00  0.00     0.338 C 
ATOM      7  O   UNL A   1      39.525  20.395  26.172  1.00  0.00    -0.246 OA
BRANCH   6   8
ATOM      8  C   UNL A   1      39.511  22.709  26.482  1.00  0.00     0.060 A 
ATOM      9  C   UNL A   1      39.046  23.956  26.067  1.00  0.00     0.016 A 
ATOM     10  C   UNL A   1      40.628  22.661  27.327  1.00  0.00     0.016 A 
ATOM     11  C   UNL A   1      39.709  25.119  26.387  1.00  0.00     0.010 A 
ATOM     12  C   UNL A   1      41.274  23.839  27.710  1.00  0.00     0.010 A 
ATOM     13  C   UNL A   1      40.815  25.066  27.223  1.00  0.00    -0.014 A 
BRANCH  13  14
ATOM     14  C   UNL A   1      41.486  26.338  27.500  1.00  0.00     0.031 A 
ATOM     15  C   UNL A   1      40.859  27.270  28.481  1.00  0.00     0.074 A 
ATOM     16  C   UNL A   1      42.717  26.539  26.997  1.00  0.00     0.049 A 
ATOM     17  N   UNL A   1      41.243  28.463  28.840  1.00  0.00    -0.248 NA
ATOM     18  C   UNL A   1      39.645  26.790  29.164  1.00  0.00     0.031 C 
ATOM     19  C   UNL A   1      43.455  25.581  26.165  1.00  0.00     0.029 A 
ATOM     20  N   UNL A   1      43.581  27.586  27.146  1.00  0.00    -0.354 N 
ATOM     21  C   UNL A   1      40.292  28.898  29.751  1.00  0.00     0.074 A 
ATOM     22  C   UNL A   1      39.325  27.836  29.913  1.00  0.00     0.031 C 
ATOM     23  C   UNL A   1      44.673  26.077  25.902  1.00  0.00     0.029 A 
ATOM     24  C   UNL A   1      44.761  27.417  26.465  1.00  0.00     0.049 A 
ATOM     25  H   UNL A   1      43.378  28.382  27.687  1.00  0.00     0.167 HD
ATOM     26  C   UNL A   1      40.231  30.098  30.367  1.00  0.00     0.031 A 
ATOM     27  C   UNL A   1      45.770  28.284  26.277  1.00  0.00     0.031 A 
ATOM     28  C   UNL A   1      41.214  31.126  30.167  1.00  0.00     0.049 A 
ATOM     29  C   UNL A   1      45.624  29.650  26.884  1.00  0.00     0.074 A 
ATOM     30  C   UNL A   1      41.242  32.411  30.667  1.00  0.00     0.029 A 
ATOM     31  N   UNL A   1      42.356  30.966  29.391  1.00  0.00    -0.354 N 
ATOM     32  N   UNL A   1      44.677  30.100  27.675  1.00  0.00    -0.248 NA
ATOM     33  C   UNL A   1      46.656  30.636  26.550  1.00  0.00     0.031 C 
ATOM     34  C   UNL A   1      42.378  33.047  30.152  1.00  0.00     0.029 A 
ATOM     35  C   UNL A   1      43.083  32.140  29.373  1.00  0.00     0.049 A 
ATOM     36  H   UNL A   1      42.610  30.137  28.924  1.00  0.00     0.167 HD
ATOM     37  C   UNL A   1      44.996  31.424  27.932  1.00  0.00     0.074 A 
ATOM     38  C   UNL A   1      46.242  31.692  27.238  1.00  0.00     0.031 C 
ATOM     39  C   UNL A   1      44.319  32.346  28.661  1.00  0.00     0.031 A 
BRANCH  26  40
ATOM     40  C   UNL A   1      39.014  30.376  31.197  1.00  0.00    -0.014 A 
ATOM     41  C   UNL A   1      37.853  30.945  30.648  1.00  0.00     0.009 A 
ATOM     42  C   UNL A   1      39.051  30.101  32.573  1.00  0.00     0.009 A 
ATOM     43  C   UNL A   1      36.768  31.262  31.472  1.00  0.00     0.001 A 
ATOM     44  C   UNL A   1      37.958  30.398  33.388  1.00  0.00     0.001 A 
ATOM     45  C   UNL A   1      36.821  30.988  32.839  1.00  0.00     0.000 A 
ENDBRANCH  26  40
BRANCH  27  46
ATOM     46  C   UNL A   1      46.919  27.927  25.402  1.00  0.00    -0.014 A 
ATOM     47  C   UNL A   1      48.120  27.444  25.940  1.00  0.00     0.009 A 
ATOM     48  C   UNL A   1      46.816  28.071  24.007  1.00  0.00     0.009 A 
ATOM     49  C   UNL A   1      49.196  27.132  25.102  1.00  0.00     0.001 A 
ATOM     50  C   UNL A   1      47.879  27.729  23.171  1.00  0.00     0.001 A 
ATOM     51  C   UNL A   1      49.073  27.269  23.720  1.00  0.00     0.000 A 
ENDBRANCH  27  46
BRANCH  39  52
ATOM     52  C   UNL A   1      44.931  33.710  28.744  1.00  0.00    -0.014 A 
ATOM     53  C   UNL A   1      45.870  34.016  29.741  1.00  0.00     0.009 A 
ATOM     54  C   UNL A   1      44.606  34.674  27.779  1.00  0.00     0.009 A 
ATOM     55  C   UNL A   1      46.459  35.279  29.780  1.00  0.00     0.001 A 
ATOM     56  C   UNL A   1      45.217  35.926  27.806  1.00  0.00     0.001 A 
ATOM     57  C   UNL A   1      46.138  36.229  28.810  1.00  0.00     0.000 A 
ENDBRANCH  39  52
ENDBRANCH  13  14
ENDBRANCH   6   8
ENDBRANCH   5   6
ENDBRANCH   4   5
ENDBRANCH   3   4
ENDBRANCH   2   3
ENDBRANCH   1   2
BRANCH   1  58
ATOM     58  C   UNL A   1      32.898  22.402  25.945  1.00  0.00     0.261 C 
BRANCH  58  59
ATOM     59  O   UNL A   1      33.210  23.770  26.254  1.00  0.00    -0.459 OA
BRANCH  59  60
ATOM     60  C   UNL A   1      32.108  24.556  26.466  1.00  0.00     0.365 C 
ATOM     61  O   UNL A   1      31.182  24.273  27.205  1.00  0.00    -0.245 OA
BRANCH  60  62
ATOM     62  C   UNL A   1      32.187  25.821  25.609  1.00  0.00     0.298 C 
ATOM     63  C   UNL A   1      30.798  26.488  25.640  1.00  0.00     0.115 C 
ATOM     64  N   UNL A   1      33.269  26.751  26.079  1.00  0.00    -0.323 N 
ATOM     65  C   UNL A   1      30.885  27.668  24.760  1.00  0.00    -0.006 A 
ATOM     66  C   UNL A   1      33.334  28.077  25.419  1.00  0.00     0.262 C 
ATOM     67  H   UNL A   1      34.164  26.286  25.929  1.00  0.00     0.347 HD
ATOM     68  H   UNL A   1      33.051  26.946  27.056  1.00  0.00     0.347 HD
ATOM     69  C   UNL A   1      32.073  28.357  24.655  1.00  0.00     0.083 A 
ATOM     70  C   UNL A   1      29.956  28.232  23.864  1.00  0.00     0.003 A 
ATOM     71  N   UNL A   1      31.909  29.318  23.694  1.00  0.00    -0.353 N 
ATOM     72  C   UNL A   1      30.620  29.266  23.200  1.00  0.00     0.046 A 
ATOM     73  C   UNL A   1      28.622  27.942  23.532  1.00  0.00     0.010 A 
ATOM     74  H   UNL A   1      32.603  29.952  23.400  1.00  0.00     0.166 HD
ATOM     75  C   UNL A   1      29.998  30.037  22.215  1.00  0.00     0.026 A 
ATOM     76  C   UNL A   1      27.989  28.700  22.546  1.00  0.00     0.001 A 
ATOM     77  C   UNL A   1      28.670  29.731  21.900  1.00  0.00     0.002 A 
BRANCH  66  78
ATOM     78  C   UNL A   1      33.695  29.176  26.439  1.00  0.00     0.016 A 
ATOM     79  C   UNL A   1      32.840  30.258  26.713  1.00  0.00     0.014 A 
ATOM     80  C   UNL A   1      34.934  29.164  27.107  1.00  0.00     0.014 A 
ATOM     81  C   UNL A   1      33.233  31.309  27.549  1.00  0.00     0.047 A 
ATOM     82  C   UNL A   1      35.319  30.209  27.973  1.00  0.00     0.047 A 
ATOM     83  C   UNL A   1      34.477  31.301  28.176  1.00  0.00     0.129 A 
BRANCH  83  84
ATOM     84  O   UNL A   1      34.724  32.413  28.926  1.00  0.00    -0.406 OA
BRANCH  84  85
ATOM     85  C   UNL A   1      35.313  33.536  28.300  1.00  0.00     0.573 C 
ATOM     86  F   UNL A   1      34.427  34.157  27.493  1.00  0.00    -0.132 F 
ATOM     87  F   UNL A   1      35.792  34.413  29.207  1.00  0.00    -0.132 F 
ATOM     88  F   UNL A   1      36.349  33.111  27.541  1.00  0.00    -0.132 F 
ENDBRANCH  84  85
ENDBRANCH  83  84
ENDBRANCH  66  78
ENDBRANCH  60  62
ENDBRANCH  59  60
ENDBRANCH  58  59
ENDBRANCH   1  58
TORSDOF 17
ENDMDL
MODEL 2
REMARK VINA RESULT:     -11.2      3.924      7.803
REMARK SMILES O=C(OCCOCCOC(=O)[C@H]1Cc2c([nH]c3ccccc23)[C@@H](c2ccc(OC(F)(F)F)cc2)[NH2+]1)c1ccc(-c2c3nc(c(-c4ccccc4)c4ccc([nH]4)c(-c4ccccc4)c4nc(c(-c5ccccc5)c5ccc2[nH]5)C=C4)C=C3)cc1
REMARK SMILES IDX 7 1 6 2 5 3 4 4 3 5 2 6 1 7 36 8 37 9 83 10 38 11 82 12
REMARK SMILES IDX 39 13 40 14 41 15 76 16 42 17 81 18 75 19 77 20 43 21 80 22
REMARK SMILES IDX 74 23 73 24 44 26 66 27 51 28 65 29 52 30 55 31 64 32 78 33
REMARK SMILES IDX 53 34 54 35 63 37 79 38 56 39 45 40 46 41 50 42 47 43 49 44
REMARK SMILES IDX 48 45 67 46 68 47 72 48 69 49 71 50 70 51 57 52 58 53 62 54
REMARK SMILES IDX 59 55 61 56 60 57 8 58 9 59 10 60 11 61 12 62 13 63 35 64
REMARK SMILES IDX 14 65 23 66 15 69 22 70 16 71 17 72 21 73 18 75 20 76 19 77
REMARK SMILES IDX 24 78 25 79 34 80 26 81 33 82 27 83 28 84 29 85 30 86 31 87
REMARK SMILES IDX 32 88
REMARK H PARENT 77 25 55 36 35 67 35 68 16 74
REMARK Flexibility Score: inf
ROOT
ATOM      1  C   UNL A   1      40.357  20.940  26.803  1.00  0.00     0.202 C 
ENDROOT
BRANCH   1   2
ATOM      2  O   UNL A   1      41.290  20.092  26.124  1.00  0.00    -0.374 OA
BRANCH   2   3
ATOM      3  C   UNL A   1      42.663  20.282  26.485  1.00  0.00     0.202 C 
BRANCH   3   4
ATOM      4  C   UNL A   1      43.520  20.971  25.420  1.00  0.00     0.261 C 
BRANCH   4   5
ATOM      5  O   UNL A   1      42.917  22.225  25.045  1.00  0.00    -0.460 OA
BRANCH   5   6
ATOM      6  C   UNL A   1      43.441  23.465  25.180  1.00  0.00     0.338 C 
ATOM      7  O   UNL A   1      44.241  23.879  24.344  1.00  0.00    -0.246 OA
BRANCH   6   8
ATOM      8  C   UNL A   1      43.024  24.385  26.271  1.00  0.00     0.060 A 
ATOM      9  C   UNL A   1      42.259  23.996  27.369  1.00  0.00     0.016 A 
ATOM     10  C   UNL A   1      43.493  25.705  26.219  1.00  0.00     0.016 A 
ATOM     11  C   UNL A   1      41.880  24.892  28.342  1.00  0.00     0.010 A 
ATOM     12  C   UNL A   1      43.167  26.610  27.232  1.00  0.00     0.010 A 
ATOM     13  C   UNL A   1      42.346  26.197  28.286  1.00  0.00    -0.014 A 
BRANCH  13  14
ATOM     14  C   UNL A   1      41.882  27.103  29.339  1.00  0.00     0.031 A 
ATOM     15  C   UNL A   1      42.744  27.292  30.541  1.00  0.00     0.074 A 
ATOM     16  C   UNL A   1      40.792  27.856  29.106  1.00  0.00     0.049 A 
ATOM     17  N   UNL A   1      42.514  27.997  31.613  1.00  0.00    -0.248 NA
ATOM     18  C   UNL A   1      44.050  26.608  30.531  1.00  0.00     0.031 C 
ATOM     19  C   UNL A   1      40.002  27.836  27.869  1.00  0.00     0.029 A 
ATOM     20  N   UNL A   1      40.188  28.810  29.873  1.00  0.00    -0.354 N 
ATOM     21  C   UNL A   1      43.620  27.802  32.427  1.00  0.00     0.074 A 
ATOM     22  C   UNL A   1      44.535  26.935  31.719  1.00  0.00     0.031 C 
ATOM     23  C   UNL A   1      39.033  28.760  27.953  1.00  0.00     0.029 A 
ATOM     24  C   UNL A   1      39.079  29.362  29.279  1.00  0.00     0.049 A 
ATOM     25  H   UNL A   1      40.513  29.076  30.762  1.00  0.00     0.167 HD
ATOM     26  C   UNL A   1      43.823  28.290  33.670  1.00  0.00     0.031 A 
ATOM     27  C   UNL A   1      38.175  30.218  29.785  1.00  0.00     0.031 A 
ATOM     28  C   UNL A   1      42.878  29.143  34.334  1.00  0.00     0.049 A 
ATOM     29  C   UNL A   1      38.369  30.658  31.208  1.00  0.00     0.074 A 
ATOM     30  C   UNL A   1      42.919  29.653  35.616  1.00  0.00     0.029 A 
ATOM     31  N   UNL A   1      41.710  29.613  33.746  1.00  0.00    -0.354 N 
ATOM     32  N   UNL A   1      39.371  30.403  32.018  1.00  0.00    -0.248 NA
ATOM     33  C   UNL A   1      37.301  31.470  31.800  1.00  0.00     0.031 C 
ATOM     34  C   UNL A   1      41.747  30.392  35.820  1.00  0.00     0.029 A 
ATOM     35  C   UNL A   1      41.003  30.383  34.648  1.00  0.00     0.049 A 
ATOM     36  H   UNL A   1      41.428  29.425  32.821  1.00  0.00     0.167 HD
ATOM     37  C   UNL A   1      39.055  31.019  33.218  1.00  0.00     0.074 A 
ATOM     38  C   UNL A   1      37.782  31.687  33.017  1.00  0.00     0.031 C 
ATOM     39  C   UNL A   1      39.739  31.024  34.389  1.00  0.00     0.031 A 
BRANCH  26  40
ATOM     40  C   UNL A   1      45.041  27.809  34.399  1.00  0.00    -0.014 A 
ATOM     41  C   UNL A   1      45.029  26.641  35.178  1.00  0.00     0.009 A 
ATOM     42  C   UNL A   1      46.217  28.573  34.337  1.00  0.00     0.009 A 
ATOM     43  C   UNL A   1      46.163  26.269  35.907  1.00  0.00     0.001 A 
ATOM     44  C   UNL A   1      47.355  28.186  35.048  1.00  0.00     0.001 A 
ATOM     45  C   UNL A   1      47.324  27.041  35.840  1.00  0.00     0.000 A 
ENDBRANCH  26  40
BRANCH  27  46
ATOM     46  C   UNL A   1      36.977  30.605  28.994  1.00  0.00    -0.014 A 
ATOM     47  C   UNL A   1      36.055  29.645  28.552  1.00  0.00     0.009 A 
ATOM     48  C   UNL A   1      36.750  31.955  28.671  1.00  0.00     0.009 A 
ATOM     49  C   UNL A   1      34.945  30.027  27.792  1.00  0.00     0.001 A 
ATOM     50  C   UNL A   1      35.624  32.338  27.941  1.00  0.00     0.001 A 
ATOM     51  C   UNL A   1      34.727  31.371  27.492  1.00  0.00     0.000 A 
ENDBRANCH  27  46
BRANCH  39  52
ATOM     52  C   UNL A   1      39.121  31.788  35.519  1.00  0.00    -0.014 A 
ATOM     53  C   UNL A   1      38.302  31.143  36.457  1.00  0.00     0.009 A 
ATOM     54  C   UNL A   1      39.412  33.151  35.674  1.00  0.00     0.009 A 
ATOM     55  C   UNL A   1      37.766  31.861  37.526  1.00  0.00     0.001 A 
ATOM     56  C   UNL A   1      38.896  33.858  36.758  1.00  0.00     0.001 A 
ATOM     57  C   UNL A   1      38.070  33.213  37.679  1.00  0.00     0.000 A 
ENDBRANCH  39  52
ENDBRANCH  13  14
ENDBRANCH   6   8
ENDBRANCH   5   6
ENDBRANCH   4   5
ENDBRANCH   3   4
ENDBRANCH   2   3
ENDBRANCH   1   2
BRANCH   1  58
ATOM     58  C   UNL A   1      39.076  21.085  25.988  1.00  0.00     0.261 C 
BRANCH  58  59
ATOM     59  O   UNL A   1      39.025  22.420  25.460  1.00  0.00    -0.459 OA
BRANCH  59  60
ATOM     60  C   UNL A   1      37.956  23.152  25.908  1.00  0.00     0.365 C 
ATOM     61  O   UNL A   1      37.960  23.855  26.902  1.00  0.00    -0.245 OA
BRANCH  60  62
ATOM     62  C   UNL A   1      36.743  22.925  25.003  1.00  0.00     0.298 C 
ATOM     63  C   UNL A   1      35.803  21.943  25.729  1.00  0.00     0.115 C 
ATOM     64  N   UNL A   1      36.052  24.213  24.656  1.00  0.00    -0.323 N 
ATOM     65  C   UNL A   1      34.674  21.695  24.812  1.00  0.00    -0.006 A 
ATOM     66  C   UNL A   1      34.775  24.099  23.912  1.00  0.00     0.262 C 
ATOM     67  H   UNL A   1      36.694  24.765  24.086  1.00  0.00     0.347 HD
ATOM     68  H   UNL A   1      35.807  24.637  25.550  1.00  0.00     0.347 HD
ATOM     69  C   UNL A   1      34.247  22.696  23.967  1.00  0.00     0.083 A 
ATOM     70  C   UNL A   1      33.939  20.526  24.536  1.00  0.00     0.003 A 
ATOM     71  N   UNL A   1      33.282  22.164  23.154  1.00  0.00    -0.353 N 
ATOM     72  C   UNL A   1      33.071  20.841  23.488  1.00  0.00     0.046 A 
ATOM     73  C   UNL A   1      33.950  19.221  25.057  1.00  0.00     0.010 A 
ATOM     74  H   UNL A   1      32.809  22.651  22.442  1.00  0.00     0.166 HD
ATOM     75  C   UNL A   1      32.198  19.898  22.938  1.00  0.00     0.026 A 
ATOM     76  C   UNL A   1      33.086  18.268  24.514  1.00  0.00     0.001 A 
ATOM     77  C   UNL A   1      32.225  18.605  23.472  1.00  0.00     0.002 A 
BRANCH  66  78
ATOM     78  C   UNL A   1      33.765  25.158  24.399  1.00  0.00     0.016 A 
ATOM     79  C   UNL A   1      32.781  25.702  23.554  1.00  0.00     0.014 A 
ATOM     80  C   UNL A   1      33.822  25.663  25.711  1.00  0.00     0.014 A 
ATOM     81  C   UNL A   1      31.951  26.747  23.975  1.00  0.00     0.047 A 
ATOM     82  C   UNL A   1      32.967  26.698  26.144  1.00  0.00     0.047 A 
ATOM     83  C   UNL A   1      32.043  27.262  25.267  1.00  0.00     0.129 A 
BRANCH  83  84
ATOM     84  O   UNL A   1      31.193  28.301  25.508  1.00  0.00    -0.406 OA
BRANCH  84  85
ATOM     85  C   UNL A   1      31.738  29.592  25.698  1.00  0.00     0.573 C 
ATOM     86  F   UNL A   1      31.817  29.893  27.011  1.00  0.00    -0.132 F 
ATOM     87  F   UNL A   1      32.960  29.701  25.134  1.00  0.00    -0.132 F 
ATOM     88  F   UNL A   1      30.923  30.495  25.107  1.00  0.00    -0.132 F 
ENDBRANCH  84  85
ENDBRANCH  83  84
ENDBRANCH  66  78
ENDBRANCH  60  62
ENDBRANCH  59  60
ENDBRANCH  58  59
ENDBRANCH   1  58
TORSDOF 17
ENDMDL
MODEL 3
REMARK VINA RESULT:     -11.2      5.021     10.153
REMARK SMILES O=C(OCCOCCOC(=O)[C@H]1Cc2c([nH]c3ccccc23)[C@@H](c2ccc(OC(F)(F)F)cc2)[NH2+]1)c1ccc(-c2c3nc(c(-c4ccccc4)c4ccc([nH]4)c(-c4ccccc4)c4nc(c(-c5ccccc5)c5ccc2[nH]5)C=C4)C=C3)cc1
REMARK SMILES IDX 7 1 6 2 5 3 4 4 3 5 2 6 1 7 36 8 37 9 83 10 38 11 82 12
REMARK SMILES IDX 39 13 40 14 41 15 76 16 42 17 81 18 75 19 77 20 43 21 80 22
REMARK SMILES IDX 74 23 73 24 44 26 66 27 51 28 65 29 52 30 55 31 64 32 78 33
REMARK SMILES IDX 53 34 54 35 63 37 79 38 56 39 45 40 46 41 50 42 47 43 49 44
REMARK SMILES IDX 48 45 67 46 68 47 72 48 69 49 71 50 70 51 57 52 58 53 62 54
REMARK SMILES IDX 59 55 61 56 60 57 8 58 9 59 10 60 11 61 12 62 13 63 35 64
REMARK SMILES IDX 14 65 23 66 15 69 22 70 16 71 17 72 21 73 18 75 20 76 19 77
REMARK SMILES IDX 24 78 25 79 34 80 26 81 33 82 27 83 28 84 29 85 30 86 31 87
REMARK SMILES IDX 32 88
REMARK H PARENT 77 25 55 36 35 67 35 68 16 74
REMARK Flexibility Score: inf
ROOT
ATOM      1  C   UNL A   1      32.565  28.437  22.354  1.00  0.00     0.202 C 
ENDROOT
BRANCH   1   2
ATOM      2  O   UNL A   1      32.579  29.252  23.531  1.00  0.00    -0.374 OA
BRANCH   2   3
ATOM      3  C   UNL A   1      31.358  29.264  24.281  1.00  0.00     0.202 C 
BRANCH   3   4
ATOM      4  C   UNL A   1      31.399  30.090  25.568  1.00  0.00     0.261 C 
BRANCH   4   5
ATOM      5  O   UNL A   1      32.752  30.504  25.839  1.00  0.00    -0.460 OA
BRANCH   5   6
ATOM      6  C   UNL A   1      33.194  31.252  26.876  1.00  0.00     0.338 C 
ATOM      7  O   UNL A   1      32.532  32.218  27.252  1.00  0.00    -0.246 OA
BRANCH   6   8
ATOM      8  C   UNL A   1      34.423  30.903  27.636  1.00  0.00     0.060 A 
ATOM      9  C   UNL A   1      34.785  29.601  27.977  1.00  0.00     0.016 A 
ATOM     10  C   UNL A   1      35.301  31.947  27.963  1.00  0.00     0.016 A 
ATOM     11  C   UNL A   1      35.924  29.332  28.701  1.00  0.00     0.010 A 
ATOM     12  C   UNL A   1      36.490  31.681  28.644  1.00  0.00     0.010 A 
ATOM     13  C   UNL A   1      36.788  30.368  29.023  1.00  0.00    -0.014 A 
BRANCH  13  14
ATOM     14  C   UNL A   1      37.967  30.014  29.817  1.00  0.00     0.031 A 
ATOM     15  C   UNL A   1      39.071  29.265  29.150  1.00  0.00     0.074 A 
ATOM     16  C   UNL A   1      38.084  30.522  31.056  1.00  0.00     0.049 A 
ATOM     17  N   UNL A   1      40.175  28.803  29.665  1.00  0.00    -0.248 NA
ATOM     18  C   UNL A   1      38.921  29.015  27.706  1.00  0.00     0.031 C 
ATOM     19  C   UNL A   1      37.107  31.408  31.701  1.00  0.00     0.029 A 
ATOM     20  N   UNL A   1      39.088  30.409  31.975  1.00  0.00    -0.354 N 
ATOM     21  C   UNL A   1      40.829  28.164  28.621  1.00  0.00     0.074 A 
ATOM     22  C   UNL A   1      40.014  28.317  27.438  1.00  0.00     0.031 C 
ATOM     23  C   UNL A   1      37.576  31.779  32.901  1.00  0.00     0.029 A 
ATOM     24  C   UNL A   1      38.834  31.085  33.143  1.00  0.00     0.049 A 
ATOM     25  H   UNL A   1      39.911  29.895  31.816  1.00  0.00     0.167 HD
ATOM     26  C   UNL A   1      41.996  27.486  28.673  1.00  0.00     0.031 A 
ATOM     27  C   UNL A   1      39.523  31.087  34.297  1.00  0.00     0.031 A 
ATOM     28  C   UNL A   1      42.766  27.355  29.878  1.00  0.00     0.049 A 
ATOM     29  C   UNL A   1      40.759  30.235  34.359  1.00  0.00     0.074 A 
ATOM     30  C   UNL A   1      43.927  26.641  30.094  1.00  0.00     0.029 A 
ATOM     31  N   UNL A   1      42.437  27.971  31.080  1.00  0.00    -0.354 N 
ATOM     32  N   UNL A   1      41.335  29.552  33.396  1.00  0.00    -0.248 NA
ATOM     33  C   UNL A   1      41.421  30.125  35.662  1.00  0.00     0.031 C 
ATOM     34  C   UNL A   1      44.272  26.784  31.444  1.00  0.00     0.029 A 
ATOM     35  C   UNL A   1      43.354  27.628  32.053  1.00  0.00     0.049 A 
ATOM     36  H   UNL A   1      41.663  28.564  31.217  1.00  0.00     0.167 HD
ATOM     37  C   UNL A   1      42.426  28.925  33.977  1.00  0.00     0.074 A 
ATOM     38  C   UNL A   1      42.448  29.338  35.369  1.00  0.00     0.031 C 
ATOM     39  C   UNL A   1      43.323  28.072  33.424  1.00  0.00     0.031 A 
BRANCH  26  40
ATOM     40  C   UNL A   1      42.415  26.757  27.432  1.00  0.00    -0.014 A 
ATOM     41  C   UNL A   1      42.394  25.355  27.350  1.00  0.00     0.009 A 
ATOM     42  C   UNL A   1      42.885  27.495  26.335  1.00  0.00     0.009 A 
ATOM     43  C   UNL A   1      42.868  24.711  26.203  1.00  0.00     0.001 A 
ATOM     44  C   UNL A   1      43.336  26.849  25.183  1.00  0.00     0.001 A 
ATOM     45  C   UNL A   1      43.338  25.457  25.122  1.00  0.00     0.000 A 
ENDBRANCH  26  40
BRANCH  27  46
ATOM     46  C   UNL A   1      39.002  31.812  35.486  1.00  0.00    -0.014 A 
ATOM     47  C   UNL A   1      38.195  31.167  36.435  1.00  0.00     0.009 A 
ATOM     48  C   UNL A   1      39.313  33.170  35.678  1.00  0.00     0.009 A 
ATOM     49  C   UNL A   1      37.698  31.872  37.536  1.00  0.00     0.001 A 
ATOM     50  C   UNL A   1      38.843  33.862  36.795  1.00  0.00     0.001 A 
ATOM     51  C   UNL A   1      38.026  33.215  37.719  1.00  0.00     0.000 A 
ENDBRANCH  27  46
BRANCH  39  52
ATOM     52  C   UNL A   1      44.398  27.555  34.329  1.00  0.00    -0.014 A 
ATOM     53  C   UNL A   1      44.224  26.356  35.036  1.00  0.00     0.009 A 
ATOM     54  C   UNL A   1      45.614  28.246  34.426  1.00  0.00     0.009 A 
ATOM     55  C   UNL A   1      45.250  25.868  35.844  1.00  0.00     0.001 A 
ATOM     56  C   UNL A   1      46.646  27.741  35.214  1.00  0.00     0.001 A 
ATOM     57  C   UNL A   1      46.461  26.555  35.926  1.00  0.00     0.000 A 
ENDBRANCH  39  52
ENDBRANCH  13  14
ENDBRANCH   6   8
ENDBRANCH   5   6
ENDBRANCH   4   5
ENDBRANCH   3   4
ENDBRANCH   2   3
ENDBRANCH   1   2
BRANCH   1  58
ATOM     58  C   UNL A   1      33.487  27.234  22.527  1.00  0.00     0.261 C 
BRANCH  58  59
ATOM     59  O   UNL A   1      32.760  26.203  23.213  1.00  0.00    -0.459 OA
BRANCH  59  60
ATOM     60  C   UNL A   1      33.275  25.886  24.444  1.00  0.00     0.365 C 
ATOM     61  O   UNL A   1      32.988  26.448  25.485  1.00  0.00    -0.245 OA
BRANCH  60  62
ATOM     62  C   UNL A   1      34.297  24.754  24.314  1.00  0.00     0.298 C 
ATOM     63  C   UNL A   1      34.970  24.580  25.689  1.00  0.00     0.115 C 
ATOM     64  N   UNL A   1      33.664  23.480  23.831  1.00  0.00    -0.323 N 
ATOM     65  C   UNL A   1      35.989  23.526  25.521  1.00  0.00    -0.006 A 
ATOM     66  C   UNL A   1      34.529  22.276  23.817  1.00  0.00     0.262 C 
ATOM     67  H   UNL A   1      33.338  23.638  22.878  1.00  0.00     0.347 HD
ATOM     68  H   UNL A   1      32.926  23.274  24.503  1.00  0.00     0.347 HD
ATOM     69  C   UNL A   1      35.771  22.500  24.629  1.00  0.00     0.083 A 
ATOM     70  C   UNL A   1      37.283  23.388  26.061  1.00  0.00     0.003 A 
ATOM     71  N   UNL A   1      36.911  21.743  24.585  1.00  0.00    -0.353 N 
ATOM     72  C   UNL A   1      37.847  22.262  25.457  1.00  0.00     0.046 A 
ATOM     73  C   UNL A   1      38.038  24.130  26.984  1.00  0.00     0.010 A 
ATOM     74  H   UNL A   1      37.043  20.949  24.018  1.00  0.00     0.166 HD
ATOM     75  C   UNL A   1      39.147  21.837  25.747  1.00  0.00     0.026 A 
ATOM     76  C   UNL A   1      39.339  23.720  27.279  1.00  0.00     0.001 A 
ATOM     77  C   UNL A   1      39.882  22.590  26.668  1.00  0.00     0.002 A 
BRANCH  66  78
ATOM     78  C   UNL A   1      33.731  21.027  24.240  1.00  0.00     0.016 A 
ATOM     79  C   UNL A   1      33.858  20.450  25.517  1.00  0.00     0.014 A 
ATOM     80  C   UNL A   1      32.869  20.377  23.336  1.00  0.00     0.014 A 
ATOM     81  C   UNL A   1      33.220  19.249  25.845  1.00  0.00     0.047 A 
ATOM     82  C   UNL A   1      32.204  19.181  23.677  1.00  0.00     0.047 A 
ATOM     83  C   UNL A   1      32.398  18.598  24.928  1.00  0.00     0.129 A 
BRANCH  83  84
ATOM     84  O   UNL A   1      31.881  17.423  25.387  1.00  0.00    -0.406 OA
BRANCH  84  85
ATOM     85  C   UNL A   1      32.678  16.257  25.311  1.00  0.00     0.573 C 
ATOM     86  F   UNL A   1      33.752  16.354  26.123  1.00  0.00    -0.132 F 
ATOM     87  F   UNL A   1      31.970  15.152  25.626  1.00  0.00    -0.132 F 
ATOM     88  F   UNL A   1      33.122  16.121  24.040  1.00  0.00    -0.132 F 
ENDBRANCH  84  85
ENDBRANCH  83  84
ENDBRANCH  66  78
ENDBRANCH  60  62
ENDBRANCH  59  60
ENDBRANCH  58  59
ENDBRANCH   1  58
TORSDOF 17
ENDMDL
