MODEL 1
REMARK VINA RESULT:     -11.6      0.000      0.000
REMARK SMILES O=C(OCCOCCOC(=O)[C@H]1CCCN(C(=O)C2CCN(S(=O)(=O)c3ccccc3)CC2)C1)c1ccc(-c2c3nc(c(-c4ccccc4)c4ccc([nH]4)c(-c4ccccc4)c4nc(c(-c5ccccc5)c5ccc2[nH]5)C=C4)C=C3)cc1
REMARK SMILES IDX 7 1 6 2 5 3 4 4 3 5 2 6 1 7 35 8 36 9 82 10 37 11 81 12
REMARK SMILES IDX 38 13 39 14 40 15 75 16 41 17 80 18 74 19 76 20 42 21 79 22
REMARK SMILES IDX 73 23 72 24 43 26 65 27 50 28 64 29 51 30 54 31 63 32 77 33
REMARK SMILES IDX 52 34 53 35 62 37 78 38 55 39 44 40 45 41 49 42 46 43 48 44
REMARK SMILES IDX 47 45 66 46 67 47 71 48 68 49 70 50 69 51 56 52 57 53 61 54
REMARK SMILES IDX 58 55 60 56 59 57 8 58 9 59 10 60 11 61 12 62 13 63 34 64
REMARK SMILES IDX 14 65 16 66 15 67 17 68 18 69 19 70 20 71 33 72 21 73 32 74
REMARK SMILES IDX 22 75 23 76 24 77 25 78 26 79 27 80 31 81 28 82 30 83 29 84
REMARK H PARENT 76 25 54 36
REMARK Flexibility Score: inf
ROOT
ATOM      1  C   UNL A   1      31.866  30.504  25.713  1.00  0.00     0.202 C 
ENDROOT
BRANCH   1   2
ATOM      2  O   UNL A   1      30.790  31.452  25.634  1.00  0.00    -0.374 OA
BRANCH   2   3
ATOM      3  C   UNL A   1      31.045  32.733  26.220  1.00  0.00     0.202 C 
BRANCH   3   4
ATOM      4  C   UNL A   1      32.147  32.765  27.284  1.00  0.00     0.261 C 
BRANCH   4   5
ATOM      5  O   UNL A   1      32.334  34.100  27.784  1.00  0.00    -0.460 OA
BRANCH   5   6
ATOM      6  C   UNL A   1      33.102  34.503  28.826  1.00  0.00     0.338 C 
ATOM      7  O   UNL A   1      32.744  35.478  29.482  1.00  0.00    -0.246 OA
BRANCH   6   8
ATOM      8  C   UNL A   1      34.380  33.831  29.209  1.00  0.00     0.060 A 
ATOM      9  C   UNL A   1      34.491  32.829  30.173  1.00  0.00     0.016 A 
ATOM     10  C   UNL A   1      35.535  34.181  28.490  1.00  0.00     0.016 A 
ATOM     11  C   UNL A   1      35.714  32.273  30.504  1.00  0.00     0.010 A 
ATOM     12  C   UNL A   1      36.768  33.580  28.772  1.00  0.00     0.010 A 
ATOM     13  C   UNL A   1      36.861  32.642  29.805  1.00  0.00    -0.014 A 
BRANCH  13  14
ATOM     14  C   UNL A   1      38.140  32.071  30.261  1.00  0.00     0.031 A 
ATOM     15  C   UNL A   1      38.798  32.655  31.471  1.00  0.00     0.074 A 
ATOM     16  C   UNL A   1      38.581  30.929  29.701  1.00  0.00     0.049 A 
ATOM     17  N   UNL A   1      39.892  32.276  32.077  1.00  0.00    -0.248 NA
ATOM     18  C   UNL A   1      38.124  33.804  32.101  1.00  0.00     0.031 C 
ATOM     19  C   UNL A   1      37.921  30.222  28.599  1.00  0.00     0.029 A 
ATOM     20  N   UNL A   1      39.645  30.131  30.021  1.00  0.00    -0.354 N 
ATOM     21  C   UNL A   1      40.044  33.147  33.147  1.00  0.00     0.074 A 
ATOM     22  C   UNL A   1      38.938  34.078  33.108  1.00  0.00     0.031 C 
ATOM     23  C   UNL A   1      38.566  29.067  28.373  1.00  0.00     0.029 A 
ATOM     24  C   UNL A   1      39.718  28.988  29.262  1.00  0.00     0.049 A 
ATOM     25  H   UNL A   1      40.295  30.354  30.725  1.00  0.00     0.167 HD
ATOM     26  C   UNL A   1      41.028  33.168  34.075  1.00  0.00     0.031 A 
ATOM     27  C   UNL A   1      40.632  28.000  29.276  1.00  0.00     0.031 A 
ATOM     28  C   UNL A   1      42.129  32.247  34.082  1.00  0.00     0.049 A 
ATOM     29  C   UNL A   1      41.766  28.105  30.255  1.00  0.00     0.074 A 
ATOM     30  C   UNL A   1      43.251  32.237  34.891  1.00  0.00     0.029 A 
ATOM     31  N   UNL A   1      42.235  31.157  33.229  1.00  0.00    -0.354 N 
ATOM     32  N   UNL A   1      41.963  28.997  31.198  1.00  0.00    -0.248 NA
ATOM     33  C   UNL A   1      42.815  27.083  30.160  1.00  0.00     0.031 C 
ATOM     34  C   UNL A   1      44.052  31.156  34.503  1.00  0.00     0.029 A 
ATOM     35  C   UNL A   1      43.408  30.469  33.484  1.00  0.00     0.049 A 
ATOM     36  H   UNL A   1      41.573  30.909  32.544  1.00  0.00     0.167 HD
ATOM     37  C   UNL A   1      43.160  28.649  31.804  1.00  0.00     0.074 A 
ATOM     38  C   UNL A   1      43.623  27.441  31.148  1.00  0.00     0.031 C 
ATOM     39  C   UNL A   1      43.832  29.277  32.800  1.00  0.00     0.031 A 
BRANCH  26  40
ATOM     40  C   UNL A   1      40.974  34.268  35.093  1.00  0.00    -0.014 A 
ATOM     41  C   UNL A   1      40.262  34.117  36.293  1.00  0.00     0.009 A 
ATOM     42  C   UNL A   1      41.611  35.489  34.827  1.00  0.00     0.009 A 
ATOM     43  C   UNL A   1      40.164  35.180  37.193  1.00  0.00     0.001 A 
ATOM     44  C   UNL A   1      41.527  36.544  35.738  1.00  0.00     0.001 A 
ATOM     45  C   UNL A   1      40.796  36.392  36.915  1.00  0.00     0.000 A 
ENDBRANCH  26  40
BRANCH  27  46
ATOM     46  C   UNL A   1      40.552  26.883  28.298  1.00  0.00    -0.014 A 
ATOM     47  C   UNL A   1      41.208  26.953  27.060  1.00  0.00     0.009 A 
ATOM     48  C   UNL A   1      39.794  25.738  28.596  1.00  0.00     0.009 A 
ATOM     49  C   UNL A   1      41.087  25.911  26.135  1.00  0.00     0.001 A 
ATOM     50  C   UNL A   1      39.701  24.685  27.684  1.00  0.00     0.001 A 
ATOM     51  C   UNL A   1      40.339  24.777  26.449  1.00  0.00     0.000 A 
ENDBRANCH  27  46
BRANCH  39  52
ATOM     52  C   UNL A   1      45.129  28.657  33.223  1.00  0.00    -0.014 A 
ATOM     53  C   UNL A   1      45.169  27.721  34.268  1.00  0.00     0.009 A 
ATOM     54  C   UNL A   1      46.314  28.995  32.555  1.00  0.00     0.009 A 
ATOM     55  C   UNL A   1      46.384  27.159  34.658  1.00  0.00     0.001 A 
ATOM     56  C   UNL A   1      47.523  28.411  32.932  1.00  0.00     0.001 A 
ATOM     57  C   UNL A   1      47.558  27.502  33.990  1.00  0.00     0.000 A 
ENDBRANCH  39  52
ENDBRANCH  13  14
ENDBRANCH   6   8
ENDBRANCH   5   6
ENDBRANCH   4   5
ENDBRANCH   3   4
ENDBRANCH   2   3
ENDBRANCH   1   2
BRANCH   1  58
ATOM     58  C   UNL A   1      31.486  29.236  24.940  1.00  0.00     0.261 C 
BRANCH  58  59
ATOM     59  O   UNL A   1      30.356  29.550  24.121  1.00  0.00    -0.463 OA
BRANCH  59  60
ATOM     60  C   UNL A   1      30.159  28.637  23.128  1.00  0.00     0.310 C 
ATOM     61  O   UNL A   1      29.645  28.888  22.048  1.00  0.00    -0.252 OA
BRANCH  60  62
ATOM     62  C   UNL A   1      30.782  27.321  23.533  1.00  0.00     0.119 C 
ATOM     63  C   UNL A   1      29.740  26.464  24.258  1.00  0.00     0.019 C 
ATOM     64  C   UNL A   1      31.476  26.669  22.322  1.00  0.00     0.134 C 
ATOM     65  C   UNL A   1      30.236  25.044  24.402  1.00  0.00     0.022 C 
ATOM     66  N   UNL A   1      31.744  25.238  22.519  1.00  0.00    -0.342 N 
ATOM     67  C   UNL A   1      30.593  24.536  23.017  1.00  0.00     0.119 C 
BRANCH  66  68
ATOM     68  C   UNL A   1      32.977  24.688  22.218  1.00  0.00     0.225 C 
ATOM     69  O   UNL A   1      33.235  24.390  21.043  1.00  0.00    -0.275 OA
BRANCH  68  70
ATOM     70  C   UNL A   1      34.094  24.420  23.275  1.00  0.00     0.081 C 
ATOM     71  C   UNL A   1      34.983  23.195  23.123  1.00  0.00     0.030 C 
ATOM     72  C   UNL A   1      33.774  24.648  24.742  1.00  0.00     0.030 C 
ATOM     73  C   UNL A   1      34.639  21.960  23.950  1.00  0.00     0.103 C 
ATOM     74  C   UNL A   1      33.187  23.449  25.457  1.00  0.00     0.103 C 
ATOM     75  N   UNL A   1      33.890  22.159  25.252  1.00  0.00    -0.198 NA
BRANCH  75  76
ATOM     76  S   UNL A   1      33.005  20.685  25.609  1.00  0.00     0.243 S 
ATOM     77  O   UNL A   1      33.397  20.238  26.930  1.00  0.00    -0.207 OA
ATOM     78  O   UNL A   1      31.612  21.002  25.355  1.00  0.00    -0.207 OA
BRANCH  76  79
ATOM     79  C   UNL A   1      33.474  19.356  24.521  1.00  0.00     0.082 A 
ATOM     80  C   UNL A   1      32.528  18.915  23.587  1.00  0.00     0.022 A 
ATOM     81  C   UNL A   1      34.608  18.571  24.762  1.00  0.00     0.022 A 
ATOM     82  C   UNL A   1      32.740  17.729  22.880  1.00  0.00     0.001 A 
ATOM     83  C   UNL A   1      34.840  17.410  24.020  1.00  0.00     0.001 A 
ATOM     84  C   UNL A   1      33.902  16.987  23.085  1.00  0.00     0.000 A 
ENDBRANCH  76  79
ENDBRANCH  75  76
ENDBRANCH  68  70
ENDBRANCH  66  68
ENDBRANCH  60  62
ENDBRANCH  59  60
ENDBRANCH  58  59
ENDBRANCH   1  58
TORSDOF 18
ENDMDL
MODEL 2
REMARK VINA RESULT:     -11.3      2.161      6.499
REMARK SMILES O=C(OCCOCCOC(=O)[C@H]1CCCN(C(=O)C2CCN(S(=O)(=O)c3ccccc3)CC2)C1)c1ccc(-c2c3nc(c(-c4ccccc4)c4ccc([nH]4)c(-c4ccccc4)c4nc(c(-c5ccccc5)c5ccc2[nH]5)C=C4)C=C3)cc1
REMARK SMILES IDX 7 1 6 2 5 3 4 4 3 5 2 6 1 7 35 8 36 9 82 10 37 11 81 12
REMARK SMILES IDX 38 13 39 14 40 15 75 16 41 17 80 18 74 19 76 20 42 21 79 22
REMARK SMILES IDX 73 23 72 24 43 26 65 27 50 28 64 29 51 30 54 31 63 32 77 33
REMARK SMILES IDX 52 34 53 35 62 37 78 38 55 39 44 40 45 41 49 42 46 43 48 44
REMARK SMILES IDX 47 45 66 46 67 47 71 48 68 49 70 50 69 51 56 52 57 53 61 54
REMARK SMILES IDX 58 55 60 56 59 57 8 58 9 59 10 60 11 61 12 62 13 63 34 64
REMARK SMILES IDX 14 65 16 66 15 67 17 68 18 69 19 70 20 71 33 72 21 73 32 74
REMARK SMILES IDX 22 75 23 76 24 77 25 78 26 79 27 80 31 81 28 82 30 83 29 84
REMARK H PARENT 76 25 54 36
REMARK Flexibility Score: inf
ROOT
ATOM      1  C   UNL A   1      34.822  33.661  27.995  1.00  0.00     0.202 C 
ENDROOT
BRANCH   1   2
ATOM      2  O   UNL A   1      33.765  33.779  28.960  1.00  0.00    -0.374 OA
BRANCH   2   3
ATOM      3  C   UNL A   1      32.903  34.912  28.804  1.00  0.00     0.202 C 
BRANCH   3   4
ATOM      4  C   UNL A   1      33.327  36.173  29.564  1.00  0.00     0.261 C 
BRANCH   4   5
ATOM      5  O   UNL A   1      32.578  36.306  30.785  1.00  0.00    -0.460 OA
BRANCH   5   6
ATOM      6  C   UNL A   1      32.659  35.545  31.903  1.00  0.00     0.338 C 
ATOM      7  O   UNL A   1      31.699  35.515  32.670  1.00  0.00    -0.246 OA
BRANCH   6   8
ATOM      8  C   UNL A   1      33.870  34.747  32.266  1.00  0.00     0.060 A 
ATOM      9  C   UNL A   1      33.845  33.428  32.714  1.00  0.00     0.016 A 
ATOM     10  C   UNL A   1      35.123  35.349  32.063  1.00  0.00     0.016 A 
ATOM     11  C   UNL A   1      35.005  32.759  33.067  1.00  0.00     0.010 A 
ATOM     12  C   UNL A   1      36.307  34.660  32.355  1.00  0.00     0.010 A 
ATOM     13  C   UNL A   1      36.244  33.369  32.887  1.00  0.00    -0.014 A 
BRANCH  13  14
ATOM     14  C   UNL A   1      37.430  32.633  33.356  1.00  0.00     0.031 A 
ATOM     15  C   UNL A   1      38.103  31.679  32.419  1.00  0.00     0.074 A 
ATOM     16  C   UNL A   1      37.989  32.975  34.532  1.00  0.00     0.049 A 
ATOM     17  N   UNL A   1      39.185  30.972  32.600  1.00  0.00    -0.248 NA
ATOM     18  C   UNL A   1      37.490  31.517  31.088  1.00  0.00     0.031 C 
ATOM     19  C   UNL A   1      37.465  33.995  35.447  1.00  0.00     0.029 A 
ATOM     20  N   UNL A   1      39.146  32.554  35.127  1.00  0.00    -0.354 N 
ATOM     21  C   UNL A   1      39.374  30.271  31.417  1.00  0.00     0.074 A 
ATOM     22  C   UNL A   1      38.295  30.631  30.525  1.00  0.00     0.031 C 
ATOM     23  C   UNL A   1      38.331  34.157  36.460  1.00  0.00     0.029 A 
ATOM     24  C   UNL A   1      39.426  33.210  36.302  1.00  0.00     0.049 A 
ATOM     25  H   UNL A   1      39.722  31.851  34.750  1.00  0.00     0.167 HD
ATOM     26  C   UNL A   1      40.362  29.399  31.109  1.00  0.00     0.031 A 
ATOM     27  C   UNL A   1      40.448  33.042  37.161  1.00  0.00     0.031 A 
ATOM     28  C   UNL A   1      41.412  29.040  32.019  1.00  0.00     0.049 A 
ATOM     29  C   UNL A   1      41.476  31.995  36.836  1.00  0.00     0.074 A 
ATOM     30  C   UNL A   1      42.400  28.083  31.875  1.00  0.00     0.029 A 
ATOM     31  N   UNL A   1      41.612  29.644  33.253  1.00  0.00    -0.354 N 
ATOM     32  N   UNL A   1      41.587  31.255  35.757  1.00  0.00    -0.248 NA
ATOM     33  C   UNL A   1      42.505  31.744  37.851  1.00  0.00     0.031 C 
ATOM     34  C   UNL A   1      43.177  28.086  33.039  1.00  0.00     0.029 A 
ATOM     35  C   UNL A   1      42.700  29.076  33.887  1.00  0.00     0.049 A 
ATOM     36  H   UNL A   1      41.059  30.371  33.622  1.00  0.00     0.167 HD
ATOM     37  C   UNL A   1      42.693  30.445  35.967  1.00  0.00     0.074 A 
ATOM     38  C   UNL A   1      43.241  30.815  37.258  1.00  0.00     0.031 C 
ATOM     39  C   UNL A   1      43.204  29.470  35.177  1.00  0.00     0.031 A 
BRANCH  26  40
ATOM     40  C   UNL A   1      40.284  28.737  29.766  1.00  0.00    -0.014 A 
ATOM     41  C   UNL A   1      40.872  29.318  28.631  1.00  0.00     0.009 A 
ATOM     42  C   UNL A   1      39.577  27.534  29.627  1.00  0.00     0.009 A 
ATOM     43  C   UNL A   1      40.724  28.721  27.377  1.00  0.00     0.001 A 
ATOM     44  C   UNL A   1      39.448  26.929  28.376  1.00  0.00     0.001 A 
ATOM     45  C   UNL A   1      40.013  27.527  27.250  1.00  0.00     0.000 A 
ENDBRANCH  26  40
BRANCH  27  46
ATOM     46  C   UNL A   1      40.507  33.820  38.427  1.00  0.00    -0.014 A 
ATOM     47  C   UNL A   1      39.857  33.372  39.586  1.00  0.00     0.009 A 
ATOM     48  C   UNL A   1      41.207  35.038  38.473  1.00  0.00     0.009 A 
ATOM     49  C   UNL A   1      39.888  34.138  40.756  1.00  0.00     0.001 A 
ATOM     50  C   UNL A   1      41.263  35.785  39.650  1.00  0.00     0.001 A 
ATOM     51  C   UNL A   1      40.594  35.340  40.789  1.00  0.00     0.000 A 
ENDBRANCH  27  46
BRANCH  39  52
ATOM     52  C   UNL A   1      44.409  28.750  35.702  1.00  0.00    -0.014 A 
ATOM     53  C   UNL A   1      44.269  27.643  36.554  1.00  0.00     0.009 A 
ATOM     54  C   UNL A   1      45.692  29.169  35.323  1.00  0.00     0.009 A 
ATOM     55  C   UNL A   1      45.398  26.988  37.042  1.00  0.00     0.001 A 
ATOM     56  C   UNL A   1      46.818  28.496  35.795  1.00  0.00     0.001 A 
ATOM     57  C   UNL A   1      46.670  27.413  36.662  1.00  0.00     0.000 A 
ENDBRANCH  39  52
ENDBRANCH  13  14
ENDBRANCH   6   8
ENDBRANCH   5   6
ENDBRANCH   4   5
ENDBRANCH   3   4
ENDBRANCH   2   3
ENDBRANCH   1   2
BRANCH   1  58
ATOM     58  C   UNL A   1      35.347  32.221  27.988  1.00  0.00     0.261 C 
BRANCH  58  59
ATOM     59  O   UNL A   1      34.229  31.353  27.780  1.00  0.00    -0.463 OA
BRANCH  59  60
ATOM     60  C   UNL A   1      34.603  30.059  27.568  1.00  0.00     0.310 C 
ATOM     61  O   UNL A   1      35.652  29.569  27.958  1.00  0.00    -0.252 OA
BRANCH  60  62
ATOM     62  C   UNL A   1      33.471  29.320  26.892  1.00  0.00     0.119 C 
ATOM     63  C   UNL A   1      32.480  30.329  26.305  1.00  0.00     0.019 C 
ATOM     64  C   UNL A   1      34.034  28.270  25.915  1.00  0.00     0.134 C 
ATOM     65  C   UNL A   1      31.515  29.634  25.374  1.00  0.00     0.022 C 
ATOM     66  N   UNL A   1      33.038  27.805  24.941  1.00  0.00    -0.342 N 
ATOM     67  C   UNL A   1      32.330  28.895  24.328  1.00  0.00     0.119 C 
BRANCH  66  68
ATOM     68  C   UNL A   1      32.867  26.459  24.672  1.00  0.00     0.225 C 
ATOM     69  O   UNL A   1      31.722  26.017  24.500  1.00  0.00    -0.275 OA
BRANCH  68  70
ATOM     70  C   UNL A   1      34.041  25.435  24.557  1.00  0.00     0.081 C 
ATOM     71  C   UNL A   1      34.255  24.694  23.247  1.00  0.00     0.030 C 
ATOM     72  C   UNL A   1      34.310  24.507  25.728  1.00  0.00     0.030 C 
ATOM     73  C   UNL A   1      33.707  23.274  23.137  1.00  0.00     0.103 C 
ATOM     74  C   UNL A   1      33.532  23.207  25.698  1.00  0.00     0.103 C 
ATOM     75  N   UNL A   1      33.543  22.471  24.410  1.00  0.00    -0.198 NA
BRANCH  75  76
ATOM     76  S   UNL A   1      32.288  21.271  24.148  1.00  0.00     0.243 S 
ATOM     77  O   UNL A   1      31.413  21.282  25.302  1.00  0.00    -0.207 OA
ATOM     78  O   UNL A   1      31.735  21.573  22.841  1.00  0.00    -0.207 OA
BRANCH  76  79
ATOM     79  C   UNL A   1      32.954  19.621  24.097  1.00  0.00     0.082 A 
ATOM     80  C   UNL A   1      34.199  19.404  24.698  1.00  0.00     0.022 A 
ATOM     81  C   UNL A   1      32.428  18.639  23.248  1.00  0.00     0.022 A 
ATOM     82  C   UNL A   1      34.884  18.204  24.482  1.00  0.00     0.001 A 
ATOM     83  C   UNL A   1      33.091  17.423  23.072  1.00  0.00     0.001 A 
ATOM     84  C   UNL A   1      34.322  17.209  23.683  1.00  0.00     0.000 A 
ENDBRANCH  76  79
ENDBRANCH  75  76
ENDBRANCH  68  70
ENDBRANCH  66  68
ENDBRANCH  60  62
ENDBRANCH  59  60
ENDBRANCH  58  59
ENDBRANCH   1  58
TORSDOF 18
ENDMDL
MODEL 3
REMARK VINA RESULT:     -11.3      2.597      6.992
REMARK SMILES O=C(OCCOCCOC(=O)[C@H]1CCCN(C(=O)C2CCN(S(=O)(=O)c3ccccc3)CC2)C1)c1ccc(-c2c3nc(c(-c4ccccc4)c4ccc([nH]4)c(-c4ccccc4)c4nc(c(-c5ccccc5)c5ccc2[nH]5)C=C4)C=C3)cc1
REMARK SMILES IDX 7 1 6 2 5 3 4 4 3 5 2 6 1 7 35 8 36 9 82 10 37 11 81 12
REMARK SMILES IDX 38 13 39 14 40 15 75 16 41 17 80 18 74 19 76 20 42 21 79 22
REMARK SMILES IDX 73 23 72 24 43 26 65 27 50 28 64 29 51 30 54 31 63 32 77 33
REMARK SMILES IDX 52 34 53 35 62 37 78 38 55 39 44 40 45 41 49 42 46 43 48 44
REMARK SMILES IDX 47 45 66 46 67 47 71 48 68 49 70 50 69 51 56 52 57 53 61 54
REMARK SMILES IDX 58 55 60 56 59 57 8 58 9 59 10 60 11 61 12 62 13 63 34 64
REMARK SMILES IDX 14 65 16 66 15 67 17 68 18 69 19 70 20 71 33 72 21 73 32 74
REMARK SMILES IDX 22 75 23 76 24 77 25 78 26 79 27 80 31 81 28 82 30 83 29 84
REMARK H PARENT 76 25 54 36
REMARK Flexibility Score: inf
ROOT
ATOM      1  C   UNL A   1      34.241  33.954  28.499  1.00  0.00     0.202 C 
ENDROOT
BRANCH   1   2
ATOM      2  O   UNL A   1      32.952  34.525  28.770  1.00  0.00    -0.374 OA
BRANCH   2   3
ATOM      3  C   UNL A   1      32.876  35.953  28.700  1.00  0.00     0.202 C 
BRANCH   3   4
ATOM      4  C   UNL A   1      33.532  36.706  29.862  1.00  0.00     0.261 C 
BRANCH   4   5
ATOM      5  O   UNL A   1      32.698  36.663  31.032  1.00  0.00    -0.460 OA
BRANCH   5   6
ATOM      6  C   UNL A   1      32.654  35.708  31.993  1.00  0.00     0.338 C 
ATOM      7  O   UNL A   1      31.570  35.430  32.502  1.00  0.00    -0.246 OA
BRANCH   6   8
ATOM      8  C   UNL A   1      33.865  34.982  32.483  1.00  0.00     0.060 A 
ATOM      9  C   UNL A   1      35.129  35.552  32.622  1.00  0.00     0.016 A 
ATOM     10  C   UNL A   1      33.694  33.653  32.906  1.00  0.00     0.016 A 
ATOM     11  C   UNL A   1      36.217  34.811  33.050  1.00  0.00     0.010 A 
ATOM     12  C   UNL A   1      34.773  32.911  33.401  1.00  0.00     0.010 A 
ATOM     13  C   UNL A   1      36.046  33.486  33.445  1.00  0.00    -0.014 A 
BRANCH  13  14
ATOM     14  C   UNL A   1      37.257  32.733  33.813  1.00  0.00     0.031 A 
ATOM     15  C   UNL A   1      37.861  31.803  32.809  1.00  0.00     0.074 A 
ATOM     16  C   UNL A   1      37.894  33.042  34.958  1.00  0.00     0.049 A 
ATOM     17  N   UNL A   1      38.949  31.087  32.898  1.00  0.00    -0.248 NA
ATOM     18  C   UNL A   1      37.160  31.679  31.518  1.00  0.00     0.031 C 
ATOM     19  C   UNL A   1      37.439  34.037  35.934  1.00  0.00     0.029 A 
ATOM     20  N   UNL A   1      39.086  32.600  35.464  1.00  0.00    -0.354 N 
ATOM     21  C   UNL A   1      39.055  30.418  31.687  1.00  0.00     0.074 A 
ATOM     22  C   UNL A   1      37.921  30.806  30.878  1.00  0.00     0.031 C 
ATOM     23  C   UNL A   1      38.370  34.169  36.891  1.00  0.00     0.029 A 
ATOM     24  C   UNL A   1      39.447  33.222  36.635  1.00  0.00     0.049 A 
ATOM     25  H   UNL A   1      39.632  31.905  35.031  1.00  0.00     0.167 HD
ATOM     26  C   UNL A   1      40.015  29.551  31.291  1.00  0.00     0.031 A 
ATOM     27  C   UNL A   1      40.523  33.027  37.419  1.00  0.00     0.031 A 
ATOM     28  C   UNL A   1      41.122  29.163  32.119  1.00  0.00     0.049 A 
ATOM     29  C   UNL A   1      41.521  31.986  36.999  1.00  0.00     0.074 A 
ATOM     30  C   UNL A   1      42.092  28.207  31.884  1.00  0.00     0.029 A 
ATOM     31  N   UNL A   1      41.406  29.733  33.353  1.00  0.00    -0.354 N 
ATOM     32  N   UNL A   1      41.557  31.275  35.896  1.00  0.00    -0.248 NA
ATOM     33  C   UNL A   1      42.614  31.704  37.937  1.00  0.00     0.031 C 
ATOM     34  C   UNL A   1      42.945  28.175  32.994  1.00  0.00     0.029 A 
ATOM     35  C   UNL A   1      42.531  29.143  33.898  1.00  0.00     0.049 A 
ATOM     36  H   UNL A   1      40.883  30.452  33.777  1.00  0.00     0.167 HD
ATOM     37  C   UNL A   1      42.670  30.456  36.010  1.00  0.00     0.074 A 
ATOM     38  C   UNL A   1      43.304  30.788  37.271  1.00  0.00     0.031 C 
ATOM     39  C   UNL A   1      43.121  29.500  35.161  1.00  0.00     0.031 A 
BRANCH  26  40
ATOM     40  C   UNL A   1      39.845  28.926  29.939  1.00  0.00    -0.014 A 
ATOM     41  C   UNL A   1      39.166  27.708  29.778  1.00  0.00     0.009 A 
ATOM     42  C   UNL A   1      40.409  29.546  28.813  1.00  0.00     0.009 A 
ATOM     43  C   UNL A   1      39.083  27.108  28.519  1.00  0.00     0.001 A 
ATOM     44  C   UNL A   1      40.307  28.953  27.554  1.00  0.00     0.001 A 
ATOM     45  C   UNL A   1      39.653  27.731  27.409  1.00  0.00     0.000 A 
ENDBRANCH  26  40
BRANCH  27  46
ATOM     46  C   UNL A   1      40.670  33.771  38.699  1.00  0.00    -0.014 A 
ATOM     47  C   UNL A   1      41.362  34.989  38.755  1.00  0.00     0.009 A 
ATOM     48  C   UNL A   1      40.127  33.247  39.884  1.00  0.00     0.009 A 
ATOM     49  C   UNL A   1      41.527  35.654  39.975  1.00  0.00     0.001 A 
ATOM     50  C   UNL A   1      40.265  33.928  41.095  1.00  0.00     0.001 A 
ATOM     51  C   UNL A   1      40.975  35.126  41.141  1.00  0.00     0.000 A 
ENDBRANCH  27  46
BRANCH  39  52
ATOM     52  C   UNL A   1      44.354  28.761  35.586  1.00  0.00    -0.014 A 
ATOM     53  C   UNL A   1      45.599  29.052  35.007  1.00  0.00     0.009 A 
ATOM     54  C   UNL A   1      44.272  27.784  36.587  1.00  0.00     0.009 A 
ATOM     55  C   UNL A   1      46.737  28.351  35.405  1.00  0.00     0.001 A 
ATOM     56  C   UNL A   1      45.416  27.102  36.999  1.00  0.00     0.001 A 
ATOM     57  C   UNL A   1      46.645  27.380  36.400  1.00  0.00     0.000 A 
ENDBRANCH  39  52
ENDBRANCH  13  14
ENDBRANCH   6   8
ENDBRANCH   5   6
ENDBRANCH   4   5
ENDBRANCH   3   4
ENDBRANCH   2   3
ENDBRANCH   1   2
BRANCH   1  58
ATOM     58  C   UNL A   1      34.272  32.506  29.002  1.00  0.00     0.261 C 
BRANCH  58  59
ATOM     59  O   UNL A   1      33.779  31.672  27.950  1.00  0.00    -0.463 OA
BRANCH  59  60
ATOM     60  C   UNL A   1      34.733  30.831  27.457  1.00  0.00     0.310 C 
ATOM     61  O   UNL A   1      35.911  30.853  27.783  1.00  0.00    -0.252 OA
BRANCH  60  62
ATOM     62  C   UNL A   1      34.078  29.812  26.552  1.00  0.00     0.119 C 
ATOM     63  C   UNL A   1      34.045  28.452  27.255  1.00  0.00     0.019 C 
ATOM     64  C   UNL A   1      32.727  30.349  26.042  1.00  0.00     0.134 C 
ATOM     65  C   UNL A   1      33.137  27.500  26.512  1.00  0.00     0.022 C 
ATOM     66  N   UNL A   1      31.859  29.292  25.506  1.00  0.00    -0.342 N 
ATOM     67  C   UNL A   1      31.776  28.161  26.388  1.00  0.00     0.119 C 
BRANCH  66  68
ATOM     68  C   UNL A   1      31.207  29.441  24.295  1.00  0.00     0.225 C 
ATOM     69  O   UNL A   1      30.149  30.086  24.254  1.00  0.00    -0.275 OA
BRANCH  68  70
ATOM     70  C   UNL A   1      31.726  28.850  22.946  1.00  0.00     0.081 C 
ATOM     71  C   UNL A   1      30.923  27.758  22.255  1.00  0.00     0.030 C 
ATOM     72  C   UNL A   1      33.211  28.573  22.800  1.00  0.00     0.030 C 
ATOM     73  C   UNL A   1      31.374  26.314  22.452  1.00  0.00     0.103 C 
ATOM     74  C   UNL A   1      33.647  27.196  23.258  1.00  0.00     0.103 C 
ATOM     75  N   UNL A   1      32.833  26.057  22.766  1.00  0.00    -0.198 NA
BRANCH  75  76
ATOM     76  S   UNL A   1      32.951  24.537  23.636  1.00  0.00     0.243 S 
ATOM     77  O   UNL A   1      32.263  24.693  24.902  1.00  0.00    -0.207 OA
ATOM     78  O   UNL A   1      32.492  23.525  22.705  1.00  0.00    -0.207 OA
BRANCH  76  79
ATOM     79  C   UNL A   1      34.634  24.159  24.077  1.00  0.00     0.082 A 
ATOM     80  C   UNL A   1      35.355  23.314  23.225  1.00  0.00     0.022 A 
ATOM     81  C   UNL A   1      35.141  24.432  25.354  1.00  0.00     0.022 A 
ATOM     82  C   UNL A   1      36.583  22.786  23.634  1.00  0.00     0.001 A 
ATOM     83  C   UNL A   1      36.390  23.941  25.741  1.00  0.00     0.001 A 
ATOM     84  C   UNL A   1      37.106  23.113  24.884  1.00  0.00     0.000 A 
ENDBRANCH  76  79
ENDBRANCH  75  76
ENDBRANCH  68  70
ENDBRANCH  66  68
ENDBRANCH  60  62
ENDBRANCH  59  60
ENDBRANCH  58  59
ENDBRANCH   1  58
TORSDOF 18
ENDMDL
