MODEL 1
REMARK VINA RESULT:      -9.9      0.000      0.000
REMARK SMILES Cc1nc(/C=C/C(=O)N2CCC[C@@H]2C(=O)OCCOCCOC(=O)c2ccc(-c3c4nc(c(-c5ccccc5)c5ccc([nH]5)c(-c5ccccc5)c5nc(c(-c6ccccc6)c6ccc3[nH]6)C=C5)C=C4)cc2)cs1
REMARK SMILES IDX 18 1 17 2 16 3 14 4 15 5 13 6 9 7 10 8 11 9 12 10 7 11 8 12
REMARK SMILES IDX 6 13 5 14 4 15 1 16 2 17 3 18 74 19 73 20 19 21 20 22 21 23
REMARK SMILES IDX 22 24 23 25 24 26 25 27 26 28 72 29 27 30 71 31 28 32 29 33
REMARK SMILES IDX 30 34 65 35 31 36 70 37 64 38 66 39 32 40 69 41 63 42 62 43
REMARK SMILES IDX 33 45 55 46 40 47 54 48 41 49 44 50 53 51 67 52 42 53 43 54
REMARK SMILES IDX 52 56 68 57 45 58 34 59 35 60 39 61 36 62 38 63 37 64 56 65
REMARK SMILES IDX 57 66 61 67 58 68 60 69 59 70 46 71 47 72 51 73 48 74 50 75
REMARK SMILES IDX 49 76
REMARK H PARENT 66 44 44 55
REMARK Flexibility Score: inf
ROOT
ATOM      1  C   UNL A   1      37.009  22.848  24.958  1.00  0.00     0.202 C 
ENDROOT
BRANCH   1   2
ATOM      2  C   UNL A   1      35.884  23.731  24.404  1.00  0.00     0.261 C 
BRANCH   2   3
ATOM      3  O   UNL A   1      35.179  24.469  25.420  1.00  0.00    -0.462 OA
BRANCH   3   4
ATOM      4  C   UNL A   1      33.858  24.693  25.158  1.00  0.00     0.328 C 
ATOM      5  O   UNL A   1      33.444  25.522  24.354  1.00  0.00    -0.250 OA
BRANCH   4   6
ATOM      6  C   UNL A   1      32.935  23.705  25.884  1.00  0.00     0.195 C 
ATOM      7  N   UNL A   1      32.080  22.927  24.995  1.00  0.00    -0.325 N 
ATOM      8  C   UNL A   1      30.784  22.707  25.612  1.00  0.00     0.121 C 
ATOM      9  C   UNL A   1      30.546  23.997  26.361  1.00  0.00     0.024 C 
ATOM     10  C   UNL A   1      31.942  24.396  26.845  1.00  0.00     0.039 C 
BRANCH   7  11
ATOM     11  C   UNL A   1      32.634  22.177  23.990  1.00  0.00     0.247 C 
ATOM     12  O   UNL A   1      32.555  22.475  22.803  1.00  0.00    -0.270 OA
BRANCH  11  13
ATOM     13  C   UNL A   1      33.269  20.893  24.358  1.00  0.00     0.073 C 
ATOM     14  C   UNL A   1      32.570  19.748  24.334  1.00  0.00     0.035 C 
BRANCH  14  15
ATOM     15  C   UNL A   1      33.083  18.449  24.583  1.00  0.00     0.074 A 
ATOM     16  C   UNL A   1      32.220  15.150  25.834  1.00  0.00     0.079 C 
ATOM     17  C   UNL A   1      32.842  16.374  25.262  1.00  0.00     0.090 A 
ATOM     18  N   UNL A   1      32.208  17.513  25.085  1.00  0.00    -0.242 NA
ATOM     19  S   UNL A   1      34.495  16.361  24.782  1.00  0.00    -0.127 S 
ATOM     20  C   UNL A   1      34.366  18.013  24.339  1.00  0.00     0.095 A 
ENDBRANCH  14  15
ENDBRANCH  11  13
ENDBRANCH   7  11
ENDBRANCH   4   6
ENDBRANCH   3   4
ENDBRANCH   2   3
ENDBRANCH   1   2
BRANCH   1  21
ATOM     21  O   UNL A   1      37.415  21.732  24.168  1.00  0.00    -0.374 OA
BRANCH  21  22
ATOM     22  C   UNL A   1      37.230  20.433  24.724  1.00  0.00     0.202 C 
BRANCH  22  23
ATOM     23  C   UNL A   1      38.501  19.684  25.138  1.00  0.00     0.261 C 
BRANCH  23  24
ATOM     24  O   UNL A   1      39.263  20.416  26.116  1.00  0.00    -0.460 OA
BRANCH  24  25
ATOM     25  C   UNL A   1      40.581  20.111  26.143  1.00  0.00     0.338 C 
ATOM     26  O   UNL A   1      41.116  19.091  25.723  1.00  0.00    -0.246 OA
BRANCH  25  27
ATOM     27  C   UNL A   1      41.369  21.263  26.612  1.00  0.00     0.060 A 
ATOM     28  C   UNL A   1      41.320  21.555  27.981  1.00  0.00     0.016 A 
ATOM     29  C   UNL A   1      42.070  22.094  25.734  1.00  0.00     0.016 A 
ATOM     30  C   UNL A   1      41.918  22.714  28.469  1.00  0.00     0.010 A 
ATOM     31  C   UNL A   1      42.664  23.262  26.225  1.00  0.00     0.010 A 
ATOM     32  C   UNL A   1      42.555  23.597  27.588  1.00  0.00    -0.014 A 
BRANCH  32  33
ATOM     33  C   UNL A   1      42.966  24.934  28.081  1.00  0.00     0.031 A 
ATOM     34  C   UNL A   1      41.914  25.983  28.316  1.00  0.00     0.074 A 
ATOM     35  C   UNL A   1      44.253  25.199  28.361  1.00  0.00     0.049 A 
ATOM     36  N   UNL A   1      42.047  27.201  28.777  1.00  0.00    -0.248 NA
ATOM     37  C   UNL A   1      40.529  25.608  27.990  1.00  0.00     0.031 C 
ATOM     38  C   UNL A   1      45.363  24.262  28.203  1.00  0.00     0.029 A 
ATOM     39  N   UNL A   1      44.838  26.343  28.841  1.00  0.00    -0.354 N 
ATOM     40  C   UNL A   1      40.767  27.739  28.794  1.00  0.00     0.074 A 
ATOM     41  C   UNL A   1      39.875  26.727  28.267  1.00  0.00     0.031 C 
ATOM     42  C   UNL A   1      46.502  24.875  28.570  1.00  0.00     0.029 A 
ATOM     43  C   UNL A   1      46.201  26.248  28.969  1.00  0.00     0.049 A 
ATOM     44  H   UNL A   1      44.329  27.154  29.070  1.00  0.00     0.167 HD
ATOM     45  C   UNL A   1      40.363  28.961  29.216  1.00  0.00     0.031 A 
ATOM     46  C   UNL A   1      47.106  27.169  29.352  1.00  0.00     0.031 A 
ATOM     47  C   UNL A   1      41.245  29.977  29.724  1.00  0.00     0.049 A 
ATOM     48  C   UNL A   1      46.645  28.540  29.764  1.00  0.00     0.074 A 
ATOM     49  C   UNL A   1      40.927  31.237  30.200  1.00  0.00     0.029 A 
ATOM     50  N   UNL A   1      42.622  29.853  29.808  1.00  0.00    -0.354 N 
ATOM     51  N   UNL A   1      45.425  29.020  29.817  1.00  0.00    -0.248 NA
ATOM     52  C   UNL A   1      47.686  29.492  30.179  1.00  0.00     0.031 C 
ATOM     53  C   UNL A   1      42.120  31.896  30.523  1.00  0.00     0.029 A 
ATOM     54  C   UNL A   1      43.174  31.025  30.297  1.00  0.00     0.049 A 
ATOM     55  H   UNL A   1      43.134  29.050  29.557  1.00  0.00     0.167 HD
ATOM     56  C   UNL A   1      45.551  30.322  30.287  1.00  0.00     0.074 A 
ATOM     57  C   UNL A   1      46.962  30.550  30.519  1.00  0.00     0.031 C 
ATOM     58  C   UNL A   1      44.581  31.245  30.507  1.00  0.00     0.031 A 
BRANCH  45  59
ATOM     59  C   UNL A   1      38.897  29.272  29.105  1.00  0.00    -0.014 A 
ATOM     60  C   UNL A   1      38.030  29.103  30.197  1.00  0.00     0.009 A 
ATOM     61  C   UNL A   1      38.377  29.747  27.892  1.00  0.00     0.009 A 
ATOM     62  C   UNL A   1      36.665  29.365  30.062  1.00  0.00     0.001 A 
ATOM     63  C   UNL A   1      37.017  30.032  27.767  1.00  0.00     0.001 A 
ATOM     64  C   UNL A   1      36.160  29.831  28.849  1.00  0.00     0.000 A 
ENDBRANCH  45  59
BRANCH  46  65
ATOM     65  C   UNL A   1      48.550  26.824  29.343  1.00  0.00    -0.014 A 
ATOM     66  C   UNL A   1      49.346  27.082  28.216  1.00  0.00     0.009 A 
ATOM     67  C   UNL A   1      49.141  26.237  30.473  1.00  0.00     0.009 A 
ATOM     68  C   UNL A   1      50.702  26.747  28.219  1.00  0.00     0.001 A 
ATOM     69  C   UNL A   1      50.501  25.927  30.483  1.00  0.00     0.001 A 
ATOM     70  C   UNL A   1      51.279  26.175  29.354  1.00  0.00     0.000 A 
ENDBRANCH  46  65
BRANCH  58  71
ATOM     71  C   UNL A   1      45.015  32.583  31.038  1.00  0.00    -0.014 A 
ATOM     72  C   UNL A   1      45.336  33.639  30.170  1.00  0.00     0.009 A 
ATOM     73  C   UNL A   1      45.071  32.800  32.424  1.00  0.00     0.009 A 
ATOM     74  C   UNL A   1      45.734  34.876  30.682  1.00  0.00     0.001 A 
ATOM     75  C   UNL A   1      45.443  34.045  32.931  1.00  0.00     0.001 A 
ATOM     76  C   UNL A   1      45.783  35.079  32.060  1.00  0.00     0.000 A 
ENDBRANCH  58  71
ENDBRANCH  32  33
ENDBRANCH  25  27
ENDBRANCH  24  25
ENDBRANCH  23  24
ENDBRANCH  22  23
ENDBRANCH  21  22
ENDBRANCH   1  21
TORSDOF 17
ENDMDL
MODEL 2
REMARK VINA RESULT:      -9.7      5.161      9.778
REMARK SMILES Cc1nc(/C=C/C(=O)N2CCC[C@@H]2C(=O)OCCOCCOC(=O)c2ccc(-c3c4nc(c(-c5ccccc5)c5ccc([nH]5)c(-c5ccccc5)c5nc(c(-c6ccccc6)c6ccc3[nH]6)C=C5)C=C4)cc2)cs1
REMARK SMILES IDX 18 1 17 2 16 3 14 4 15 5 13 6 9 7 10 8 11 9 12 10 7 11 8 12
REMARK SMILES IDX 6 13 5 14 4 15 1 16 2 17 3 18 74 19 73 20 19 21 20 22 21 23
REMARK SMILES IDX 22 24 23 25 24 26 25 27 26 28 72 29 27 30 71 31 28 32 29 33
REMARK SMILES IDX 30 34 65 35 31 36 70 37 64 38 66 39 32 40 69 41 63 42 62 43
REMARK SMILES IDX 33 45 55 46 40 47 54 48 41 49 44 50 53 51 67 52 42 53 43 54
REMARK SMILES IDX 52 56 68 57 45 58 34 59 35 60 39 61 36 62 38 63 37 64 56 65
REMARK SMILES IDX 57 66 61 67 58 68 60 69 59 70 46 71 47 72 51 73 48 74 50 75
REMARK SMILES IDX 49 76
REMARK H PARENT 66 44 44 55
REMARK Flexibility Score: inf
ROOT
ATOM      1  C   UNL A   1      32.833  29.771  25.534  1.00  0.00     0.202 C 
ENDROOT
BRANCH   1   2
ATOM      2  C   UNL A   1      33.963  28.738  25.637  1.00  0.00     0.261 C 
BRANCH   2   3
ATOM      3  O   UNL A   1      33.602  27.566  26.393  1.00  0.00    -0.462 OA
BRANCH   3   4
ATOM      4  C   UNL A   1      32.999  26.577  25.670  1.00  0.00     0.328 C 
ATOM      5  O   UNL A   1      31.793  26.359  25.668  1.00  0.00    -0.250 OA
BRANCH   4   6
ATOM      6  C   UNL A   1      33.979  25.837  24.750  1.00  0.00     0.195 C 
ATOM      7  N   UNL A   1      33.526  25.719  23.369  1.00  0.00    -0.325 N 
ATOM      8  C   UNL A   1      33.939  24.442  22.813  1.00  0.00     0.121 C 
ATOM      9  C   UNL A   1      33.821  23.508  23.993  1.00  0.00     0.024 C 
ATOM     10  C   UNL A   1      34.235  24.377  25.184  1.00  0.00     0.039 C 
BRANCH   7  11
ATOM     11  C   UNL A   1      33.193  26.841  22.655  1.00  0.00     0.247 C 
ATOM     12  O   UNL A   1      34.023  27.604  22.171  1.00  0.00    -0.270 OA
BRANCH  11  13
ATOM     13  C   UNL A   1      31.761  27.196  22.556  1.00  0.00     0.073 C 
ATOM     14  C   UNL A   1      31.358  28.470  22.678  1.00  0.00     0.035 C 
BRANCH  14  15
ATOM     15  C   UNL A   1      30.031  28.945  22.521  1.00  0.00     0.074 A 
ATOM     16  C   UNL A   1      27.984  31.391  20.782  1.00  0.00     0.079 C 
ATOM     17  C   UNL A   1      28.558  30.292  21.603  1.00  0.00     0.090 A 
ATOM     18  N   UNL A   1      29.833  29.970  21.624  1.00  0.00    -0.242 NA
ATOM     19  S   UNL A   1      27.536  29.344  22.614  1.00  0.00    -0.127 S 
ATOM     20  C   UNL A   1      28.906  28.461  23.150  1.00  0.00     0.095 A 
ENDBRANCH  14  15
ENDBRANCH  11  13
ENDBRANCH   7  11
ENDBRANCH   4   6
ENDBRANCH   3   4
ENDBRANCH   2   3
ENDBRANCH   1   2
BRANCH   1  21
ATOM     21  O   UNL A   1      32.804  30.808  26.514  1.00  0.00    -0.374 OA
BRANCH  21  22
ATOM     22  C   UNL A   1      31.653  31.647  26.544  1.00  0.00     0.202 C 
BRANCH  22  23
ATOM     23  C   UNL A   1      31.913  33.150  26.707  1.00  0.00     0.261 C 
BRANCH  23  24
ATOM     24  O   UNL A   1      32.124  33.514  28.083  1.00  0.00    -0.460 OA
BRANCH  24  25
ATOM     25  C   UNL A   1      33.154  34.367  28.286  1.00  0.00     0.338 C 
ATOM     26  O   UNL A   1      33.110  35.592  28.307  1.00  0.00    -0.246 OA
BRANCH  25  27
ATOM     27  C   UNL A   1      34.373  33.628  28.655  1.00  0.00     0.060 A 
ATOM     28  C   UNL A   1      34.207  32.328  29.149  1.00  0.00     0.016 A 
ATOM     29  C   UNL A   1      35.641  34.212  28.608  1.00  0.00     0.016 A 
ATOM     30  C   UNL A   1      35.298  31.629  29.656  1.00  0.00     0.010 A 
ATOM     31  C   UNL A   1      36.736  33.510  29.124  1.00  0.00     0.010 A 
ATOM     32  C   UNL A   1      36.562  32.233  29.688  1.00  0.00    -0.014 A 
BRANCH  32  33
ATOM     33  C   UNL A   1      37.653  31.578  30.449  1.00  0.00     0.031 A 
ATOM     34  C   UNL A   1      38.522  30.563  29.759  1.00  0.00     0.074 A 
ATOM     35  C   UNL A   1      37.901  31.916  31.726  1.00  0.00     0.049 A 
ATOM     36  N   UNL A   1      39.550  29.900  30.223  1.00  0.00    -0.248 NA
ATOM     37  C   UNL A   1      38.187  30.256  28.359  1.00  0.00     0.031 C 
ATOM     38  C   UNL A   1      37.152  32.904  32.500  1.00  0.00     0.029 A 
ATOM     39  N   UNL A   1      38.860  31.460  32.594  1.00  0.00    -0.354 N 
ATOM     40  C   UNL A   1      39.983  29.096  29.176  1.00  0.00     0.074 A 
ATOM     41  C   UNL A   1      39.087  29.330  28.064  1.00  0.00     0.031 C 
ATOM     42  C   UNL A   1      37.675  32.971  33.736  1.00  0.00     0.029 A 
ATOM     43  C   UNL A   1      38.779  32.021  33.844  1.00  0.00     0.049 A 
ATOM     44  H   UNL A   1      39.541  30.793  32.344  1.00  0.00     0.167 HD
ATOM     45  C   UNL A   1      41.036  28.244  29.137  1.00  0.00     0.031 A 
ATOM     46  C   UNL A   1      39.504  31.784  34.953  1.00  0.00     0.031 A 
ATOM     47  C   UNL A   1      41.920  27.994  30.244  1.00  0.00     0.049 A 
ATOM     48  C   UNL A   1      40.634  30.793  34.906  1.00  0.00     0.074 A 
ATOM     49  C   UNL A   1      43.029  27.168  30.293  1.00  0.00     0.029 A 
ATOM     50  N   UNL A   1      41.784  28.558  31.502  1.00  0.00    -0.354 N 
ATOM     51  N   UNL A   1      41.061  30.072  33.896  1.00  0.00    -0.248 NA
ATOM     52  C   UNL A   1      41.390  30.591  36.151  1.00  0.00     0.031 C 
ATOM     53  C   UNL A   1      43.535  27.192  31.598  1.00  0.00     0.029 A 
ATOM     54  C   UNL A   1      42.770  28.073  32.346  1.00  0.00     0.049 A 
ATOM     55  H   UNL A   1      41.090  29.207  31.759  1.00  0.00     0.167 HD
ATOM     56  C   UNL A   1      42.143  29.346  34.379  1.00  0.00     0.074 A 
ATOM     57  C   UNL A   1      42.318  29.725  35.765  1.00  0.00     0.031 C 
ATOM     58  C   UNL A   1      42.922  28.446  33.728  1.00  0.00     0.031 A 
BRANCH  45  59
ATOM     59  C   UNL A   1      41.259  27.492  27.855  1.00  0.00    -0.014 A 
ATOM     60  C   UNL A   1      42.017  28.042  26.809  1.00  0.00     0.009 A 
ATOM     61  C   UNL A   1      40.707  26.212  27.696  1.00  0.00     0.009 A 
ATOM     62  C   UNL A   1      42.182  27.340  25.612  1.00  0.00     0.001 A 
ATOM     63  C   UNL A   1      40.895  25.502  26.509  1.00  0.00     0.001 A 
ATOM     64  C   UNL A   1      41.623  26.071  25.465  1.00  0.00     0.000 A 
ENDBRANCH  45  59
BRANCH  46  65
ATOM     65  C   UNL A   1      39.165  32.491  36.214  1.00  0.00    -0.014 A 
ATOM     66  C   UNL A   1      39.760  33.721  36.533  1.00  0.00     0.009 A 
ATOM     67  C   UNL A   1      38.233  31.935  37.104  1.00  0.00     0.009 A 
ATOM     68  C   UNL A   1      39.436  34.372  37.726  1.00  0.00     0.001 A 
ATOM     69  C   UNL A   1      37.892  32.600  38.282  1.00  0.00     0.001 A 
ATOM     70  C   UNL A   1      38.499  33.813  38.596  1.00  0.00     0.000 A 
ENDBRANCH  46  65
BRANCH  58  71
ATOM     71  C   UNL A   1      44.043  27.818  34.509  1.00  0.00    -0.014 A 
ATOM     72  C   UNL A   1      43.862  26.608  35.196  1.00  0.00     0.009 A 
ATOM     73  C   UNL A   1      45.308  28.429  34.528  1.00  0.00     0.009 A 
ATOM     74  C   UNL A   1      44.916  26.039  35.912  1.00  0.00     0.001 A 
ATOM     75  C   UNL A   1      46.366  27.844  35.223  1.00  0.00     0.001 A 
ATOM     76  C   UNL A   1      46.167  26.654  35.923  1.00  0.00     0.000 A 
ENDBRANCH  58  71
ENDBRANCH  32  33
ENDBRANCH  25  27
ENDBRANCH  24  25
ENDBRANCH  23  24
ENDBRANCH  22  23
ENDBRANCH  21  22
ENDBRANCH   1  21
TORSDOF 17
ENDMDL
MODEL 3
REMARK VINA RESULT:      -9.7      5.235      9.168
REMARK SMILES Cc1nc(/C=C/C(=O)N2CCC[C@@H]2C(=O)OCCOCCOC(=O)c2ccc(-c3c4nc(c(-c5ccccc5)c5ccc([nH]5)c(-c5ccccc5)c5nc(c(-c6ccccc6)c6ccc3[nH]6)C=C5)C=C4)cc2)cs1
REMARK SMILES IDX 18 1 17 2 16 3 14 4 15 5 13 6 9 7 10 8 11 9 12 10 7 11 8 12
REMARK SMILES IDX 6 13 5 14 4 15 1 16 2 17 3 18 74 19 73 20 19 21 20 22 21 23
REMARK SMILES IDX 22 24 23 25 24 26 25 27 26 28 72 29 27 30 71 31 28 32 29 33
REMARK SMILES IDX 30 34 65 35 31 36 70 37 64 38 66 39 32 40 69 41 63 42 62 43
REMARK SMILES IDX 33 45 55 46 40 47 54 48 41 49 44 50 53 51 67 52 42 53 43 54
REMARK SMILES IDX 52 56 68 57 45 58 34 59 35 60 39 61 36 62 38 63 37 64 56 65
REMARK SMILES IDX 57 66 61 67 58 68 60 69 59 70 46 71 47 72 51 73 48 74 50 75
REMARK SMILES IDX 49 76
REMARK H PARENT 66 44 44 55
REMARK Flexibility Score: inf
ROOT
ATOM      1  C   UNL A   1      32.728  29.242  26.494  1.00  0.00     0.202 C 
ENDROOT
BRANCH   1   2
ATOM      2  C   UNL A   1      31.767  28.149  26.005  1.00  0.00     0.261 C 
BRANCH   2   3
ATOM      3  O   UNL A   1      32.056  26.846  26.548  1.00  0.00    -0.462 OA
BRANCH   3   4
ATOM      4  C   UNL A   1      32.038  25.827  25.639  1.00  0.00     0.328 C 
ATOM      5  O   UNL A   1      31.604  24.704  25.869  1.00  0.00    -0.250 OA
BRANCH   4   6
ATOM      6  C   UNL A   1      32.504  26.270  24.246  1.00  0.00     0.195 C 
ATOM      7  N   UNL A   1      31.516  26.062  23.194  1.00  0.00    -0.325 N 
ATOM      8  C   UNL A   1      32.174  25.679  21.957  1.00  0.00     0.121 C 
ATOM      9  C   UNL A   1      33.325  24.828  22.438  1.00  0.00     0.024 C 
ATOM     10  C   UNL A   1      33.747  25.499  23.748  1.00  0.00     0.039 C 
BRANCH   7  11
ATOM     11  C   UNL A   1      30.265  26.609  23.307  1.00  0.00     0.247 C 
ATOM     12  O   UNL A   1      29.336  26.056  23.889  1.00  0.00    -0.270 OA
BRANCH  11  13
ATOM     13  C   UNL A   1      30.002  27.883  22.603  1.00  0.00     0.073 C 
ATOM     14  C   UNL A   1      29.080  28.744  23.061  1.00  0.00     0.035 C 
BRANCH  14  15
ATOM     15  C   UNL A   1      28.796  30.026  22.526  1.00  0.00     0.074 A 
ATOM     16  C   UNL A   1      29.013  33.590  23.192  1.00  0.00     0.079 C 
ATOM     17  C   UNL A   1      28.819  32.219  22.650  1.00  0.00     0.090 A 
ATOM     18  N   UNL A   1      29.155  31.117  23.284  1.00  0.00    -0.242 NA
ATOM     19  S   UNL A   1      28.112  31.996  21.096  1.00  0.00    -0.127 S 
ATOM     20  C   UNL A   1      28.228  30.297  21.301  1.00  0.00     0.095 A 
ENDBRANCH  14  15
ENDBRANCH  11  13
ENDBRANCH   7  11
ENDBRANCH   4   6
ENDBRANCH   3   4
ENDBRANCH   2   3
ENDBRANCH   1   2
BRANCH   1  21
ATOM     21  O   UNL A   1      32.160  30.344  27.199  1.00  0.00    -0.374 OA
BRANCH  21  22
ATOM     22  C   UNL A   1      31.583  31.390  26.423  1.00  0.00     0.202 C 
BRANCH  22  23
ATOM     23  C   UNL A   1      31.579  32.785  27.059  1.00  0.00     0.261 C 
BRANCH  23  24
ATOM     24  O   UNL A   1      32.858  33.434  26.942  1.00  0.00    -0.460 OA
BRANCH  24  25
ATOM     25  C   UNL A   1      33.393  33.837  28.117  1.00  0.00     0.338 C 
ATOM     26  O   UNL A   1      32.889  34.590  28.942  1.00  0.00    -0.246 OA
BRANCH  25  27
ATOM     27  C   UNL A   1      34.646  33.114  28.392  1.00  0.00     0.060 A 
ATOM     28  C   UNL A   1      34.537  31.775  28.789  1.00  0.00     0.016 A 
ATOM     29  C   UNL A   1      35.894  33.742  28.350  1.00  0.00     0.016 A 
ATOM     30  C   UNL A   1      35.666  31.077  29.207  1.00  0.00     0.010 A 
ATOM     31  C   UNL A   1      37.026  33.040  28.777  1.00  0.00     0.010 A 
ATOM     32  C   UNL A   1      36.910  31.718  29.247  1.00  0.00    -0.014 A 
BRANCH  32  33
ATOM     33  C   UNL A   1      38.046  31.045  29.922  1.00  0.00     0.031 A 
ATOM     34  C   UNL A   1      38.300  31.321  31.378  1.00  0.00     0.074 A 
ATOM     35  C   UNL A   1      38.814  30.162  29.262  1.00  0.00     0.049 A 
ATOM     36  N   UNL A   1      39.212  30.816  32.171  1.00  0.00    -0.248 NA
ATOM     37  C   UNL A   1      37.409  32.296  32.026  1.00  0.00     0.031 C 
ATOM     38  C   UNL A   1      38.656  29.785  27.859  1.00  0.00     0.029 A 
ATOM     39  N   UNL A   1      39.884  29.420  29.695  1.00  0.00    -0.354 N 
ATOM     40  C   UNL A   1      39.005  31.412  33.409  1.00  0.00     0.074 A 
ATOM     41  C   UNL A   1      37.905  32.340  33.254  1.00  0.00     0.031 C 
ATOM     42  C   UNL A   1      39.605  28.888  27.542  1.00  0.00     0.029 A 
ATOM     43  C   UNL A   1      40.445  28.643  28.713  1.00  0.00     0.049 A 
ATOM     44  H   UNL A   1      40.217  29.444  30.621  1.00  0.00     0.167 HD
ATOM     45  C   UNL A   1      39.665  31.203  34.573  1.00  0.00     0.031 A 
ATOM     46  C   UNL A   1      41.522  27.838  28.749  1.00  0.00     0.031 A 
ATOM     47  C   UNL A   1      40.770  30.296  34.729  1.00  0.00     0.049 A 
ATOM     48  C   UNL A   1      42.277  27.661  30.038  1.00  0.00     0.074 A 
ATOM     49  C   UNL A   1      41.486  29.997  35.876  1.00  0.00     0.029 A 
ATOM     50  N   UNL A   1      41.328  29.552  33.702  1.00  0.00    -0.354 N 
ATOM     51  N   UNL A   1      42.044  28.197  31.212  1.00  0.00    -0.248 NA
ATOM     52  C   UNL A   1      43.438  26.759  30.008  1.00  0.00     0.031 C 
ATOM     53  C   UNL A   1      42.513  29.110  35.530  1.00  0.00     0.029 A 
ATOM     54  C   UNL A   1      42.402  28.818  34.180  1.00  0.00     0.049 A 
ATOM     55  H   UNL A   1      41.009  29.545  32.771  1.00  0.00     0.167 HD
ATOM     56  C   UNL A   1      43.016  27.684  32.063  1.00  0.00     0.074 A 
ATOM     57  C   UNL A   1      43.831  26.784  31.275  1.00  0.00     0.031 C 
ATOM     58  C   UNL A   1      43.214  27.938  33.381  1.00  0.00     0.031 A 
BRANCH  45  59
ATOM     59  C   UNL A   1      39.223  32.008  35.763  1.00  0.00    -0.014 A 
ATOM     60  C   UNL A   1      38.194  31.560  36.606  1.00  0.00     0.009 A 
ATOM     61  C   UNL A   1      39.850  33.231  36.046  1.00  0.00     0.009 A 
ATOM     62  C   UNL A   1      37.774  32.340  37.686  1.00  0.00     0.001 A 
ATOM     63  C   UNL A   1      39.446  33.997  37.141  1.00  0.00     0.001 A 
ATOM     64  C   UNL A   1      38.402  33.556  37.953  1.00  0.00     0.000 A 
ENDBRANCH  45  59
BRANCH  46  65
ATOM     65  C   UNL A   1      41.964  27.149  27.510  1.00  0.00    -0.014 A 
ATOM     66  C   UNL A   1      41.495  25.865  27.193  1.00  0.00     0.009 A 
ATOM     67  C   UNL A   1      42.856  27.783  26.631  1.00  0.00     0.009 A 
ATOM     68  C   UNL A   1      41.923  25.226  26.027  1.00  0.00     0.001 A 
ATOM     69  C   UNL A   1      43.262  27.154  25.454  1.00  0.00     0.001 A 
ATOM     70  C   UNL A   1      42.802  25.873  25.156  1.00  0.00     0.000 A 
ENDBRANCH  46  65
BRANCH  58  71
ATOM     71  C   UNL A   1      44.351  27.221  34.054  1.00  0.00    -0.014 A 
ATOM     72  C   UNL A   1      44.238  25.873  34.430  1.00  0.00     0.009 A 
ATOM     73  C   UNL A   1      45.562  27.893  34.284  1.00  0.00     0.009 A 
ATOM     74  C   UNL A   1      45.307  25.223  35.052  1.00  0.00     0.001 A 
ATOM     75  C   UNL A   1      46.636  27.233  34.882  1.00  0.00     0.001 A 
ATOM     76  C   UNL A   1      46.504  25.901  35.274  1.00  0.00     0.000 A 
ENDBRANCH  58  71
ENDBRANCH  32  33
ENDBRANCH  25  27
ENDBRANCH  24  25
ENDBRANCH  23  24
ENDBRANCH  22  23
ENDBRANCH  21  22
ENDBRANCH   1  21
TORSDOF 17
ENDMDL
