MODEL 1
REMARK VINA RESULT:      -8.2      0.000      0.000
REMARK SMILES Cc1nc(=O)[nH]c(C)c1CC(=O)Nc1sccc1C(=O)OCCOCCOC(=O)c1ccc(-c2c3nc(c(-c4ccccc4)c4ccc([nH]4)c(-c4ccccc4)c4nc(c(-c5ccccc5)c5ccc2[nH]5)C=C4)C=C3)cc1
REMARK SMILES IDX 23 1 22 2 21 3 19 4 20 5 18 6 14 7 15 8 16 9 17 10 13 11
REMARK SMILES IDX 11 12 12 13 10 15 9 16 1 17 2 18 3 19 4 20 7 21 5 22 6 23
REMARK SMILES IDX 8 24 24 26 25 27 26 28 27 29 28 30 29 31 30 32 31 33 77 34
REMARK SMILES IDX 32 35 76 36 33 37 34 38 35 39 70 40 36 41 75 42 69 43 71 44
REMARK SMILES IDX 37 45 74 46 68 47 67 48 38 50 60 51 45 52 59 53 46 54 49 55
REMARK SMILES IDX 58 56 72 57 47 58 48 59 57 61 73 62 50 63 39 64 40 65 44 66
REMARK SMILES IDX 41 67 43 68 42 69 61 70 62 71 66 72 63 73 65 74 64 75 51 76
REMARK SMILES IDX 52 77 56 78 53 79 55 80 54 81
REMARK H PARENT 13 14 6 25 71 49 49 60
REMARK Flexibility Score: inf
ROOT
ATOM      1  C   UNL A   1      45.693  21.395  24.635  1.00  0.00     0.202 C 
ENDROOT
BRANCH   1   2
ATOM      2  C   UNL A   1      45.610  22.557  25.636  1.00  0.00     0.261 C 
BRANCH   2   3
ATOM      3  O   UNL A   1      46.771  23.307  26.029  1.00  0.00    -0.460 OA
BRANCH   3   4
ATOM      4  C   UNL A   1      46.915  24.511  25.399  1.00  0.00     0.341 C 
ATOM      5  O   UNL A   1      46.081  24.973  24.627  1.00  0.00    -0.246 OA
BRANCH   4   6
ATOM      6  C   UNL A   1      48.105  25.271  25.772  1.00  0.00     0.094 A 
ATOM      7  C   UNL A   1      48.523  26.499  25.297  1.00  0.00     0.110 A 
ATOM      8  S   UNL A   1      50.097  26.915  25.798  1.00  0.00    -0.126 S 
ATOM      9  C   UNL A   1      50.145  25.611  26.900  1.00  0.00     0.068 A 
ATOM     10  C   UNL A   1      49.041  24.799  26.764  1.00  0.00     0.029 A 
BRANCH   7  11
ATOM     11  N   UNL A   1      47.951  27.443  24.486  1.00  0.00    -0.317 N 
ATOM     12  C   UNL A   1      46.896  28.251  24.815  1.00  0.00     0.229 C 
ATOM     13  O   UNL A   1      46.421  28.987  23.944  1.00  0.00    -0.274 OA
ATOM     14  H   UNL A   1      48.334  27.550  23.586  1.00  0.00     0.170 HD
BRANCH  12  15
ATOM     15  C   UNL A   1      46.440  28.384  26.274  1.00  0.00     0.139 C 
BRANCH  15  16
ATOM     16  C   UNL A   1      46.015  29.735  26.763  1.00  0.00     0.002 A 
ATOM     17  C   UNL A   1      43.487  29.052  26.610  1.00  0.00     0.067 C 
ATOM     18  C   UNL A   1      44.556  30.093  26.874  1.00  0.00     0.049 A 
ATOM     19  N   UNL A   1      44.103  31.265  27.190  1.00  0.00    -0.198 NA
ATOM     20  C   UNL A   1      44.987  32.259  27.475  1.00  0.00     0.345 A 
ATOM     21  C   UNL A   1      46.840  30.712  27.184  1.00  0.00     0.022 A 
ATOM     22  O   UNL A   1      44.653  33.424  27.698  1.00  0.00    -0.246 OA
ATOM     23  N   UNL A   1      46.313  31.927  27.547  1.00  0.00    -0.310 N 
ATOM     24  C   UNL A   1      48.340  30.612  27.231  1.00  0.00     0.065 C 
ATOM     25  H   UNL A   1      46.936  32.611  27.884  1.00  0.00     0.171 HD
ENDBRANCH  15  16
ENDBRANCH  12  15
ENDBRANCH   7  11
ENDBRANCH   4   6
ENDBRANCH   3   4
ENDBRANCH   2   3
ENDBRANCH   1   2
BRANCH   1  26
ATOM     26  O   UNL A   1      44.577  20.609  24.283  1.00  0.00    -0.374 OA
BRANCH  26  27
ATOM     27  C   UNL A   1      44.344  19.375  24.932  1.00  0.00     0.202 C 
BRANCH  27  28
ATOM     28  C   UNL A   1      43.140  19.196  25.870  1.00  0.00     0.261 C 
BRANCH  28  29
ATOM     29  O   UNL A   1      41.877  19.668  25.376  1.00  0.00    -0.460 OA
BRANCH  29  30
ATOM     30  C   UNL A   1      41.098  20.281  26.300  1.00  0.00     0.338 C 
ATOM     31  O   UNL A   1      40.062  19.867  26.790  1.00  0.00    -0.246 OA
BRANCH  30  32
ATOM     32  C   UNL A   1      41.749  21.521  26.762  1.00  0.00     0.060 A 
ATOM     33  C   UNL A   1      41.904  21.734  28.139  1.00  0.00     0.016 A 
ATOM     34  C   UNL A   1      42.057  22.528  25.848  1.00  0.00     0.016 A 
ATOM     35  C   UNL A   1      42.328  22.973  28.611  1.00  0.00     0.010 A 
ATOM     36  C   UNL A   1      42.453  23.781  26.324  1.00  0.00     0.010 A 
ATOM     37  C   UNL A   1      42.544  24.020  27.708  1.00  0.00    -0.014 A 
BRANCH  37  38
ATOM     38  C   UNL A   1      42.624  25.409  28.212  1.00  0.00     0.031 A 
ATOM     39  C   UNL A   1      43.958  25.914  28.693  1.00  0.00     0.074 A 
ATOM     40  C   UNL A   1      41.548  26.213  28.224  1.00  0.00     0.049 A 
ATOM     41  N   UNL A   1      44.266  27.065  29.235  1.00  0.00    -0.248 NA
ATOM     42  C   UNL A   1      45.098  24.994  28.543  1.00  0.00     0.031 C 
ATOM     43  C   UNL A   1      40.223  25.865  27.717  1.00  0.00     0.029 A 
ATOM     44  N   UNL A   1      41.408  27.495  28.690  1.00  0.00    -0.354 N 
ATOM     45  C   UNL A   1      45.628  26.998  29.507  1.00  0.00     0.074 A 
ATOM     46  C   UNL A   1      46.083  25.691  29.088  1.00  0.00     0.031 C 
ATOM     47  C   UNL A   1      39.398  26.910  27.908  1.00  0.00     0.029 A 
ATOM     48  C   UNL A   1      40.127  27.979  28.587  1.00  0.00     0.049 A 
ATOM     49  H   UNL A   1      42.153  28.019  29.062  1.00  0.00     0.167 HD
ATOM     50  C   UNL A   1      46.426  27.939  30.062  1.00  0.00     0.031 A 
ATOM     51  C   UNL A   1      39.602  29.142  29.020  1.00  0.00     0.031 A 
ATOM     52  C   UNL A   1      45.966  29.231  30.495  1.00  0.00     0.049 A 
ATOM     53  C   UNL A   1      40.490  30.132  29.728  1.00  0.00     0.074 A 
ATOM     54  C   UNL A   1      46.695  30.263  31.060  1.00  0.00     0.029 A 
ATOM     55  N   UNL A   1      44.649  29.660  30.426  1.00  0.00    -0.354 N 
ATOM     56  N   UNL A   1      41.779  30.069  29.966  1.00  0.00    -0.248 NA
ATOM     57  C   UNL A   1      39.848  31.358  30.224  1.00  0.00     0.031 C 
ATOM     58  C   UNL A   1      45.807  31.289  31.395  1.00  0.00     0.029 A 
ATOM     59  C   UNL A   1      44.537  30.927  30.972  1.00  0.00     0.049 A 
ATOM     60  H   UNL A   1      43.905  29.141  30.045  1.00  0.00     0.167 HD
ATOM     61  C   UNL A   1      42.107  31.258  30.606  1.00  0.00     0.074 A 
ATOM     62  C   UNL A   1      40.885  32.029  30.709  1.00  0.00     0.031 C 
ATOM     63  C   UNL A   1      43.312  31.679  31.064  1.00  0.00     0.031 A 
BRANCH  50  64
ATOM     64  C   UNL A   1      47.869  27.577  30.290  1.00  0.00    -0.014 A 
ATOM     65  C   UNL A   1      48.282  26.863  31.426  1.00  0.00     0.009 A 
ATOM     66  C   UNL A   1      48.832  27.948  29.337  1.00  0.00     0.009 A 
ATOM     67  C   UNL A   1      49.633  26.562  31.620  1.00  0.00     0.001 A 
ATOM     68  C   UNL A   1      50.175  27.618  29.517  1.00  0.00     0.001 A 
ATOM     69  C   UNL A   1      50.576  26.935  30.665  1.00  0.00     0.000 A 
ENDBRANCH  50  64
BRANCH  51  70
ATOM     70  C   UNL A   1      38.157  29.431  28.820  1.00  0.00    -0.014 A 
ATOM     71  C   UNL A   1      37.675  29.833  27.565  1.00  0.00     0.009 A 
ATOM     72  C   UNL A   1      37.253  29.336  29.891  1.00  0.00     0.009 A 
ATOM     73  C   UNL A   1      36.327  30.155  27.392  1.00  0.00     0.001 A 
ATOM     74  C   UNL A   1      35.900  29.629  29.708  1.00  0.00     0.001 A 
ATOM     75  C   UNL A   1      35.440  30.049  28.462  1.00  0.00     0.000 A 
ENDBRANCH  51  70
BRANCH  63  76
ATOM     76  C   UNL A   1      43.379  33.053  31.674  1.00  0.00    -0.014 A 
ATOM     77  C   UNL A   1      43.434  33.239  33.064  1.00  0.00     0.009 A 
ATOM     78  C   UNL A   1      43.438  34.179  30.836  1.00  0.00     0.009 A 
ATOM     79  C   UNL A   1      43.509  34.527  33.601  1.00  0.00     0.001 A 
ATOM     80  C   UNL A   1      43.546  35.461  31.374  1.00  0.00     0.001 A 
ATOM     81  C   UNL A   1      43.571  35.636  32.756  1.00  0.00     0.000 A 
ENDBRANCH  63  76
ENDBRANCH  37  38
ENDBRANCH  30  32
ENDBRANCH  29  30
ENDBRANCH  28  29
ENDBRANCH  27  28
ENDBRANCH  26  27
ENDBRANCH   1  26
TORSDOF 17
ENDMDL
MODEL 2
REMARK VINA RESULT:      -8.2      5.254      8.506
REMARK SMILES Cc1nc(=O)[nH]c(C)c1CC(=O)Nc1sccc1C(=O)OCCOCCOC(=O)c1ccc(-c2c3nc(c(-c4ccccc4)c4ccc([nH]4)c(-c4ccccc4)c4nc(c(-c5ccccc5)c5ccc2[nH]5)C=C4)C=C3)cc1
REMARK SMILES IDX 23 1 22 2 21 3 19 4 20 5 18 6 14 7 15 8 16 9 17 10 13 11
REMARK SMILES IDX 11 12 12 13 10 15 9 16 1 17 2 18 3 19 4 20 7 21 5 22 6 23
REMARK SMILES IDX 8 24 24 26 25 27 26 28 27 29 28 30 29 31 30 32 31 33 77 34
REMARK SMILES IDX 32 35 76 36 33 37 34 38 35 39 70 40 36 41 75 42 69 43 71 44
REMARK SMILES IDX 37 45 74 46 68 47 67 48 38 50 60 51 45 52 59 53 46 54 49 55
REMARK SMILES IDX 58 56 72 57 47 58 48 59 57 61 73 62 50 63 39 64 40 65 44 66
REMARK SMILES IDX 41 67 43 68 42 69 61 70 62 71 66 72 63 73 65 74 64 75 51 76
REMARK SMILES IDX 52 77 56 78 53 79 55 80 54 81
REMARK H PARENT 13 14 6 25 71 49 49 60
REMARK Flexibility Score: inf
ROOT
ATOM      1  C   UNL A   1      36.887  23.035  24.090  1.00  0.00     0.202 C 
ENDROOT
BRANCH   1   2
ATOM      2  C   UNL A   1      35.425  23.504  24.144  1.00  0.00     0.261 C 
BRANCH   2   3
ATOM      3  O   UNL A   1      34.909  24.263  25.250  1.00  0.00    -0.460 OA
BRANCH   3   4
ATOM      4  C   UNL A   1      34.309  23.518  26.225  1.00  0.00     0.341 C 
ATOM      5  O   UNL A   1      34.918  23.020  27.165  1.00  0.00    -0.246 OA
BRANCH   4   6
ATOM      6  C   UNL A   1      32.854  23.420  26.128  1.00  0.00     0.094 A 
ATOM      7  C   UNL A   1      31.906  24.371  26.447  1.00  0.00     0.110 A 
ATOM      8  S   UNL A   1      30.314  23.768  26.435  1.00  0.00    -0.126 S 
ATOM      9  C   UNL A   1      30.820  22.304  25.717  1.00  0.00     0.068 A 
ATOM     10  C   UNL A   1      32.193  22.234  25.636  1.00  0.00     0.029 A 
BRANCH   7  11
ATOM     11  N   UNL A   1      31.976  25.694  26.797  1.00  0.00    -0.317 N 
ATOM     12  C   UNL A   1      32.233  26.738  25.947  1.00  0.00     0.229 C 
ATOM     13  O   UNL A   1      32.365  27.869  26.424  1.00  0.00    -0.274 OA
ATOM     14  H   UNL A   1      31.827  25.915  27.744  1.00  0.00     0.170 HD
BRANCH  12  15
ATOM     15  C   UNL A   1      32.165  26.540  24.427  1.00  0.00     0.139 C 
BRANCH  15  16
ATOM     16  C   UNL A   1      31.489  27.595  23.605  1.00  0.00     0.002 A 
ATOM     17  C   UNL A   1      29.141  26.520  24.061  1.00  0.00     0.067 C 
ATOM     18  C   UNL A   1      30.002  27.557  23.369  1.00  0.00     0.049 A 
ATOM     19  N   UNL A   1      29.354  28.367  22.593  1.00  0.00    -0.198 NA
ATOM     20  C   UNL A   1      30.038  29.353  21.951  1.00  0.00     0.345 A 
ATOM     21  C   UNL A   1      32.092  28.666  23.055  1.00  0.00     0.022 A 
ATOM     22  O   UNL A   1      29.524  30.111  21.127  1.00  0.00    -0.246 OA
ATOM     23  N   UNL A   1      31.358  29.520  22.270  1.00  0.00    -0.310 N 
ATOM     24  C   UNL A   1      33.557  28.984  23.171  1.00  0.00     0.065 C 
ATOM     25  H   UNL A   1      31.817  30.314  21.909  1.00  0.00     0.171 HD
ENDBRANCH  15  16
ENDBRANCH  12  15
ENDBRANCH   7  11
ENDBRANCH   4   6
ENDBRANCH   3   4
ENDBRANCH   2   3
ENDBRANCH   1   2
BRANCH   1  26
ATOM     26  O   UNL A   1      37.610  22.651  25.236  1.00  0.00    -0.374 OA
BRANCH  26  27
ATOM     27  C   UNL A   1      37.628  21.298  25.644  1.00  0.00     0.202 C 
BRANCH  27  28
ATOM     28  C   UNL A   1      38.848  20.408  25.361  1.00  0.00     0.261 C 
BRANCH  28  29
ATOM     29  O   UNL A   1      39.662  20.071  26.496  1.00  0.00    -0.460 OA
BRANCH  29  30
ATOM     30  C   UNL A   1      40.980  19.913  26.224  1.00  0.00     0.338 C 
ATOM     31  O   UNL A   1      41.505  19.016  25.589  1.00  0.00    -0.246 OA
BRANCH  30  32
ATOM     32  C   UNL A   1      41.735  21.084  26.707  1.00  0.00     0.060 A 
ATOM     33  C   UNL A   1      41.754  21.359  28.082  1.00  0.00     0.016 A 
ATOM     34  C   UNL A   1      42.283  21.985  25.794  1.00  0.00     0.016 A 
ATOM     35  C   UNL A   1      42.283  22.561  28.546  1.00  0.00     0.010 A 
ATOM     36  C   UNL A   1      42.787  23.202  26.258  1.00  0.00     0.010 A 
ATOM     37  C   UNL A   1      42.745  23.512  27.631  1.00  0.00    -0.014 A 
BRANCH  37  38
ATOM     38  C   UNL A   1      42.954  24.908  28.077  1.00  0.00     0.031 A 
ATOM     39  C   UNL A   1      44.355  25.344  28.414  1.00  0.00     0.074 A 
ATOM     40  C   UNL A   1      41.933  25.776  28.162  1.00  0.00     0.049 A 
ATOM     41  N   UNL A   1      44.780  26.489  28.884  1.00  0.00    -0.248 NA
ATOM     42  C   UNL A   1      45.420  24.352  28.188  1.00  0.00     0.031 C 
ATOM     43  C   UNL A   1      40.547  25.495  27.795  1.00  0.00     0.029 A 
ATOM     44  N   UNL A   1      41.913  27.077  28.596  1.00  0.00    -0.354 N 
ATOM     45  C   UNL A   1      46.155  26.347  29.030  1.00  0.00     0.074 A 
ATOM     46  C   UNL A   1      46.491  25.003  28.614  1.00  0.00     0.031 C 
ATOM     47  C   UNL A   1      39.806  26.593  28.026  1.00  0.00     0.029 A 
ATOM     48  C   UNL A   1      40.658  27.635  28.597  1.00  0.00     0.049 A 
ATOM     49  H   UNL A   1      42.719  27.565  28.878  1.00  0.00     0.167 HD
ATOM     50  C   UNL A   1      47.057  27.253  29.475  1.00  0.00     0.031 A 
ATOM     51  C   UNL A   1      40.245  28.840  29.038  1.00  0.00     0.031 A 
ATOM     52  C   UNL A   1      46.715  28.582  29.905  1.00  0.00     0.049 A 
ATOM     53  C   UNL A   1      41.253  29.793  29.624  1.00  0.00     0.074 A 
ATOM     54  C   UNL A   1      47.554  29.583  30.363  1.00  0.00     0.029 A 
ATOM     55  N   UNL A   1      45.426  29.089  29.944  1.00  0.00    -0.354 N 
ATOM     56  N   UNL A   1      42.553  29.659  29.742  1.00  0.00    -0.248 NA
ATOM     57  C   UNL A   1      40.734  31.070  30.137  1.00  0.00     0.031 C 
ATOM     58  C   UNL A   1      46.763  30.671  30.745  1.00  0.00     0.029 A 
ATOM     59  C   UNL A   1      45.440  30.376  30.456  1.00  0.00     0.049 A 
ATOM     60  H   UNL A   1      44.619  28.606  29.653  1.00  0.00     0.167 HD
ATOM     61  C   UNL A   1      43.009  30.843  30.308  1.00  0.00     0.074 A 
ATOM     62  C   UNL A   1      41.849  31.690  30.498  1.00  0.00     0.031 C 
ATOM     63  C   UNL A   1      44.275  31.203  30.636  1.00  0.00     0.031 A 
BRANCH  50  64
ATOM     64  C   UNL A   1      48.491  26.810  29.578  1.00  0.00    -0.014 A 
ATOM     65  C   UNL A   1      49.396  26.983  28.518  1.00  0.00     0.009 A 
ATOM     66  C   UNL A   1      48.947  26.222  30.768  1.00  0.00     0.009 A 
ATOM     67  C   UNL A   1      50.716  26.540  28.637  1.00  0.00     0.001 A 
ATOM     68  C   UNL A   1      50.274  25.810  30.895  1.00  0.00     0.001 A 
ATOM     69  C   UNL A   1      51.155  25.959  29.825  1.00  0.00     0.000 A 
ENDBRANCH  50  64
BRANCH  51  70
ATOM     70  C   UNL A   1      38.807  29.211  28.964  1.00  0.00    -0.014 A 
ATOM     71  C   UNL A   1      37.967  29.041  30.076  1.00  0.00     0.009 A 
ATOM     72  C   UNL A   1      38.257  29.713  27.773  1.00  0.00     0.009 A 
ATOM     73  C   UNL A   1      36.606  29.342  29.989  1.00  0.00     0.001 A 
ATOM     74  C   UNL A   1      36.902  30.042  27.699  1.00  0.00     0.001 A 
ATOM     75  C   UNL A   1      36.075  29.846  28.803  1.00  0.00     0.000 A 
ENDBRANCH  51  70
BRANCH  63  76
ATOM     76  C   UNL A   1      44.480  32.587  31.190  1.00  0.00    -0.014 A 
ATOM     77  C   UNL A   1      44.697  33.691  30.350  1.00  0.00     0.009 A 
ATOM     78  C   UNL A   1      44.407  32.794  32.577  1.00  0.00     0.009 A 
ATOM     79  C   UNL A   1      44.871  34.966  30.892  1.00  0.00     0.001 A 
ATOM     80  C   UNL A   1      44.549  34.075  33.113  1.00  0.00     0.001 A 
ATOM     81  C   UNL A   1      44.791  35.158  32.272  1.00  0.00     0.000 A 
ENDBRANCH  63  76
ENDBRANCH  37  38
ENDBRANCH  30  32
ENDBRANCH  29  30
ENDBRANCH  28  29
ENDBRANCH  27  28
ENDBRANCH  26  27
ENDBRANCH   1  26
TORSDOF 17
ENDMDL
MODEL 3
REMARK VINA RESULT:      -8.1      5.361     10.406
REMARK SMILES Cc1nc(=O)[nH]c(C)c1CC(=O)Nc1sccc1C(=O)OCCOCCOC(=O)c1ccc(-c2c3nc(c(-c4ccccc4)c4ccc([nH]4)c(-c4ccccc4)c4nc(c(-c5ccccc5)c5ccc2[nH]5)C=C4)C=C3)cc1
REMARK SMILES IDX 23 1 22 2 21 3 19 4 20 5 18 6 14 7 15 8 16 9 17 10 13 11
REMARK SMILES IDX 11 12 12 13 10 15 9 16 1 17 2 18 3 19 4 20 7 21 5 22 6 23
REMARK SMILES IDX 8 24 24 26 25 27 26 28 27 29 28 30 29 31 30 32 31 33 77 34
REMARK SMILES IDX 32 35 76 36 33 37 34 38 35 39 70 40 36 41 75 42 69 43 71 44
REMARK SMILES IDX 37 45 74 46 68 47 67 48 38 50 60 51 45 52 59 53 46 54 49 55
REMARK SMILES IDX 58 56 72 57 47 58 48 59 57 61 73 62 50 63 39 64 40 65 44 66
REMARK SMILES IDX 41 67 43 68 42 69 61 70 62 71 66 72 63 73 65 74 64 75 51 76
REMARK SMILES IDX 52 77 56 78 53 79 55 80 54 81
REMARK H PARENT 13 14 6 25 71 49 49 60
REMARK Flexibility Score: inf
ROOT
ATOM      1  C   UNL A   1      40.233  21.204  26.144  1.00  0.00     0.202 C 
ENDROOT
BRANCH   1   2
ATOM      2  C   UNL A   1      38.814  21.783  26.047  1.00  0.00     0.261 C 
BRANCH   2   3
ATOM      3  O   UNL A   1      37.895  21.379  25.019  1.00  0.00    -0.460 OA
BRANCH   3   4
ATOM      4  C   UNL A   1      36.893  22.272  24.763  1.00  0.00     0.341 C 
ATOM      5  O   UNL A   1      37.074  23.481  24.672  1.00  0.00    -0.246 OA
BRANCH   4   6
ATOM      6  C   UNL A   1      35.581  21.682  24.511  1.00  0.00     0.094 A 
ATOM      7  C   UNL A   1      34.518  22.218  23.813  1.00  0.00     0.110 A 
ATOM      8  S   UNL A   1      33.082  21.318  23.973  1.00  0.00    -0.126 S 
ATOM      9  C   UNL A   1      33.912  20.033  24.732  1.00  0.00     0.068 A 
ATOM     10  C   UNL A   1      35.224  20.365  24.987  1.00  0.00     0.029 A 
BRANCH   7  11
ATOM     11  N   UNL A   1      34.365  23.337  23.037  1.00  0.00    -0.317 N 
ATOM     12  C   UNL A   1      33.918  24.558  23.467  1.00  0.00     0.229 C 
ATOM     13  O   UNL A   1      33.735  25.448  22.633  1.00  0.00    -0.274 OA
ATOM     14  H   UNL A   1      34.599  23.256  22.084  1.00  0.00     0.170 HD
BRANCH  12  15
ATOM     15  C   UNL A   1      33.832  24.872  24.967  1.00  0.00     0.139 C 
BRANCH  15  16
ATOM     16  C   UNL A   1      32.598  24.457  25.709  1.00  0.00     0.002 A 
ATOM     17  C   UNL A   1      34.017  22.978  27.345  1.00  0.00     0.067 C 
ATOM     18  C   UNL A   1      32.674  23.473  26.847  1.00  0.00     0.049 A 
ATOM     19  N   UNL A   1      31.651  22.985  27.474  1.00  0.00    -0.198 NA
ATOM     20  C   UNL A   1      30.403  23.393  27.118  1.00  0.00     0.345 A 
ATOM     21  C   UNL A   1      31.355  24.926  25.488  1.00  0.00     0.022 A 
ATOM     22  O   UNL A   1      29.371  22.920  27.595  1.00  0.00    -0.246 OA
ATOM     23  N   UNL A   1      30.305  24.407  26.204  1.00  0.00    -0.310 N 
ATOM     24  C   UNL A   1      30.993  25.952  24.450  1.00  0.00     0.065 C 
ATOM     25  H   UNL A   1      29.412  24.794  26.047  1.00  0.00     0.171 HD
ENDBRANCH  15  16
ENDBRANCH  12  15
ENDBRANCH   7  11
ENDBRANCH   4   6
ENDBRANCH   3   4
ENDBRANCH   2   3
ENDBRANCH   1   2
BRANCH   1  26
ATOM     26  O   UNL A   1      41.144  21.580  27.151  1.00  0.00    -0.374 OA
BRANCH  26  27
ATOM     27  C   UNL A   1      42.486  21.875  26.821  1.00  0.00     0.202 C 
BRANCH  27  28
ATOM     28  C   UNL A   1      42.826  22.690  25.563  1.00  0.00     0.261 C 
BRANCH  28  29
ATOM     29  O   UNL A   1      42.097  23.914  25.386  1.00  0.00    -0.460 OA
BRANCH  29  30
ATOM     30  C   UNL A   1      42.838  25.042  25.509  1.00  0.00     0.338 C 
ATOM     31  O   UNL A   1      43.876  25.313  24.932  1.00  0.00    -0.246 OA
BRANCH  30  32
ATOM     32  C   UNL A   1      42.140  26.009  26.376  1.00  0.00     0.060 A 
ATOM     33  C   UNL A   1      42.546  27.351  26.361  1.00  0.00     0.016 A 
ATOM     34  C   UNL A   1      41.204  25.560  27.307  1.00  0.00     0.016 A 
ATOM     35  C   UNL A   1      42.048  28.242  27.308  1.00  0.00     0.010 A 
ATOM     36  C   UNL A   1      40.727  26.448  28.275  1.00  0.00     0.010 A 
ATOM     37  C   UNL A   1      41.184  27.779  28.305  1.00  0.00    -0.014 A 
BRANCH  37  38
ATOM     38  C   UNL A   1      40.953  28.609  29.509  1.00  0.00     0.031 A 
ATOM     39  C   UNL A   1      39.788  29.562  29.502  1.00  0.00     0.074 A 
ATOM     40  C   UNL A   1      41.741  28.508  30.591  1.00  0.00     0.049 A 
ATOM     41  N   UNL A   1      39.420  30.434  30.405  1.00  0.00    -0.248 NA
ATOM     42  C   UNL A   1      38.921  29.526  28.311  1.00  0.00     0.031 C 
ATOM     43  C   UNL A   1      42.853  27.572  30.748  1.00  0.00     0.029 A 
ATOM     44  N   UNL A   1      41.723  29.213  31.768  1.00  0.00    -0.354 N 
ATOM     45  C   UNL A   1      38.294  31.062  29.884  1.00  0.00     0.074 A 
ATOM     46  C   UNL A   1      38.049  30.484  28.581  1.00  0.00     0.031 C 
ATOM     47  C   UNL A   1      43.418  27.767  31.952  1.00  0.00     0.029 A 
ATOM     48  C   UNL A   1      42.735  28.868  32.629  1.00  0.00     0.049 A 
ATOM     49  H   UNL A   1      41.050  29.901  31.975  1.00  0.00     0.167 HD
ATOM     50  C   UNL A   1      37.536  32.036  30.439  1.00  0.00     0.031 A 
ATOM     51  C   UNL A   1      43.083  29.403  33.816  1.00  0.00     0.031 A 
ATOM     52  C   UNL A   1      37.796  32.621  31.726  1.00  0.00     0.049 A 
ATOM     53  C   UNL A   1      42.285  30.557  34.366  1.00  0.00     0.074 A 
ATOM     54  C   UNL A   1      37.082  33.606  32.386  1.00  0.00     0.029 A 
ATOM     55  N   UNL A   1      38.863  32.284  32.543  1.00  0.00    -0.354 N 
ATOM     56  N   UNL A   1      41.212  31.132  33.876  1.00  0.00    -0.248 NA
ATOM     57  C   UNL A   1      42.746  31.132  35.638  1.00  0.00     0.031 C 
ATOM     58  C   UNL A   1      37.759  33.914  33.571  1.00  0.00     0.029 A 
ATOM     59  C   UNL A   1      38.851  33.068  33.684  1.00  0.00     0.049 A 
ATOM     60  H   UNL A   1      39.532  31.590  32.342  1.00  0.00     0.167 HD
ATOM     61  C   UNL A   1      40.852  32.111  34.794  1.00  0.00     0.074 A 
ATOM     62  C   UNL A   1      41.812  32.043  35.877  1.00  0.00     0.031 C 
ATOM     63  C   UNL A   1      39.816  32.985  34.751  1.00  0.00     0.031 A 
BRANCH  50  64
ATOM     64  C   UNL A   1      36.392  32.573  29.622  1.00  0.00    -0.014 A 
ATOM     65  C   UNL A   1      35.197  31.853  29.461  1.00  0.00     0.009 A 
ATOM     66  C   UNL A   1      36.509  33.834  29.016  1.00  0.00     0.009 A 
ATOM     67  C   UNL A   1      34.161  32.369  28.678  1.00  0.00     0.001 A 
ATOM     68  C   UNL A   1      35.461  34.360  28.261  1.00  0.00     0.001 A 
ATOM     69  C   UNL A   1      34.292  33.622  28.083  1.00  0.00     0.000 A 
ENDBRANCH  50  64
BRANCH  51  70
ATOM     70  C   UNL A   1      44.256  28.874  34.561  1.00  0.00    -0.014 A 
ATOM     71  C   UNL A   1      44.140  27.720  35.352  1.00  0.00     0.009 A 
ATOM     72  C   UNL A   1      45.495  29.534  34.509  1.00  0.00     0.009 A 
ATOM     73  C   UNL A   1      45.229  27.254  36.092  1.00  0.00     0.001 A 
ATOM     74  C   UNL A   1      46.590  29.049  35.225  1.00  0.00     0.001 A 
ATOM     75  C   UNL A   1      46.454  27.915  36.025  1.00  0.00     0.000 A 
ENDBRANCH  51  70
BRANCH  63  76
ATOM     76  C   UNL A   1      39.636  33.906  35.928  1.00  0.00    -0.014 A 
ATOM     77  C   UNL A   1      40.183  35.198  35.940  1.00  0.00     0.009 A 
ATOM     78  C   UNL A   1      38.864  33.485  37.023  1.00  0.00     0.009 A 
ATOM     79  C   UNL A   1      39.990  36.035  37.042  1.00  0.00     0.001 A 
ATOM     80  C   UNL A   1      38.645  34.336  38.107  1.00  0.00     0.001 A 
ATOM     81  C   UNL A   1      39.216  35.606  38.121  1.00  0.00     0.000 A 
ENDBRANCH  63  76
ENDBRANCH  37  38
ENDBRANCH  30  32
ENDBRANCH  29  30
ENDBRANCH  28  29
ENDBRANCH  27  28
ENDBRANCH  26  27
ENDBRANCH   1  26
TORSDOF 17
ENDMDL
