MODEL 1
REMARK VINA RESULT:     -12.6      0.000      0.000
REMARK SMILES Cc1ccc(-c2cc([C@@H](C)C(=O)OCCOCCOC(=O)c3ccc(-c4c5nc(c(-c6ccccc6)c6ccc([nH]6)c(-c6ccccc6)c6nc(c(-c7ccccc7)c7ccc4[nH]7)C=C6)C=C5)cc3)ccc2C[C@H]2CCCC2=O)cc1
REMARK SMILES IDX 15 1 14 2 13 3 11 4 12 5 9 6 10 7 8 8 6 9 7 10 72 11 71 12
REMARK SMILES IDX 70 13 5 14 1 15 2 16 3 17 81 18 4 19 80 20 73 21 74 22 75 23
REMARK SMILES IDX 78 24 76 25 77 26 79 27 16 28 17 29 18 30 19 31 20 32 21 33
REMARK SMILES IDX 22 34 23 35 69 36 24 37 68 38 25 39 26 40 27 41 62 42 28 43
REMARK SMILES IDX 67 44 61 45 63 46 29 47 66 48 60 49 59 50 30 52 52 53 37 54
REMARK SMILES IDX 51 55 38 56 41 57 50 58 64 59 39 60 40 61 49 63 65 64 42 65
REMARK SMILES IDX 31 66 32 67 36 68 33 69 35 70 34 71 53 72 54 73 58 74 55 75
REMARK SMILES IDX 57 76 56 77 43 78 44 79 48 80 45 81 47 82 46 83
REMARK H PARENT 63 51 41 62
REMARK Flexibility Score: inf
ROOT
ATOM      1  C   UNL A   1      41.404  19.815  27.438  1.00  0.00     0.202 C 
ENDROOT
BRANCH   1   2
ATOM      2  C   UNL A   1      40.767  20.085  26.112  1.00  0.00     0.261 C 
BRANCH   2   3
ATOM      3  O   UNL A   1      39.683  21.019  26.168  1.00  0.00    -0.463 OA
BRANCH   3   4
ATOM      4  C   UNL A   1      38.605  20.823  25.345  1.00  0.00     0.313 C 
ATOM      5  O   UNL A   1      38.184  19.755  24.961  1.00  0.00    -0.252 OA
BRANCH   4   6
ATOM      6  C   UNL A   1      37.973  22.184  25.039  1.00  0.00     0.126 C 
ATOM      7  C   UNL A   1      38.111  23.134  26.224  1.00  0.00     0.025 C 
BRANCH   6   8
ATOM      8  C   UNL A   1      36.537  21.965  24.560  1.00  0.00    -0.033 A 
ATOM      9  C   UNL A   1      34.487  20.622  24.677  1.00  0.00    -0.015 A 
ATOM     10  C   UNL A   1      35.872  20.786  24.903  1.00  0.00     0.013 A 
ATOM     11  C   UNL A   1      33.727  21.710  24.182  1.00  0.00    -0.039 A 
ATOM     12  C   UNL A   1      34.408  22.880  23.814  1.00  0.00     0.004 A 
ATOM     13  C   UNL A   1      35.792  22.990  23.959  1.00  0.00     0.005 A 
BRANCH   9  14
ATOM     14  C   UNL A   1      33.951  19.265  24.826  1.00  0.00    -0.018 A 
ATOM     15  C   UNL A   1      32.709  15.172  25.400  1.00  0.00     0.044 C 
ATOM     16  C   UNL A   1      33.124  16.599  25.207  1.00  0.00    -0.051 A 
ATOM     17  C   UNL A   1      34.249  16.883  24.430  1.00  0.00     0.004 A 
ATOM     18  C   UNL A   1      32.414  17.653  25.795  1.00  0.00     0.004 A 
ATOM     19  C   UNL A   1      34.661  18.198  24.252  1.00  0.00     0.009 A 
ATOM     20  C   UNL A   1      32.826  18.977  25.607  1.00  0.00     0.009 A 
ENDBRANCH   9  14
BRANCH  11  21
ATOM     21  C   UNL A   1      32.236  21.629  23.897  1.00  0.00     0.047 C 
BRANCH  21  22
ATOM     22  C   UNL A   1      31.227  22.332  24.817  1.00  0.00     0.060 C 
ATOM     23  C   UNL A   1      31.607  22.468  26.294  1.00  0.00     0.012 C 
ATOM     24  C   UNL A   1      30.884  23.750  24.420  1.00  0.00     0.136 C 
ATOM     25  C   UNL A   1      31.939  23.934  26.507  1.00  0.00     0.009 C 
ATOM     26  C   UNL A   1      31.078  24.728  25.544  1.00  0.00     0.076 C 
ATOM     27  O   UNL A   1      30.443  24.066  23.321  1.00  0.00    -0.299 OA
ENDBRANCH  21  22
ENDBRANCH  11  21
ENDBRANCH   6   8
ENDBRANCH   4   6
ENDBRANCH   3   4
ENDBRANCH   2   3
ENDBRANCH   1   2
BRANCH   1  28
ATOM     28  O   UNL A   1      42.584  19.067  27.207  1.00  0.00    -0.374 OA
BRANCH  28  29
ATOM     29  C   UNL A   1      42.765  18.624  25.873  1.00  0.00     0.202 C 
BRANCH  29  30
ATOM     30  C   UNL A   1      44.227  18.646  25.394  1.00  0.00     0.261 C 
BRANCH  30  31
ATOM     31  O   UNL A   1      44.468  19.785  24.542  1.00  0.00    -0.460 OA
BRANCH  31  32
ATOM     32  C   UNL A   1      45.213  20.792  25.077  1.00  0.00     0.338 C 
ATOM     33  O   UNL A   1      46.327  20.669  25.563  1.00  0.00    -0.246 OA
BRANCH  32  34
ATOM     34  C   UNL A   1      44.355  22.000  25.259  1.00  0.00     0.060 A 
ATOM     35  C   UNL A   1      44.428  23.073  24.348  1.00  0.00     0.016 A 
ATOM     36  C   UNL A   1      43.782  22.196  26.511  1.00  0.00     0.016 A 
ATOM     37  C   UNL A   1      44.078  24.371  24.757  1.00  0.00     0.010 A 
ATOM     38  C   UNL A   1      43.585  23.486  26.946  1.00  0.00     0.010 A 
ATOM     39  C   UNL A   1      43.742  24.591  26.091  1.00  0.00    -0.014 A 
BRANCH  39  40
ATOM     40  C   UNL A   1      43.666  25.886  26.779  1.00  0.00     0.031 A 
ATOM     41  C   UNL A   1      42.366  26.590  26.795  1.00  0.00     0.074 A 
ATOM     42  C   UNL A   1      44.630  26.289  27.647  1.00  0.00     0.049 A 
ATOM     43  N   UNL A   1      42.208  27.794  27.218  1.00  0.00    -0.248 NA
ATOM     44  C   UNL A   1      41.115  25.998  26.320  1.00  0.00     0.031 C 
ATOM     45  C   UNL A   1      44.508  27.197  28.791  1.00  0.00     0.029 A 
ATOM     46  N   UNL A   1      45.991  25.979  27.652  1.00  0.00    -0.354 N 
ATOM     47  C   UNL A   1      40.866  27.980  27.434  1.00  0.00     0.074 A 
ATOM     48  C   UNL A   1      40.219  26.874  26.777  1.00  0.00     0.031 C 
ATOM     49  C   UNL A   1      45.733  27.586  29.192  1.00  0.00     0.029 A 
ATOM     50  C   UNL A   1      46.686  27.043  28.242  1.00  0.00     0.049 A 
ATOM     51  H   UNL A   1      46.395  25.153  27.300  1.00  0.00     0.167 HD
ATOM     52  C   UNL A   1      40.477  28.980  28.274  1.00  0.00     0.031 A 
ATOM     53  C   UNL A   1      47.659  27.688  27.550  1.00  0.00     0.031 A 
ATOM     54  C   UNL A   1      41.635  29.754  28.754  1.00  0.00     0.049 A 
ATOM     55  C   UNL A   1      47.215  29.107  27.330  1.00  0.00     0.074 A 
ATOM     56  C   UNL A   1      42.288  29.847  29.974  1.00  0.00     0.029 A 
ATOM     57  N   UNL A   1      42.500  30.325  27.818  1.00  0.00    -0.354 N 
ATOM     58  N   UNL A   1      45.975  29.483  27.484  1.00  0.00    -0.248 NA
ATOM     59  C   UNL A   1      48.095  30.219  27.008  1.00  0.00     0.031 C 
ATOM     60  C   UNL A   1      43.563  30.448  29.749  1.00  0.00     0.029 A 
ATOM     61  C   UNL A   1      43.679  30.751  28.401  1.00  0.00     0.049 A 
ATOM     62  H   UNL A   1      42.296  30.412  26.859  1.00  0.00     0.167 HD
ATOM     63  C   UNL A   1      45.876  30.834  27.392  1.00  0.00     0.074 A 
ATOM     64  C   UNL A   1      47.230  31.250  27.057  1.00  0.00     0.031 C 
ATOM     65  C   UNL A   1      44.687  31.471  27.609  1.00  0.00     0.031 A 
BRANCH  52  66
ATOM     66  C   UNL A   1      39.075  29.096  28.834  1.00  0.00    -0.014 A 
ATOM     67  C   UNL A   1      38.044  29.630  28.042  1.00  0.00     0.009 A 
ATOM     68  C   UNL A   1      38.700  28.717  30.138  1.00  0.00     0.009 A 
ATOM     69  C   UNL A   1      36.747  29.832  28.542  1.00  0.00     0.001 A 
ATOM     70  C   UNL A   1      37.420  28.949  30.659  1.00  0.00     0.001 A 
ATOM     71  C   UNL A   1      36.440  29.510  29.858  1.00  0.00     0.000 A 
ENDBRANCH  52  66
BRANCH  53  72
ATOM     72  C   UNL A   1      48.399  26.751  26.644  1.00  0.00    -0.014 A 
ATOM     73  C   UNL A   1      48.365  27.052  25.258  1.00  0.00     0.009 A 
ATOM     74  C   UNL A   1      49.475  25.987  27.118  1.00  0.00     0.009 A 
ATOM     75  C   UNL A   1      49.441  26.739  24.416  1.00  0.00     0.001 A 
ATOM     76  C   UNL A   1      50.546  25.664  26.265  1.00  0.00     0.001 A 
ATOM     77  C   UNL A   1      50.550  26.080  24.932  1.00  0.00     0.000 A 
ENDBRANCH  53  72
BRANCH  65  78
ATOM     78  C   UNL A   1      44.344  32.855  27.117  1.00  0.00    -0.014 A 
ATOM     79  C   UNL A   1      44.005  33.170  25.797  1.00  0.00     0.009 A 
ATOM     80  C   UNL A   1      44.203  33.898  28.063  1.00  0.00     0.009 A 
ATOM     81  C   UNL A   1      43.565  34.449  25.438  1.00  0.00     0.001 A 
ATOM     82  C   UNL A   1      43.706  35.155  27.723  1.00  0.00     0.001 A 
ATOM     83  C   UNL A   1      43.396  35.434  26.402  1.00  0.00     0.000 A 
ENDBRANCH  65  78
ENDBRANCH  39  40
ENDBRANCH  32  34
ENDBRANCH  31  32
ENDBRANCH  30  31
ENDBRANCH  29  30
ENDBRANCH  28  29
ENDBRANCH   1  28
TORSDOF 18
ENDMDL
MODEL 2
REMARK VINA RESULT:     -12.3      5.372     10.787
REMARK SMILES Cc1ccc(-c2cc([C@@H](C)C(=O)OCCOCCOC(=O)c3ccc(-c4c5nc(c(-c6ccccc6)c6ccc([nH]6)c(-c6ccccc6)c6nc(c(-c7ccccc7)c7ccc4[nH]7)C=C6)C=C5)cc3)ccc2C[C@H]2CCCC2=O)cc1
REMARK SMILES IDX 15 1 14 2 13 3 11 4 12 5 9 6 10 7 8 8 6 9 7 10 72 11 71 12
REMARK SMILES IDX 70 13 5 14 1 15 2 16 3 17 81 18 4 19 80 20 73 21 74 22 75 23
REMARK SMILES IDX 78 24 76 25 77 26 79 27 16 28 17 29 18 30 19 31 20 32 21 33
REMARK SMILES IDX 22 34 23 35 69 36 24 37 68 38 25 39 26 40 27 41 62 42 28 43
REMARK SMILES IDX 67 44 61 45 63 46 29 47 66 48 60 49 59 50 30 52 52 53 37 54
REMARK SMILES IDX 51 55 38 56 41 57 50 58 64 59 39 60 40 61 49 63 65 64 42 65
REMARK SMILES IDX 31 66 32 67 36 68 33 69 35 70 34 71 53 72 54 73 58 74 55 75
REMARK SMILES IDX 57 76 56 77 43 78 44 79 48 80 45 81 47 82 46 83
REMARK H PARENT 63 51 41 62
REMARK Flexibility Score: inf
ROOT
ATOM      1  C   UNL A   1      32.905  33.472  27.715  1.00  0.00     0.202 C 
ENDROOT
BRANCH   1   2
ATOM      2  C   UNL A   1      33.455  32.084  27.633  1.00  0.00     0.261 C 
BRANCH   2   3
ATOM      3  O   UNL A   1      32.486  31.097  27.262  1.00  0.00    -0.463 OA
BRANCH   3   4
ATOM      4  C   UNL A   1      32.852  30.117  26.377  1.00  0.00     0.313 C 
ATOM      5  O   UNL A   1      32.793  30.187  25.171  1.00  0.00    -0.252 OA
BRANCH   4   6
ATOM      6  C   UNL A   1      33.414  28.933  27.168  1.00  0.00     0.126 C 
ATOM      7  C   UNL A   1      34.936  28.994  27.244  1.00  0.00     0.025 C 
BRANCH   6   8
ATOM      8  C   UNL A   1      32.855  27.637  26.579  1.00  0.00    -0.033 A 
ATOM      9  C   UNL A   1      33.189  25.253  26.105  1.00  0.00    -0.015 A 
ATOM     10  C   UNL A   1      33.694  26.529  26.437  1.00  0.00     0.013 A 
ATOM     11  C   UNL A   1      31.789  25.059  26.009  1.00  0.00    -0.039 A 
ATOM     12  C   UNL A   1      30.956  26.183  26.126  1.00  0.00     0.004 A 
ATOM     13  C   UNL A   1      31.482  27.454  26.362  1.00  0.00     0.005 A 
BRANCH   9  14
ATOM     14  C   UNL A   1      34.172  24.234  25.723  1.00  0.00    -0.018 A 
ATOM     15  C   UNL A   1      37.330  21.499  24.639  1.00  0.00     0.044 C 
ATOM     16  C   UNL A   1      36.225  22.435  25.025  1.00  0.00    -0.051 A 
ATOM     17  C   UNL A   1      36.060  23.626  24.315  1.00  0.00     0.004 A 
ATOM     18  C   UNL A   1      35.362  22.147  26.090  1.00  0.00     0.004 A 
ATOM     19  C   UNL A   1      35.053  24.516  24.667  1.00  0.00     0.009 A 
ATOM     20  C   UNL A   1      34.343  23.042  26.437  1.00  0.00     0.009 A 
ENDBRANCH   9  14
BRANCH  11  21
ATOM     21  C   UNL A   1      31.150  23.728  25.649  1.00  0.00     0.047 C 
BRANCH  21  22
ATOM     22  C   UNL A   1      30.996  23.309  24.179  1.00  0.00     0.060 C 
ATOM     23  C   UNL A   1      31.100  24.413  23.124  1.00  0.00     0.012 C 
ATOM     24  C   UNL A   1      32.000  22.285  23.701  1.00  0.00     0.136 C 
ATOM     25  C   UNL A   1      32.437  24.210  22.436  1.00  0.00     0.009 C 
ATOM     26  C   UNL A   1      32.727  22.722  22.462  1.00  0.00     0.076 C 
ATOM     27  O   UNL A   1      32.168  21.191  24.230  1.00  0.00    -0.299 OA
ENDBRANCH  21  22
ENDBRANCH  11  21
ENDBRANCH   6   8
ENDBRANCH   4   6
ENDBRANCH   3   4
ENDBRANCH   2   3
ENDBRANCH   1   2
BRANCH   1  28
ATOM     28  O   UNL A   1      33.476  34.098  28.851  1.00  0.00    -0.374 OA
BRANCH  28  29
ATOM     29  C   UNL A   1      32.927  35.361  29.181  1.00  0.00     0.202 C 
BRANCH  29  30
ATOM     30  C   UNL A   1      32.756  35.599  30.692  1.00  0.00     0.261 C 
BRANCH  30  31
ATOM     31  O   UNL A   1      33.954  36.166  31.259  1.00  0.00    -0.460 OA
BRANCH  31  32
ATOM     32  C   UNL A   1      34.440  35.558  32.377  1.00  0.00     0.338 C 
ATOM     33  O   UNL A   1      34.599  36.092  33.463  1.00  0.00    -0.246 OA
BRANCH  32  34
ATOM     34  C   UNL A   1      35.033  34.239  32.004  1.00  0.00     0.060 A 
ATOM     35  C   UNL A   1      34.958  33.145  32.889  1.00  0.00     0.016 A 
ATOM     36  C   UNL A   1      35.957  34.222  30.965  1.00  0.00     0.016 A 
ATOM     37  C   UNL A   1      35.917  32.120  32.828  1.00  0.00     0.010 A 
ATOM     38  C   UNL A   1      36.974  33.298  31.007  1.00  0.00     0.010 A 
ATOM     39  C   UNL A   1      36.983  32.245  31.940  1.00  0.00    -0.014 A 
BRANCH  39  40
ATOM     40  C   UNL A   1      38.233  31.474  31.949  1.00  0.00     0.031 A 
ATOM     41  C   UNL A   1      38.280  30.219  31.167  1.00  0.00     0.074 A 
ATOM     42  C   UNL A   1      39.404  32.019  32.368  1.00  0.00     0.049 A 
ATOM     43  N   UNL A   1      39.250  29.377  31.223  1.00  0.00    -0.248 NA
ATOM     44  C   UNL A   1      37.223  29.791  30.252  1.00  0.00     0.031 C 
ATOM     45  C   UNL A   1      40.770  31.670  31.966  1.00  0.00     0.029 A 
ATOM     46  N   UNL A   1      39.615  33.020  33.316  1.00  0.00    -0.354 N 
ATOM     47  C   UNL A   1      39.144  28.556  30.129  1.00  0.00     0.074 A 
ATOM     48  C   UNL A   1      37.822  28.789  29.607  1.00  0.00     0.031 C 
ATOM     49  C   UNL A   1      41.647  32.209  32.833  1.00  0.00     0.029 A 
ATOM     50  C   UNL A   1      40.875  32.822  33.897  1.00  0.00     0.049 A 
ATOM     51  H   UNL A   1      38.986  33.743  33.540  1.00  0.00     0.167 HD
ATOM     52  C   UNL A   1      40.252  27.881  29.714  1.00  0.00     0.031 A 
ATOM     53  C   UNL A   1      40.986  32.646  35.238  1.00  0.00     0.031 A 
ATOM     54  C   UNL A   1      41.392  28.123  30.616  1.00  0.00     0.049 A 
ATOM     55  C   UNL A   1      41.503  31.258  35.488  1.00  0.00     0.074 A 
ATOM     56  C   UNL A   1      42.569  28.847  30.501  1.00  0.00     0.029 A 
ATOM     57  N   UNL A   1      41.243  27.857  31.978  1.00  0.00    -0.354 N 
ATOM     58  N   UNL A   1      41.487  30.330  34.570  1.00  0.00    -0.248 NA
ATOM     59  C   UNL A   1      42.141  30.810  36.716  1.00  0.00     0.031 C 
ATOM     60  C   UNL A   1      43.101  29.038  31.813  1.00  0.00     0.029 A 
ATOM     61  C   UNL A   1      42.269  28.406  32.724  1.00  0.00     0.049 A 
ATOM     62  H   UNL A   1      40.496  27.342  32.362  1.00  0.00     0.167 HD
ATOM     63  C   UNL A   1      42.161  29.231  34.996  1.00  0.00     0.074 A 
ATOM     64  C   UNL A   1      42.524  29.567  36.365  1.00  0.00     0.031 C 
ATOM     65  C   UNL A   1      42.356  28.160  34.171  1.00  0.00     0.031 A 
BRANCH  52  66
ATOM     66  C   UNL A   1      40.353  27.199  28.366  1.00  0.00    -0.014 A 
ATOM     67  C   UNL A   1      39.717  25.963  28.154  1.00  0.00     0.009 A 
ATOM     68  C   UNL A   1      41.072  27.704  27.266  1.00  0.00     0.009 A 
ATOM     69  C   UNL A   1      39.848  25.253  26.949  1.00  0.00     0.001 A 
ATOM     70  C   UNL A   1      41.240  26.987  26.073  1.00  0.00     0.001 A 
ATOM     71  C   UNL A   1      40.627  25.756  25.914  1.00  0.00     0.000 A 
ENDBRANCH  52  66
BRANCH  53  72
ATOM     72  C   UNL A   1      39.962  33.449  35.983  1.00  0.00    -0.014 A 
ATOM     73  C   UNL A   1      38.975  32.716  36.689  1.00  0.00     0.009 A 
ATOM     74  C   UNL A   1      40.243  34.752  36.420  1.00  0.00     0.009 A 
ATOM     75  C   UNL A   1      38.411  33.205  37.875  1.00  0.00     0.001 A 
ATOM     76  C   UNL A   1      39.664  35.243  37.604  1.00  0.00     0.001 A 
ATOM     77  C   UNL A   1      38.789  34.454  38.354  1.00  0.00     0.000 A 
ENDBRANCH  53  72
BRANCH  65  78
ATOM     78  C   UNL A   1      42.672  26.759  34.633  1.00  0.00    -0.014 A 
ATOM     79  C   UNL A   1      43.940  26.171  34.586  1.00  0.00     0.009 A 
ATOM     80  C   UNL A   1      41.667  26.021  35.303  1.00  0.00     0.009 A 
ATOM     81  C   UNL A   1      44.190  24.919  35.158  1.00  0.00     0.001 A 
ATOM     82  C   UNL A   1      41.925  24.802  35.928  1.00  0.00     0.001 A 
ATOM     83  C   UNL A   1      43.190  24.245  35.847  1.00  0.00     0.000 A 
ENDBRANCH  65  78
ENDBRANCH  39  40
ENDBRANCH  32  34
ENDBRANCH  31  32
ENDBRANCH  30  31
ENDBRANCH  29  30
ENDBRANCH  28  29
ENDBRANCH   1  28
TORSDOF 18
ENDMDL
MODEL 3
REMARK VINA RESULT:     -12.3      1.569      3.170
REMARK SMILES Cc1ccc(-c2cc([C@@H](C)C(=O)OCCOCCOC(=O)c3ccc(-c4c5nc(c(-c6ccccc6)c6ccc([nH]6)c(-c6ccccc6)c6nc(c(-c7ccccc7)c7ccc4[nH]7)C=C6)C=C5)cc3)ccc2C[C@H]2CCCC2=O)cc1
REMARK SMILES IDX 15 1 14 2 13 3 11 4 12 5 9 6 10 7 8 8 6 9 7 10 72 11 71 12
REMARK SMILES IDX 70 13 5 14 1 15 2 16 3 17 81 18 4 19 80 20 73 21 74 22 75 23
REMARK SMILES IDX 78 24 76 25 77 26 79 27 16 28 17 29 18 30 19 31 20 32 21 33
REMARK SMILES IDX 22 34 23 35 69 36 24 37 68 38 25 39 26 40 27 41 62 42 28 43
REMARK SMILES IDX 67 44 61 45 63 46 29 47 66 48 60 49 59 50 30 52 52 53 37 54
REMARK SMILES IDX 51 55 38 56 41 57 50 58 64 59 39 60 40 61 49 63 65 64 42 65
REMARK SMILES IDX 31 66 32 67 36 68 33 69 35 70 34 71 53 72 54 73 58 74 55 75
REMARK SMILES IDX 57 76 56 77 43 78 44 79 48 80 45 81 47 82 46 83
REMARK H PARENT 63 51 41 62
REMARK Flexibility Score: inf
ROOT
ATOM      1  C   UNL A   1      41.158  20.031  27.648  1.00  0.00     0.202 C 
ENDROOT
BRANCH   1   2
ATOM      2  C   UNL A   1      40.452  20.248  26.348  1.00  0.00     0.261 C 
BRANCH   2   3
ATOM      3  O   UNL A   1      39.640  21.427  26.318  1.00  0.00    -0.463 OA
BRANCH   3   4
ATOM      4  C   UNL A   1      38.524  21.436  25.522  1.00  0.00     0.313 C 
ATOM      5  O   UNL A   1      38.000  20.470  25.017  1.00  0.00    -0.252 OA
BRANCH   4   6
ATOM      6  C   UNL A   1      38.008  22.875  25.425  1.00  0.00     0.126 C 
ATOM      7  C   UNL A   1      38.590  23.745  26.534  1.00  0.00     0.025 C 
BRANCH   6   8
ATOM      8  C   UNL A   1      36.479  22.847  25.372  1.00  0.00    -0.033 A 
ATOM      9  C   UNL A   1      34.380  24.105  25.207  1.00  0.00    -0.015 A 
ATOM     10  C   UNL A   1      35.767  24.045  25.464  1.00  0.00     0.013 A 
ATOM     11  C   UNL A   1      33.704  22.949  24.747  1.00  0.00    -0.039 A 
ATOM     12  C   UNL A   1      34.421  21.744  24.684  1.00  0.00     0.004 A 
ATOM     13  C   UNL A   1      35.771  21.685  25.032  1.00  0.00     0.005 A 
BRANCH   9  14
ATOM     14  C   UNL A   1      33.692  25.344  25.589  1.00  0.00    -0.018 A 
ATOM     15  C   UNL A   1      31.630  29.058  26.347  1.00  0.00     0.044 C 
ATOM     16  C   UNL A   1      32.337  27.760  26.097  1.00  0.00    -0.051 A 
ATOM     17  C   UNL A   1      33.489  27.752  25.308  1.00  0.00     0.004 A 
ATOM     18  C   UNL A   1      31.862  26.555  26.630  1.00  0.00     0.004 A 
ATOM     19  C   UNL A   1      34.150  26.556  25.050  1.00  0.00     0.009 A 
ATOM     20  C   UNL A   1      32.535  25.354  26.375  1.00  0.00     0.009 A 
ENDBRANCH   9  14
BRANCH  11  21
ATOM     21  C   UNL A   1      32.213  22.912  24.451  1.00  0.00     0.047 C 
BRANCH  21  22
ATOM     22  C   UNL A   1      31.663  23.499  23.143  1.00  0.00     0.060 C 
ATOM     23  C   UNL A   1      30.654  24.643  23.261  1.00  0.00     0.012 C 
ATOM     24  C   UNL A   1      32.709  24.061  22.208  1.00  0.00     0.136 C 
ATOM     25  C   UNL A   1      31.392  25.898  22.832  1.00  0.00     0.009 C 
ATOM     26  C   UNL A   1      32.419  25.476  21.798  1.00  0.00     0.076 C 
ATOM     27  O   UNL A   1      33.664  23.419  21.783  1.00  0.00    -0.299 OA
ENDBRANCH  21  22
ENDBRANCH  11  21
ENDBRANCH   6   8
ENDBRANCH   4   6
ENDBRANCH   3   4
ENDBRANCH   2   3
ENDBRANCH   1   2
BRANCH   1  28
ATOM     28  O   UNL A   1      42.308  19.245  27.390  1.00  0.00    -0.374 OA
BRANCH  28  29
ATOM     29  C   UNL A   1      42.428  18.774  26.059  1.00  0.00     0.202 C 
BRANCH  29  30
ATOM     30  C   UNL A   1      43.877  18.706  25.543  1.00  0.00     0.261 C 
BRANCH  30  31
ATOM     31  O   UNL A   1      44.136  19.770  24.606  1.00  0.00    -0.460 OA
BRANCH  31  32
ATOM     32  C   UNL A   1      45.045  20.708  24.993  1.00  0.00     0.338 C 
ATOM     33  O   UNL A   1      46.145  20.475  25.470  1.00  0.00    -0.246 OA
BRANCH  32  34
ATOM     34  C   UNL A   1      44.387  22.048  25.035  1.00  0.00     0.060 A 
ATOM     35  C   UNL A   1      44.918  23.129  24.304  1.00  0.00     0.016 A 
ATOM     36  C   UNL A   1      43.493  22.290  26.073  1.00  0.00     0.016 A 
ATOM     37  C   UNL A   1      44.679  24.450  24.723  1.00  0.00     0.010 A 
ATOM     38  C   UNL A   1      43.388  23.572  26.561  1.00  0.00     0.010 A 
ATOM     39  C   UNL A   1      43.985  24.666  25.911  1.00  0.00    -0.014 A 
BRANCH  39  40
ATOM     40  C   UNL A   1      43.916  25.918  26.676  1.00  0.00     0.031 A 
ATOM     41  C   UNL A   1      42.631  26.649  26.696  1.00  0.00     0.074 A 
ATOM     42  C   UNL A   1      44.861  26.244  27.596  1.00  0.00     0.049 A 
ATOM     43  N   UNL A   1      42.486  27.828  27.188  1.00  0.00    -0.248 NA
ATOM     44  C   UNL A   1      41.384  26.117  26.149  1.00  0.00     0.031 C 
ATOM     45  C   UNL A   1      44.723  27.082  28.790  1.00  0.00     0.029 A 
ATOM     46  N   UNL A   1      46.213  25.903  27.622  1.00  0.00    -0.354 N 
ATOM     47  C   UNL A   1      41.142  28.032  27.376  1.00  0.00     0.074 A 
ATOM     48  C   UNL A   1      40.493  26.984  26.631  1.00  0.00     0.031 C 
ATOM     49  C   UNL A   1      45.942  27.417  29.251  1.00  0.00     0.029 A 
ATOM     50  C   UNL A   1      46.912  26.911  28.298  1.00  0.00     0.049 A 
ATOM     51  H   UNL A   1      46.610  25.091  27.232  1.00  0.00     0.167 HD
ATOM     52  C   UNL A   1      40.748  28.987  28.264  1.00  0.00     0.031 A 
ATOM     53  C   UNL A   1      47.920  27.575  27.677  1.00  0.00     0.031 A 
ATOM     54  C   UNL A   1      41.907  29.702  28.826  1.00  0.00     0.049 A 
ATOM     55  C   UNL A   1      47.514  29.014  27.533  1.00  0.00     0.074 A 
ATOM     56  C   UNL A   1      42.523  29.705  30.068  1.00  0.00     0.029 A 
ATOM     57  N   UNL A   1      42.813  30.310  27.954  1.00  0.00    -0.354 N 
ATOM     58  N   UNL A   1      46.278  29.410  27.673  1.00  0.00    -0.248 NA
ATOM     59  C   UNL A   1      48.427  30.123  27.308  1.00  0.00     0.031 C 
ATOM     60  C   UNL A   1      43.818  30.289  29.920  1.00  0.00     0.029 A 
ATOM     61  C   UNL A   1      43.982  30.672  28.598  1.00  0.00     0.049 A 
ATOM     62  H   UNL A   1      42.641  30.461  26.996  1.00  0.00     0.167 HD
ATOM     63  C   UNL A   1      46.211  30.766  27.662  1.00  0.00     0.074 A 
ATOM     64  C   UNL A   1      47.584  31.170  27.394  1.00  0.00     0.031 C 
ATOM     65  C   UNL A   1      45.029  31.416  27.883  1.00  0.00     0.031 A 
BRANCH  52  66
ATOM     66  C   UNL A   1      39.333  29.101  28.788  1.00  0.00    -0.014 A 
ATOM     67  C   UNL A   1      38.368  29.816  28.057  1.00  0.00     0.009 A 
ATOM     68  C   UNL A   1      38.881  28.547  30.001  1.00  0.00     0.009 A 
ATOM     69  C   UNL A   1      37.064  30.017  28.539  1.00  0.00     0.001 A 
ATOM     70  C   UNL A   1      37.595  28.774  30.510  1.00  0.00     0.001 A 
ATOM     71  C   UNL A   1      36.683  29.513  29.776  1.00  0.00     0.000 A 
ENDBRANCH  52  66
BRANCH  53  72
ATOM     72  C   UNL A   1      48.668  26.679  26.737  1.00  0.00    -0.014 A 
ATOM     73  C   UNL A   1      48.547  26.970  25.354  1.00  0.00     0.009 A 
ATOM     74  C   UNL A   1      49.810  25.981  27.158  1.00  0.00     0.009 A 
ATOM     75  C   UNL A   1      49.596  26.716  24.460  1.00  0.00     0.001 A 
ATOM     76  C   UNL A   1      50.855  25.718  26.253  1.00  0.00     0.001 A 
ATOM     77  C   UNL A   1      50.767  26.127  24.921  1.00  0.00     0.000 A 
ENDBRANCH  53  72
BRANCH  65  78
ATOM     78  C   UNL A   1      44.733  32.835  27.467  1.00  0.00    -0.014 A 
ATOM     79  C   UNL A   1      44.733  33.935  28.331  1.00  0.00     0.009 A 
ATOM     80  C   UNL A   1      44.587  33.124  26.089  1.00  0.00     0.009 A 
ATOM     81  C   UNL A   1      44.585  35.242  27.855  1.00  0.00     0.001 A 
ATOM     82  C   UNL A   1      44.502  34.428  25.603  1.00  0.00     0.001 A 
ATOM     83  C   UNL A   1      44.491  35.490  26.491  1.00  0.00     0.000 A 
ENDBRANCH  65  78
ENDBRANCH  39  40
ENDBRANCH  32  34
ENDBRANCH  31  32
ENDBRANCH  30  31
ENDBRANCH  29  30
ENDBRANCH  28  29
ENDBRANCH   1  28
TORSDOF 18
ENDMDL
