MODEL 1
REMARK VINA RESULT:     -12.4      0.000      0.000
REMARK SMILES O=C(OCCOCCOC(=O)c1ccc(N2C(=O)[C@@H]3N=NC(c4ccccc4)=C3[C@H]2c2cccc(Br)c2)cc1)c1ccc(-c2c3nc(c(-c4ccccc4)c4ccc([nH]4)c(-c4ccccc4)c4nc(c(-c5ccccc5)c5ccc2[nH]5)C=C4)C=C3)cc1
REMARK SMILES IDX 6 1 5 2 4 3 3 4 2 5 1 6 40 7 41 8 87 9 42 10 86 11 43 12
REMARK SMILES IDX 44 13 45 14 80 15 46 16 85 17 79 18 81 19 47 20 84 21 78 22
REMARK SMILES IDX 77 23 48 25 70 26 55 27 69 28 56 29 59 30 68 31 82 32 57 33
REMARK SMILES IDX 58 34 67 36 83 37 60 38 49 39 50 40 54 41 51 42 53 43 52 44
REMARK SMILES IDX 71 45 72 46 76 47 73 48 75 49 74 50 61 51 62 52 66 53 63 54
REMARK SMILES IDX 65 55 64 56 7 57 8 58 9 59 10 60 11 61 12 62 13 63 39 64
REMARK SMILES IDX 14 65 38 66 15 67 16 68 17 69 30 70 19 71 18 72 29 73 20 74
REMARK SMILES IDX 22 75 21 76 31 77 32 78 37 79 33 80 35 81 34 82 36 83 23 84
REMARK SMILES IDX 24 85 28 86 25 87 27 88 26 89
REMARK H PARENT 81 24 59 35
REMARK Flexibility Score: inf
ROOT
ATOM      1  O   UNL A   1      43.496  18.903  25.217  1.00  0.00    -0.374 OA
ENDROOT
BRANCH   1   2
ATOM      2  C   UNL A   1      44.784  18.477  25.647  1.00  0.00     0.202 C 
BRANCH   2   3
ATOM      3  C   UNL A   1      45.990  19.197  25.049  1.00  0.00     0.261 C 
BRANCH   3   4
ATOM      4  O   UNL A   1      46.052  20.600  25.360  1.00  0.00    -0.460 OA
BRANCH   4   5
ATOM      5  C   UNL A   1      45.485  21.606  24.662  1.00  0.00     0.338 C 
ATOM      6  O   UNL A   1      44.857  21.361  23.634  1.00  0.00    -0.246 OA
BRANCH   5   7
ATOM      7  C   UNL A   1      45.357  22.957  25.265  1.00  0.00     0.060 A 
ATOM      8  C   UNL A   1      45.986  23.387  26.431  1.00  0.00     0.016 A 
ATOM      9  C   UNL A   1      44.416  23.801  24.648  1.00  0.00     0.016 A 
ATOM     10  C   UNL A   1      45.491  24.484  27.109  1.00  0.00     0.010 A 
ATOM     11  C   UNL A   1      43.957  24.936  25.290  1.00  0.00     0.010 A 
ATOM     12  C   UNL A   1      44.430  25.212  26.563  1.00  0.00    -0.014 A 
BRANCH  12  13
ATOM     13  C   UNL A   1      43.964  26.369  27.301  1.00  0.00     0.031 A 
ATOM     14  C   UNL A   1      44.866  27.535  27.161  1.00  0.00     0.074 A 
ATOM     15  C   UNL A   1      42.814  26.401  28.001  1.00  0.00     0.049 A 
ATOM     16  N   UNL A   1      45.654  28.014  28.063  1.00  0.00    -0.248 NA
ATOM     17  C   UNL A   1      45.062  28.110  25.820  1.00  0.00     0.031 C 
ATOM     18  C   UNL A   1      41.730  25.418  28.028  1.00  0.00     0.029 A 
ATOM     19  N   UNL A   1      42.333  27.399  28.790  1.00  0.00    -0.354 N 
ATOM     20  C   UNL A   1      46.302  29.088  27.467  1.00  0.00     0.074 A 
ATOM     21  C   UNL A   1      46.033  28.994  26.054  1.00  0.00     0.031 C 
ATOM     22  C   UNL A   1      40.631  25.980  28.588  1.00  0.00     0.029 A 
ATOM     23  C   UNL A   1      40.981  27.299  29.089  1.00  0.00     0.049 A 
ATOM     24  H   UNL A   1      42.899  28.133  29.122  1.00  0.00     0.167 HD
ATOM     25  C   UNL A   1      46.788  30.110  28.222  1.00  0.00     0.031 A 
ATOM     26  C   UNL A   1      40.208  28.258  29.662  1.00  0.00     0.031 A 
ATOM     27  C   UNL A   1      46.887  29.740  29.612  1.00  0.00     0.049 A 
ATOM     28  C   UNL A   1      41.115  29.205  30.352  1.00  0.00     0.074 A 
ATOM     29  C   UNL A   1      47.583  28.778  30.315  1.00  0.00     0.029 A 
ATOM     30  N   UNL A   1      45.867  30.153  30.435  1.00  0.00    -0.354 N 
ATOM     31  N   UNL A   1      41.798  28.890  31.414  1.00  0.00    -0.248 NA
ATOM     32  C   UNL A   1      41.624  30.339  29.596  1.00  0.00     0.031 C 
ATOM     33  C   UNL A   1      46.675  28.327  31.316  1.00  0.00     0.029 A 
ATOM     34  C   UNL A   1      45.512  29.094  31.227  1.00  0.00     0.049 A 
ATOM     35  H   UNL A   1      45.464  31.051  30.452  1.00  0.00     0.167 HD
ATOM     36  C   UNL A   1      43.047  29.453  31.202  1.00  0.00     0.074 A 
ATOM     37  C   UNL A   1      42.853  30.413  30.115  1.00  0.00     0.031 C 
ATOM     38  C   UNL A   1      44.172  28.878  31.722  1.00  0.00     0.031 A 
BRANCH  25  39
ATOM     39  C   UNL A   1      46.711  31.552  27.790  1.00  0.00    -0.014 A 
ATOM     40  C   UNL A   1      45.453  32.084  27.456  1.00  0.00     0.009 A 
ATOM     41  C   UNL A   1      47.839  32.301  27.403  1.00  0.00     0.009 A 
ATOM     42  C   UNL A   1      45.338  33.253  26.695  1.00  0.00     0.001 A 
ATOM     43  C   UNL A   1      47.725  33.489  26.677  1.00  0.00     0.001 A 
ATOM     44  C   UNL A   1      46.475  33.948  26.296  1.00  0.00     0.000 A 
ENDBRANCH  25  39
BRANCH  26  45
ATOM     45  C   UNL A   1      38.784  28.589  29.423  1.00  0.00    -0.014 A 
ATOM     46  C   UNL A   1      37.901  28.785  30.499  1.00  0.00     0.009 A 
ATOM     47  C   UNL A   1      38.363  29.009  28.149  1.00  0.00     0.009 A 
ATOM     48  C   UNL A   1      36.663  29.419  30.314  1.00  0.00     0.001 A 
ATOM     49  C   UNL A   1      37.127  29.641  27.964  1.00  0.00     0.001 A 
ATOM     50  C   UNL A   1      36.285  29.861  29.049  1.00  0.00     0.000 A 
ENDBRANCH  26  45
BRANCH  38  51
ATOM     51  C   UNL A   1      43.999  27.772  32.735  1.00  0.00    -0.014 A 
ATOM     52  C   UNL A   1      43.996  26.404  32.406  1.00  0.00     0.009 A 
ATOM     53  C   UNL A   1      43.981  28.128  34.092  1.00  0.00     0.009 A 
ATOM     54  C   UNL A   1      43.942  25.429  33.408  1.00  0.00     0.001 A 
ATOM     55  C   UNL A   1      43.951  27.155  35.090  1.00  0.00     0.001 A 
ATOM     56  C   UNL A   1      43.924  25.805  34.749  1.00  0.00     0.000 A 
ENDBRANCH  38  51
ENDBRANCH  12  13
ENDBRANCH   5   7
ENDBRANCH   4   5
ENDBRANCH   3   4
ENDBRANCH   2   3
ENDBRANCH   1   2
BRANCH   1  57
ATOM     57  C   UNL A   1      42.430  18.785  26.165  1.00  0.00     0.202 C 
BRANCH  57  58
ATOM     58  C   UNL A   1      41.996  20.015  26.980  1.00  0.00     0.261 C 
BRANCH  58  59
ATOM     59  O   UNL A   1      40.643  20.445  26.723  1.00  0.00    -0.460 OA
BRANCH  59  60
ATOM     60  C   UNL A   1      40.538  21.713  26.248  1.00  0.00     0.338 C 
ATOM     61  O   UNL A   1      41.433  22.392  25.786  1.00  0.00    -0.246 OA
BRANCH  60  62
ATOM     62  C   UNL A   1      39.121  22.139  26.172  1.00  0.00     0.060 A 
ATOM     63  C   UNL A   1      38.205  21.208  25.676  1.00  0.00     0.018 A 
ATOM     64  C   UNL A   1      38.705  23.442  26.461  1.00  0.00     0.018 A 
ATOM     65  C   UNL A   1      36.886  21.589  25.435  1.00  0.00     0.027 A 
ATOM     66  C   UNL A   1      37.383  23.836  26.171  1.00  0.00     0.027 A 
ATOM     67  C   UNL A   1      36.474  22.917  25.638  1.00  0.00     0.045 A 
BRANCH  67  68
ATOM     68  N   UNL A   1      35.143  23.297  25.284  1.00  0.00    -0.299 N 
ATOM     69  C   UNL A   1      34.166  23.234  26.334  1.00  0.00     0.259 C 
ATOM     70  C   UNL A   1      34.564  22.799  24.006  1.00  0.00     0.152 C 
ATOM     71  C   UNL A   1      32.885  22.726  25.737  1.00  0.00     0.248 C 
ATOM     72  O   UNL A   1      34.349  23.490  27.516  1.00  0.00    -0.271 OA
ATOM     73  C   UNL A   1      33.482  21.983  24.603  1.00  0.00     0.021 C 
ATOM     74  N   UNL A   1      32.201  21.664  26.482  1.00  0.00    -0.170 NA
ATOM     75  C   UNL A   1      32.987  20.749  24.661  1.00  0.00     0.097 C 
ATOM     76  N   UNL A   1      32.172  20.617  25.772  1.00  0.00    -0.154 NA
BRANCH  70  77
ATOM     77  C   UNL A   1      33.967  23.894  23.096  1.00  0.00    -0.020 A 
ATOM     78  C   UNL A   1      33.321  23.563  21.877  1.00  0.00     0.006 A 
ATOM     79  C   UNL A   1      34.084  25.260  23.397  1.00  0.00     0.022 A 
ATOM     80  C   UNL A   1      32.760  24.523  21.035  1.00  0.00     0.002 A 
ATOM     81  C   UNL A   1      33.550  26.227  22.526  1.00  0.00     0.018 A 
ATOM     82  C   UNL A   1      32.877  25.864  21.360  1.00  0.00     0.016 A 
ATOM     83  Br  UNL A   1      33.758  28.069  22.913  1.00  0.00    -0.051 Br
ENDBRANCH  70  77
BRANCH  75  84
ATOM     84  C   UNL A   1      33.302  19.528  23.917  1.00  0.00     0.002 A 
ATOM     85  C   UNL A   1      32.410  19.016  22.965  1.00  0.00     0.010 A 
ATOM     86  C   UNL A   1      34.333  18.709  24.400  1.00  0.00     0.010 A 
ATOM     87  C   UNL A   1      32.486  17.670  22.591  1.00  0.00     0.001 A 
ATOM     88  C   UNL A   1      34.402  17.367  24.027  1.00  0.00     0.001 A 
ATOM     89  C   UNL A   1      33.460  16.841  23.147  1.00  0.00     0.000 A 
ENDBRANCH  75  84
ENDBRANCH  67  68
ENDBRANCH  60  62
ENDBRANCH  59  60
ENDBRANCH  58  59
ENDBRANCH  57  58
ENDBRANCH   1  57
TORSDOF 17
ENDMDL
MODEL 2
REMARK VINA RESULT:     -11.9      1.811      2.532
REMARK SMILES O=C(OCCOCCOC(=O)c1ccc(N2C(=O)[C@@H]3N=NC(c4ccccc4)=C3[C@H]2c2cccc(Br)c2)cc1)c1ccc(-c2c3nc(c(-c4ccccc4)c4ccc([nH]4)c(-c4ccccc4)c4nc(c(-c5ccccc5)c5ccc2[nH]5)C=C4)C=C3)cc1
REMARK SMILES IDX 6 1 5 2 4 3 3 4 2 5 1 6 40 7 41 8 87 9 42 10 86 11 43 12
REMARK SMILES IDX 44 13 45 14 80 15 46 16 85 17 79 18 81 19 47 20 84 21 78 22
REMARK SMILES IDX 77 23 48 25 70 26 55 27 69 28 56 29 59 30 68 31 82 32 57 33
REMARK SMILES IDX 58 34 67 36 83 37 60 38 49 39 50 40 54 41 51 42 53 43 52 44
REMARK SMILES IDX 71 45 72 46 76 47 73 48 75 49 74 50 61 51 62 52 66 53 63 54
REMARK SMILES IDX 65 55 64 56 7 57 8 58 9 59 10 60 11 61 12 62 13 63 39 64
REMARK SMILES IDX 14 65 38 66 15 67 16 68 17 69 30 70 19 71 18 72 29 73 20 74
REMARK SMILES IDX 22 75 21 76 31 77 32 78 37 79 33 80 35 81 34 82 36 83 23 84
REMARK SMILES IDX 24 85 28 86 25 87 27 88 26 89
REMARK H PARENT 81 24 59 35
REMARK Flexibility Score: inf
ROOT
ATOM      1  O   UNL A   1      43.439  20.124  24.820  1.00  0.00    -0.374 OA
ENDROOT
BRANCH   1   2
ATOM      2  C   UNL A   1      44.715  20.699  25.079  1.00  0.00     0.202 C 
BRANCH   2   3
ATOM      3  C   UNL A   1      44.738  22.060  25.771  1.00  0.00     0.261 C 
BRANCH   3   4
ATOM      4  O   UNL A   1      44.590  23.177  24.876  1.00  0.00    -0.460 OA
BRANCH   4   5
ATOM      5  C   UNL A   1      44.918  24.461  25.130  1.00  0.00     0.338 C 
ATOM      6  O   UNL A   1      45.885  24.970  24.566  1.00  0.00    -0.246 OA
BRANCH   5   7
ATOM      7  C   UNL A   1      43.967  25.349  25.845  1.00  0.00     0.060 A 
ATOM      8  C   UNL A   1      42.898  26.027  25.266  1.00  0.00     0.016 A 
ATOM      9  C   UNL A   1      44.282  25.600  27.194  1.00  0.00     0.016 A 
ATOM     10  C   UNL A   1      42.347  27.116  25.914  1.00  0.00     0.010 A 
ATOM     11  C   UNL A   1      43.692  26.649  27.873  1.00  0.00     0.010 A 
ATOM     12  C   UNL A   1      42.799  27.460  27.191  1.00  0.00    -0.014 A 
BRANCH  12  13
ATOM     13  C   UNL A   1      42.172  28.595  27.839  1.00  0.00     0.031 A 
ATOM     14  C   UNL A   1      42.995  29.824  27.757  1.00  0.00     0.074 A 
ATOM     15  C   UNL A   1      40.955  28.554  28.413  1.00  0.00     0.049 A 
ATOM     16  N   UNL A   1      43.645  30.382  28.722  1.00  0.00    -0.248 NA
ATOM     17  C   UNL A   1      43.290  30.380  26.427  1.00  0.00     0.031 C 
ATOM     18  C   UNL A   1      39.950  27.491  28.358  1.00  0.00     0.029 A 
ATOM     19  N   UNL A   1      40.320  29.531  29.116  1.00  0.00    -0.354 N 
ATOM     20  C   UNL A   1      44.272  31.489  28.164  1.00  0.00     0.074 A 
ATOM     21  C   UNL A   1      44.163  31.341  26.734  1.00  0.00     0.031 C 
ATOM     22  C   UNL A   1      38.759  27.980  28.782  1.00  0.00     0.029 A 
ATOM     23  C   UNL A   1      38.955  29.334  29.275  1.00  0.00     0.049 A 
ATOM     24  H   UNL A   1      40.791  30.314  29.483  1.00  0.00     0.167 HD
ATOM     25  C   UNL A   1      44.597  32.563  28.933  1.00  0.00     0.031 A 
ATOM     26  C   UNL A   1      38.056  30.243  29.734  1.00  0.00     0.031 A 
ATOM     27  C   UNL A   1      44.575  32.234  30.336  1.00  0.00     0.049 A 
ATOM     28  C   UNL A   1      38.812  31.274  30.485  1.00  0.00     0.074 A 
ATOM     29  C   UNL A   1      45.261  31.345  31.138  1.00  0.00     0.029 A 
ATOM     30  N   UNL A   1      43.445  32.587  31.035  1.00  0.00    -0.354 N 
ATOM     31  N   UNL A   1      39.399  31.037  31.622  1.00  0.00    -0.248 NA
ATOM     32  C   UNL A   1      39.313  32.425  29.751  1.00  0.00     0.031 C 
ATOM     33  C   UNL A   1      44.287  30.849  32.053  1.00  0.00     0.029 A 
ATOM     34  C   UNL A   1      43.086  31.522  31.818  1.00  0.00     0.049 A 
ATOM     35  H   UNL A   1      42.977  33.450  30.982  1.00  0.00     0.167 HD
ATOM     36  C   UNL A   1      40.619  31.689  31.524  1.00  0.00     0.074 A 
ATOM     37  C   UNL A   1      40.471  32.606  30.393  1.00  0.00     0.031 C 
ATOM     38  C   UNL A   1      41.721  31.215  32.177  1.00  0.00     0.031 A 
BRANCH  25  39
ATOM     39  C   UNL A   1      44.460  33.984  28.450  1.00  0.00    -0.014 A 
ATOM     40  C   UNL A   1      43.182  34.572  28.453  1.00  0.00     0.009 A 
ATOM     41  C   UNL A   1      45.460  34.647  27.713  1.00  0.00     0.009 A 
ATOM     42  C   UNL A   1      42.903  35.706  27.684  1.00  0.00     0.001 A 
ATOM     43  C   UNL A   1      45.194  35.802  26.976  1.00  0.00     0.001 A 
ATOM     44  C   UNL A   1      43.907  36.314  26.937  1.00  0.00     0.000 A 
ENDBRANCH  25  39
BRANCH  26  45
ATOM     45  C   UNL A   1      36.646  30.458  29.337  1.00  0.00    -0.014 A 
ATOM     46  C   UNL A   1      35.911  31.541  29.849  1.00  0.00     0.009 A 
ATOM     47  C   UNL A   1      36.115  29.777  28.227  1.00  0.00     0.009 A 
ATOM     48  C   UNL A   1      34.716  31.956  29.244  1.00  0.00     0.001 A 
ATOM     49  C   UNL A   1      34.921  30.191  27.624  1.00  0.00     0.001 A 
ATOM     50  C   UNL A   1      34.230  31.290  28.121  1.00  0.00     0.000 A 
ENDBRANCH  26  45
BRANCH  38  51
ATOM     51  C   UNL A   1      41.523  30.122  33.200  1.00  0.00    -0.014 A 
ATOM     52  C   UNL A   1      41.493  28.752  32.885  1.00  0.00     0.009 A 
ATOM     53  C   UNL A   1      41.511  30.492  34.553  1.00  0.00     0.009 A 
ATOM     54  C   UNL A   1      41.417  27.788  33.896  1.00  0.00     0.001 A 
ATOM     55  C   UNL A   1      41.460  29.530  35.562  1.00  0.00     0.001 A 
ATOM     56  C   UNL A   1      41.404  28.178  35.234  1.00  0.00     0.000 A 
ENDBRANCH  38  51
ENDBRANCH  12  13
ENDBRANCH   5   7
ENDBRANCH   4   5
ENDBRANCH   3   4
ENDBRANCH   2   3
ENDBRANCH   1   2
BRANCH   1  57
ATOM     57  C   UNL A   1      42.853  19.355  25.875  1.00  0.00     0.202 C 
BRANCH  57  58
ATOM     58  C   UNL A   1      41.891  20.030  26.867  1.00  0.00     0.261 C 
BRANCH  58  59
ATOM     59  O   UNL A   1      40.663  20.498  26.270  1.00  0.00    -0.460 OA
BRANCH  59  60
ATOM     60  C   UNL A   1      40.533  21.849  26.241  1.00  0.00     0.338 C 
ATOM     61  O   UNL A   1      41.429  22.663  26.136  1.00  0.00    -0.246 OA
BRANCH  60  62
ATOM     62  C   UNL A   1      39.108  22.246  26.154  1.00  0.00     0.060 A 
ATOM     63  C   UNL A   1      38.215  21.299  25.646  1.00  0.00     0.018 A 
ATOM     64  C   UNL A   1      38.663  23.539  26.444  1.00  0.00     0.018 A 
ATOM     65  C   UNL A   1      36.891  21.653  25.396  1.00  0.00     0.027 A 
ATOM     66  C   UNL A   1      37.336  23.907  26.144  1.00  0.00     0.027 A 
ATOM     67  C   UNL A   1      36.450  22.971  25.600  1.00  0.00     0.045 A 
BRANCH  67  68
ATOM     68  N   UNL A   1      35.115  23.325  25.236  1.00  0.00    -0.299 N 
ATOM     69  C   UNL A   1      34.134  23.260  26.282  1.00  0.00     0.259 C 
ATOM     70  C   UNL A   1      34.549  22.803  23.962  1.00  0.00     0.152 C 
ATOM     71  C   UNL A   1      32.864  22.724  25.687  1.00  0.00     0.248 C 
ATOM     72  O   UNL A   1      34.309  23.533  27.462  1.00  0.00    -0.271 OA
ATOM     73  C   UNL A   1      33.478  21.977  24.565  1.00  0.00     0.021 C 
ATOM     74  N   UNL A   1      32.195  21.660  26.442  1.00  0.00    -0.170 NA
ATOM     75  C   UNL A   1      33.003  20.736  24.636  1.00  0.00     0.097 C 
ATOM     76  N   UNL A   1      32.185  20.604  25.745  1.00  0.00    -0.154 NA
BRANCH  70  77
ATOM     77  C   UNL A   1      33.939  23.877  23.036  1.00  0.00    -0.020 A 
ATOM     78  C   UNL A   1      33.260  23.517  21.843  1.00  0.00     0.006 A 
ATOM     79  C   UNL A   1      34.073  25.250  23.295  1.00  0.00     0.022 A 
ATOM     80  C   UNL A   1      32.686  24.458  20.989  1.00  0.00     0.002 A 
ATOM     81  C   UNL A   1      33.525  26.197  22.411  1.00  0.00     0.018 A 
ATOM     82  C   UNL A   1      32.821  25.807  21.272  1.00  0.00     0.016 A 
ATOM     83  Br  UNL A   1      33.757  28.047  22.740  1.00  0.00    -0.051 Br
ENDBRANCH  70  77
BRANCH  75  84
ATOM     84  C   UNL A   1      33.340  19.511  23.908  1.00  0.00     0.002 A 
ATOM     85  C   UNL A   1      32.452  18.963  22.973  1.00  0.00     0.010 A 
ATOM     86  C   UNL A   1      34.395  18.725  24.395  1.00  0.00     0.010 A 
ATOM     87  C   UNL A   1      32.558  17.614  22.619  1.00  0.00     0.001 A 
ATOM     88  C   UNL A   1      34.493  17.379  24.042  1.00  0.00     0.001 A 
ATOM     89  C   UNL A   1      33.556  16.816  23.179  1.00  0.00     0.000 A 
ENDBRANCH  75  84
ENDBRANCH  67  68
ENDBRANCH  60  62
ENDBRANCH  59  60
ENDBRANCH  58  59
ENDBRANCH  57  58
ENDBRANCH   1  57
TORSDOF 17
ENDMDL
MODEL 3
REMARK VINA RESULT:     -11.8      3.744      8.599
REMARK SMILES O=C(OCCOCCOC(=O)c1ccc(N2C(=O)[C@@H]3N=NC(c4ccccc4)=C3[C@H]2c2cccc(Br)c2)cc1)c1ccc(-c2c3nc(c(-c4ccccc4)c4ccc([nH]4)c(-c4ccccc4)c4nc(c(-c5ccccc5)c5ccc2[nH]5)C=C4)C=C3)cc1
REMARK SMILES IDX 6 1 5 2 4 3 3 4 2 5 1 6 40 7 41 8 87 9 42 10 86 11 43 12
REMARK SMILES IDX 44 13 45 14 80 15 46 16 85 17 79 18 81 19 47 20 84 21 78 22
REMARK SMILES IDX 77 23 48 25 70 26 55 27 69 28 56 29 59 30 68 31 82 32 57 33
REMARK SMILES IDX 58 34 67 36 83 37 60 38 49 39 50 40 54 41 51 42 53 43 52 44
REMARK SMILES IDX 71 45 72 46 76 47 73 48 75 49 74 50 61 51 62 52 66 53 63 54
REMARK SMILES IDX 65 55 64 56 7 57 8 58 9 59 10 60 11 61 12 62 13 63 39 64
REMARK SMILES IDX 14 65 38 66 15 67 16 68 17 69 30 70 19 71 18 72 29 73 20 74
REMARK SMILES IDX 22 75 21 76 31 77 32 78 37 79 33 80 35 81 34 82 36 83 23 84
REMARK SMILES IDX 24 85 28 86 25 87 27 88 26 89
REMARK H PARENT 81 24 59 35
REMARK Flexibility Score: inf
ROOT
ATOM      1  O   UNL A   1      32.978  30.147  26.131  1.00  0.00    -0.374 OA
ENDROOT
BRANCH   1   2
ATOM      2  C   UNL A   1      32.212  31.232  26.646  1.00  0.00     0.202 C 
BRANCH   2   3
ATOM      3  C   UNL A   1      32.943  32.245  27.523  1.00  0.00     0.261 C 
BRANCH   3   4
ATOM      4  O   UNL A   1      34.090  31.712  28.209  1.00  0.00    -0.460 OA
BRANCH   4   5
ATOM      5  C   UNL A   1      35.382  32.034  27.990  1.00  0.00     0.338 C 
ATOM      6  O   UNL A   1      35.667  33.128  27.504  1.00  0.00    -0.246 OA
BRANCH   5   7
ATOM      7  C   UNL A   1      36.469  31.222  28.592  1.00  0.00     0.060 A 
ATOM      8  C   UNL A   1      37.568  31.724  29.284  1.00  0.00     0.016 A 
ATOM      9  C   UNL A   1      36.412  29.845  28.312  1.00  0.00     0.016 A 
ATOM     10  C   UNL A   1      38.696  30.939  29.436  1.00  0.00     0.010 A 
ATOM     11  C   UNL A   1      37.514  29.036  28.517  1.00  0.00     0.010 A 
ATOM     12  C   UNL A   1      38.681  29.616  28.987  1.00  0.00    -0.014 A 
BRANCH  12  13
ATOM     13  C   UNL A   1      39.880  28.827  29.193  1.00  0.00     0.031 A 
ATOM     14  C   UNL A   1      40.233  28.691  30.625  1.00  0.00     0.074 A 
ATOM     15  C   UNL A   1      40.574  28.242  28.199  1.00  0.00     0.049 A 
ATOM     16  N   UNL A   1      41.215  29.263  31.235  1.00  0.00    -0.248 NA
ATOM     17  C   UNL A   1      39.283  28.007  31.517  1.00  0.00     0.031 C 
ATOM     18  C   UNL A   1      40.211  28.097  26.788  1.00  0.00     0.029 A 
ATOM     19  N   UNL A   1      41.748  27.559  28.277  1.00  0.00    -0.354 N 
ATOM     20  C   UNL A   1      41.132  28.848  32.557  1.00  0.00     0.074 A 
ATOM     21  C   UNL A   1      39.841  28.225  32.708  1.00  0.00     0.031 C 
ATOM     22  C   UNL A   1      41.014  27.170  26.213  1.00  0.00     0.029 A 
ATOM     23  C   UNL A   1      42.035  26.773  27.170  1.00  0.00     0.049 A 
ATOM     24  H   UNL A   1      42.346  27.618  29.057  1.00  0.00     0.167 HD
ATOM     25  C   UNL A   1      42.240  28.818  33.346  1.00  0.00     0.031 A 
ATOM     26  C   UNL A   1      43.013  25.835  27.077  1.00  0.00     0.031 A 
ATOM     27  C   UNL A   1      43.312  29.600  32.782  1.00  0.00     0.049 A 
ATOM     28  C   UNL A   1      44.009  26.126  28.135  1.00  0.00     0.074 A 
ATOM     29  C   UNL A   1      43.476  30.931  32.453  1.00  0.00     0.029 A 
ATOM     30  N   UNL A   1      44.281  28.913  32.090  1.00  0.00    -0.354 N 
ATOM     31  N   UNL A   1      44.785  27.171  28.112  1.00  0.00    -0.248 NA
ATOM     32  C   UNL A   1      43.816  25.519  29.442  1.00  0.00     0.031 C 
ATOM     33  C   UNL A   1      44.213  30.919  31.233  1.00  0.00     0.029 A 
ATOM     34  C   UNL A   1      44.531  29.594  30.929  1.00  0.00     0.049 A 
ATOM     35  H   UNL A   1      44.716  28.079  32.379  1.00  0.00     0.167 HD
ATOM     36  C   UNL A   1      44.787  27.628  29.421  1.00  0.00     0.074 A 
ATOM     37  C   UNL A   1      44.254  26.519  30.213  1.00  0.00     0.031 C 
ATOM     38  C   UNL A   1      44.941  28.957  29.699  1.00  0.00     0.031 A 
BRANCH  25  39
ATOM     39  C   UNL A   1      42.503  27.721  34.345  1.00  0.00    -0.014 A 
ATOM     40  C   UNL A   1      42.558  28.057  35.710  1.00  0.00     0.009 A 
ATOM     41  C   UNL A   1      43.000  26.453  33.985  1.00  0.00     0.009 A 
ATOM     42  C   UNL A   1      43.164  27.209  36.642  1.00  0.00     0.001 A 
ATOM     43  C   UNL A   1      43.570  25.588  34.920  1.00  0.00     0.001 A 
ATOM     44  C   UNL A   1      43.680  25.980  36.245  1.00  0.00     0.000 A 
ENDBRANCH  25  39
BRANCH  26  45
ATOM     45  C   UNL A   1      43.015  24.545  26.349  1.00  0.00    -0.014 A 
ATOM     46  C   UNL A   1      43.658  24.421  25.106  1.00  0.00     0.009 A 
ATOM     47  C   UNL A   1      42.648  23.360  27.013  1.00  0.00     0.009 A 
ATOM     48  C   UNL A   1      43.963  23.161  24.570  1.00  0.00     0.001 A 
ATOM     49  C   UNL A   1      42.953  22.103  26.478  1.00  0.00     0.001 A 
ATOM     50  C   UNL A   1      43.625  22.003  25.265  1.00  0.00     0.000 A 
ENDBRANCH  26  45
BRANCH  38  51
ATOM     51  C   UNL A   1      45.359  29.872  28.574  1.00  0.00    -0.014 A 
ATOM     52  C   UNL A   1      44.456  30.473  27.678  1.00  0.00     0.009 A 
ATOM     53  C   UNL A   1      46.708  30.251  28.510  1.00  0.00     0.009 A 
ATOM     54  C   UNL A   1      44.902  31.399  26.728  1.00  0.00     0.001 A 
ATOM     55  C   UNL A   1      47.148  31.191  27.578  1.00  0.00     0.001 A 
ATOM     56  C   UNL A   1      46.247  31.760  26.681  1.00  0.00     0.000 A 
ENDBRANCH  38  51
ENDBRANCH  12  13
ENDBRANCH   5   7
ENDBRANCH   4   5
ENDBRANCH   3   4
ENDBRANCH   2   3
ENDBRANCH   1   2
BRANCH   1  57
ATOM     57  C   UNL A   1      32.248  29.003  25.678  1.00  0.00     0.202 C 
BRANCH  57  58
ATOM     58  C   UNL A   1      31.348  29.116  24.436  1.00  0.00     0.261 C 
BRANCH  58  59
ATOM     59  O   UNL A   1      31.929  28.564  23.235  1.00  0.00    -0.460 OA
BRANCH  59  60
ATOM     60  C   UNL A   1      31.144  27.658  22.598  1.00  0.00     0.338 C 
ATOM     61  O   UNL A   1      30.337  27.886  21.719  1.00  0.00    -0.246 OA
BRANCH  60  62
ATOM     62  C   UNL A   1      31.521  26.273  22.966  1.00  0.00     0.060 A 
ATOM     63  C   UNL A   1      30.503  25.316  22.962  1.00  0.00     0.018 A 
ATOM     64  C   UNL A   1      32.799  25.930  23.418  1.00  0.00     0.018 A 
ATOM     65  C   UNL A   1      30.752  24.031  23.440  1.00  0.00     0.027 A 
ATOM     66  C   UNL A   1      33.033  24.645  23.947  1.00  0.00     0.027 A 
ATOM     67  C   UNL A   1      32.005  23.697  23.979  1.00  0.00     0.045 A 
BRANCH  67  68
ATOM     68  N   UNL A   1      32.195  22.403  24.555  1.00  0.00    -0.299 N 
ATOM     69  C   UNL A   1      31.852  22.270  25.942  1.00  0.00     0.259 C 
ATOM     70  C   UNL A   1      33.447  21.655  24.256  1.00  0.00     0.152 C 
ATOM     71  C   UNL A   1      32.872  21.373  26.582  1.00  0.00     0.248 C 
ATOM     72  O   UNL A   1      30.932  22.830  26.522  1.00  0.00    -0.271 OA
ATOM     73  C   UNL A   1      33.982  21.637  25.636  1.00  0.00     0.021 C 
ATOM     74  N   UNL A   1      33.431  21.834  27.857  1.00  0.00    -0.170 NA
ATOM     75  C   UNL A   1      35.030  21.989  26.377  1.00  0.00     0.097 C 
ATOM     76  N   UNL A   1      34.672  22.036  27.713  1.00  0.00    -0.154 NA
BRANCH  70  77
ATOM     77  C   UNL A   1      33.233  20.212  23.747  1.00  0.00    -0.020 A 
ATOM     78  C   UNL A   1      32.366  19.940  22.656  1.00  0.00     0.006 A 
ATOM     79  C   UNL A   1      33.831  19.105  24.368  1.00  0.00     0.022 A 
ATOM     80  C   UNL A   1      32.157  18.653  22.163  1.00  0.00     0.002 A 
ATOM     81  C   UNL A   1      33.588  17.805  23.890  1.00  0.00     0.018 A 
ATOM     82  C   UNL A   1      32.769  17.577  22.784  1.00  0.00     0.016 A 
ATOM     83  Br  UNL A   1      34.357  16.313  24.766  1.00  0.00    -0.051 Br
ENDBRANCH  70  77
BRANCH  75  84
ATOM     84  C   UNL A   1      36.353  22.505  26.024  1.00  0.00     0.002 A 
ATOM     85  C   UNL A   1      37.416  21.633  25.754  1.00  0.00     0.010 A 
ATOM     86  C   UNL A   1      36.625  23.857  26.283  1.00  0.00     0.010 A 
ATOM     87  C   UNL A   1      38.736  22.089  25.854  1.00  0.00     0.001 A 
ATOM     88  C   UNL A   1      37.942  24.306  26.386  1.00  0.00     0.001 A 
ATOM     89  C   UNL A   1      38.996  23.415  26.203  1.00  0.00     0.000 A 
ENDBRANCH  75  84
ENDBRANCH  67  68
ENDBRANCH  60  62
ENDBRANCH  59  60
ENDBRANCH  58  59
ENDBRANCH  57  58
ENDBRANCH   1  57
TORSDOF 17
ENDMDL
