MODEL 1
REMARK VINA RESULT:     -10.7      0.000      0.000
REMARK SMILES O=C(OCCOCCOC(=O)[C@H]1c2[nH]cnc2CC[N@H+]1Cc1ccoc1)c1ccc(-c2c3nc(c(-c4ccccc4)c4ccc([nH]4)c(-c4ccccc4)c4nc(c(-c5ccccc5)c5ccc2[nH]5)C=C4)C=C3)cc1
REMARK SMILES IDX 6 1 5 2 4 3 3 4 2 5 1 6 27 7 28 8 74 9 29 10 73 11 30 12
REMARK SMILES IDX 31 13 32 14 67 15 33 16 72 17 66 18 68 19 34 20 71 21 65 22
REMARK SMILES IDX 64 23 35 25 57 26 42 27 56 28 43 29 46 30 55 31 69 32 44 33
REMARK SMILES IDX 45 34 54 36 70 37 47 38 36 39 37 40 41 41 38 42 40 43 39 44
REMARK SMILES IDX 58 45 59 46 63 47 60 48 62 49 61 50 48 51 49 52 53 53 50 54
REMARK SMILES IDX 52 55 51 56 7 57 8 58 9 59 10 60 11 61 12 62 13 63 20 64
REMARK SMILES IDX 14 65 17 66 19 67 15 69 16 71 18 72 21 73 22 74 23 75 26 76
REMARK SMILES IDX 24 77 25 78
REMARK H PARENT 68 24 46 35 20 68 14 70
REMARK Flexibility Score: inf
ROOT
ATOM      1  O   UNL A   1      34.245  29.729  26.838  1.00  0.00    -0.374 OA
ENDROOT
BRANCH   1   2
ATOM      2  C   UNL A   1      33.487  30.832  27.327  1.00  0.00     0.202 C 
BRANCH   2   3
ATOM      3  C   UNL A   1      34.206  32.036  27.958  1.00  0.00     0.261 C 
BRANCH   3   4
ATOM      4  O   UNL A   1      34.674  31.765  29.283  1.00  0.00    -0.460 OA
BRANCH   4   5
ATOM      5  C   UNL A   1      35.917  31.938  29.790  1.00  0.00     0.338 C 
ATOM      6  O   UNL A   1      36.166  32.954  30.423  1.00  0.00    -0.246 OA
BRANCH   5   7
ATOM      7  C   UNL A   1      37.019  30.949  29.585  1.00  0.00     0.060 A 
ATOM      8  C   UNL A   1      36.869  29.568  29.432  1.00  0.00     0.016 A 
ATOM      9  C   UNL A   1      38.315  31.487  29.529  1.00  0.00     0.016 A 
ATOM     10  C   UNL A   1      37.953  28.730  29.534  1.00  0.00     0.010 A 
ATOM     11  C   UNL A   1      39.419  30.657  29.530  1.00  0.00     0.010 A 
ATOM     12  C   UNL A   1      39.218  29.288  29.645  1.00  0.00    -0.014 A 
BRANCH  12  13
ATOM     13  C   UNL A   1      40.316  28.362  29.807  1.00  0.00     0.031 A 
ATOM     14  C   UNL A   1      40.849  28.295  31.192  1.00  0.00     0.074 A 
ATOM     15  C   UNL A   1      40.756  27.635  28.765  1.00  0.00     0.049 A 
ATOM     16  N   UNL A   1      42.042  28.578  31.601  1.00  0.00    -0.248 NA
ATOM     17  C   UNL A   1      39.884  28.039  32.276  1.00  0.00     0.031 C 
ATOM     18  C   UNL A   1      40.145  27.481  27.442  1.00  0.00     0.029 A 
ATOM     19  N   UNL A   1      41.797  26.769  28.721  1.00  0.00    -0.354 N 
ATOM     20  C   UNL A   1      42.029  28.360  32.976  1.00  0.00     0.074 A 
ATOM     21  C   UNL A   1      40.651  28.185  33.354  1.00  0.00     0.031 C 
ATOM     22  C   UNL A   1      40.657  26.381  26.845  1.00  0.00     0.029 A 
ATOM     23  C   UNL A   1      41.723  25.854  27.681  1.00  0.00     0.049 A 
ATOM     24  H   UNL A   1      42.538  26.787  29.368  1.00  0.00     0.167 HD
ATOM     25  C   UNL A   1      43.170  28.091  33.666  1.00  0.00     0.031 A 
ATOM     26  C   UNL A   1      42.426  24.701  27.582  1.00  0.00     0.031 A 
ATOM     27  C   UNL A   1      44.342  28.532  32.961  1.00  0.00     0.049 A 
ATOM     28  C   UNL A   1      43.583  24.805  28.506  1.00  0.00     0.074 A 
ATOM     29  C   UNL A   1      44.808  29.763  32.545  1.00  0.00     0.029 A 
ATOM     30  N   UNL A   1      45.030  27.598  32.224  1.00  0.00    -0.354 N 
ATOM     31  N   UNL A   1      44.563  25.645  28.326  1.00  0.00    -0.248 NA
ATOM     32  C   UNL A   1      43.408  24.337  29.874  1.00  0.00     0.031 C 
ATOM     33  C   UNL A   1      45.370  29.524  31.257  1.00  0.00     0.029 A 
ATOM     34  C   UNL A   1      45.290  28.155  30.996  1.00  0.00     0.049 A 
ATOM     35  H   UNL A   1      45.288  26.695  32.520  1.00  0.00     0.167 HD
ATOM     36  C   UNL A   1      44.839  26.145  29.591  1.00  0.00     0.074 A 
ATOM     37  C   UNL A   1      44.160  25.236  30.515  1.00  0.00     0.031 C 
ATOM     38  C   UNL A   1      45.341  27.405  29.761  1.00  0.00     0.031 A 
BRANCH  25  39
ATOM     39  C   UNL A   1      43.213  27.058  34.761  1.00  0.00    -0.014 A 
ATOM     40  C   UNL A   1      43.080  25.699  34.432  1.00  0.00     0.009 A 
ATOM     41  C   UNL A   1      43.098  27.393  36.127  1.00  0.00     0.009 A 
ATOM     42  C   UNL A   1      42.790  24.742  35.414  1.00  0.00     0.001 A 
ATOM     43  C   UNL A   1      42.847  26.438  37.111  1.00  0.00     0.001 A 
ATOM     44  C   UNL A   1      42.667  25.113  36.750  1.00  0.00     0.000 A 
ENDBRANCH  25  39
BRANCH  26  45
ATOM     45  C   UNL A   1      41.960  23.411  27.028  1.00  0.00    -0.014 A 
ATOM     46  C   UNL A   1      42.763  22.673  26.146  1.00  0.00     0.009 A 
ATOM     47  C   UNL A   1      40.829  22.772  27.572  1.00  0.00     0.009 A 
ATOM     48  C   UNL A   1      42.461  21.337  25.845  1.00  0.00     0.001 A 
ATOM     49  C   UNL A   1      40.525  21.441  27.271  1.00  0.00     0.001 A 
ATOM     50  C   UNL A   1      41.351  20.719  26.417  1.00  0.00     0.000 A 
ENDBRANCH  26  45
BRANCH  38  51
ATOM     51  C   UNL A   1      45.751  28.172  28.524  1.00  0.00    -0.014 A 
ATOM     52  C   UNL A   1      44.840  28.896  27.729  1.00  0.00     0.009 A 
ATOM     53  C   UNL A   1      47.118  28.294  28.240  1.00  0.00     0.009 A 
ATOM     54  C   UNL A   1      45.287  29.689  26.666  1.00  0.00     0.001 A 
ATOM     55  C   UNL A   1      47.565  29.103  27.193  1.00  0.00     0.001 A 
ATOM     56  C   UNL A   1      46.650  29.795  26.402  1.00  0.00     0.000 A 
ENDBRANCH  38  51
ENDBRANCH  12  13
ENDBRANCH   5   7
ENDBRANCH   4   5
ENDBRANCH   3   4
ENDBRANCH   2   3
ENDBRANCH   1   2
BRANCH   1  57
ATOM     57  C   UNL A   1      33.594  28.644  26.182  1.00  0.00     0.202 C 
BRANCH  57  58
ATOM     58  C   UNL A   1      33.351  28.688  24.678  1.00  0.00     0.261 C 
BRANCH  58  59
ATOM     59  O   UNL A   1      33.358  27.417  24.020  1.00  0.00    -0.459 OA
BRANCH  59  60
ATOM     60  C   UNL A   1      33.141  27.462  22.674  1.00  0.00     0.371 C 
ATOM     61  O   UNL A   1      33.936  27.928  21.859  1.00  0.00    -0.245 OA
BRANCH  60  62
ATOM     62  C   UNL A   1      31.803  26.854  22.245  1.00  0.00     0.345 C 
ATOM     63  C   UNL A   1      31.684  25.430  22.678  1.00  0.00     0.108 A 
ATOM     64  N   UNL A   1      30.613  27.623  22.697  1.00  0.00    -0.314 N 
ATOM     65  N   UNL A   1      32.390  24.340  22.251  1.00  0.00    -0.343 N 
ATOM     66  C   UNL A   1      30.772  24.934  23.577  1.00  0.00     0.074 A 
ATOM     67  C   UNL A   1      30.104  27.278  24.040  1.00  0.00     0.270 C 
ATOM     68  H   UNL A   1      29.871  27.257  22.102  1.00  0.00     0.349 HD
ATOM     69  C   UNL A   1      31.907  23.256  22.942  1.00  0.00     0.197 A 
ATOM     70  H   UNL A   1      33.107  24.333  21.576  1.00  0.00     0.167 HD
ATOM     71  N   UNL A   1      30.923  23.587  23.747  1.00  0.00    -0.241 NA
ATOM     72  C   UNL A   1      29.732  25.779  24.202  1.00  0.00     0.120 C 
BRANCH  64  73
ATOM     73  C   UNL A   1      30.593  29.041  22.331  1.00  0.00     0.303 C 
BRANCH  73  74
ATOM     74  C   UNL A   1      29.347  29.786  22.689  1.00  0.00     0.044 A 
ATOM     75  C   UNL A   1      29.218  30.879  23.600  1.00  0.00     0.051 A 
ATOM     76  C   UNL A   1      28.080  29.625  22.157  1.00  0.00     0.204 A 
ATOM     77  C   UNL A   1      27.893  31.250  23.594  1.00  0.00     0.195 A 
ATOM     78  O   UNL A   1      27.197  30.490  22.716  1.00  0.00    -0.472 OA
ENDBRANCH  73  74
ENDBRANCH  64  73
ENDBRANCH  60  62
ENDBRANCH  59  60
ENDBRANCH  58  59
ENDBRANCH  57  58
ENDBRANCH   1  57
TORSDOF 16
ENDMDL
MODEL 2
REMARK VINA RESULT:     -10.5      1.771      2.355
REMARK SMILES O=C(OCCOCCOC(=O)[C@H]1c2[nH]cnc2CC[N@H+]1Cc1ccoc1)c1ccc(-c2c3nc(c(-c4ccccc4)c4ccc([nH]4)c(-c4ccccc4)c4nc(c(-c5ccccc5)c5ccc2[nH]5)C=C4)C=C3)cc1
REMARK SMILES IDX 6 1 5 2 4 3 3 4 2 5 1 6 27 7 28 8 74 9 29 10 73 11 30 12
REMARK SMILES IDX 31 13 32 14 67 15 33 16 72 17 66 18 68 19 34 20 71 21 65 22
REMARK SMILES IDX 64 23 35 25 57 26 42 27 56 28 43 29 46 30 55 31 69 32 44 33
REMARK SMILES IDX 45 34 54 36 70 37 47 38 36 39 37 40 41 41 38 42 40 43 39 44
REMARK SMILES IDX 58 45 59 46 63 47 60 48 62 49 61 50 48 51 49 52 53 53 50 54
REMARK SMILES IDX 52 55 51 56 7 57 8 58 9 59 10 60 11 61 12 62 13 63 20 64
REMARK SMILES IDX 14 65 17 66 19 67 15 69 16 71 18 72 21 73 22 74 23 75 26 76
REMARK SMILES IDX 24 77 25 78
REMARK H PARENT 68 24 46 35 20 68 14 70
REMARK Flexibility Score: inf
ROOT
ATOM      1  O   UNL A   1      34.038  28.002  26.159  1.00  0.00    -0.374 OA
ENDROOT
BRANCH   1   2
ATOM      2  C   UNL A   1      33.623  29.180  25.472  1.00  0.00     0.202 C 
BRANCH   2   3
ATOM      3  C   UNL A   1      33.047  30.365  26.263  1.00  0.00     0.261 C 
BRANCH   3   4
ATOM      4  O   UNL A   1      33.722  30.577  27.507  1.00  0.00    -0.460 OA
BRANCH   4   5
ATOM      5  C   UNL A   1      34.788  31.369  27.766  1.00  0.00     0.338 C 
ATOM      6  O   UNL A   1      34.733  32.556  27.476  1.00  0.00    -0.246 OA
BRANCH   5   7
ATOM      7  C   UNL A   1      36.056  30.849  28.365  1.00  0.00     0.060 A 
ATOM      8  C   UNL A   1      37.115  31.621  28.849  1.00  0.00     0.016 A 
ATOM      9  C   UNL A   1      36.157  29.452  28.452  1.00  0.00     0.016 A 
ATOM     10  C   UNL A   1      38.336  31.049  29.112  1.00  0.00     0.010 A 
ATOM     11  C   UNL A   1      37.351  28.857  28.814  1.00  0.00     0.010 A 
ATOM     12  C   UNL A   1      38.456  29.669  29.030  1.00  0.00    -0.014 A 
BRANCH  12  13
ATOM     13  C   UNL A   1      39.775  29.125  29.262  1.00  0.00     0.031 A 
ATOM     14  C   UNL A   1      40.092  28.905  30.696  1.00  0.00     0.074 A 
ATOM     15  C   UNL A   1      40.588  28.840  28.230  1.00  0.00     0.049 A 
ATOM     16  N   UNL A   1      41.037  29.444  31.394  1.00  0.00    -0.248 NA
ATOM     17  C   UNL A   1      39.135  28.111  31.487  1.00  0.00     0.031 C 
ATOM     18  C   UNL A   1      40.267  28.817  26.799  1.00  0.00     0.029 A 
ATOM     19  N   UNL A   1      41.861  28.381  28.262  1.00  0.00    -0.354 N 
ATOM     20  C   UNL A   1      40.905  28.916  32.676  1.00  0.00     0.074 A 
ATOM     21  C   UNL A   1      39.638  28.233  32.714  1.00  0.00     0.031 C 
ATOM     22  C   UNL A   1      41.214  28.107  26.147  1.00  0.00     0.029 A 
ATOM     23  C   UNL A   1      42.265  27.761  27.088  1.00  0.00     0.049 A 
ATOM     24  H   UNL A   1      42.448  28.478  29.045  1.00  0.00     0.167 HD
ATOM     25  C   UNL A   1      41.955  28.865  33.538  1.00  0.00     0.031 A 
ATOM     26  C   UNL A   1      43.337  26.945  26.945  1.00  0.00     0.031 A 
ATOM     27  C   UNL A   1      42.985  29.805  33.188  1.00  0.00     0.049 A 
ATOM     28  C   UNL A   1      44.237  27.187  28.100  1.00  0.00     0.074 A 
ATOM     29  C   UNL A   1      43.041  31.181  33.102  1.00  0.00     0.029 A 
ATOM     30  N   UNL A   1      44.056  29.335  32.467  1.00  0.00    -0.354 N 
ATOM     31  N   UNL A   1      44.873  28.310  28.283  1.00  0.00    -0.248 NA
ATOM     32  C   UNL A   1      44.044  26.379  29.296  1.00  0.00     0.031 C 
ATOM     33  C   UNL A   1      43.830  31.442  31.943  1.00  0.00     0.029 A 
ATOM     34  C   UNL A   1      44.276  30.219  31.439  1.00  0.00     0.049 A 
ATOM     35  H   UNL A   1      44.570  28.516  32.651  1.00  0.00     0.167 HD
ATOM     36  C   UNL A   1      44.770  28.559  29.644  1.00  0.00     0.074 A 
ATOM     37  C   UNL A   1      44.330  27.292  30.230  1.00  0.00     0.031 C 
ATOM     38  C   UNL A   1      44.765  29.835  30.132  1.00  0.00     0.031 A 
BRANCH  25  39
ATOM     39  C   UNL A   1      42.203  27.670  34.422  1.00  0.00    -0.014 A 
ATOM     40  C   UNL A   1      41.873  27.743  35.786  1.00  0.00     0.009 A 
ATOM     41  C   UNL A   1      43.006  26.583  34.021  1.00  0.00     0.009 A 
ATOM     42  C   UNL A   1      42.371  26.806  36.701  1.00  0.00     0.001 A 
ATOM     43  C   UNL A   1      43.472  25.627  34.924  1.00  0.00     0.001 A 
ATOM     44  C   UNL A   1      43.175  25.754  36.271  1.00  0.00     0.000 A 
ENDBRANCH  25  39
BRANCH  26  45
ATOM     45  C   UNL A   1      43.440  25.742  26.090  1.00  0.00    -0.014 A 
ATOM     46  C   UNL A   1      44.593  25.494  25.332  1.00  0.00     0.009 A 
ATOM     47  C   UNL A   1      42.506  24.696  26.220  1.00  0.00     0.009 A 
ATOM     48  C   UNL A   1      44.816  24.236  24.752  1.00  0.00     0.001 A 
ATOM     49  C   UNL A   1      42.726  23.443  25.641  1.00  0.00     0.001 A 
ATOM     50  C   UNL A   1      43.890  23.209  24.918  1.00  0.00     0.000 A 
ENDBRANCH  26  45
BRANCH  38  51
ATOM     51  C   UNL A   1      45.051  30.960  29.164  1.00  0.00    -0.014 A 
ATOM     52  C   UNL A   1      44.063  31.542  28.345  1.00  0.00     0.009 A 
ATOM     53  C   UNL A   1      46.320  31.554  29.191  1.00  0.00     0.009 A 
ATOM     54  C   UNL A   1      44.351  32.662  27.556  1.00  0.00     0.001 A 
ATOM     55  C   UNL A   1      46.601  32.684  28.419  1.00  0.00     0.001 A 
ATOM     56  C   UNL A   1      45.620  33.234  27.598  1.00  0.00     0.000 A 
ENDBRANCH  38  51
ENDBRANCH  12  13
ENDBRANCH   5   7
ENDBRANCH   4   5
ENDBRANCH   3   4
ENDBRANCH   2   3
ENDBRANCH   1   2
BRANCH   1  57
ATOM     57  C   UNL A   1      33.917  26.726  25.535  1.00  0.00     0.202 C 
BRANCH  57  58
ATOM     58  C   UNL A   1      33.753  26.621  24.023  1.00  0.00     0.261 C 
BRANCH  58  59
ATOM     59  O   UNL A   1      33.108  25.430  23.560  1.00  0.00    -0.459 OA
BRANCH  59  60
ATOM     60  C   UNL A   1      32.055  25.634  22.717  1.00  0.00     0.371 C 
ATOM     61  O   UNL A   1      32.164  25.859  21.513  1.00  0.00    -0.245 OA
BRANCH  60  62
ATOM     62  C   UNL A   1      30.689  25.540  23.404  1.00  0.00     0.345 C 
ATOM     63  C   UNL A   1      30.722  24.596  24.560  1.00  0.00     0.108 A 
ATOM     64  N   UNL A   1      30.134  26.851  23.834  1.00  0.00    -0.314 N 
ATOM     65  N   UNL A   1      30.886  23.239  24.557  1.00  0.00    -0.343 N 
ATOM     66  C   UNL A   1      30.530  24.929  25.879  1.00  0.00     0.074 A 
ATOM     67  C   UNL A   1      30.547  27.308  25.176  1.00  0.00     0.270 C 
ATOM     68  H   UNL A   1      29.150  26.636  23.990  1.00  0.00     0.349 HD
ATOM     69  C   UNL A   1      30.834  22.828  25.866  1.00  0.00     0.197 A 
ATOM     70  H   UNL A   1      31.016  22.665  23.768  1.00  0.00     0.167 HD
ATOM     71  N   UNL A   1      30.613  23.831  26.687  1.00  0.00    -0.241 NA
ATOM     72  C   UNL A   1      30.205  26.305  26.311  1.00  0.00     0.120 C 
BRANCH  64  73
ATOM     73  C   UNL A   1      30.036  27.875  22.792  1.00  0.00     0.303 C 
BRANCH  73  74
ATOM     74  C   UNL A   1      28.983  28.916  23.002  1.00  0.00     0.044 A 
ATOM     75  C   UNL A   1      29.173  30.318  23.199  1.00  0.00     0.051 A 
ATOM     76  C   UNL A   1      27.610  28.751  22.971  1.00  0.00     0.204 A 
ATOM     77  C   UNL A   1      27.922  30.876  23.330  1.00  0.00     0.195 A 
ATOM     78  O   UNL A   1      26.968  29.926  23.191  1.00  0.00    -0.472 OA
ENDBRANCH  73  74
ENDBRANCH  64  73
ENDBRANCH  60  62
ENDBRANCH  59  60
ENDBRANCH  58  59
ENDBRANCH  57  58
ENDBRANCH   1  57
TORSDOF 16
ENDMDL
MODEL 3
REMARK VINA RESULT:     -10.4      3.547      8.525
REMARK SMILES O=C(OCCOCCOC(=O)[C@H]1c2[nH]cnc2CC[N@H+]1Cc1ccoc1)c1ccc(-c2c3nc(c(-c4ccccc4)c4ccc([nH]4)c(-c4ccccc4)c4nc(c(-c5ccccc5)c5ccc2[nH]5)C=C4)C=C3)cc1
REMARK SMILES IDX 6 1 5 2 4 3 3 4 2 5 1 6 27 7 28 8 74 9 29 10 73 11 30 12
REMARK SMILES IDX 31 13 32 14 67 15 33 16 72 17 66 18 68 19 34 20 71 21 65 22
REMARK SMILES IDX 64 23 35 25 57 26 42 27 56 28 43 29 46 30 55 31 69 32 44 33
REMARK SMILES IDX 45 34 54 36 70 37 47 38 36 39 37 40 41 41 38 42 40 43 39 44
REMARK SMILES IDX 58 45 59 46 63 47 60 48 62 49 61 50 48 51 49 52 53 53 50 54
REMARK SMILES IDX 52 55 51 56 7 57 8 58 9 59 10 60 11 61 12 62 13 63 20 64
REMARK SMILES IDX 14 65 17 66 19 67 15 69 16 71 18 72 21 73 22 74 23 75 26 76
REMARK SMILES IDX 24 77 25 78
REMARK H PARENT 68 24 46 35 20 68 14 70
REMARK Flexibility Score: inf
ROOT
ATOM      1  O   UNL A   1      36.038  21.415  25.927  1.00  0.00    -0.374 OA
ENDROOT
BRANCH   1   2
ATOM      2  C   UNL A   1      37.360  21.129  25.479  1.00  0.00     0.202 C 
BRANCH   2   3
ATOM      3  C   UNL A   1      38.395  22.261  25.374  1.00  0.00     0.261 C 
BRANCH   3   4
ATOM      4  O   UNL A   1      39.441  22.144  26.344  1.00  0.00    -0.460 OA
BRANCH   4   5
ATOM      5  C   UNL A   1      40.498  22.963  26.549  1.00  0.00     0.338 C 
ATOM      6  O   UNL A   1      41.571  22.691  26.030  1.00  0.00    -0.246 OA
BRANCH   5   7
ATOM      7  C   UNL A   1      40.424  24.179  27.415  1.00  0.00     0.060 A 
ATOM      8  C   UNL A   1      39.307  25.001  27.586  1.00  0.00     0.016 A 
ATOM      9  C   UNL A   1      41.594  24.493  28.123  1.00  0.00     0.016 A 
ATOM     10  C   UNL A   1      39.430  26.237  28.173  1.00  0.00     0.010 A 
ATOM     11  C   UNL A   1      41.702  25.690  28.805  1.00  0.00     0.010 A 
ATOM     12  C   UNL A   1      40.652  26.594  28.723  1.00  0.00    -0.014 A 
BRANCH  12  13
ATOM     13  C   UNL A   1      40.742  27.926  29.277  1.00  0.00     0.031 A 
ATOM     14  C   UNL A   1      41.755  28.786  28.613  1.00  0.00     0.074 A 
ATOM     15  C   UNL A   1      39.937  28.304  30.285  1.00  0.00     0.049 A 
ATOM     16  N   UNL A   1      42.801  29.334  29.138  1.00  0.00    -0.248 NA
ATOM     17  C   UNL A   1      41.677  28.915  27.147  1.00  0.00     0.031 C 
ATOM     18  C   UNL A   1      38.775  27.597  30.834  1.00  0.00     0.029 A 
ATOM     19  N   UNL A   1      39.920  29.481  30.955  1.00  0.00    -0.354 N 
ATOM     20  C   UNL A   1      43.420  30.030  28.103  1.00  0.00     0.074 A 
ATOM     21  C   UNL A   1      42.780  29.612  26.883  1.00  0.00     0.031 C 
ATOM     22  C   UNL A   1      38.020  28.471  31.536  1.00  0.00     0.029 A 
ATOM     23  C   UNL A   1      38.721  29.742  31.602  1.00  0.00     0.049 A 
ATOM     24  H   UNL A   1      40.688  30.095  30.981  1.00  0.00     0.167 HD
ATOM     25  C   UNL A   1      44.244  31.085  28.344  1.00  0.00     0.031 A 
ATOM     26  C   UNL A   1      38.310  30.947  32.064  1.00  0.00     0.031 A 
ATOM     27  C   UNL A   1      44.761  31.067  29.686  1.00  0.00     0.049 A 
ATOM     28  C   UNL A   1      39.511  31.814  32.172  1.00  0.00     0.074 A 
ATOM     29  C   UNL A   1      45.562  30.196  30.396  1.00  0.00     0.029 A 
ATOM     30  N   UNL A   1      44.127  31.848  30.622  1.00  0.00    -0.354 N 
ATOM     31  N   UNL A   1      40.469  31.597  33.027  1.00  0.00    -0.248 NA
ATOM     32  C   UNL A   1      39.879  32.617  31.015  1.00  0.00     0.031 C 
ATOM     33  C   UNL A   1      44.996  30.164  31.704  1.00  0.00     0.029 A 
ATOM     34  C   UNL A   1      43.938  31.074  31.741  1.00  0.00     0.049 A 
ATOM     35  H   UNL A   1      43.856  32.788  30.512  1.00  0.00     0.167 HD
ATOM     36  C   UNL A   1      41.638  31.844  32.321  1.00  0.00     0.074 A 
ATOM     37  C   UNL A   1      41.210  32.557  31.117  1.00  0.00     0.031 C 
ATOM     38  C   UNL A   1      42.802  31.196  32.627  1.00  0.00     0.031 A 
BRANCH  25  39
ATOM     39  C   UNL A   1      44.220  32.327  27.492  1.00  0.00    -0.014 A 
ATOM     40  C   UNL A   1      43.722  33.523  28.034  1.00  0.00     0.009 A 
ATOM     41  C   UNL A   1      44.405  32.292  26.094  1.00  0.00     0.009 A 
ATOM     42  C   UNL A   1      43.378  34.602  27.208  1.00  0.00     0.001 A 
ATOM     43  C   UNL A   1      44.099  33.378  25.274  1.00  0.00     0.001 A 
ATOM     44  C   UNL A   1      43.559  34.526  25.831  1.00  0.00     0.000 A 
ENDBRANCH  25  39
BRANCH  26  45
ATOM     45  C   UNL A   1      36.933  31.487  32.061  1.00  0.00    -0.014 A 
ATOM     46  C   UNL A   1      36.384  32.066  33.214  1.00  0.00     0.009 A 
ATOM     47  C   UNL A   1      36.245  31.671  30.846  1.00  0.00     0.009 A 
ATOM     48  C   UNL A   1      35.207  32.826  33.147  1.00  0.00     0.001 A 
ATOM     49  C   UNL A   1      35.071  32.426  30.778  1.00  0.00     0.001 A 
ATOM     50  C   UNL A   1      34.559  33.016  31.928  1.00  0.00     0.000 A 
ENDBRANCH  26  45
BRANCH  38  51
ATOM     51  C   UNL A   1      42.822  30.335  33.869  1.00  0.00    -0.014 A 
ATOM     52  C   UNL A   1      42.382  28.996  33.885  1.00  0.00     0.009 A 
ATOM     53  C   UNL A   1      43.446  30.838  35.019  1.00  0.00     0.009 A 
ATOM     54  C   UNL A   1      42.534  28.203  35.029  1.00  0.00     0.001 A 
ATOM     55  C   UNL A   1      43.618  30.040  36.152  1.00  0.00     0.001 A 
ATOM     56  C   UNL A   1      43.157  28.725  36.160  1.00  0.00     0.000 A 
ENDBRANCH  38  51
ENDBRANCH  12  13
ENDBRANCH   5   7
ENDBRANCH   4   5
ENDBRANCH   3   4
ENDBRANCH   2   3
ENDBRANCH   1   2
BRANCH   1  57
ATOM     57  C   UNL A   1      35.638  22.760  26.175  1.00  0.00     0.202 C 
BRANCH  57  58
ATOM     58  C   UNL A   1      34.459  23.056  27.094  1.00  0.00     0.261 C 
BRANCH  58  59
ATOM     59  O   UNL A   1      33.323  23.651  26.459  1.00  0.00    -0.459 OA
BRANCH  59  60
ATOM     60  C   UNL A   1      32.145  22.987  26.643  1.00  0.00     0.371 C 
ATOM     61  O   UNL A   1      31.637  22.767  27.742  1.00  0.00    -0.245 OA
BRANCH  60  62
ATOM     62  C   UNL A   1      31.478  22.542  25.338  1.00  0.00     0.345 C 
ATOM     63  C   UNL A   1      31.221  23.701  24.432  1.00  0.00     0.108 A 
ATOM     64  N   UNL A   1      32.219  21.481  24.607  1.00  0.00    -0.314 N 
ATOM     65  N   UNL A   1      30.353  24.745  24.596  1.00  0.00    -0.343 N 
ATOM     66  C   UNL A   1      31.793  23.903  23.200  1.00  0.00     0.074 A 
ATOM     67  C   UNL A   1      33.259  21.958  23.673  1.00  0.00     0.270 C 
ATOM     68  H   UNL A   1      31.518  21.123  23.960  1.00  0.00     0.349 HD
ATOM     69  C   UNL A   1      30.477  25.545  23.486  1.00  0.00     0.197 A 
ATOM     70  H   UNL A   1      29.753  24.894  25.362  1.00  0.00     0.167 HD
ATOM     71  N   UNL A   1      31.339  25.055  22.622  1.00  0.00    -0.241 NA
ATOM     72  C   UNL A   1      32.724  22.931  22.587  1.00  0.00     0.120 C 
BRANCH  64  73
ATOM     73  C   UNL A   1      32.532  20.276  25.378  1.00  0.00     0.303 C 
BRANCH  73  74
ATOM     74  C   UNL A   1      33.059  19.120  24.590  1.00  0.00     0.044 A 
ATOM     75  C   UNL A   1      32.358  18.332  23.625  1.00  0.00     0.051 A 
ATOM     76  C   UNL A   1      34.350  18.623  24.572  1.00  0.00     0.204 A 
ATOM     77  C   UNL A   1      33.248  17.397  23.150  1.00  0.00     0.195 A 
ATOM     78  O   UNL A   1      34.462  17.571  23.723  1.00  0.00    -0.472 OA
ENDBRANCH  73  74
ENDBRANCH  64  73
ENDBRANCH  60  62
ENDBRANCH  59  60
ENDBRANCH  58  59
ENDBRANCH  57  58
ENDBRANCH   1  57
TORSDOF 16
ENDMDL
