MODEL 1
REMARK VINA RESULT:     -13.7      0.000      0.000
REMARK SMILES Cc1ccc(NC(=O)c2cnn3c2NC2=C(C(=O)CCC2)[C@H]3c2ccc(C(=O)OCCOCCOC(=O)c3ccc(-c4c5nc(c(-c6ccccc6)c6ccc([nH]6)c(-c6ccccc6)c6nc(c(-c7ccccc7)c7ccc4[nH]7)C=C6)C=C5)cc3)cc2)cc1
REMARK SMILES IDX 31 1 30 2 29 3 27 4 28 5 26 6 23 7 24 8 87 9 25 10 86 11
REMARK SMILES IDX 22 12 9 13 10 14 13 15 11 16 12 17 14 18 15 19 16 21 21 22
REMARK SMILES IDX 17 23 20 24 18 25 19 26 7 27 6 28 8 30 5 31 1 32 2 33 3 34
REMARK SMILES IDX 89 35 4 36 88 37 32 38 33 39 34 40 35 41 36 42 37 43 38 44
REMARK SMILES IDX 39 45 85 46 40 47 84 48 41 49 42 50 43 51 78 52 44 53 83 54
REMARK SMILES IDX 77 55 79 56 45 57 82 58 76 59 75 60 46 62 68 63 53 64 67 65
REMARK SMILES IDX 54 66 57 67 66 68 80 69 55 70 56 71 65 73 81 74 58 75 47 76
REMARK SMILES IDX 48 77 52 78 49 79 51 80 50 81 69 82 70 83 74 84 71 85 73 86
REMARK SMILES IDX 72 87 59 88 60 89 64 90 61 91 63 92 62 93
REMARK H PARENT 14 20 6 29 79 61 57 72
REMARK Flexibility Score: inf
ROOT
ATOM      1  C   UNL A   1      33.661  34.616  29.236  1.00  0.00     0.202 C 
ENDROOT
BRANCH   1   2
ATOM      2  C   UNL A   1      34.314  32.909  29.045  1.00  0.00     0.261 C 
BRANCH   2   3
ATOM      3  O   UNL A   1      33.651  31.557  27.626  1.00  0.00    -0.460 OA
BRANCH   3   4
ATOM      4  C   UNL A   1      32.546  30.913  26.903  1.00  0.00     0.338 C 
ATOM      5  O   UNL A   1      31.551  31.545  26.506  1.00  0.00    -0.246 OA
BRANCH   4   6
ATOM      6  C   UNL A   1      32.523  29.500  26.391  1.00  0.00     0.060 A 
ATOM      7  C   UNL A   1      32.813  26.843  25.406  1.00  0.00    -0.019 A 
ATOM      8  C   UNL A   1      33.725  27.832  25.026  1.00  0.00     0.007 A 
ATOM      9  C   UNL A   1      31.974  27.135  26.487  1.00  0.00     0.007 A 
ATOM     10  C   UNL A   1      33.560  29.141  25.499  1.00  0.00     0.016 A 
ATOM     11  C   UNL A   1      31.765  28.458  26.899  1.00  0.00     0.016 A 
BRANCH   7  12
ATOM     12  C   UNL A   1      32.442  25.654  24.448  1.00  0.00     0.175 C 
ATOM     13  C   UNL A   1      35.555  23.982  24.897  1.00  0.00     0.102 A 
ATOM     14  C   UNL A   1      35.534  24.294  23.503  1.00  0.00     0.151 A 
ATOM     15  C   UNL A   1      34.243  24.171  25.286  1.00  0.00     0.142 A 
ATOM     16  N   UNL A   1      34.398  24.876  23.104  1.00  0.00    -0.178 NA
ATOM     17  N   UNL A   1      33.669  24.867  24.230  1.00  0.00    -0.237 N 
ATOM     18  N   UNL A   1      33.455  23.942  26.387  1.00  0.00    -0.343 N 
ATOM     19  C   UNL A   1      32.057  24.047  26.270  1.00  0.00     0.026 C 
ATOM     20  H   UNL A   1      33.865  23.706  27.252  1.00  0.00     0.168 HD
ATOM     21  C   UNL A   1      31.558  24.656  25.165  1.00  0.00     0.044 C 
ATOM     22  C   UNL A   1      31.136  23.232  27.129  1.00  0.00     0.055 C 
ATOM     23  C   UNL A   1      30.746  23.714  24.344  1.00  0.00     0.163 C 
ATOM     24  C   UNL A   1      30.357  22.211  26.295  1.00  0.00     0.014 C 
ATOM     25  O   UNL A   1      30.274  24.068  23.270  1.00  0.00    -0.294 OA
ATOM     26  C   UNL A   1      30.732  22.264  24.816  1.00  0.00     0.081 C 
BRANCH  13  27
ATOM     27  C   UNL A   1      36.669  23.528  25.700  1.00  0.00     0.261 C 
ATOM     28  N   UNL A   1      36.713  22.207  26.120  1.00  0.00    -0.322 N 
ATOM     29  H   UNL A   1      37.256  22.057  26.928  1.00  0.00     0.170 HD
ATOM     30  O   UNL A   1      37.558  24.299  26.064  1.00  0.00    -0.269 OA
BRANCH  28  31
ATOM     31  C   UNL A   1      36.115  21.038  25.597  1.00  0.00     0.041 A 
ATOM     32  C   UNL A   1      34.386  17.360  24.097  1.00  0.00     0.044 C 
ATOM     33  C   UNL A   1      34.998  18.644  24.572  1.00  0.00    -0.051 A 
ATOM     34  C   UNL A   1      34.176  19.683  25.006  1.00  0.00     0.005 A 
ATOM     35  C   UNL A   1      36.384  18.823  24.628  1.00  0.00     0.005 A 
ATOM     36  C   UNL A   1      34.738  20.870  25.481  1.00  0.00     0.026 A 
ATOM     37  C   UNL A   1      36.938  20.015  25.125  1.00  0.00     0.026 A 
ENDBRANCH  28  31
ENDBRANCH  13  27
ENDBRANCH   7  12
ENDBRANCH   4   6
ENDBRANCH   3   4
ENDBRANCH   2   3
ENDBRANCH   1   2
BRANCH   1  38
ATOM     38  O   UNL A   1      32.551  35.053  30.113  1.00  0.00    -0.374 OA
BRANCH  38  39
ATOM     39  C   UNL A   1      32.705  36.287  30.876  1.00  0.00     0.202 C 
BRANCH  39  40
ATOM     40  C   UNL A   1      33.002  36.113  32.384  1.00  0.00     0.261 C 
BRANCH  40  41
ATOM     41  O   UNL A   1      34.263  35.483  32.642  1.00  0.00    -0.460 OA
BRANCH  41  42
ATOM     42  C   UNL A   1      34.230  34.147  32.861  1.00  0.00     0.338 C 
ATOM     43  O   UNL A   1      33.279  33.501  33.261  1.00  0.00    -0.246 OA
BRANCH  42  44
ATOM     44  C   UNL A   1      35.632  33.668  32.729  1.00  0.00     0.060 A 
ATOM     45  C   UNL A   1      36.375  34.039  31.605  1.00  0.00     0.016 A 
ATOM     46  C   UNL A   1      36.123  32.686  33.603  1.00  0.00     0.016 A 
ATOM     47  C   UNL A   1      37.577  33.378  31.328  1.00  0.00     0.010 A 
ATOM     48  C   UNL A   1      37.268  31.973  33.280  1.00  0.00     0.010 A 
ATOM     49  C   UNL A   1      37.982  32.292  32.126  1.00  0.00    -0.014 A 
BRANCH  49  50
ATOM     50  C   UNL A   1      39.203  31.512  31.870  1.00  0.00     0.031 A 
ATOM     51  C   UNL A   1      39.012  30.196  31.292  1.00  0.00     0.074 A 
ATOM     52  C   UNL A   1      40.466  31.908  32.144  1.00  0.00     0.049 A 
ATOM     53  N   UNL A   1      39.692  29.155  31.622  1.00  0.00    -0.248 NA
ATOM     54  C   UNL A   1      37.951  29.936  30.324  1.00  0.00     0.031 C 
ATOM     55  C   UNL A   1      41.791  31.380  31.888  1.00  0.00     0.029 A 
ATOM     56  N   UNL A   1      40.789  32.972  32.907  1.00  0.00    -0.354 N 
ATOM     57  C   UNL A   1      39.566  28.343  30.527  1.00  0.00     0.074 A 
ATOM     58  C   UNL A   1      38.272  28.688  29.985  1.00  0.00     0.031 C 
ATOM     59  C   UNL A   1      42.679  31.958  32.739  1.00  0.00     0.029 A 
ATOM     60  C   UNL A   1      41.946  32.843  33.649  1.00  0.00     0.049 A 
ATOM     61  H   UNL A   1      40.236  33.786  32.933  1.00  0.00     0.167 HD
ATOM     62  C   UNL A   1      40.709  27.816  29.989  1.00  0.00     0.031 A 
ATOM     63  C   UNL A   1      41.898  32.853  35.033  1.00  0.00     0.031 A 
ATOM     64  C   UNL A   1      41.897  27.974  30.882  1.00  0.00     0.049 A 
ATOM     65  C   UNL A   1      42.158  31.371  35.492  1.00  0.00     0.074 A 
ATOM     66  C   UNL A   1      43.208  28.412  30.734  1.00  0.00     0.029 A 
ATOM     67  N   UNL A   1      41.724  27.878  32.270  1.00  0.00    -0.354 N 
ATOM     68  N   UNL A   1      42.240  30.382  34.628  1.00  0.00    -0.248 NA
ATOM     69  C   UNL A   1      42.380  30.848  36.845  1.00  0.00     0.031 C 
ATOM     70  C   UNL A   1      43.798  28.571  32.030  1.00  0.00     0.029 A 
ATOM     71  C   UNL A   1      42.850  28.241  32.980  1.00  0.00     0.049 A 
ATOM     72  H   UNL A   1      40.886  27.584  32.694  1.00  0.00     0.167 HD
ATOM     73  C   UNL A   1      42.599  29.197  35.203  1.00  0.00     0.074 A 
ATOM     74  C   UNL A   1      42.612  29.529  36.620  1.00  0.00     0.031 C 
ATOM     75  C   UNL A   1      42.863  28.081  34.442  1.00  0.00     0.031 A 
BRANCH  62  76
ATOM     76  C   UNL A   1      40.776  27.446  28.506  1.00  0.00    -0.014 A 
ATOM     77  C   UNL A   1      40.697  26.107  28.095  1.00  0.00     0.009 A 
ATOM     78  C   UNL A   1      40.981  28.367  27.455  1.00  0.00     0.009 A 
ATOM     79  C   UNL A   1      40.878  25.717  26.755  1.00  0.00     0.001 A 
ATOM     80  C   UNL A   1      41.171  27.994  26.119  1.00  0.00     0.001 A 
ATOM     81  C   UNL A   1      41.128  26.659  25.767  1.00  0.00     0.000 A 
ENDBRANCH  62  76
BRANCH  63  82
ATOM     82  C   UNL A   1      40.902  33.988  35.650  1.00  0.00    -0.014 A 
ATOM     83  C   UNL A   1      39.195  33.600  36.032  1.00  0.00     0.009 A 
ATOM     84  C   UNL A   1      41.819  34.882  36.860  1.00  0.00     0.009 A 
ATOM     85  C   UNL A   1      38.456  33.937  37.659  1.00  0.00     0.001 A 
ATOM     86  C   UNL A   1      41.221  35.126  38.530  1.00  0.00     0.001 A 
ATOM     87  C   UNL A   1      39.487  34.644  38.974  1.00  0.00     0.000 A 
ENDBRANCH  63  82
BRANCH  75  88
ATOM     88  C   UNL A   1      43.184  26.674  34.921  1.00  0.00    -0.014 A 
ATOM     89  C   UNL A   1      42.250  25.708  35.296  1.00  0.00     0.009 A 
ATOM     90  C   UNL A   1      44.550  26.308  35.080  1.00  0.00     0.009 A 
ATOM     91  C   UNL A   1      42.660  24.433  35.732  1.00  0.00     0.001 A 
ATOM     92  C   UNL A   1      44.965  25.052  35.525  1.00  0.00     0.001 A 
ATOM     93  C   UNL A   1      44.011  24.103  35.837  1.00  0.00     0.000 A 
ENDBRANCH  75  88
ENDBRANCH  49  50
ENDBRANCH  42  44
ENDBRANCH  41  42
ENDBRANCH  40  41
ENDBRANCH  39  40
ENDBRANCH  38  39
ENDBRANCH   1  38
TORSDOF 17
ENDMDL
MODEL 2
REMARK VINA RESULT:     -13.6      4.746     10.145
REMARK SMILES Cc1ccc(NC(=O)c2cnn3c2NC2=C(C(=O)CCC2)[C@H]3c2ccc(C(=O)OCCOCCOC(=O)c3ccc(-c4c5nc(c(-c6ccccc6)c6ccc([nH]6)c(-c6ccccc6)c6nc(c(-c7ccccc7)c7ccc4[nH]7)C=C6)C=C5)cc3)cc2)cc1
REMARK SMILES IDX 31 1 30 2 29 3 27 4 28 5 26 6 23 7 24 8 87 9 25 10 86 11
REMARK SMILES IDX 22 12 9 13 10 14 13 15 11 16 12 17 14 18 15 19 16 21 21 22
REMARK SMILES IDX 17 23 20 24 18 25 19 26 7 27 6 28 8 30 5 31 1 32 2 33 3 34
REMARK SMILES IDX 89 35 4 36 88 37 32 38 33 39 34 40 35 41 36 42 37 43 38 44
REMARK SMILES IDX 39 45 85 46 40 47 84 48 41 49 42 50 43 51 78 52 44 53 83 54
REMARK SMILES IDX 77 55 79 56 45 57 82 58 76 59 75 60 46 62 68 63 53 64 67 65
REMARK SMILES IDX 54 66 57 67 66 68 80 69 55 70 56 71 65 73 81 74 58 75 47 76
REMARK SMILES IDX 48 77 52 78 49 79 51 80 50 81 69 82 70 83 74 84 71 85 73 86
REMARK SMILES IDX 72 87 59 88 60 89 64 90 61 91 63 92 62 93
REMARK H PARENT 14 20 6 29 79 61 57 72
REMARK Flexibility Score: inf
ROOT
ATOM      1  C   UNL A   1      40.288  19.803  26.037  1.00  0.00     0.202 C 
ENDROOT
BRANCH   1   2
ATOM      2  C   UNL A   1      38.558  19.793  25.419  1.00  0.00     0.261 C 
BRANCH   2   3
ATOM      3  O   UNL A   1      37.522  21.481  24.822  1.00  0.00    -0.460 OA
BRANCH   3   4
ATOM      4  C   UNL A   1      37.023  22.353  23.750  1.00  0.00     0.338 C 
ATOM      5  O   UNL A   1      37.325  22.181  22.555  1.00  0.00    -0.246 OA
BRANCH   4   6
ATOM      6  C   UNL A   1      35.976  23.422  23.889  1.00  0.00     0.060 A 
ATOM      7  C   UNL A   1      33.769  25.214  24.069  1.00  0.00    -0.019 A 
ATOM      8  C   UNL A   1      33.742  24.164  23.146  1.00  0.00     0.007 A 
ATOM      9  C   UNL A   1      34.749  25.159  25.066  1.00  0.00     0.007 A 
ATOM     10  C   UNL A   1      34.843  23.301  23.051  1.00  0.00     0.016 A 
ATOM     11  C   UNL A   1      35.879  24.344  24.919  1.00  0.00     0.016 A 
BRANCH   7  12
ATOM     12  C   UNL A   1      33.043  26.578  23.783  1.00  0.00     0.175 C 
ATOM     13  C   UNL A   1      30.018  25.600  25.391  1.00  0.00     0.102 A 
ATOM     14  C   UNL A   1      29.627  25.822  24.034  1.00  0.00     0.151 A 
ATOM     15  C   UNL A   1      31.262  26.197  25.465  1.00  0.00     0.142 A 
ATOM     16  N   UNL A   1      30.620  26.270  23.260  1.00  0.00    -0.178 NA
ATOM     17  N   UNL A   1      31.624  26.403  24.140  1.00  0.00    -0.237 N 
ATOM     18  N   UNL A   1      32.185  26.529  26.426  1.00  0.00    -0.343 N 
ATOM     19  C   UNL A   1      33.245  27.394  26.095  1.00  0.00     0.026 C 
ATOM     20  H   UNL A   1      32.107  26.165  27.338  1.00  0.00     0.168 HD
ATOM     21  C   UNL A   1      33.484  27.628  24.780  1.00  0.00     0.044 C 
ATOM     22  C   UNL A   1      33.866  28.297  27.119  1.00  0.00     0.055 C 
ATOM     23  C   UNL A   1      33.275  29.063  24.435  1.00  0.00     0.163 C 
ATOM     24  C   UNL A   1      33.585  29.769  26.806  1.00  0.00     0.014 C 
ATOM     25  O   UNL A   1      33.375  29.448  23.276  1.00  0.00    -0.294 OA
ATOM     26  C   UNL A   1      32.727  29.942  25.555  1.00  0.00     0.081 C 
BRANCH  13  27
ATOM     27  C   UNL A   1      29.272  24.953  26.447  1.00  0.00     0.261 C 
ATOM     28  N   UNL A   1      29.618  23.667  26.837  1.00  0.00    -0.322 N 
ATOM     29  H   UNL A   1      28.887  23.162  27.263  1.00  0.00     0.170 HD
ATOM     30  O   UNL A   1      28.301  25.495  26.976  1.00  0.00    -0.269 OA
BRANCH  28  31
ATOM     31  C   UNL A   1      30.832  22.952  26.731  1.00  0.00     0.041 A 
ATOM     32  C   UNL A   1      34.566  20.810  26.240  1.00  0.00     0.044 C 
ATOM     33  C   UNL A   1      33.252  21.511  26.420  1.00  0.00    -0.051 A 
ATOM     34  C   UNL A   1      33.061  22.351  27.516  1.00  0.00     0.005 A 
ATOM     35  C   UNL A   1      32.211  21.374  25.496  1.00  0.00     0.005 A 
ATOM     36  C   UNL A   1      31.853  23.033  27.674  1.00  0.00     0.026 A 
ATOM     37  C   UNL A   1      31.007  22.079  25.657  1.00  0.00     0.026 A 
ENDBRANCH  28  31
ENDBRANCH  13  27
ENDBRANCH   7  12
ENDBRANCH   4   6
ENDBRANCH   3   4
ENDBRANCH   2   3
ENDBRANCH   1   2
BRANCH   1  38
ATOM     38  O   UNL A   1      41.407  18.953  25.569  1.00  0.00    -0.374 OA
BRANCH  38  39
ATOM     39  C   UNL A   1      42.751  19.222  26.073  1.00  0.00     0.202 C 
BRANCH  39  40
ATOM     40  C   UNL A   1      43.881  19.205  25.017  1.00  0.00     0.261 C 
BRANCH  40  41
ATOM     41  O   UNL A   1      44.193  20.505  24.502  1.00  0.00    -0.460 OA
BRANCH  41  42
ATOM     42  C   UNL A   1      45.221  21.153  25.100  1.00  0.00     0.338 C 
ATOM     43  O   UNL A   1      46.319  20.694  25.354  1.00  0.00    -0.246 OA
BRANCH  42  44
ATOM     44  C   UNL A   1      44.673  22.451  25.579  1.00  0.00     0.060 A 
ATOM     45  C   UNL A   1      45.186  23.641  25.055  1.00  0.00     0.016 A 
ATOM     46  C   UNL A   1      43.819  22.485  26.692  1.00  0.00     0.016 A 
ATOM     47  C   UNL A   1      44.891  24.854  25.687  1.00  0.00     0.010 A 
ATOM     48  C   UNL A   1      43.600  23.675  27.368  1.00  0.00     0.010 A 
ATOM     49  C   UNL A   1      44.160  24.859  26.890  1.00  0.00    -0.014 A 
BRANCH  49  50
ATOM     50  C   UNL A   1      43.853  26.085  27.643  1.00  0.00     0.031 A 
ATOM     51  C   UNL A   1      42.692  26.832  27.201  1.00  0.00     0.074 A 
ATOM     52  C   UNL A   1      44.564  26.573  28.684  1.00  0.00     0.049 A 
ATOM     53  N   UNL A   1      42.632  28.117  27.155  1.00  0.00    -0.248 NA
ATOM     54  C   UNL A   1      41.502  26.159  26.688  1.00  0.00     0.031 C 
ATOM     55  C   UNL A   1      44.400  27.663  29.624  1.00  0.00     0.029 A 
ATOM     56  N   UNL A   1      45.793  26.147  29.041  1.00  0.00    -0.354 N 
ATOM     57  C   UNL A   1      41.287  28.367  27.208  1.00  0.00     0.074 A 
ATOM     58  C   UNL A   1      40.694  27.213  26.572  1.00  0.00     0.031 C 
ATOM     59  C   UNL A   1      45.602  27.958  30.186  1.00  0.00     0.029 A 
ATOM     60  C   UNL A   1      46.626  27.112  29.568  1.00  0.00     0.049 A 
ATOM     61  H   UNL A   1      46.076  25.210  28.933  1.00  0.00     0.167 HD
ATOM     62  C   UNL A   1      40.842  29.273  28.132  1.00  0.00     0.031 A 
ATOM     63  C   UNL A   1      47.795  27.464  28.914  1.00  0.00     0.031 A 
ATOM     64  C   UNL A   1      41.949  30.076  28.736  1.00  0.00     0.049 A 
ATOM     65  C   UNL A   1      47.539  28.887  28.294  1.00  0.00     0.074 A 
ATOM     66  C   UNL A   1      42.334  30.441  30.022  1.00  0.00     0.029 A 
ATOM     67  N   UNL A   1      43.042  30.441  27.937  1.00  0.00    -0.354 N 
ATOM     68  N   UNL A   1      46.354  29.457  28.333  1.00  0.00    -0.248 NA
ATOM     69  C   UNL A   1      48.489  29.797  27.645  1.00  0.00     0.031 C 
ATOM     70  C   UNL A   1      43.645  31.016  29.973  1.00  0.00     0.029 A 
ATOM     71  C   UNL A   1      44.076  30.999  28.660  1.00  0.00     0.049 A 
ATOM     72  H   UNL A   1      43.069  30.311  26.961  1.00  0.00     0.167 HD
ATOM     73  C   UNL A   1      46.361  30.740  27.864  1.00  0.00     0.074 A 
ATOM     74  C   UNL A   1      47.725  30.887  27.378  1.00  0.00     0.031 C 
ATOM     75  C   UNL A   1      45.244  31.540  27.948  1.00  0.00     0.031 A 
BRANCH  62  76
ATOM     76  C   UNL A   1      39.423  29.182  28.696  1.00  0.00    -0.014 A 
ATOM     77  C   UNL A   1      38.330  29.685  27.974  1.00  0.00     0.009 A 
ATOM     78  C   UNL A   1      39.094  28.665  29.968  1.00  0.00     0.009 A 
ATOM     79  C   UNL A   1      37.030  29.732  28.510  1.00  0.00     0.001 A 
ATOM     80  C   UNL A   1      37.807  28.712  30.518  1.00  0.00     0.001 A 
ATOM     81  C   UNL A   1      36.769  29.257  29.788  1.00  0.00     0.000 A 
ENDBRANCH  62  76
BRANCH  63  82
ATOM     82  C   UNL A   1      48.631  26.193  28.325  1.00  0.00    -0.014 A 
ATOM     83  C   UNL A   1      48.707  25.884  26.561  1.00  0.00     0.009 A 
ATOM     84  C   UNL A   1      50.140  26.098  29.229  1.00  0.00     0.009 A 
ATOM     85  C   UNL A   1      50.278  25.658  25.675  1.00  0.00     0.001 A 
ATOM     86  C   UNL A   1      51.737  26.025  28.423  1.00  0.00     0.001 A 
ATOM     87  C   UNL A   1      51.840  25.801  26.586  1.00  0.00     0.000 A 
ENDBRANCH  63  82
BRANCH  75  88
ATOM     88  C   UNL A   1      45.054  32.945  27.399  1.00  0.00    -0.014 A 
ATOM     89  C   UNL A   1      44.319  33.283  26.262  1.00  0.00     0.009 A 
ATOM     90  C   UNL A   1      45.734  34.019  28.038  1.00  0.00     0.009 A 
ATOM     91  C   UNL A   1      44.215  34.622  25.838  1.00  0.00     0.001 A 
ATOM     92  C   UNL A   1      45.647  35.346  27.616  1.00  0.00     0.001 A 
ATOM     93  C   UNL A   1      44.867  35.650  26.518  1.00  0.00     0.000 A 
ENDBRANCH  75  88
ENDBRANCH  49  50
ENDBRANCH  42  44
ENDBRANCH  41  42
ENDBRANCH  40  41
ENDBRANCH  39  40
ENDBRANCH  38  39
ENDBRANCH   1  38
TORSDOF 17
ENDMDL
MODEL 3
REMARK VINA RESULT:     -12.3      2.835      5.073
REMARK SMILES Cc1ccc(NC(=O)c2cnn3c2NC2=C(C(=O)CCC2)[C@H]3c2ccc(C(=O)OCCOCCOC(=O)c3ccc(-c4c5nc(c(-c6ccccc6)c6ccc([nH]6)c(-c6ccccc6)c6nc(c(-c7ccccc7)c7ccc4[nH]7)C=C6)C=C5)cc3)cc2)cc1
REMARK SMILES IDX 31 1 30 2 29 3 27 4 28 5 26 6 23 7 24 8 87 9 25 10 86 11
REMARK SMILES IDX 22 12 9 13 10 14 13 15 11 16 12 17 14 18 15 19 16 21 21 22
REMARK SMILES IDX 17 23 20 24 18 25 19 26 7 27 6 28 8 30 5 31 1 32 2 33 3 34
REMARK SMILES IDX 89 35 4 36 88 37 32 38 33 39 34 40 35 41 36 42 37 43 38 44
REMARK SMILES IDX 39 45 85 46 40 47 84 48 41 49 42 50 43 51 78 52 44 53 83 54
REMARK SMILES IDX 77 55 79 56 45 57 82 58 76 59 75 60 46 62 68 63 53 64 67 65
REMARK SMILES IDX 54 66 57 67 66 68 80 69 55 70 56 71 65 73 81 74 58 75 47 76
REMARK SMILES IDX 48 77 52 78 49 79 51 80 50 81 69 82 70 83 74 84 71 85 73 86
REMARK SMILES IDX 72 87 59 88 60 89 64 90 61 91 63 92 62 93
REMARK H PARENT 14 20 6 29 79 61 57 72
REMARK Flexibility Score: inf
ROOT
ATOM      1  C   UNL A   1      31.872  31.061  26.323  1.00  0.00     0.202 C 
ENDROOT
BRANCH   1   2
ATOM      2  C   UNL A   1      30.434  31.097  25.180  1.00  0.00     0.261 C 
BRANCH   2   3
ATOM      3  O   UNL A   1      30.141  29.761  23.628  1.00  0.00    -0.460 OA
BRANCH   3   4
ATOM      4  C   UNL A   1      30.533  28.538  22.913  1.00  0.00     0.338 C 
ATOM      5  O   UNL A   1      30.292  28.366  21.704  1.00  0.00    -0.246 OA
BRANCH   4   6
ATOM      6  C   UNL A   1      31.403  27.436  23.448  1.00  0.00     0.060 A 
ATOM      7  C   UNL A   1      32.959  25.170  24.193  1.00  0.00    -0.019 A 
ATOM      8  C   UNL A   1      31.759  24.994  23.497  1.00  0.00     0.007 A 
ATOM      9  C   UNL A   1      33.489  26.465  24.230  1.00  0.00     0.007 A 
ATOM     10  C   UNL A   1      30.990  26.116  23.155  1.00  0.00     0.016 A 
ATOM     11  C   UNL A   1      32.685  27.578  23.955  1.00  0.00     0.016 A 
BRANCH   7  12
ATOM     12  C   UNL A   1      33.477  24.101  25.222  1.00  0.00     0.175 C 
ATOM     13  C   UNL A   1      32.181  21.334  23.391  1.00  0.00     0.102 A 
ATOM     14  C   UNL A   1      31.478  21.279  24.635  1.00  0.00     0.151 A 
ATOM     15  C   UNL A   1      33.227  22.196  23.654  1.00  0.00     0.142 A 
ATOM     16  N   UNL A   1      31.872  22.209  25.511  1.00  0.00    -0.178 NA
ATOM     17  N   UNL A   1      32.876  22.808  24.852  1.00  0.00    -0.237 N 
ATOM     18  N   UNL A   1      34.380  22.628  23.046  1.00  0.00    -0.343 N 
ATOM     19  C   UNL A   1      35.333  23.341  23.797  1.00  0.00     0.026 C 
ATOM     20  H   UNL A   1      34.538  22.442  22.091  1.00  0.00     0.168 HD
ATOM     21  C   UNL A   1      34.950  23.830  25.004  1.00  0.00     0.044 C 
ATOM     22  C   UNL A   1      36.795  23.277  23.469  1.00  0.00     0.055 C 
ATOM     23  C   UNL A   1      35.727  23.210  26.114  1.00  0.00     0.163 C 
ATOM     24  C   UNL A   1      37.582  22.570  24.576  1.00  0.00     0.014 C 
ATOM     25  O   UNL A   1      35.470  23.477  27.283  1.00  0.00    -0.294 OA
ATOM     26  C   UNL A   1      36.682  22.090  25.712  1.00  0.00     0.081 C 
BRANCH  13  27
ATOM     27  C   UNL A   1      31.898  20.618  22.167  1.00  0.00     0.261 C 
ATOM     28  N   UNL A   1      32.340  19.312  22.023  1.00  0.00    -0.322 N 
ATOM     29  H   UNL A   1      32.449  19.021  21.088  1.00  0.00     0.170 HD
ATOM     30  O   UNL A   1      31.316  21.157  21.225  1.00  0.00    -0.269 OA
BRANCH  28  31
ATOM     31  C   UNL A   1      32.665  18.323  22.978  1.00  0.00     0.041 A 
ATOM     32  C   UNL A   1      33.831  15.329  25.885  1.00  0.00     0.044 C 
ATOM     33  C   UNL A   1      33.407  16.332  24.853  1.00  0.00    -0.051 A 
ATOM     34  C   UNL A   1      32.407  17.253  25.155  1.00  0.00     0.005 A 
ATOM     35  C   UNL A   1      34.014  16.394  23.594  1.00  0.00     0.005 A 
ATOM     36  C   UNL A   1      32.029  18.212  24.212  1.00  0.00     0.026 A 
ATOM     37  C   UNL A   1      33.638  17.374  22.660  1.00  0.00     0.026 A 
ENDBRANCH  28  31
ENDBRANCH  13  27
ENDBRANCH   7  12
ENDBRANCH   4   6
ENDBRANCH   3   4
ENDBRANCH   2   3
ENDBRANCH   1   2
BRANCH   1  38
ATOM     38  O   UNL A   1      33.124  30.286  26.156  1.00  0.00    -0.374 OA
BRANCH  38  39
ATOM     39  C   UNL A   1      33.407  29.203  27.092  1.00  0.00     0.202 C 
BRANCH  39  40
ATOM     40  C   UNL A   1      34.900  28.982  27.433  1.00  0.00     0.261 C 
BRANCH  40  41
ATOM     41  O   UNL A   1      35.342  29.751  28.560  1.00  0.00    -0.460 OA
BRANCH  41  42
ATOM     42  C   UNL A   1      36.445  30.512  28.367  1.00  0.00     0.338 C 
ATOM     43  O   UNL A   1      36.470  31.682  28.033  1.00  0.00    -0.246 OA
BRANCH  42  44
ATOM     44  C   UNL A   1      37.606  29.585  28.428  1.00  0.00     0.060 A 
ATOM     45  C   UNL A   1      37.829  28.847  29.595  1.00  0.00     0.016 A 
ATOM     46  C   UNL A   1      38.584  29.616  27.420  1.00  0.00     0.016 A 
ATOM     47  C   UNL A   1      39.055  28.197  29.772  1.00  0.00     0.010 A 
ATOM     48  C   UNL A   1      39.828  29.046  27.637  1.00  0.00     0.010 A 
ATOM     49  C   UNL A   1      40.082  28.362  28.826  1.00  0.00    -0.014 A 
BRANCH  49  50
ATOM     50  C   UNL A   1      41.416  27.756  28.965  1.00  0.00     0.031 A 
ATOM     51  C   UNL A   1      41.523  26.358  28.595  1.00  0.00     0.074 A 
ATOM     52  C   UNL A   1      42.525  28.380  29.420  1.00  0.00     0.049 A 
ATOM     53  N   UNL A   1      42.232  25.493  29.232  1.00  0.00    -0.248 NA
ATOM     54  C   UNL A   1      40.751  25.801  27.488  1.00  0.00     0.031 C 
ATOM     55  C   UNL A   1      43.927  28.036  29.538  1.00  0.00     0.029 A 
ATOM     56  N   UNL A   1      42.532  29.578  30.039  1.00  0.00    -0.354 N 
ATOM     57  C   UNL A   1      42.460  24.526  28.291  1.00  0.00     0.074 A 
ATOM     58  C   UNL A   1      41.292  24.583  27.443  1.00  0.00     0.031 C 
ATOM     59  C   UNL A   1      44.520  28.860  30.440  1.00  0.00     0.029 A 
ATOM     60  C   UNL A   1      43.496  29.738  31.014  1.00  0.00     0.049 A 
ATOM     61  H   UNL A   1      41.892  30.291  29.811  1.00  0.00     0.167 HD
ATOM     62  C   UNL A   1      43.752  24.115  28.098  1.00  0.00     0.031 A 
ATOM     63  C   UNL A   1      43.132  29.935  32.336  1.00  0.00     0.031 A 
ATOM     64  C   UNL A   1      44.676  24.581  29.176  1.00  0.00     0.049 A 
ATOM     65  C   UNL A   1      43.460  28.593  33.086  1.00  0.00     0.074 A 
ATOM     66  C   UNL A   1      45.923  25.195  29.228  1.00  0.00     0.029 A 
ATOM     67  N   UNL A   1      44.204  24.656  30.494  1.00  0.00    -0.354 N 
ATOM     68  N   UNL A   1      43.857  27.517  32.441  1.00  0.00    -0.248 NA
ATOM     69  C   UNL A   1      43.430  28.307  34.525  1.00  0.00     0.031 C 
ATOM     70  C   UNL A   1      46.177  25.626  30.571  1.00  0.00     0.029 A 
ATOM     71  C   UNL A   1      45.085  25.288  31.347  1.00  0.00     0.049 A 
ATOM     72  H   UNL A   1      43.333  24.296  30.781  1.00  0.00     0.167 HD
ATOM     73  C   UNL A   1      44.218  26.496  33.273  1.00  0.00     0.074 A 
ATOM     74  C   UNL A   1      43.867  27.023  34.584  1.00  0.00     0.031 C 
ATOM     75  C   UNL A   1      44.783  25.339  32.786  1.00  0.00     0.031 A 
BRANCH  62  76
ATOM     76  C   UNL A   1      44.200  23.555  26.747  1.00  0.00    -0.014 A 
ATOM     77  C   UNL A   1      43.903  22.233  26.383  1.00  0.00     0.009 A 
ATOM     78  C   UNL A   1      44.978  24.259  25.802  1.00  0.00     0.009 A 
ATOM     79  C   UNL A   1      44.402  21.644  25.206  1.00  0.00     0.001 A 
ATOM     80  C   UNL A   1      45.489  23.685  24.631  1.00  0.00     0.001 A 
ATOM     81  C   UNL A   1      45.207  22.366  24.335  1.00  0.00     0.000 A 
ENDBRANCH  62  76
BRANCH  63  82
ATOM     82  C   UNL A   1      41.891  30.975  32.530  1.00  0.00    -0.014 A 
ATOM     83  C   UNL A   1      40.194  30.409  32.420  1.00  0.00     0.009 A 
ATOM     84  C   UNL A   1      42.305  32.034  33.877  1.00  0.00     0.009 A 
ATOM     85  C   UNL A   1      38.966  30.741  33.719  1.00  0.00     0.001 A 
ATOM     86  C   UNL A   1      41.206  32.292  35.267  1.00  0.00     0.001 A 
ATOM     87  C   UNL A   1      39.474  31.632  35.215  1.00  0.00     0.000 A 
ENDBRANCH  63  82
BRANCH  75  88
ATOM     88  C   UNL A   1      45.157  24.082  33.555  1.00  0.00    -0.014 A 
ATOM     89  C   UNL A   1      46.442  23.733  33.970  1.00  0.00     0.009 A 
ATOM     90  C   UNL A   1      44.139  23.126  33.825  1.00  0.00     0.009 A 
ATOM     91  C   UNL A   1      46.677  22.536  34.674  1.00  0.00     0.001 A 
ATOM     92  C   UNL A   1      44.365  21.931  34.510  1.00  0.00     0.001 A 
ATOM     93  C   UNL A   1      45.641  21.644  34.952  1.00  0.00     0.000 A 
ENDBRANCH  75  88
ENDBRANCH  49  50
ENDBRANCH  42  44
ENDBRANCH  41  42
ENDBRANCH  40  41
ENDBRANCH  39  40
ENDBRANCH  38  39
ENDBRANCH   1  38
TORSDOF 17
ENDMDL
