MODEL 1
REMARK VINA RESULT:     -10.9      0.000      0.000
REMARK SMILES C[C@@H](Oc1ccc(-c2ccccc2)cc1)C(=O)N1CCC[C@H](C(=O)OCCOCCOC(=O)c2ccc(-c3c4nc(c(-c5ccccc5)c5ccc([nH]5)c(-c5ccccc5)c5nc(c(-c6ccccc6)c6ccc3[nH]6)C=C5)C=C4)cc2)C1
REMARK SMILES IDX 26 1 25 2 23 3 24 4 22 5 18 6 19 7 82 8 20 9 21 10 16 11
REMARK SMILES IDX 17 12 2 13 1 14 3 15 4 16 5 17 15 18 6 19 14 20 7 21 8 22
REMARK SMILES IDX 9 23 13 24 10 25 12 26 11 27 27 28 28 29 29 30 30 31 31 32
REMARK SMILES IDX 32 33 33 34 34 35 35 36 81 37 36 38 80 39 37 40 38 41 39 42
REMARK SMILES IDX 74 43 40 44 79 45 73 46 75 47 41 48 78 49 72 50 71 51 42 53
REMARK SMILES IDX 64 54 49 55 63 56 50 57 53 58 62 59 76 60 51 61 52 62 61 64
REMARK SMILES IDX 77 65 54 66 43 67 44 68 48 69 45 70 47 71 46 72 65 73 66 74
REMARK SMILES IDX 70 75 67 76 69 77 68 78 55 79 56 80 60 81 57 82 59 83 58 84
REMARK H PARENT 75 52 53 63
REMARK Flexibility Score: inf
ROOT
ATOM      1  C   UNL A   1      39.857  22.026  26.509  1.00  0.00     0.261 C 
ENDROOT
BRANCH   1   2
ATOM      2  O   UNL A   1      38.420  21.971  26.478  1.00  0.00    -0.463 OA
BRANCH   2   3
ATOM      3  C   UNL A   1      37.775  22.956  25.805  1.00  0.00     0.310 C 
ATOM      4  O   UNL A   1      37.606  24.095  26.225  1.00  0.00    -0.252 OA
BRANCH   3   5
ATOM      5  C   UNL A   1      37.210  22.490  24.474  1.00  0.00     0.119 C 
ATOM      6  N   UNL A   1      34.829  22.712  25.010  1.00  0.00    -0.339 N 
ATOM      7  C   UNL A   1      34.533  21.306  24.759  1.00  0.00     0.119 C 
ATOM      8  C   UNL A   1      35.919  23.256  24.200  1.00  0.00     0.134 C 
ATOM      9  C   UNL A   1      35.755  20.429  25.006  1.00  0.00     0.022 C 
ATOM     10  C   UNL A   1      37.005  20.975  24.309  1.00  0.00     0.019 C 
BRANCH   6  11
ATOM     11  C   UNL A   1      34.152  23.382  26.025  1.00  0.00     0.263 C 
ATOM     12  O   UNL A   1      34.399  23.158  27.215  1.00  0.00    -0.271 OA
BRANCH  11  13
ATOM     13  C   UNL A   1      33.062  24.413  25.664  1.00  0.00     0.259 C 
ATOM     14  C   UNL A   1      31.875  24.353  26.623  1.00  0.00     0.064 C 
BRANCH  13  15
ATOM     15  O   UNL A   1      33.694  25.698  25.636  1.00  0.00    -0.481 OA
BRANCH  15  16
ATOM     16  C   UNL A   1      32.922  26.681  25.100  1.00  0.00     0.120 A 
ATOM     17  C   UNL A   1      32.540  27.760  25.891  1.00  0.00     0.047 A 
ATOM     18  C   UNL A   1      32.375  26.497  23.836  1.00  0.00     0.047 A 
ATOM     19  C   UNL A   1      31.595  28.670  25.406  1.00  0.00     0.012 A 
ATOM     20  C   UNL A   1      31.441  27.410  23.353  1.00  0.00     0.012 A 
ATOM     21  C   UNL A   1      31.016  28.497  24.136  1.00  0.00    -0.018 A 
BRANCH  21  22
ATOM     22  C   UNL A   1      29.951  29.385  23.646  1.00  0.00    -0.018 A 
ATOM     23  C   UNL A   1      29.835  30.712  24.084  1.00  0.00     0.009 A 
ATOM     24  C   UNL A   1      29.019  28.918  22.700  1.00  0.00     0.009 A 
ATOM     25  C   UNL A   1      28.834  31.548  23.578  1.00  0.00     0.001 A 
ATOM     26  C   UNL A   1      28.021  29.750  22.194  1.00  0.00     0.001 A 
ATOM     27  C   UNL A   1      27.931  31.068  22.631  1.00  0.00     0.000 A 
ENDBRANCH  21  22
ENDBRANCH  15  16
ENDBRANCH  13  15
ENDBRANCH  11  13
ENDBRANCH   6  11
ENDBRANCH   3   5
ENDBRANCH   2   3
ENDBRANCH   1   2
BRANCH   1  28
ATOM     28  C   UNL A   1      40.453  20.620  26.579  1.00  0.00     0.202 C 
BRANCH  28  29
ATOM     29  O   UNL A   1      41.839  20.547  26.910  1.00  0.00    -0.374 OA
BRANCH  29  30
ATOM     30  C   UNL A   1      42.751  20.236  25.859  1.00  0.00     0.202 C 
BRANCH  30  31
ATOM     31  C   UNL A   1      43.698  21.364  25.427  1.00  0.00     0.261 C 
BRANCH  31  32
ATOM     32  O   UNL A   1      43.008  22.599  25.164  1.00  0.00    -0.460 OA
BRANCH  32  33
ATOM     33  C   UNL A   1      43.803  23.694  25.116  1.00  0.00     0.338 C 
ATOM     34  O   UNL A   1      44.532  24.042  24.195  1.00  0.00    -0.246 OA
BRANCH  33  35
ATOM     35  C   UNL A   1      43.575  24.547  26.295  1.00  0.00     0.060 A 
ATOM     36  C   UNL A   1      42.739  24.054  27.307  1.00  0.00     0.016 A 
ATOM     37  C   UNL A   1      44.086  25.844  26.366  1.00  0.00     0.016 A 
ATOM     38  C   UNL A   1      42.375  24.873  28.375  1.00  0.00     0.010 A 
ATOM     39  C   UNL A   1      43.710  26.667  27.432  1.00  0.00     0.010 A 
ATOM     40  C   UNL A   1      42.828  26.198  28.421  1.00  0.00    -0.014 A 
BRANCH  40  41
ATOM     41  C   UNL A   1      42.268  27.144  29.416  1.00  0.00     0.031 A 
ATOM     42  C   UNL A   1      42.956  27.291  30.746  1.00  0.00     0.074 A 
ATOM     43  C   UNL A   1      41.159  27.855  29.149  1.00  0.00     0.049 A 
ATOM     44  N   UNL A   1      42.579  27.958  31.806  1.00  0.00    -0.248 NA
ATOM     45  C   UNL A   1      44.240  26.587  30.899  1.00  0.00     0.031 C 
ATOM     46  C   UNL A   1      40.435  27.850  27.881  1.00  0.00     0.029 A 
ATOM     47  N   UNL A   1      40.441  28.711  29.947  1.00  0.00    -0.354 N 
ATOM     48  C   UNL A   1      43.567  27.738  32.758  1.00  0.00     0.074 A 
ATOM     49  C   UNL A   1      44.551  26.866  32.157  1.00  0.00     0.031 C 
ATOM     50  C   UNL A   1      39.361  28.652  27.991  1.00  0.00     0.029 A 
ATOM     51  C   UNL A   1      39.301  29.187  29.350  1.00  0.00     0.049 A 
ATOM     52  H   UNL A   1      40.718  28.959  30.858  1.00  0.00     0.167 HD
ATOM     53  C   UNL A   1      43.644  28.218  34.023  1.00  0.00     0.031 A 
ATOM     54  C   UNL A   1      38.302  29.938  29.855  1.00  0.00     0.031 A 
ATOM     55  C   UNL A   1      42.660  29.078  34.623  1.00  0.00     0.049 A 
ATOM     56  C   UNL A   1      38.363  30.385  31.292  1.00  0.00     0.074 A 
ATOM     57  C   UNL A   1      42.653  29.622  35.896  1.00  0.00     0.029 A 
ATOM     58  N   UNL A   1      41.505  29.512  33.993  1.00  0.00    -0.354 N 
ATOM     59  N   UNL A   1      39.302  30.174  32.184  1.00  0.00    -0.248 NA
ATOM     60  C   UNL A   1      37.225  31.170  31.793  1.00  0.00     0.031 C 
ATOM     61  C   UNL A   1      41.467  30.345  36.053  1.00  0.00     0.029 A 
ATOM     62  C   UNL A   1      40.765  30.298  34.858  1.00  0.00     0.049 A 
ATOM     63  H   UNL A   1      41.249  29.294  33.068  1.00  0.00     0.167 HD
ATOM     64  C   UNL A   1      38.885  30.831  33.336  1.00  0.00     0.074 A 
ATOM     65  C   UNL A   1      37.610  31.445  33.032  1.00  0.00     0.031 C 
ATOM     66  C   UNL A   1      39.507  30.919  34.536  1.00  0.00     0.031 A 
BRANCH  53  67
ATOM     67  C   UNL A   1      44.815  27.785  34.857  1.00  0.00    -0.014 A 
ATOM     68  C   UNL A   1      44.772  26.614  35.629  1.00  0.00     0.009 A 
ATOM     69  C   UNL A   1      45.997  28.544  34.838  1.00  0.00     0.009 A 
ATOM     70  C   UNL A   1      45.878  26.229  36.391  1.00  0.00     0.001 A 
ATOM     71  C   UNL A   1      47.109  28.143  35.579  1.00  0.00     0.001 A 
ATOM     72  C   UNL A   1      47.046  26.991  36.361  1.00  0.00     0.000 A 
ENDBRANCH  53  67
BRANCH  54  73
ATOM     73  C   UNL A   1      37.132  30.287  29.006  1.00  0.00    -0.014 A 
ATOM     74  C   UNL A   1      36.931  31.606  28.574  1.00  0.00     0.009 A 
ATOM     75  C   UNL A   1      36.203  29.301  28.635  1.00  0.00     0.009 A 
ATOM     76  C   UNL A   1      35.811  31.935  27.806  1.00  0.00     0.001 A 
ATOM     77  C   UNL A   1      35.100  29.629  27.844  1.00  0.00     0.001 A 
ATOM     78  C   UNL A   1      34.899  30.946  27.438  1.00  0.00     0.000 A 
ENDBRANCH  54  73
BRANCH  66  79
ATOM     79  C   UNL A   1      38.857  31.756  35.601  1.00  0.00    -0.014 A 
ATOM     80  C   UNL A   1      38.175  31.170  36.678  1.00  0.00     0.009 A 
ATOM     81  C   UNL A   1      39.003  33.152  35.564  1.00  0.00     0.009 A 
ATOM     82  C   UNL A   1      37.638  31.970  37.689  1.00  0.00     0.001 A 
ATOM     83  C   UNL A   1      38.487  33.946  36.588  1.00  0.00     0.001 A 
ATOM     84  C   UNL A   1      37.801  33.355  37.647  1.00  0.00     0.000 A 
ENDBRANCH  66  79
ENDBRANCH  40  41
ENDBRANCH  33  35
ENDBRANCH  32  33
ENDBRANCH  31  32
ENDBRANCH  30  31
ENDBRANCH  29  30
ENDBRANCH  28  29
ENDBRANCH   1  28
TORSDOF 19
ENDMDL
MODEL 2
REMARK VINA RESULT:     -10.7      2.406      9.255
REMARK SMILES C[C@@H](Oc1ccc(-c2ccccc2)cc1)C(=O)N1CCC[C@H](C(=O)OCCOCCOC(=O)c2ccc(-c3c4nc(c(-c5ccccc5)c5ccc([nH]5)c(-c5ccccc5)c5nc(c(-c6ccccc6)c6ccc3[nH]6)C=C5)C=C4)cc2)C1
REMARK SMILES IDX 26 1 25 2 23 3 24 4 22 5 18 6 19 7 82 8 20 9 21 10 16 11
REMARK SMILES IDX 17 12 2 13 1 14 3 15 4 16 5 17 15 18 6 19 14 20 7 21 8 22
REMARK SMILES IDX 9 23 13 24 10 25 12 26 11 27 27 28 28 29 29 30 30 31 31 32
REMARK SMILES IDX 32 33 33 34 34 35 35 36 81 37 36 38 80 39 37 40 38 41 39 42
REMARK SMILES IDX 74 43 40 44 79 45 73 46 75 47 41 48 78 49 72 50 71 51 42 53
REMARK SMILES IDX 64 54 49 55 63 56 50 57 53 58 62 59 76 60 51 61 52 62 61 64
REMARK SMILES IDX 77 65 54 66 43 67 44 68 48 69 45 70 47 71 46 72 65 73 66 74
REMARK SMILES IDX 70 75 67 76 69 77 68 78 55 79 56 80 60 81 57 82 59 83 58 84
REMARK H PARENT 75 52 53 63
REMARK Flexibility Score: inf
ROOT
ATOM      1  C   UNL A   1      31.736  28.166  27.495  1.00  0.00     0.261 C 
ENDROOT
BRANCH   1   2
ATOM      2  O   UNL A   1      32.357  27.113  26.736  1.00  0.00    -0.463 OA
BRANCH   2   3
ATOM      3  C   UNL A   1      31.537  26.224  26.124  1.00  0.00     0.310 C 
ATOM      4  O   UNL A   1      31.034  25.247  26.667  1.00  0.00    -0.252 OA
BRANCH   3   5
ATOM      5  C   UNL A   1      31.345  26.518  24.646  1.00  0.00     0.119 C 
ATOM      6  N   UNL A   1      32.484  24.544  23.746  1.00  0.00    -0.339 N 
ATOM      7  C   UNL A   1      33.460  25.322  22.991  1.00  0.00     0.119 C 
ATOM      8  C   UNL A   1      31.183  25.194  23.904  1.00  0.00     0.134 C 
ATOM      9  C   UNL A   1      33.713  26.677  23.642  1.00  0.00     0.022 C 
ATOM     10  C   UNL A   1      32.408  27.405  23.979  1.00  0.00     0.019 C 
BRANCH   6  11
ATOM     11  C   UNL A   1      32.870  23.337  24.322  1.00  0.00     0.263 C 
ATOM     12  O   UNL A   1      32.237  22.297  24.111  1.00  0.00    -0.271 OA
BRANCH  11  13
ATOM     13  C   UNL A   1      34.099  23.294  25.254  1.00  0.00     0.259 C 
ATOM     14  C   UNL A   1      33.780  22.636  26.595  1.00  0.00     0.064 C 
BRANCH  13  15
ATOM     15  O   UNL A   1      35.144  22.627  24.538  1.00  0.00    -0.481 OA
BRANCH  15  16
ATOM     16  C   UNL A   1      36.321  22.559  25.217  1.00  0.00     0.120 A 
ATOM     17  C   UNL A   1      36.874  23.720  25.747  1.00  0.00     0.047 A 
ATOM     18  C   UNL A   1      37.040  21.370  25.205  1.00  0.00     0.047 A 
ATOM     19  C   UNL A   1      38.169  23.688  26.275  1.00  0.00     0.012 A 
ATOM     20  C   UNL A   1      38.325  21.340  25.739  1.00  0.00     0.012 A 
ATOM     21  C   UNL A   1      38.922  22.501  26.261  1.00  0.00    -0.018 A 
BRANCH  21  22
ATOM     22  C   UNL A   1      40.319  22.467  26.721  1.00  0.00    -0.018 A 
ATOM     23  C   UNL A   1      40.677  22.837  28.025  1.00  0.00     0.009 A 
ATOM     24  C   UNL A   1      41.340  22.040  25.852  1.00  0.00     0.009 A 
ATOM     25  C   UNL A   1      42.007  22.765  28.451  1.00  0.00     0.001 A 
ATOM     26  C   UNL A   1      42.667  21.966  26.275  1.00  0.00     0.001 A 
ATOM     27  C   UNL A   1      43.000  22.326  27.578  1.00  0.00     0.000 A 
ENDBRANCH  21  22
ENDBRANCH  15  16
ENDBRANCH  13  15
ENDBRANCH  11  13
ENDBRANCH   6  11
ENDBRANCH   3   5
ENDBRANCH   2   3
ENDBRANCH   1   2
BRANCH   1  28
ATOM     28  C   UNL A   1      32.457  29.496  27.269  1.00  0.00     0.202 C 
BRANCH  28  29
ATOM     29  O   UNL A   1      32.250  30.108  25.996  1.00  0.00    -0.374 OA
BRANCH  29  30
ATOM     30  C   UNL A   1      31.328  31.193  25.930  1.00  0.00     0.202 C 
BRANCH  30  31
ATOM     31  C   UNL A   1      31.456  32.259  27.025  1.00  0.00     0.261 C 
BRANCH  31  32
ATOM     32  O   UNL A   1      32.548  33.168  26.793  1.00  0.00    -0.460 OA
BRANCH  32  33
ATOM     33  C   UNL A   1      33.043  33.756  27.907  1.00  0.00     0.338 C 
ATOM     34  O   UNL A   1      32.498  34.603  28.604  1.00  0.00    -0.246 OA
BRANCH  33  35
ATOM     35  C   UNL A   1      34.318  33.130  28.296  1.00  0.00     0.060 A 
ATOM     36  C   UNL A   1      34.279  31.817  28.784  1.00  0.00     0.016 A 
ATOM     37  C   UNL A   1      35.517  33.844  28.277  1.00  0.00     0.016 A 
ATOM     38  C   UNL A   1      35.432  31.226  29.299  1.00  0.00     0.010 A 
ATOM     39  C   UNL A   1      36.670  33.255  28.805  1.00  0.00     0.010 A 
ATOM     40  C   UNL A   1      36.626  31.958  29.348  1.00  0.00    -0.014 A 
BRANCH  40  41
ATOM     41  C   UNL A   1      37.793  31.434  30.098  1.00  0.00     0.031 A 
ATOM     42  C   UNL A   1      38.734  30.487  29.406  1.00  0.00     0.074 A 
ATOM     43  C   UNL A   1      38.010  31.786  31.376  1.00  0.00     0.049 A 
ATOM     44  N   UNL A   1      39.740  29.811  29.897  1.00  0.00    -0.248 NA
ATOM     45  C   UNL A   1      38.505  30.270  27.968  1.00  0.00     0.031 C 
ATOM     46  C   UNL A   1      37.210  32.741  32.140  1.00  0.00     0.029 A 
ATOM     47  N   UNL A   1      38.968  31.360  32.263  1.00  0.00    -0.354 N 
ATOM     48  C   UNL A   1      40.252  29.075  28.836  1.00  0.00     0.074 A 
ATOM     49  C   UNL A   1      39.437  29.373  27.679  1.00  0.00     0.031 C 
ATOM     50  C   UNL A   1      37.700  32.816  33.390  1.00  0.00     0.029 A 
ATOM     51  C   UNL A   1      38.816  31.881  33.524  1.00  0.00     0.049 A 
ATOM     52  H   UNL A   1      39.693  30.743  32.018  1.00  0.00     0.167 HD
ATOM     53  C   UNL A   1      41.304  28.222  28.828  1.00  0.00     0.031 A 
ATOM     54  C   UNL A   1      39.477  31.606  34.665  1.00  0.00     0.031 A 
ATOM     55  C   UNL A   1      42.108  27.918  29.981  1.00  0.00     0.049 A 
ATOM     56  C   UNL A   1      40.585  30.586  34.653  1.00  0.00     0.074 A 
ATOM     57  C   UNL A   1      43.200  27.072  30.071  1.00  0.00     0.029 A 
ATOM     58  N   UNL A   1      41.901  28.445  31.246  1.00  0.00    -0.354 N 
ATOM     59  N   UNL A   1      41.063  29.896  33.644  1.00  0.00    -0.248 NA
ATOM     60  C   UNL A   1      41.243  30.302  35.938  1.00  0.00     0.031 C 
ATOM     61  C   UNL A   1      43.623  27.049  31.403  1.00  0.00     0.029 A 
ATOM     62  C   UNL A   1      42.830  27.924  32.128  1.00  0.00     0.049 A 
ATOM     63  H   UNL A   1      41.199  29.093  31.480  1.00  0.00     0.167 HD
ATOM     64  C   UNL A   1      42.098  29.129  34.166  1.00  0.00     0.074 A 
ATOM     65  C   UNL A   1      42.179  29.436  35.578  1.00  0.00     0.031 C 
ATOM     66  C   UNL A   1      42.911  28.252  33.528  1.00  0.00     0.031 A 
BRANCH  53  67
ATOM     67  C   UNL A   1      41.619  27.522  27.536  1.00  0.00    -0.014 A 
ATOM     68  C   UNL A   1      40.967  26.335  27.169  1.00  0.00     0.009 A 
ATOM     69  C   UNL A   1      42.556  28.085  26.655  1.00  0.00     0.009 A 
ATOM     70  C   UNL A   1      41.272  25.708  25.959  1.00  0.00     0.001 A 
ATOM     71  C   UNL A   1      42.839  27.471  25.434  1.00  0.00     0.001 A 
ATOM     72  C   UNL A   1      42.203  26.279  25.091  1.00  0.00     0.000 A 
ENDBRANCH  53  67
BRANCH  54  73
ATOM     73  C   UNL A   1      39.086  32.279  35.932  1.00  0.00    -0.014 A 
ATOM     74  C   UNL A   1      39.680  33.492  36.310  1.00  0.00     0.009 A 
ATOM     75  C   UNL A   1      38.124  31.702  36.776  1.00  0.00     0.009 A 
ATOM     76  C   UNL A   1      39.335  34.102  37.519  1.00  0.00     0.001 A 
ATOM     77  C   UNL A   1      37.760  32.328  37.970  1.00  0.00     0.001 A 
ATOM     78  C   UNL A   1      38.372  33.523  38.345  1.00  0.00     0.000 A 
ENDBRANCH  54  73
BRANCH  66  79
ATOM     79  C   UNL A   1      44.002  27.600  34.329  1.00  0.00    -0.014 A 
ATOM     80  C   UNL A   1      45.224  28.247  34.564  1.00  0.00     0.009 A 
ATOM     81  C   UNL A   1      43.764  26.351  34.926  1.00  0.00     0.009 A 
ATOM     82  C   UNL A   1      46.194  27.645  35.368  1.00  0.00     0.001 A 
ATOM     83  C   UNL A   1      44.725  25.766  35.749  1.00  0.00     0.001 A 
ATOM     84  C   UNL A   1      45.942  26.411  35.966  1.00  0.00     0.000 A 
ENDBRANCH  66  79
ENDBRANCH  40  41
ENDBRANCH  33  35
ENDBRANCH  32  33
ENDBRANCH  31  32
ENDBRANCH  30  31
ENDBRANCH  29  30
ENDBRANCH  28  29
ENDBRANCH   1  28
TORSDOF 19
ENDMDL
MODEL 3
REMARK VINA RESULT:     -10.5      2.494      9.161
REMARK SMILES C[C@@H](Oc1ccc(-c2ccccc2)cc1)C(=O)N1CCC[C@H](C(=O)OCCOCCOC(=O)c2ccc(-c3c4nc(c(-c5ccccc5)c5ccc([nH]5)c(-c5ccccc5)c5nc(c(-c6ccccc6)c6ccc3[nH]6)C=C5)C=C4)cc2)C1
REMARK SMILES IDX 26 1 25 2 23 3 24 4 22 5 18 6 19 7 82 8 20 9 21 10 16 11
REMARK SMILES IDX 17 12 2 13 1 14 3 15 4 16 5 17 15 18 6 19 14 20 7 21 8 22
REMARK SMILES IDX 9 23 13 24 10 25 12 26 11 27 27 28 28 29 29 30 30 31 31 32
REMARK SMILES IDX 32 33 33 34 34 35 35 36 81 37 36 38 80 39 37 40 38 41 39 42
REMARK SMILES IDX 74 43 40 44 79 45 73 46 75 47 41 48 78 49 72 50 71 51 42 53
REMARK SMILES IDX 64 54 49 55 63 56 50 57 53 58 62 59 76 60 51 61 52 62 61 64
REMARK SMILES IDX 77 65 54 66 43 67 44 68 48 69 45 70 47 71 46 72 65 73 66 74
REMARK SMILES IDX 70 75 67 76 69 77 68 78 55 79 56 80 60 81 57 82 59 83 58 84
REMARK H PARENT 75 52 53 63
REMARK Flexibility Score: inf
ROOT
ATOM      1  C   UNL A   1      31.851  29.001  27.275  1.00  0.00     0.261 C 
ENDROOT
BRANCH   1   2
ATOM      2  O   UNL A   1      32.296  27.825  26.576  1.00  0.00    -0.463 OA
BRANCH   2   3
ATOM      3  C   UNL A   1      31.343  26.957  26.155  1.00  0.00     0.310 C 
ATOM      4  O   UNL A   1      30.702  26.213  26.887  1.00  0.00    -0.252 OA
BRANCH   3   5
ATOM      5  C   UNL A   1      31.185  26.941  24.644  1.00  0.00     0.119 C 
ATOM      6  N   UNL A   1      32.687  25.067  24.155  1.00  0.00    -0.339 N 
ATOM      7  C   UNL A   1      33.559  25.854  23.290  1.00  0.00     0.119 C 
ATOM      8  C   UNL A   1      31.289  25.498  24.160  1.00  0.00     0.134 C 
ATOM      9  C   UNL A   1      33.545  27.328  23.681  1.00  0.00     0.022 C 
ATOM     10  C   UNL A   1      32.120  27.866  23.847  1.00  0.00     0.019 C 
BRANCH   6  11
ATOM     11  C   UNL A   1      33.237  24.070  24.955  1.00  0.00     0.263 C 
ATOM     12  O   UNL A   1      33.277  24.186  26.185  1.00  0.00    -0.271 OA
BRANCH  11  13
ATOM     13  C   UNL A   1      33.824  22.803  24.299  1.00  0.00     0.259 C 
ATOM     14  C   UNL A   1      32.898  22.230  23.228  1.00  0.00     0.064 C 
BRANCH  13  15
ATOM     15  O   UNL A   1      35.116  23.154  23.791  1.00  0.00    -0.481 OA
BRANCH  15  16
ATOM     16  C   UNL A   1      36.146  22.781  24.598  1.00  0.00     0.120 A 
ATOM     17  C   UNL A   1      36.763  23.732  25.404  1.00  0.00     0.047 A 
ATOM     18  C   UNL A   1      36.684  21.508  24.462  1.00  0.00     0.047 A 
ATOM     19  C   UNL A   1      37.937  23.399  26.087  1.00  0.00     0.012 A 
ATOM     20  C   UNL A   1      37.848  21.177  25.150  1.00  0.00     0.012 A 
ATOM     21  C   UNL A   1      38.509  22.121  25.954  1.00  0.00    -0.018 A 
BRANCH  21  22
ATOM     22  C   UNL A   1      39.794  21.780  26.584  1.00  0.00    -0.018 A 
ATOM     23  C   UNL A   1      40.462  20.581  26.298  1.00  0.00     0.009 A 
ATOM     24  C   UNL A   1      40.396  22.672  27.491  1.00  0.00     0.009 A 
ATOM     25  C   UNL A   1      41.699  20.294  26.883  1.00  0.00     0.001 A 
ATOM     26  C   UNL A   1      41.630  22.387  28.075  1.00  0.00     0.001 A 
ATOM     27  C   UNL A   1      42.284  21.198  27.767  1.00  0.00     0.000 A 
ENDBRANCH  21  22
ENDBRANCH  15  16
ENDBRANCH  13  15
ENDBRANCH  11  13
ENDBRANCH   6  11
ENDBRANCH   3   5
ENDBRANCH   2   3
ENDBRANCH   1   2
BRANCH   1  28
ATOM     28  C   UNL A   1      32.366  30.267  26.589  1.00  0.00     0.202 C 
BRANCH  28  29
ATOM     29  O   UNL A   1      31.370  31.114  26.017  1.00  0.00    -0.374 OA
BRANCH  29  30
ATOM     30  C   UNL A   1      31.292  32.455  26.496  1.00  0.00     0.202 C 
BRANCH  30  31
ATOM     31  C   UNL A   1      32.498  32.958  27.300  1.00  0.00     0.261 C 
BRANCH  31  32
ATOM     32  O   UNL A   1      32.413  34.361  27.610  1.00  0.00    -0.460 OA
BRANCH  32  33
ATOM     33  C   UNL A   1      33.074  34.736  28.731  1.00  0.00     0.338 C 
ATOM     34  O   UNL A   1      32.735  35.589  29.542  1.00  0.00    -0.246 OA
BRANCH  33  35
ATOM     35  C   UNL A   1      34.233  33.857  28.962  1.00  0.00     0.060 A 
ATOM     36  C   UNL A   1      33.986  32.552  29.410  1.00  0.00     0.016 A 
ATOM     37  C   UNL A   1      35.541  34.329  28.839  1.00  0.00     0.016 A 
ATOM     38  C   UNL A   1      35.047  31.726  29.780  1.00  0.00     0.010 A 
ATOM     39  C   UNL A   1      36.603  33.503  29.223  1.00  0.00     0.010 A 
ATOM     40  C   UNL A   1      36.359  32.213  29.726  1.00  0.00    -0.014 A 
BRANCH  40  41
ATOM     41  C   UNL A   1      37.468  31.437  30.330  1.00  0.00     0.031 A 
ATOM     42  C   UNL A   1      37.802  31.657  31.781  1.00  0.00     0.074 A 
ATOM     43  C   UNL A   1      38.177  30.557  29.602  1.00  0.00     0.049 A 
ATOM     44  N   UNL A   1      38.801  31.188  32.483  1.00  0.00    -0.248 NA
ATOM     45  C   UNL A   1      36.886  32.526  32.538  1.00  0.00     0.031 C 
ATOM     46  C   UNL A   1      37.917  30.208  28.207  1.00  0.00     0.029 A 
ATOM     47  N   UNL A   1      39.277  29.809  29.940  1.00  0.00    -0.354 N 
ATOM     48  C   UNL A   1      38.646  31.720  33.757  1.00  0.00     0.074 A 
ATOM     49  C   UNL A   1      37.468  32.558  33.729  1.00  0.00     0.031 C 
ATOM     50  C   UNL A   1      38.845  29.325  27.801  1.00  0.00     0.029 A 
ATOM     51  C   UNL A   1      39.788  29.084  28.892  1.00  0.00     0.049 A 
ATOM     52  H   UNL A   1      39.661  29.793  30.846  1.00  0.00     0.167 HD
ATOM     53  C   UNL A   1      39.421  31.531  34.852  1.00  0.00     0.031 A 
ATOM     54  C   UNL A   1      40.910  28.343  28.811  1.00  0.00     0.031 A 
ATOM     55  C   UNL A   1      40.598  30.704  34.877  1.00  0.00     0.049 A 
ATOM     56  C   UNL A   1      41.805  28.219  30.016  1.00  0.00     0.074 A 
ATOM     57  C   UNL A   1      41.445  30.444  35.940  1.00  0.00     0.029 A 
ATOM     58  N   UNL A   1      41.097  30.011  33.785  1.00  0.00    -0.354 N 
ATOM     59  N   UNL A   1      41.651  28.723  31.217  1.00  0.00    -0.248 NA
ATOM     60  C   UNL A   1      43.034  27.426  29.853  1.00  0.00     0.031 C 
ATOM     61  C   UNL A   1      42.485  29.633  35.479  1.00  0.00     0.029 A 
ATOM     62  C   UNL A   1      42.253  29.342  34.143  1.00  0.00     0.049 A 
ATOM     63  H   UNL A   1      40.688  29.997  32.890  1.00  0.00     0.167 HD
ATOM     64  C   UNL A   1      42.739  28.279  31.959  1.00  0.00     0.074 A 
ATOM     65  C   UNL A   1      43.546  27.466  31.075  1.00  0.00     0.031 C 
ATOM     66  C   UNL A   1      43.037  28.522  33.258  1.00  0.00     0.031 A 
BRANCH  53  67
ATOM     67  C   UNL A   1      39.041  32.266  36.105  1.00  0.00    -0.014 A 
ATOM     68  C   UNL A   1      38.134  31.722  37.027  1.00  0.00     0.009 A 
ATOM     69  C   UNL A   1      39.633  33.509  36.385  1.00  0.00     0.009 A 
ATOM     70  C   UNL A   1      37.802  32.423  38.189  1.00  0.00     0.001 A 
ATOM     71  C   UNL A   1      39.321  34.193  37.560  1.00  0.00     0.001 A 
ATOM     72  C   UNL A   1      38.400  33.654  38.456  1.00  0.00     0.000 A 
ENDBRANCH  53  67
BRANCH  54  73
ATOM     73  C   UNL A   1      41.275  27.684  27.529  1.00  0.00    -0.014 A 
ATOM     74  C   UNL A   1      40.796  26.403  27.221  1.00  0.00     0.009 A 
ATOM     75  C   UNL A   1      42.119  28.332  26.613  1.00  0.00     0.009 A 
ATOM     76  C   UNL A   1      41.171  25.775  26.031  1.00  0.00     0.001 A 
ATOM     77  C   UNL A   1      42.470  27.713  25.411  1.00  0.00     0.001 A 
ATOM     78  C   UNL A   1      42.004  26.432  25.125  1.00  0.00     0.000 A 
ENDBRANCH  54  73
BRANCH  66  79
ATOM     79  C   UNL A   1      44.256  27.856  33.831  1.00  0.00    -0.014 A 
ATOM     80  C   UNL A   1      44.185  26.589  34.430  1.00  0.00     0.009 A 
ATOM     81  C   UNL A   1      45.509  28.475  33.691  1.00  0.00     0.009 A 
ATOM     82  C   UNL A   1      45.346  25.965  34.893  1.00  0.00     0.001 A 
ATOM     83  C   UNL A   1      46.668  27.838  34.132  1.00  0.00     0.001 A 
ATOM     84  C   UNL A   1      46.585  26.585  34.737  1.00  0.00     0.000 A 
ENDBRANCH  66  79
ENDBRANCH  40  41
ENDBRANCH  33  35
ENDBRANCH  32  33
ENDBRANCH  31  32
ENDBRANCH  30  31
ENDBRANCH  29  30
ENDBRANCH  28  29
ENDBRANCH   1  28
TORSDOF 19
ENDMDL
