MODEL 1
REMARK VINA RESULT:     -10.4      0.000      0.000
REMARK SMILES O=C(OCCOCCOC(=O)[C@H]1CC1(c1ccccc1)c1ccccc1)c1ccc(-c2c3nc(c(-c4ccccc4)c4ccc([nH]4)c(-c4ccccc4)c4nc(c(-c5ccccc5)c5ccc2[nH]5)C=C4)C=C3)cc1
REMARK SMILES IDX 5 1 4 2 3 3 2 4 1 5 27 6 28 7 74 8 29 9 73 10 30 11 31 12
REMARK SMILES IDX 32 13 67 14 33 15 72 16 66 17 68 18 34 19 71 20 65 21 64 22
REMARK SMILES IDX 35 24 57 25 42 26 56 27 43 28 46 29 55 30 69 31 44 32 45 33
REMARK SMILES IDX 54 35 70 36 47 37 36 38 37 39 41 40 38 41 40 42 39 43 58 44
REMARK SMILES IDX 59 45 63 46 60 47 62 48 61 49 48 50 49 51 53 52 50 53 52 54
REMARK SMILES IDX 51 55 6 56 7 57 8 58 9 59 10 60 11 61 12 62 13 63 14 64
REMARK SMILES IDX 15 65 16 66 20 67 17 68 19 69 18 70 21 71 22 72 26 73 23 74
REMARK SMILES IDX 25 75 24 76
REMARK H PARENT 68 23 46 34
REMARK Flexibility Score: inf
ROOT
ATOM      1  C   UNL A   1      32.324  28.067  26.680  1.00  0.00     0.202 C 
ENDROOT
BRANCH   1   2
ATOM      2  C   UNL A   1      33.764  28.498  26.948  1.00  0.00     0.261 C 
BRANCH   2   3
ATOM      3  O   UNL A   1      33.811  29.920  27.134  1.00  0.00    -0.460 OA
BRANCH   3   4
ATOM      4  C   UNL A   1      34.677  30.593  27.931  1.00  0.00     0.338 C 
ATOM      5  O   UNL A   1      34.308  31.628  28.481  1.00  0.00    -0.246 OA
BRANCH   4   6
ATOM      6  C   UNL A   1      36.040  30.074  28.250  1.00  0.00     0.060 A 
ATOM      7  C   UNL A   1      37.122  30.102  27.370  1.00  0.00     0.016 A 
ATOM      8  C   UNL A   1      36.263  29.593  29.548  1.00  0.00     0.016 A 
ATOM      9  C   UNL A   1      38.368  29.647  27.725  1.00  0.00     0.010 A 
ATOM     10  C   UNL A   1      37.541  29.184  29.944  1.00  0.00     0.010 A 
ATOM     11  C   UNL A   1      38.594  29.228  29.025  1.00  0.00    -0.014 A 
BRANCH  11  12
ATOM     12  C   UNL A   1      39.962  28.789  29.313  1.00  0.00     0.031 A 
ATOM     13  C   UNL A   1      40.384  27.446  28.827  1.00  0.00     0.074 A 
ATOM     14  C   UNL A   1      40.834  29.693  29.801  1.00  0.00     0.049 A 
ATOM     15  N   UNL A   1      41.535  26.850  28.964  1.00  0.00    -0.248 NA
ATOM     16  C   UNL A   1      39.385  26.675  28.064  1.00  0.00     0.031 C 
ATOM     17  C   UNL A   1      40.515  31.092  30.122  1.00  0.00     0.029 A 
ATOM     18  N   UNL A   1      42.173  29.595  30.052  1.00  0.00    -0.354 N 
ATOM     19  C   UNL A   1      41.387  25.620  28.340  1.00  0.00     0.074 A 
ATOM     20  C   UNL A   1      40.040  25.551  27.824  1.00  0.00     0.031 C 
ATOM     21  C   UNL A   1      41.637  31.726  30.497  1.00  0.00     0.029 A 
ATOM     22  C   UNL A   1      42.724  30.759  30.534  1.00  0.00     0.049 A 
ATOM     23  H   UNL A   1      42.692  28.772  29.904  1.00  0.00     0.167 HD
ATOM     24  C   UNL A   1      42.309  24.640  28.229  1.00  0.00     0.031 A 
ATOM     25  C   UNL A   1      43.963  30.988  30.999  1.00  0.00     0.031 A 
ATOM     26  C   UNL A   1      43.633  24.754  28.770  1.00  0.00     0.049 A 
ATOM     27  C   UNL A   1      44.919  29.827  30.991  1.00  0.00     0.074 A 
ATOM     28  C   UNL A   1      44.639  23.807  28.811  1.00  0.00     0.029 A 
ATOM     29  N   UNL A   1      44.135  25.905  29.368  1.00  0.00    -0.354 N 
ATOM     30  N   UNL A   1      44.752  28.625  30.491  1.00  0.00    -0.248 NA
ATOM     31  C   UNL A   1      46.223  30.046  31.624  1.00  0.00     0.031 C 
ATOM     32  C   UNL A   1      45.728  24.369  29.483  1.00  0.00     0.029 A 
ATOM     33  C   UNL A   1      45.429  25.687  29.800  1.00  0.00     0.049 A 
ATOM     34  H   UNL A   1      43.640  26.749  29.468  1.00  0.00     0.167 HD
ATOM     35  C   UNL A   1      45.937  27.947  30.733  1.00  0.00     0.074 A 
ATOM     36  C   UNL A   1      46.823  28.888  31.392  1.00  0.00     0.031 C 
ATOM     37  C   UNL A   1      46.268  26.663  30.450  1.00  0.00     0.031 A 
BRANCH  24  38
ATOM     38  C   UNL A   1      41.867  23.358  27.590  1.00  0.00    -0.014 A 
ATOM     39  C   UNL A   1      41.162  22.377  28.306  1.00  0.00     0.009 A 
ATOM     40  C   UNL A   1      42.193  23.115  26.247  1.00  0.00     0.009 A 
ATOM     41  C   UNL A   1      40.820  21.168  27.698  1.00  0.00     0.001 A 
ATOM     42  C   UNL A   1      41.826  21.917  25.632  1.00  0.00     0.001 A 
ATOM     43  C   UNL A   1      41.148  20.940  26.360  1.00  0.00     0.000 A 
ENDBRANCH  24  38
BRANCH  25  44
ATOM     44  C   UNL A   1      44.331  32.299  31.600  1.00  0.00    -0.014 A 
ATOM     45  C   UNL A   1      44.956  33.299  30.838  1.00  0.00     0.009 A 
ATOM     46  C   UNL A   1      44.109  32.539  32.966  1.00  0.00     0.009 A 
ATOM     47  C   UNL A   1      45.389  34.483  31.440  1.00  0.00     0.001 A 
ATOM     48  C   UNL A   1      44.508  33.739  33.558  1.00  0.00     0.001 A 
ATOM     49  C   UNL A   1      45.164  34.703  32.798  1.00  0.00     0.000 A 
ENDBRANCH  25  44
BRANCH  37  50
ATOM     50  C   UNL A   1      47.658  26.237  30.818  1.00  0.00    -0.014 A 
ATOM     51  C   UNL A   1      48.715  26.325  29.899  1.00  0.00     0.009 A 
ATOM     52  C   UNL A   1      47.913  25.768  32.115  1.00  0.00     0.009 A 
ATOM     53  C   UNL A   1      49.995  25.908  30.262  1.00  0.00     0.001 A 
ATOM     54  C   UNL A   1      49.202  25.391  32.486  1.00  0.00     0.001 A 
ATOM     55  C   UNL A   1      50.238  25.449  31.556  1.00  0.00     0.000 A 
ENDBRANCH  37  50
ENDBRANCH  11  12
ENDBRANCH   4   6
ENDBRANCH   3   4
ENDBRANCH   2   3
ENDBRANCH   1   2
BRANCH   1  56
ATOM     56  O   UNL A   1      32.191  27.200  25.555  1.00  0.00    -0.374 OA
BRANCH  56  57
ATOM     57  C   UNL A   1      30.868  26.974  25.095  1.00  0.00     0.202 C 
BRANCH  57  58
ATOM     58  C   UNL A   1      30.476  25.517  25.343  1.00  0.00     0.261 C 
BRANCH  58  59
ATOM     59  O   UNL A   1      31.668  24.754  25.595  1.00  0.00    -0.463 OA
BRANCH  59  60
ATOM     60  C   UNL A   1      31.666  23.910  26.667  1.00  0.00     0.310 C 
ATOM     61  O   UNL A   1      30.698  23.587  27.341  1.00  0.00    -0.252 OA
BRANCH  60  62
ATOM     62  C   UNL A   1      33.034  23.374  26.855  1.00  0.00     0.115 C 
ATOM     63  C   UNL A   1      33.246  22.137  27.653  1.00  0.00     0.034 C 
ATOM     64  C   UNL A   1      33.715  22.167  26.175  1.00  0.00     0.034 C 
BRANCH  64  65
ATOM     65  C   UNL A   1      33.043  21.063  25.297  1.00  0.00    -0.037 A 
ATOM     66  C   UNL A   1      33.137  19.709  25.674  1.00  0.00     0.004 A 
ATOM     67  C   UNL A   1      32.579  21.294  23.982  1.00  0.00     0.004 A 
ATOM     68  C   UNL A   1      32.851  18.660  24.790  1.00  0.00     0.000 A 
ATOM     69  C   UNL A   1      32.302  20.252  23.085  1.00  0.00     0.000 A 
ATOM     70  C   UNL A   1      32.455  18.933  23.487  1.00  0.00     0.000 A 
ENDBRANCH  64  65
BRANCH  64  71
ATOM     71  C   UNL A   1      35.274  22.332  25.910  1.00  0.00    -0.037 A 
ATOM     72  C   UNL A   1      36.076  21.272  25.428  1.00  0.00     0.004 A 
ATOM     73  C   UNL A   1      35.967  23.536  26.156  1.00  0.00     0.004 A 
ATOM     74  C   UNL A   1      37.457  21.385  25.235  1.00  0.00     0.000 A 
ATOM     75  C   UNL A   1      37.351  23.660  25.969  1.00  0.00     0.000 A 
ATOM     76  C   UNL A   1      38.097  22.580  25.517  1.00  0.00     0.000 A 
ENDBRANCH  64  71
ENDBRANCH  60  62
ENDBRANCH  59  60
ENDBRANCH  58  59
ENDBRANCH  57  58
ENDBRANCH  56  57
ENDBRANCH   1  56
TORSDOF 16
ENDMDL
MODEL 2
REMARK VINA RESULT:     -10.2      2.664      7.319
REMARK SMILES O=C(OCCOCCOC(=O)[C@H]1CC1(c1ccccc1)c1ccccc1)c1ccc(-c2c3nc(c(-c4ccccc4)c4ccc([nH]4)c(-c4ccccc4)c4nc(c(-c5ccccc5)c5ccc2[nH]5)C=C4)C=C3)cc1
REMARK SMILES IDX 5 1 4 2 3 3 2 4 1 5 27 6 28 7 74 8 29 9 73 10 30 11 31 12
REMARK SMILES IDX 32 13 67 14 33 15 72 16 66 17 68 18 34 19 71 20 65 21 64 22
REMARK SMILES IDX 35 24 57 25 42 26 56 27 43 28 46 29 55 30 69 31 44 32 45 33
REMARK SMILES IDX 54 35 70 36 47 37 36 38 37 39 41 40 38 41 40 42 39 43 58 44
REMARK SMILES IDX 59 45 63 46 60 47 62 48 61 49 48 50 49 51 53 52 50 53 52 54
REMARK SMILES IDX 51 55 6 56 7 57 8 58 9 59 10 60 11 61 12 62 13 63 14 64
REMARK SMILES IDX 15 65 16 66 20 67 17 68 19 69 18 70 21 71 22 72 26 73 23 74
REMARK SMILES IDX 25 75 24 76
REMARK H PARENT 68 23 46 34
REMARK Flexibility Score: inf
ROOT
ATOM      1  C   UNL A   1      37.917  19.624  24.954  1.00  0.00     0.202 C 
ENDROOT
BRANCH   1   2
ATOM      2  C   UNL A   1      39.029  19.921  25.957  1.00  0.00     0.261 C 
BRANCH   2   3
ATOM      3  O   UNL A   1      40.165  19.093  25.672  1.00  0.00    -0.460 OA
BRANCH   3   4
ATOM      4  C   UNL A   1      41.462  19.403  25.921  1.00  0.00     0.338 C 
ATOM      5  O   UNL A   1      42.337  18.579  25.668  1.00  0.00    -0.246 OA
BRANCH   4   6
ATOM      6  C   UNL A   1      41.884  20.752  26.401  1.00  0.00     0.060 A 
ATOM      7  C   UNL A   1      42.136  21.843  25.570  1.00  0.00     0.016 A 
ATOM      8  C   UNL A   1      41.961  20.951  27.787  1.00  0.00     0.016 A 
ATOM      9  C   UNL A   1      42.485  23.076  26.064  1.00  0.00     0.010 A 
ATOM     10  C   UNL A   1      42.255  22.217  28.307  1.00  0.00     0.010 A 
ATOM     11  C   UNL A   1      42.502  23.281  27.434  1.00  0.00    -0.014 A 
BRANCH  11  12
ATOM     12  C   UNL A   1      42.857  24.636  27.860  1.00  0.00     0.031 A 
ATOM     13  C   UNL A   1      44.289  25.041  27.789  1.00  0.00     0.074 A 
ATOM     14  C   UNL A   1      41.863  25.518  28.082  1.00  0.00     0.049 A 
ATOM     15  N   UNL A   1      44.835  26.179  28.114  1.00  0.00    -0.248 NA
ATOM     16  C   UNL A   1      45.234  24.038  27.263  1.00  0.00     0.031 C 
ATOM     17  C   UNL A   1      40.426  25.219  27.981  1.00  0.00     0.029 A 
ATOM     18  N   UNL A   1      41.901  26.851  28.376  1.00  0.00    -0.354 N 
ATOM     19  C   UNL A   1      46.190  26.018  27.868  1.00  0.00     0.074 A 
ATOM     20  C   UNL A   1      46.388  24.677  27.369  1.00  0.00     0.031 C 
ATOM     21  C   UNL A   1      39.726  26.347  28.178  1.00  0.00     0.029 A 
ATOM     22  C   UNL A   1      40.656  27.416  28.511  1.00  0.00     0.049 A 
ATOM     23  H   UNL A   1      42.739  27.357  28.480  1.00  0.00     0.167 HD
ATOM     24  C   UNL A   1      47.173  26.924  28.060  1.00  0.00     0.031 A 
ATOM     25  C   UNL A   1      40.319  28.653  28.913  1.00  0.00     0.031 A 
ATOM     26  C   UNL A   1      46.926  28.243  28.569  1.00  0.00     0.049 A 
ATOM     27  C   UNL A   1      41.444  29.588  29.258  1.00  0.00     0.074 A 
ATOM     28  C   UNL A   1      47.833  29.230  28.899  1.00  0.00     0.029 A 
ATOM     29  N   UNL A   1      45.658  28.756  28.819  1.00  0.00    -0.354 N 
ATOM     30  N   UNL A   1      42.738  29.406  29.122  1.00  0.00    -0.248 NA
ATOM     31  C   UNL A   1      41.070  30.887  29.824  1.00  0.00     0.031 C 
ATOM     32  C   UNL A   1      47.116  30.320  29.401  1.00  0.00     0.029 A 
ATOM     33  C   UNL A   1      45.759  30.040  29.319  1.00  0.00     0.049 A 
ATOM     34  H   UNL A   1      44.814  28.275  28.663  1.00  0.00     0.167 HD
ATOM     35  C   UNL A   1      43.333  30.575  29.570  1.00  0.00     0.074 A 
ATOM     36  C   UNL A   1      42.253  31.469  29.946  1.00  0.00     0.031 C 
ATOM     37  C   UNL A   1      44.648  30.887  29.675  1.00  0.00     0.031 A 
BRANCH  24  38
ATOM     38  C   UNL A   1      48.580  26.467  27.810  1.00  0.00    -0.014 A 
ATOM     39  C   UNL A   1      49.188  26.600  26.551  1.00  0.00     0.009 A 
ATOM     40  C   UNL A   1      49.299  25.863  28.851  1.00  0.00     0.009 A 
ATOM     41  C   UNL A   1      50.476  26.108  26.334  1.00  0.00     0.001 A 
ATOM     42  C   UNL A   1      50.597  25.396  28.640  1.00  0.00     0.001 A 
ATOM     43  C   UNL A   1      51.182  25.511  27.380  1.00  0.00     0.000 A 
ENDBRANCH  24  38
BRANCH  25  44
ATOM     44  C   UNL A   1      38.894  29.036  29.117  1.00  0.00    -0.014 A 
ATOM     45  C   UNL A   1      38.147  29.631  28.089  1.00  0.00     0.009 A 
ATOM     46  C   UNL A   1      38.287  28.859  30.371  1.00  0.00     0.009 A 
ATOM     47  C   UNL A   1      36.845  30.080  28.327  1.00  0.00     0.001 A 
ATOM     48  C   UNL A   1      36.972  29.273  30.597  1.00  0.00     0.001 A 
ATOM     49  C   UNL A   1      36.258  29.900  29.579  1.00  0.00     0.000 A 
ENDBRANCH  25  44
BRANCH  37  50
ATOM     50  C   UNL A   1      44.968  32.265  30.175  1.00  0.00    -0.014 A 
ATOM     51  C   UNL A   1      45.174  32.515  31.541  1.00  0.00     0.009 A 
ATOM     52  C   UNL A   1      45.092  33.318  29.257  1.00  0.00     0.009 A 
ATOM     53  C   UNL A   1      45.455  33.808  31.981  1.00  0.00     0.001 A 
ATOM     54  C   UNL A   1      45.414  34.600  29.697  1.00  0.00     0.001 A 
ATOM     55  C   UNL A   1      45.581  34.847  31.058  1.00  0.00     0.000 A 
ENDBRANCH  37  50
ENDBRANCH  11  12
ENDBRANCH   4   6
ENDBRANCH   3   4
ENDBRANCH   2   3
ENDBRANCH   1   2
BRANCH   1  56
ATOM     56  O   UNL A   1      37.216  20.789  24.521  1.00  0.00    -0.374 OA
BRANCH  56  57
ATOM     57  C   UNL A   1      37.768  22.032  24.923  1.00  0.00     0.202 C 
BRANCH  57  58
ATOM     58  C   UNL A   1      36.644  23.027  25.215  1.00  0.00     0.261 C 
BRANCH  58  59
ATOM     59  O   UNL A   1      35.960  22.612  26.410  1.00  0.00    -0.463 OA
BRANCH  59  60
ATOM     60  C   UNL A   1      34.612  22.819  26.471  1.00  0.00     0.310 C 
ATOM     61  O   UNL A   1      34.045  23.854  26.790  1.00  0.00    -0.252 OA
BRANCH  60  62
ATOM     62  C   UNL A   1      33.920  21.591  26.014  1.00  0.00     0.115 C 
ATOM     63  C   UNL A   1      32.443  21.475  26.146  1.00  0.00     0.034 C 
ATOM     64  C   UNL A   1      33.082  21.356  24.739  1.00  0.00     0.034 C 
BRANCH  64  65
ATOM     65  C   UNL A   1      32.555  22.429  23.733  1.00  0.00    -0.037 A 
ATOM     66  C   UNL A   1      33.446  23.053  22.837  1.00  0.00     0.004 A 
ATOM     67  C   UNL A   1      31.283  23.036  23.842  1.00  0.00     0.004 A 
ATOM     68  C   UNL A   1      33.119  24.228  22.148  1.00  0.00     0.000 A 
ATOM     69  C   UNL A   1      30.950  24.219  23.166  1.00  0.00     0.000 A 
ATOM     70  C   UNL A   1      31.878  24.824  22.331  1.00  0.00     0.000 A 
ENDBRANCH  64  65
BRANCH  64  71
ATOM     71  C   UNL A   1      33.198  19.899  24.114  1.00  0.00    -0.037 A 
ATOM     72  C   UNL A   1      32.308  19.428  23.122  1.00  0.00     0.004 A 
ATOM     73  C   UNL A   1      34.180  18.970  24.519  1.00  0.00     0.004 A 
ATOM     74  C   UNL A   1      32.365  18.133  22.596  1.00  0.00     0.000 A 
ATOM     75  C   UNL A   1      34.245  17.669  24.001  1.00  0.00     0.000 A 
ATOM     76  C   UNL A   1      33.330  17.248  23.045  1.00  0.00     0.000 A 
ENDBRANCH  64  71
ENDBRANCH  60  62
ENDBRANCH  59  60
ENDBRANCH  58  59
ENDBRANCH  57  58
ENDBRANCH  56  57
ENDBRANCH   1  56
TORSDOF 16
ENDMDL
MODEL 3
REMARK VINA RESULT:     -10.2      1.279      6.161
REMARK SMILES O=C(OCCOCCOC(=O)[C@H]1CC1(c1ccccc1)c1ccccc1)c1ccc(-c2c3nc(c(-c4ccccc4)c4ccc([nH]4)c(-c4ccccc4)c4nc(c(-c5ccccc5)c5ccc2[nH]5)C=C4)C=C3)cc1
REMARK SMILES IDX 5 1 4 2 3 3 2 4 1 5 27 6 28 7 74 8 29 9 73 10 30 11 31 12
REMARK SMILES IDX 32 13 67 14 33 15 72 16 66 17 68 18 34 19 71 20 65 21 64 22
REMARK SMILES IDX 35 24 57 25 42 26 56 27 43 28 46 29 55 30 69 31 44 32 45 33
REMARK SMILES IDX 54 35 70 36 47 37 36 38 37 39 41 40 38 41 40 42 39 43 58 44
REMARK SMILES IDX 59 45 63 46 60 47 62 48 61 49 48 50 49 51 53 52 50 53 52 54
REMARK SMILES IDX 51 55 6 56 7 57 8 58 9 59 10 60 11 61 12 62 13 63 14 64
REMARK SMILES IDX 15 65 16 66 20 67 17 68 19 69 18 70 21 71 22 72 26 73 23 74
REMARK SMILES IDX 25 75 24 76
REMARK H PARENT 68 23 46 34
REMARK Flexibility Score: inf
ROOT
ATOM      1  C   UNL A   1      31.776  30.346  25.638  1.00  0.00     0.202 C 
ENDROOT
BRANCH   1   2
ATOM      2  C   UNL A   1      32.274  30.152  27.069  1.00  0.00     0.261 C 
BRANCH   2   3
ATOM      3  O   UNL A   1      33.702  30.023  27.066  1.00  0.00    -0.460 OA
BRANCH   3   4
ATOM      4  C   UNL A   1      34.565  30.672  27.886  1.00  0.00     0.338 C 
ATOM      5  O   UNL A   1      34.192  31.688  28.468  1.00  0.00    -0.246 OA
BRANCH   4   6
ATOM      6  C   UNL A   1      35.928  30.146  28.192  1.00  0.00     0.060 A 
ATOM      7  C   UNL A   1      37.017  30.221  27.323  1.00  0.00     0.016 A 
ATOM      8  C   UNL A   1      36.143  29.607  29.468  1.00  0.00     0.016 A 
ATOM      9  C   UNL A   1      38.262  29.756  27.666  1.00  0.00     0.010 A 
ATOM     10  C   UNL A   1      37.421  29.187  29.855  1.00  0.00     0.010 A 
ATOM     11  C   UNL A   1      38.481  29.279  28.948  1.00  0.00    -0.014 A 
BRANCH  11  12
ATOM     12  C   UNL A   1      39.849  28.835  29.226  1.00  0.00     0.031 A 
ATOM     13  C   UNL A   1      40.684  29.665  30.138  1.00  0.00     0.074 A 
ATOM     14  C   UNL A   1      40.212  27.599  28.832  1.00  0.00     0.049 A 
ATOM     15  N   UNL A   1      41.914  29.473  30.523  1.00  0.00    -0.248 NA
ATOM     16  C   UNL A   1      40.045  30.864  30.710  1.00  0.00     0.031 C 
ATOM     17  C   UNL A   1      39.358  26.659  28.090  1.00  0.00     0.029 A 
ATOM     18  N   UNL A   1      41.362  26.895  29.049  1.00  0.00    -0.354 N 
ATOM     19  C   UNL A   1      42.209  30.545  31.353  1.00  0.00     0.074 A 
ATOM     20  C   UNL A   1      41.036  31.385  31.416  1.00  0.00     0.031 C 
ATOM     21  C   UNL A   1      40.005  25.493  27.946  1.00  0.00     0.029 A 
ATOM     22  C   UNL A   1      41.345  25.637  28.495  1.00  0.00     0.049 A 
ATOM     23  H   UNL A   1      42.128  27.253  29.554  1.00  0.00     0.167 HD
ATOM     24  C   UNL A   1      43.374  30.794  31.989  1.00  0.00     0.031 A 
ATOM     25  C   UNL A   1      42.332  24.731  28.404  1.00  0.00     0.031 A 
ATOM     26  C   UNL A   1      44.517  29.932  31.885  1.00  0.00     0.049 A 
ATOM     27  C   UNL A   1      43.660  25.107  29.001  1.00  0.00     0.074 A 
ATOM     28  C   UNL A   1      45.786  30.107  32.400  1.00  0.00     0.029 A 
ATOM     29  N   UNL A   1      44.516  28.716  31.211  1.00  0.00    -0.354 N 
ATOM     30  N   UNL A   1      43.976  26.170  29.704  1.00  0.00    -0.248 NA
ATOM     31  C   UNL A   1      44.768  24.174  28.781  1.00  0.00     0.031 C 
ATOM     32  C   UNL A   1      46.567  29.023  31.990  1.00  0.00     0.029 A 
ATOM     33  C   UNL A   1      45.769  28.138  31.279  1.00  0.00     0.049 A 
ATOM     34  H   UNL A   1      43.737  28.325  30.754  1.00  0.00     0.167 HD
ATOM     35  C   UNL A   1      45.317  26.026  30.026  1.00  0.00     0.074 A 
ATOM     36  C   UNL A   1      45.739  24.754  29.469  1.00  0.00     0.031 C 
ATOM     37  C   UNL A   1      46.134  26.866  30.708  1.00  0.00     0.031 A 
BRANCH  24  38
ATOM     38  C   UNL A   1      43.472  32.081  32.752  1.00  0.00    -0.014 A 
ATOM     39  C   UNL A   1      43.156  32.158  34.118  1.00  0.00     0.009 A 
ATOM     40  C   UNL A   1      43.860  33.249  32.078  1.00  0.00     0.009 A 
ATOM     41  C   UNL A   1      43.197  33.385  34.784  1.00  0.00     0.001 A 
ATOM     42  C   UNL A   1      43.927  34.469  32.752  1.00  0.00     0.001 A 
ATOM     43  C   UNL A   1      43.587  34.538  34.102  1.00  0.00     0.000 A 
ENDBRANCH  24  38
BRANCH  25  44
ATOM     44  C   UNL A   1      42.148  23.462  27.646  1.00  0.00    -0.014 A 
ATOM     45  C   UNL A   1      41.650  22.308  28.269  1.00  0.00     0.009 A 
ATOM     46  C   UNL A   1      42.527  23.385  26.296  1.00  0.00     0.009 A 
ATOM     47  C   UNL A   1      41.581  21.099  27.572  1.00  0.00     0.001 A 
ATOM     48  C   UNL A   1      42.422  22.185  25.588  1.00  0.00     0.001 A 
ATOM     49  C   UNL A   1      41.965  21.038  26.233  1.00  0.00     0.000 A 
ENDBRANCH  25  44
BRANCH  37  50
ATOM     50  C   UNL A   1      47.544  26.399  30.916  1.00  0.00    -0.014 A 
ATOM     51  C   UNL A   1      48.538  26.628  29.953  1.00  0.00     0.009 A 
ATOM     52  C   UNL A   1      47.883  25.745  32.111  1.00  0.00     0.009 A 
ATOM     53  C   UNL A   1      49.838  26.170  30.165  1.00  0.00     0.001 A 
ATOM     54  C   UNL A   1      49.191  25.325  32.336  1.00  0.00     0.001 A 
ATOM     55  C   UNL A   1      50.164  25.526  31.359  1.00  0.00     0.000 A 
ENDBRANCH  37  50
ENDBRANCH  11  12
ENDBRANCH   4   6
ENDBRANCH   3   4
ENDBRANCH   2   3
ENDBRANCH   1   2
BRANCH   1  56
ATOM     56  O   UNL A   1      31.273  29.150  25.045  1.00  0.00    -0.374 OA
BRANCH  56  57
ATOM     57  C   UNL A   1      31.867  28.767  23.815  1.00  0.00     0.202 C 
BRANCH  57  58
ATOM     58  C   UNL A   1      33.115  27.925  24.083  1.00  0.00     0.261 C 
BRANCH  58  59
ATOM     59  O   UNL A   1      32.777  26.537  23.926  1.00  0.00    -0.463 OA
BRANCH  59  60
ATOM     60  C   UNL A   1      33.650  25.746  23.236  1.00  0.00     0.310 C 
ATOM     61  O   UNL A   1      33.776  25.682  22.022  1.00  0.00    -0.252 OA
BRANCH  60  62
ATOM     62  C   UNL A   1      34.495  25.011  24.206  1.00  0.00     0.115 C 
ATOM     63  C   UNL A   1      33.924  24.569  25.507  1.00  0.00     0.034 C 
ATOM     64  C   UNL A   1      34.511  23.505  24.545  1.00  0.00     0.034 C 
BRANCH  64  65
ATOM     65  C   UNL A   1      33.470  22.420  24.121  1.00  0.00    -0.037 A 
ATOM     66  C   UNL A   1      33.265  21.285  24.932  1.00  0.00     0.004 A 
ATOM     67  C   UNL A   1      32.908  22.347  22.827  1.00  0.00     0.004 A 
ATOM     68  C   UNL A   1      32.606  20.139  24.469  1.00  0.00     0.000 A 
ATOM     69  C   UNL A   1      32.257  21.200  22.349  1.00  0.00     0.000 A 
ATOM     70  C   UNL A   1      32.122  20.088  23.169  1.00  0.00     0.000 A 
ENDBRANCH  64  65
BRANCH  64  71
ATOM     71  C   UNL A   1      35.941  22.909  24.905  1.00  0.00    -0.037 A 
ATOM     72  C   UNL A   1      36.338  21.608  24.521  1.00  0.00     0.004 A 
ATOM     73  C   UNL A   1      36.901  23.627  25.649  1.00  0.00     0.004 A 
ATOM     74  C   UNL A   1      37.573  21.050  24.870  1.00  0.00     0.000 A 
ATOM     75  C   UNL A   1      38.141  23.078  26.008  1.00  0.00     0.000 A 
ATOM     76  C   UNL A   1      38.472  21.784  25.625  1.00  0.00     0.000 A 
ENDBRANCH  64  71
ENDBRANCH  60  62
ENDBRANCH  59  60
ENDBRANCH  58  59
ENDBRANCH  57  58
ENDBRANCH  56  57
ENDBRANCH   1  56
TORSDOF 16
ENDMDL
