MODEL 1
REMARK VINA RESULT:     -11.2      0.000      0.000
REMARK SMILES Cc1ccc(/C=C(\NC(=O)c2cccc(C)c2)C(=O)OCCOCCOC(=O)c2ccc(-c3c4nc(c(-c5ccccc5)c5ccc([nH]5)c(-c5ccccc5)c5nc(c(-c6ccccc6)c6ccc3[nH]6)C=C5)C=C4)cc2)cc1
REMARK SMILES IDX 23 1 22 2 21 3 20 4 18 5 19 6 7 7 6 8 5 9 1 10 2 11 3 12
REMARK SMILES IDX 78 13 4 14 77 15 8 16 9 17 10 19 11 20 12 21 17 22 13 23
REMARK SMILES IDX 15 24 14 25 16 26 24 27 25 28 26 29 27 30 28 31 29 32 30 33
REMARK SMILES IDX 76 34 31 35 75 36 32 37 33 38 34 39 69 40 35 41 74 42 68 43
REMARK SMILES IDX 70 44 36 45 73 46 67 47 66 48 37 50 59 51 44 52 58 53 45 54
REMARK SMILES IDX 48 55 57 56 71 57 46 58 47 59 56 61 72 62 49 63 38 64 39 65
REMARK SMILES IDX 43 66 40 67 42 68 41 69 60 70 61 71 65 72 62 73 64 74 63 75
REMARK SMILES IDX 50 76 51 77 55 78 52 79 54 80 53 81
REMARK H PARENT 8 18 70 49 48 60
REMARK Flexibility Score: inf
ROOT
ATOM      1  O   UNL A   1      33.980  32.503  27.882  1.00  0.00    -0.374 OA
ENDROOT
BRANCH   1   2
ATOM      2  C   UNL A   1      34.561  31.251  27.575  1.00  0.00     0.202 C 
BRANCH   2   3
ATOM      3  C   UNL A   1      33.404  30.373  27.471  1.00  0.00     0.261 C 
BRANCH   3   4
ATOM      4  O   UNL A   1      33.308  29.983  26.126  1.00  0.00    -0.459 OA
BRANCH   4   5
ATOM      5  C   UNL A   1      32.023  30.138  25.729  1.00  0.00     0.354 C 
ATOM      6  O   UNL A   1      31.288  31.096  25.882  1.00  0.00    -0.244 OA
BRANCH   5   7
ATOM      7  C   UNL A   1      31.946  29.132  24.666  1.00  0.00     0.128 C 
ATOM      8  C   UNL A   1      33.130  28.492  24.739  1.00  0.00     0.042 C 
BRANCH   8   9
ATOM      9  C   UNL A   1      33.678  27.169  24.468  1.00  0.00    -0.023 A 
ATOM     10  C   UNL A   1      35.071  23.139  23.966  1.00  0.00     0.044 C 
ATOM     11  C   UNL A   1      34.530  24.516  24.179  1.00  0.00    -0.051 A 
ATOM     12  C   UNL A   1      34.059  25.249  23.081  1.00  0.00     0.004 A 
ATOM     13  C   UNL A   1      34.523  25.094  25.445  1.00  0.00     0.004 A 
ATOM     14  C   UNL A   1      33.631  26.567  23.224  1.00  0.00     0.008 A 
ATOM     15  C   UNL A   1      34.101  26.411  25.586  1.00  0.00     0.008 A 
ENDBRANCH   8   9
BRANCH   7  16
ATOM     16  N   UNL A   1      30.702  28.845  24.109  1.00  0.00    -0.316 N 
ATOM     17  C   UNL A   1      30.020  27.666  23.664  1.00  0.00     0.255 C 
ATOM     18  H   UNL A   1      30.155  29.655  23.992  1.00  0.00     0.170 HD
ATOM     19  O   UNL A   1      29.237  27.931  22.733  1.00  0.00    -0.269 OA
BRANCH  17  20
ATOM     20  C   UNL A   1      29.981  26.111  24.109  1.00  0.00     0.040 A 
ATOM     21  C   UNL A   1      30.197  25.936  25.834  1.00  0.00     0.014 A 
ATOM     22  C   UNL A   1      30.402  24.613  23.241  1.00  0.00     0.017 A 
ATOM     23  C   UNL A   1      31.068  24.290  26.609  1.00  0.00     0.001 A 
ATOM     24  C   UNL A   1      31.252  23.143  23.858  1.00  0.00    -0.050 A 
ATOM     25  C   UNL A   1      31.592  22.969  25.542  1.00  0.00     0.003 A 
ATOM     26  C   UNL A   1      31.735  22.096  22.890  1.00  0.00     0.044 C 
ENDBRANCH  17  20
ENDBRANCH   7  16
ENDBRANCH   5   7
ENDBRANCH   4   5
ENDBRANCH   3   4
ENDBRANCH   2   3
ENDBRANCH   1   2
BRANCH   1  27
ATOM     27  C   UNL A   1      34.800  33.372  28.619  1.00  0.00     0.202 C 
BRANCH  27  28
ATOM     28  C   UNL A   1      33.855  34.172  29.508  1.00  0.00     0.261 C 
BRANCH  28  29
ATOM     29  O   UNL A   1      34.536  34.452  30.784  1.00  0.00    -0.460 OA
BRANCH  29  30
ATOM     30  C   UNL A   1      34.850  33.399  31.620  1.00  0.00     0.338 C 
ATOM     31  O   UNL A   1      34.014  32.657  32.120  1.00  0.00    -0.246 OA
BRANCH  30  32
ATOM     32  C   UNL A   1      36.309  33.462  32.098  1.00  0.00     0.060 A 
ATOM     33  C   UNL A   1      37.274  34.250  31.455  1.00  0.00     0.016 A 
ATOM     34  C   UNL A   1      36.789  32.400  32.853  1.00  0.00     0.016 A 
ATOM     35  C   UNL A   1      38.638  33.817  31.414  1.00  0.00     0.010 A 
ATOM     36  C   UNL A   1      38.071  31.872  32.590  1.00  0.00     0.010 A 
ATOM     37  C   UNL A   1      39.035  32.511  31.802  1.00  0.00    -0.014 A 
BRANCH  37  38
ATOM     38  C   UNL A   1      40.494  31.849  31.709  1.00  0.00     0.031 A 
ATOM     39  C   UNL A   1      40.290  30.586  30.945  1.00  0.00     0.074 A 
ATOM     40  C   UNL A   1      41.768  32.107  32.295  1.00  0.00     0.049 A 
ATOM     41  N   UNL A   1      40.665  29.405  31.316  1.00  0.00    -0.248 NA
ATOM     42  C   UNL A   1      39.352  30.523  29.790  1.00  0.00     0.031 C 
ATOM     43  C   UNL A   1      43.079  31.434  32.229  1.00  0.00     0.029 A 
ATOM     44  N   UNL A   1      42.176  33.009  33.349  1.00  0.00    -0.354 N 
ATOM     45  C   UNL A   1      40.473  28.658  30.172  1.00  0.00     0.074 A 
ATOM     46  C   UNL A   1      39.323  29.218  29.548  1.00  0.00     0.031 C 
ATOM     47  C   UNL A   1      43.764  31.596  33.408  1.00  0.00     0.029 A 
ATOM     48  C   UNL A   1      42.886  32.297  34.371  1.00  0.00     0.049 A 
ATOM     49  H   UNL A   1      41.993  33.976  33.363  1.00  0.00     0.167 HD
ATOM     50  C   UNL A   1      41.573  28.110  29.584  1.00  0.00     0.031 A 
ATOM     51  C   UNL A   1      42.501  31.970  35.705  1.00  0.00     0.031 A 
ATOM     52  C   UNL A   1      42.692  28.073  30.529  1.00  0.00     0.049 A 
ATOM     53  C   UNL A   1      42.882  30.454  35.840  1.00  0.00     0.074 A 
ATOM     54  C   UNL A   1      43.927  28.691  30.568  1.00  0.00     0.029 A 
ATOM     55  N   UNL A   1      42.462  27.595  31.816  1.00  0.00    -0.354 N 
ATOM     56  N   UNL A   1      43.001  29.700  34.771  1.00  0.00    -0.248 NA
ATOM     57  C   UNL A   1      43.116  29.656  37.042  1.00  0.00     0.031 C 
ATOM     58  C   UNL A   1      44.422  28.602  31.909  1.00  0.00     0.029 A 
ATOM     59  C   UNL A   1      43.477  27.950  32.683  1.00  0.00     0.049 A 
ATOM     60  H   UNL A   1      41.672  27.067  32.075  1.00  0.00     0.167 HD
ATOM     61  C   UNL A   1      43.305  28.410  35.066  1.00  0.00     0.074 A 
ATOM     62  C   UNL A   1      43.375  28.431  36.521  1.00  0.00     0.031 C 
ATOM     63  C   UNL A   1      43.417  27.471  34.072  1.00  0.00     0.031 A 
BRANCH  50  64
ATOM     64  C   UNL A   1      41.716  27.955  28.072  1.00  0.00    -0.014 A 
ATOM     65  C   UNL A   1      42.124  29.068  27.324  1.00  0.00     0.009 A 
ATOM     66  C   UNL A   1      41.401  26.805  27.309  1.00  0.00     0.009 A 
ATOM     67  C   UNL A   1      42.216  29.037  25.924  1.00  0.00     0.001 A 
ATOM     68  C   UNL A   1      41.504  26.758  25.911  1.00  0.00     0.001 A 
ATOM     69  C   UNL A   1      41.915  27.880  25.217  1.00  0.00     0.000 A 
ENDBRANCH  50  64
BRANCH  51  70
ATOM     70  C   UNL A   1      41.172  32.693  36.717  1.00  0.00    -0.014 A 
ATOM     71  C   UNL A   1      39.564  32.742  35.849  1.00  0.00     0.009 A 
ATOM     72  C   UNL A   1      41.053  33.159  38.697  1.00  0.00     0.009 A 
ATOM     73  C   UNL A   1      38.086  33.171  36.800  1.00  0.00     0.001 A 
ATOM     74  C   UNL A   1      39.534  33.556  39.506  1.00  0.00     0.001 A 
ATOM     75  C   UNL A   1      38.097  33.549  38.553  1.00  0.00     0.000 A 
ENDBRANCH  51  70
BRANCH  63  76
ATOM     76  C   UNL A   1      43.485  25.968  34.239  1.00  0.00    -0.014 A 
ATOM     77  C   UNL A   1      42.608  25.214  35.016  1.00  0.00     0.009 A 
ATOM     78  C   UNL A   1      44.431  25.235  33.470  1.00  0.00     0.009 A 
ATOM     79  C   UNL A   1      42.721  23.817  35.083  1.00  0.00     0.001 A 
ATOM     80  C   UNL A   1      44.502  23.845  33.478  1.00  0.00     0.001 A 
ATOM     81  C   UNL A   1      43.662  23.135  34.314  1.00  0.00     0.000 A 
ENDBRANCH  63  76
ENDBRANCH  37  38
ENDBRANCH  30  32
ENDBRANCH  29  30
ENDBRANCH  28  29
ENDBRANCH  27  28
ENDBRANCH   1  27
TORSDOF 17
ENDMDL
MODEL 2
REMARK VINA RESULT:     -11.1      2.151      3.794
REMARK SMILES Cc1ccc(/C=C(\NC(=O)c2cccc(C)c2)C(=O)OCCOCCOC(=O)c2ccc(-c3c4nc(c(-c5ccccc5)c5ccc([nH]5)c(-c5ccccc5)c5nc(c(-c6ccccc6)c6ccc3[nH]6)C=C5)C=C4)cc2)cc1
REMARK SMILES IDX 23 1 22 2 21 3 20 4 18 5 19 6 7 7 6 8 5 9 1 10 2 11 3 12
REMARK SMILES IDX 78 13 4 14 77 15 8 16 9 17 10 19 11 20 12 21 17 22 13 23
REMARK SMILES IDX 15 24 14 25 16 26 24 27 25 28 26 29 27 30 28 31 29 32 30 33
REMARK SMILES IDX 76 34 31 35 75 36 32 37 33 38 34 39 69 40 35 41 74 42 68 43
REMARK SMILES IDX 70 44 36 45 73 46 67 47 66 48 37 50 59 51 44 52 58 53 45 54
REMARK SMILES IDX 48 55 57 56 71 57 46 58 47 59 56 61 72 62 49 63 38 64 39 65
REMARK SMILES IDX 43 66 40 67 42 68 41 69 60 70 61 71 65 72 62 73 64 74 63 75
REMARK SMILES IDX 50 76 51 77 55 78 52 79 54 80 53 81
REMARK H PARENT 8 18 70 49 48 60
REMARK Flexibility Score: inf
ROOT
ATOM      1  O   UNL A   1      32.331  29.792  25.363  1.00  0.00    -0.374 OA
ENDROOT
BRANCH   1   2
ATOM      2  C   UNL A   1      31.013  29.829  24.854  1.00  0.00     0.202 C 
BRANCH   2   3
ATOM      3  C   UNL A   1      31.155  29.222  23.538  1.00  0.00     0.261 C 
BRANCH   3   4
ATOM      4  O   UNL A   1      31.128  27.832  23.725  1.00  0.00    -0.459 OA
BRANCH   4   5
ATOM      5  C   UNL A   1      32.251  27.307  23.181  1.00  0.00     0.354 C 
ATOM      6  O   UNL A   1      33.147  27.876  22.584  1.00  0.00    -0.244 OA
BRANCH   5   7
ATOM      7  C   UNL A   1      32.352  26.051  23.928  1.00  0.00     0.128 C 
ATOM      8  C   UNL A   1      33.429  25.441  23.392  1.00  0.00     0.042 C 
BRANCH   8   9
ATOM      9  C   UNL A   1      34.475  24.512  23.798  1.00  0.00    -0.023 A 
ATOM     10  C   UNL A   1      37.393  21.771  25.350  1.00  0.00     0.044 C 
ATOM     11  C   UNL A   1      36.334  22.708  24.865  1.00  0.00    -0.051 A 
ATOM     12  C   UNL A   1      35.676  22.439  23.658  1.00  0.00     0.004 A 
ATOM     13  C   UNL A   1      36.020  23.862  25.577  1.00  0.00     0.004 A 
ATOM     14  C   UNL A   1      34.748  23.334  23.127  1.00  0.00     0.008 A 
ATOM     15  C   UNL A   1      35.098  24.757  25.045  1.00  0.00     0.008 A 
ENDBRANCH   8   9
BRANCH   7  16
ATOM     16  N   UNL A   1      31.633  25.921  25.114  1.00  0.00    -0.316 N 
ATOM     17  C   UNL A   1      31.051  24.839  25.851  1.00  0.00     0.255 C 
ATOM     18  H   UNL A   1      31.489  26.789  25.555  1.00  0.00     0.170 HD
ATOM     19  O   UNL A   1      30.044  25.220  26.478  1.00  0.00    -0.269 OA
BRANCH  17  20
ATOM     20  C   UNL A   1      31.410  23.282  26.107  1.00  0.00     0.040 A 
ATOM     21  C   UNL A   1      32.579  23.102  27.394  1.00  0.00     0.014 A 
ATOM     22  C   UNL A   1      31.400  21.865  25.029  1.00  0.00     0.017 A 
ATOM     23  C   UNL A   1      33.880  21.561  27.406  1.00  0.00     0.001 A 
ATOM     24  C   UNL A   1      32.579  20.498  24.937  1.00  0.00    -0.050 A 
ATOM     25  C   UNL A   1      33.825  20.335  26.121  1.00  0.00     0.003 A 
ATOM     26  C   UNL A   1      32.522  19.537  23.779  1.00  0.00     0.044 C 
ENDBRANCH  17  20
ENDBRANCH   7  16
ENDBRANCH   5   7
ENDBRANCH   4   5
ENDBRANCH   3   4
ENDBRANCH   2   3
ENDBRANCH   1   2
BRANCH   1  27
ATOM     27  C   UNL A   1      32.432  29.909  26.759  1.00  0.00     0.202 C 
BRANCH  27  28
ATOM     28  C   UNL A   1      33.911  29.729  27.080  1.00  0.00     0.261 C 
BRANCH  28  29
ATOM     29  O   UNL A   1      34.288  30.704  28.117  1.00  0.00    -0.460 OA
BRANCH  29  30
ATOM     30  C   UNL A   1      35.584  31.176  28.151  1.00  0.00     0.338 C 
ATOM     31  O   UNL A   1      35.895  32.328  27.875  1.00  0.00    -0.246 OA
BRANCH  30  32
ATOM     32  C   UNL A   1      36.607  30.035  28.258  1.00  0.00     0.060 A 
ATOM     33  C   UNL A   1      36.900  29.404  29.476  1.00  0.00     0.016 A 
ATOM     34  C   UNL A   1      37.579  29.942  27.270  1.00  0.00     0.016 A 
ATOM     35  C   UNL A   1      38.219  28.908  29.723  1.00  0.00     0.010 A 
ATOM     36  C   UNL A   1      38.918  29.677  27.624  1.00  0.00     0.010 A 
ATOM     37  C   UNL A   1      39.321  29.218  28.884  1.00  0.00    -0.014 A 
BRANCH  37  38
ATOM     38  C   UNL A   1      40.866  28.832  29.089  1.00  0.00     0.031 A 
ATOM     39  C   UNL A   1      40.934  27.373  28.793  1.00  0.00     0.074 A 
ATOM     40  C   UNL A   1      42.019  29.490  29.607  1.00  0.00     0.049 A 
ATOM     41  N   UNL A   1      41.443  26.467  29.563  1.00  0.00    -0.248 NA
ATOM     42  C   UNL A   1      40.139  26.768  27.690  1.00  0.00     0.031 C 
ATOM     43  C   UNL A   1      43.416  29.077  29.834  1.00  0.00     0.029 A 
ATOM     44  N   UNL A   1      42.176  30.746  30.306  1.00  0.00    -0.354 N 
ATOM     45  C   UNL A   1      41.485  25.363  28.735  1.00  0.00     0.074 A 
ATOM     46  C   UNL A   1      40.333  25.472  27.907  1.00  0.00     0.031 C 
ATOM     47  C   UNL A   1      43.945  29.736  30.915  1.00  0.00     0.029 A 
ATOM     48  C   UNL A   1      42.877  30.548  31.541  1.00  0.00     0.049 A 
ATOM     49  H   UNL A   1      41.847  31.615  29.980  1.00  0.00     0.167 HD
ATOM     50  C   UNL A   1      42.709  24.855  28.420  1.00  0.00     0.031 A 
ATOM     51  C   UNL A   1      42.412  30.616  32.888  1.00  0.00     0.031 A 
ATOM     52  C   UNL A   1      43.719  25.331  29.370  1.00  0.00     0.049 A 
ATOM     53  C   UNL A   1      43.003  29.322  33.550  1.00  0.00     0.074 A 
ATOM     54  C   UNL A   1      44.836  26.136  29.251  1.00  0.00     0.029 A 
ATOM     55  N   UNL A   1      43.434  25.270  30.731  1.00  0.00    -0.354 N 
ATOM     56  N   UNL A   1      43.343  28.291  32.809  1.00  0.00    -0.248 NA
ATOM     57  C   UNL A   1      43.231  29.019  34.961  1.00  0.00     0.031 C 
ATOM     58  C   UNL A   1      45.198  26.582  30.561  1.00  0.00     0.029 A 
ATOM     59  C   UNL A   1      44.289  26.065  31.469  1.00  0.00     0.049 A 
ATOM     60  H   UNL A   1      42.711  24.726  31.120  1.00  0.00     0.167 HD
ATOM     61  C   UNL A   1      43.807  27.246  33.541  1.00  0.00     0.074 A 
ATOM     62  C   UNL A   1      43.724  27.757  34.902  1.00  0.00     0.031 C 
ATOM     63  C   UNL A   1      44.161  26.067  32.934  1.00  0.00     0.031 A 
BRANCH  50  64
ATOM     64  C   UNL A   1      43.028  24.239  27.060  1.00  0.00    -0.014 A 
ATOM     65  C   UNL A   1      43.304  22.867  27.000  1.00  0.00     0.009 A 
ATOM     66  C   UNL A   1      43.153  24.929  25.831  1.00  0.00     0.009 A 
ATOM     67  C   UNL A   1      43.675  22.229  25.806  1.00  0.00     0.001 A 
ATOM     68  C   UNL A   1      43.507  24.300  24.628  1.00  0.00     0.001 A 
ATOM     69  C   UNL A   1      43.768  22.943  24.617  1.00  0.00     0.000 A 
ENDBRANCH  50  64
BRANCH  51  70
ATOM     70  C   UNL A   1      40.893  31.384  33.531  1.00  0.00    -0.014 A 
ATOM     71  C   UNL A   1      39.422  31.014  32.511  1.00  0.00     0.009 A 
ATOM     72  C   UNL A   1      40.459  32.296  35.300  1.00  0.00     0.009 A 
ATOM     73  C   UNL A   1      37.793  31.466  33.155  1.00  0.00     0.001 A 
ATOM     74  C   UNL A   1      38.811  32.678  35.811  1.00  0.00     0.001 A 
ATOM     75  C   UNL A   1      37.527  32.254  34.743  1.00  0.00     0.000 A 
ENDBRANCH  51  70
BRANCH  63  76
ATOM     76  C   UNL A   1      44.439  24.741  33.608  1.00  0.00    -0.014 A 
ATOM     77  C   UNL A   1      45.682  24.113  33.647  1.00  0.00     0.009 A 
ATOM     78  C   UNL A   1      43.401  24.124  34.359  1.00  0.00     0.009 A 
ATOM     79  C   UNL A   1      45.858  22.900  34.330  1.00  0.00     0.001 A 
ATOM     80  C   UNL A   1      43.587  22.958  35.096  1.00  0.00     0.001 A 
ATOM     81  C   UNL A   1      44.815  22.327  35.055  1.00  0.00     0.000 A 
ENDBRANCH  63  76
ENDBRANCH  37  38
ENDBRANCH  30  32
ENDBRANCH  29  30
ENDBRANCH  28  29
ENDBRANCH  27  28
ENDBRANCH   1  27
TORSDOF 17
ENDMDL
MODEL 3
REMARK VINA RESULT:     -11.1      1.428      2.128
REMARK SMILES Cc1ccc(/C=C(\NC(=O)c2cccc(C)c2)C(=O)OCCOCCOC(=O)c2ccc(-c3c4nc(c(-c5ccccc5)c5ccc([nH]5)c(-c5ccccc5)c5nc(c(-c6ccccc6)c6ccc3[nH]6)C=C5)C=C4)cc2)cc1
REMARK SMILES IDX 23 1 22 2 21 3 20 4 18 5 19 6 7 7 6 8 5 9 1 10 2 11 3 12
REMARK SMILES IDX 78 13 4 14 77 15 8 16 9 17 10 19 11 20 12 21 17 22 13 23
REMARK SMILES IDX 15 24 14 25 16 26 24 27 25 28 26 29 27 30 28 31 29 32 30 33
REMARK SMILES IDX 76 34 31 35 75 36 32 37 33 38 34 39 69 40 35 41 74 42 68 43
REMARK SMILES IDX 70 44 36 45 73 46 67 47 66 48 37 50 59 51 44 52 58 53 45 54
REMARK SMILES IDX 48 55 57 56 71 57 46 58 47 59 56 61 72 62 49 63 38 64 39 65
REMARK SMILES IDX 43 66 40 67 42 68 41 69 60 70 61 71 65 72 62 73 64 74 63 75
REMARK SMILES IDX 50 76 51 77 55 78 52 79 54 80 53 81
REMARK H PARENT 8 18 70 49 48 60
REMARK Flexibility Score: inf
ROOT
ATOM      1  O   UNL A   1      33.945  29.542  26.884  1.00  0.00    -0.374 OA
ENDROOT
BRANCH   1   2
ATOM      2  C   UNL A   1      32.874  30.417  26.590  1.00  0.00     0.202 C 
BRANCH   2   3
ATOM      3  C   UNL A   1      31.857  29.520  26.059  1.00  0.00     0.261 C 
BRANCH   3   4
ATOM      4  O   UNL A   1      32.531  28.420  25.508  1.00  0.00    -0.459 OA
BRANCH   4   5
ATOM      5  C   UNL A   1      31.779  27.923  24.498  1.00  0.00     0.354 C 
ATOM      6  O   UNL A   1      31.520  28.426  23.420  1.00  0.00    -0.244 OA
BRANCH   5   7
ATOM      7  C   UNL A   1      31.816  26.492  24.813  1.00  0.00     0.128 C 
ATOM      8  C   UNL A   1      32.908  26.045  24.161  1.00  0.00     0.042 C 
BRANCH   8   9
ATOM      9  C   UNL A   1      33.913  24.999  24.299  1.00  0.00    -0.023 A 
ATOM     10  C   UNL A   1      36.995  22.010  24.341  1.00  0.00     0.044 C 
ATOM     11  C   UNL A   1      35.956  23.083  24.271  1.00  0.00    -0.051 A 
ATOM     12  C   UNL A   1      35.822  23.982  25.338  1.00  0.00     0.004 A 
ATOM     13  C   UNL A   1      35.098  23.177  23.180  1.00  0.00     0.004 A 
ATOM     14  C   UNL A   1      34.809  24.938  25.351  1.00  0.00     0.008 A 
ATOM     15  C   UNL A   1      34.084  24.128  23.196  1.00  0.00     0.008 A 
ENDBRANCH   8   9
BRANCH   7  16
ATOM     16  N   UNL A   1      31.031  26.020  25.862  1.00  0.00    -0.316 N 
ATOM     17  C   UNL A   1      30.547  24.741  26.291  1.00  0.00     0.255 C 
ATOM     18  H   UNL A   1      30.734  26.746  26.457  1.00  0.00     0.170 HD
ATOM     19  O   UNL A   1      29.451  24.854  26.873  1.00  0.00    -0.269 OA
BRANCH  17  20
ATOM     20  C   UNL A   1      31.096  23.220  26.253  1.00  0.00     0.040 A 
ATOM     21  C   UNL A   1      32.343  22.963  27.451  1.00  0.00     0.014 A 
ATOM     22  C   UNL A   1      31.193  22.021  24.940  1.00  0.00     0.017 A 
ATOM     23  C   UNL A   1      33.812  21.614  27.147  1.00  0.00     0.001 A 
ATOM     24  C   UNL A   1      32.516  20.846  24.569  1.00  0.00    -0.050 A 
ATOM     25  C   UNL A   1      33.832  20.633  25.666  1.00  0.00     0.003 A 
ATOM     26  C   UNL A   1      32.510  20.102  23.260  1.00  0.00     0.044 C 
ENDBRANCH  17  20
ENDBRANCH   7  16
ENDBRANCH   5   7
ENDBRANCH   4   5
ENDBRANCH   3   4
ENDBRANCH   2   3
ENDBRANCH   1   2
BRANCH   1  27
ATOM     27  C   UNL A   1      35.020  30.130  27.570  1.00  0.00     0.202 C 
BRANCH  27  28
ATOM     28  C   UNL A   1      34.537  31.516  27.978  1.00  0.00     0.261 C 
BRANCH  28  29
ATOM     29  O   UNL A   1      34.541  31.600  29.449  1.00  0.00    -0.460 OA
BRANCH  29  30
ATOM     30  C   UNL A   1      34.702  32.833  30.048  1.00  0.00     0.338 C 
ATOM     31  O   UNL A   1      33.888  33.744  29.957  1.00  0.00    -0.246 OA
BRANCH  30  32
ATOM     32  C   UNL A   1      36.136  33.038  30.560  1.00  0.00     0.060 A 
ATOM     33  C   UNL A   1      37.115  33.693  29.800  1.00  0.00     0.016 A 
ATOM     34  C   UNL A   1      36.599  32.179  31.548  1.00  0.00     0.016 A 
ATOM     35  C   UNL A   1      38.487  33.299  29.911  1.00  0.00     0.010 A 
ATOM     36  C   UNL A   1      37.901  31.642  31.459  1.00  0.00     0.010 A 
ATOM     37  C   UNL A   1      38.889  32.120  30.591  1.00  0.00    -0.014 A 
BRANCH  37  38
ATOM     38  C   UNL A   1      40.362  31.493  30.705  1.00  0.00     0.031 A 
ATOM     39  C   UNL A   1      40.252  30.146  30.077  1.00  0.00     0.074 A 
ATOM     40  C   UNL A   1      41.572  31.852  31.367  1.00  0.00     0.049 A 
ATOM     41  N   UNL A   1      40.612  29.027  30.614  1.00  0.00    -0.248 NA
ATOM     42  C   UNL A   1      39.424  29.925  28.859  1.00  0.00     0.031 C 
ATOM     43  C   UNL A   1      42.896  31.214  31.496  1.00  0.00     0.029 A 
ATOM     44  N   UNL A   1      41.867  32.880  32.341  1.00  0.00    -0.354 N 
ATOM     45  C   UNL A   1      40.538  28.149  29.552  1.00  0.00     0.074 A 
ATOM     46  C   UNL A   1      39.440  28.601  28.768  1.00  0.00     0.031 C 
ATOM     47  C   UNL A   1      43.467  31.528  32.703  1.00  0.00     0.029 A 
ATOM     48  C   UNL A   1      42.493  32.308  33.498  1.00  0.00     0.049 A 
ATOM     49  H   UNL A   1      41.665  33.836  32.227  1.00  0.00     0.167 HD
ATOM     50  C   UNL A   1      41.697  27.569  29.131  1.00  0.00     0.031 A 
ATOM     51  C   UNL A   1      41.995  32.125  34.822  1.00  0.00     0.031 A 
ATOM     52  C   UNL A   1      42.726  27.671  30.169  1.00  0.00     0.049 A 
ATOM     53  C   UNL A   1      42.389  30.645  35.164  1.00  0.00     0.074 A 
ATOM     54  C   UNL A   1      43.941  28.325  30.245  1.00  0.00     0.029 A 
ATOM     55  N   UNL A   1      42.388  27.336  31.477  1.00  0.00    -0.354 N 
ATOM     56  N   UNL A   1      42.618  29.778  34.204  1.00  0.00    -0.248 NA
ATOM     57  C   UNL A   1      42.527  29.996  36.466  1.00  0.00     0.031 C 
ATOM     58  C   UNL A   1      44.313  28.402  31.625  1.00  0.00     0.029 A 
ATOM     59  C   UNL A   1      43.313  27.816  32.384  1.00  0.00     0.049 A 
ATOM     60  H   UNL A   1      41.588  26.819  31.725  1.00  0.00     0.167 HD
ATOM     61  C   UNL A   1      42.917  28.539  34.673  1.00  0.00     0.074 A 
ATOM     62  C   UNL A   1      42.854  28.728  36.116  1.00  0.00     0.031 C 
ATOM     63  C   UNL A   1      43.136  27.497  33.808  1.00  0.00     0.031 A 
BRANCH  50  64
ATOM     64  C   UNL A   1      41.980  27.247  27.666  1.00  0.00    -0.014 A 
ATOM     65  C   UNL A   1      42.180  28.311  26.777  1.00  0.00     0.009 A 
ATOM     66  C   UNL A   1      41.988  25.962  27.071  1.00  0.00     0.009 A 
ATOM     67  C   UNL A   1      42.377  28.112  25.401  1.00  0.00     0.001 A 
ATOM     68  C   UNL A   1      42.200  25.750  25.701  1.00  0.00     0.001 A 
ATOM     69  C   UNL A   1      42.396  26.831  24.864  1.00  0.00     0.000 A 
ENDBRANCH  50  64
BRANCH  51  70
ATOM     70  C   UNL A   1      40.566  32.920  35.621  1.00  0.00    -0.014 A 
ATOM     71  C   UNL A   1      38.994  32.608  34.742  1.00  0.00     0.009 A 
ATOM     72  C   UNL A   1      40.330  33.809  37.439  1.00  0.00     0.009 A 
ATOM     73  C   UNL A   1      37.448  33.090  35.548  1.00  0.00     0.001 A 
ATOM     74  C   UNL A   1      38.751  34.224  38.113  1.00  0.00     0.001 A 
ATOM     75  C   UNL A   1      37.358  33.855  37.167  1.00  0.00     0.000 A 
ENDBRANCH  51  70
BRANCH  63  76
ATOM     76  C   UNL A   1      43.215  26.025  34.153  1.00  0.00    -0.014 A 
ATOM     77  C   UNL A   1      44.215  25.159  33.718  1.00  0.00     0.009 A 
ATOM     78  C   UNL A   1      42.279  25.488  35.079  1.00  0.00     0.009 A 
ATOM     79  C   UNL A   1      44.232  23.815  34.120  1.00  0.00     0.001 A 
ATOM     80  C   UNL A   1      42.332  24.174  35.536  1.00  0.00     0.001 A 
ATOM     81  C   UNL A   1      43.297  23.326  35.029  1.00  0.00     0.000 A 
ENDBRANCH  63  76
ENDBRANCH  37  38
ENDBRANCH  30  32
ENDBRANCH  29  30
ENDBRANCH  28  29
ENDBRANCH  27  28
ENDBRANCH   1  27
TORSDOF 17
ENDMDL
