MODEL 1
REMARK VINA RESULT:     -11.2      0.000      0.000
REMARK SMILES O=C(OCCOCCOC(=O)[C@@H](Cc1c[nH]c2ccccc12)Nc1ncnc2ccccc12)c1ccc(-c2c3nc(c(-c4ccccc4)c4ccc([nH]4)c(-c4ccccc4)c4nc(c(-c5ccccc5)c5ccc2[nH]5)C=C4)C=C3)cc1
REMARK SMILES IDX 6 1 5 2 4 3 3 4 2 5 1 6 34 7 35 8 81 9 36 10 80 11 37 12
REMARK SMILES IDX 38 13 39 14 74 15 40 16 79 17 73 18 75 19 41 20 78 21 72 22
REMARK SMILES IDX 71 23 42 25 64 26 49 27 63 28 50 29 53 30 62 31 76 32 51 33
REMARK SMILES IDX 52 34 61 36 77 37 54 38 43 39 44 40 48 41 45 42 47 43 46 44
REMARK SMILES IDX 65 45 66 46 70 47 67 48 69 49 68 50 55 51 56 52 60 53 57 54
REMARK SMILES IDX 59 55 58 56 7 57 8 58 9 59 10 60 11 61 12 62 13 63 14 64
REMARK SMILES IDX 15 65 22 66 16 67 17 68 21 69 18 71 20 72 19 73 23 74 24 76
REMARK SMILES IDX 25 77 33 78 26 79 28 80 32 81 27 82 29 83 31 84 30 85
REMARK H PARENT 75 24 53 35 16 70 23 75
REMARK Flexibility Score: inf
ROOT
ATOM      1  O   UNL A   1      36.765  20.512  24.986  1.00  0.00    -0.374 OA
ENDROOT
BRANCH   1   2
ATOM      2  C   UNL A   1      37.906  19.652  25.018  1.00  0.00     0.202 C 
BRANCH   2   3
ATOM      3  C   UNL A   1      39.194  20.215  25.641  1.00  0.00     0.261 C 
BRANCH   3   4
ATOM      4  O   UNL A   1      40.232  19.221  25.717  1.00  0.00    -0.460 OA
BRANCH   4   5
ATOM      5  C   UNL A   1      41.535  19.378  26.046  1.00  0.00     0.338 C 
ATOM      6  O   UNL A   1      42.308  18.429  25.994  1.00  0.00    -0.246 OA
BRANCH   5   7
ATOM      7  C   UNL A   1      42.091  20.699  26.411  1.00  0.00     0.060 A 
ATOM      8  C   UNL A   1      42.279  21.124  27.722  1.00  0.00     0.016 A 
ATOM      9  C   UNL A   1      42.492  21.535  25.358  1.00  0.00     0.016 A 
ATOM     10  C   UNL A   1      42.729  22.389  28.004  1.00  0.00     0.010 A 
ATOM     11  C   UNL A   1      43.014  22.794  25.628  1.00  0.00     0.010 A 
ATOM     12  C   UNL A   1      43.100  23.218  26.956  1.00  0.00    -0.014 A 
BRANCH  12  13
ATOM     13  C   UNL A   1      43.491  24.573  27.321  1.00  0.00     0.031 A 
ATOM     14  C   UNL A   1      44.913  24.963  27.117  1.00  0.00     0.074 A 
ATOM     15  C   UNL A   1      42.518  25.439  27.643  1.00  0.00     0.049 A 
ATOM     16  N   UNL A   1      45.498  26.093  27.389  1.00  0.00    -0.248 NA
ATOM     17  C   UNL A   1      45.794  23.949  26.509  1.00  0.00     0.031 C 
ATOM     18  C   UNL A   1      41.085  25.118  27.681  1.00  0.00     0.029 A 
ATOM     19  N   UNL A   1      42.573  26.765  27.943  1.00  0.00    -0.354 N 
ATOM     20  C   UNL A   1      46.825  25.911  27.036  1.00  0.00     0.074 A 
ATOM     21  C   UNL A   1      46.960  24.575  26.502  1.00  0.00     0.031 C 
ATOM     22  C   UNL A   1      40.396  26.234  27.958  1.00  0.00     0.029 A 
ATOM     23  C   UNL A   1      41.343  27.313  28.200  1.00  0.00     0.049 A 
ATOM     24  H   UNL A   1      43.412  27.279  27.973  1.00  0.00     0.167 HD
ATOM     25  C   UNL A   1      47.841  26.790  27.188  1.00  0.00     0.031 A 
ATOM     26  C   UNL A   1      41.038  28.548  28.630  1.00  0.00     0.031 A 
ATOM     27  C   UNL A   1      47.642  28.093  27.756  1.00  0.00     0.049 A 
ATOM     28  C   UNL A   1      42.187  29.483  28.865  1.00  0.00     0.074 A 
ATOM     29  C   UNL A   1      48.575  29.054  28.089  1.00  0.00     0.029 A 
ATOM     30  N   UNL A   1      46.390  28.610  28.079  1.00  0.00    -0.354 N 
ATOM     31  N   UNL A   1      43.467  29.278  28.645  1.00  0.00    -0.248 NA
ATOM     32  C   UNL A   1      41.869  30.799  29.422  1.00  0.00     0.031 C 
ATOM     33  C   UNL A   1      47.886  30.139  28.647  1.00  0.00     0.029 A 
ATOM     34  C   UNL A   1      46.522  29.874  28.617  1.00  0.00     0.049 A 
ATOM     35  H   UNL A   1      45.535  28.142  27.943  1.00  0.00     0.167 HD
ATOM     36  C   UNL A   1      44.113  30.436  29.039  1.00  0.00     0.074 A 
ATOM     37  C   UNL A   1      43.075  31.349  29.490  1.00  0.00     0.031 C 
ATOM     38  C   UNL A   1      45.439  30.725  29.044  1.00  0.00     0.031 A 
BRANCH  25  39
ATOM     39  C   UNL A   1      49.214  26.288  26.851  1.00  0.00    -0.014 A 
ATOM     40  C   UNL A   1      50.041  25.688  27.814  1.00  0.00     0.009 A 
ATOM     41  C   UNL A   1      49.728  26.520  25.566  1.00  0.00     0.009 A 
ATOM     42  C   UNL A   1      51.369  25.376  27.510  1.00  0.00     0.001 A 
ATOM     43  C   UNL A   1      51.049  26.188  25.259  1.00  0.00     0.001 A 
ATOM     44  C   UNL A   1      51.872  25.629  26.234  1.00  0.00     0.000 A 
ENDBRANCH  25  39
BRANCH  26  45
ATOM     45  C   UNL A   1      39.625  28.897  28.921  1.00  0.00    -0.014 A 
ATOM     46  C   UNL A   1      38.795  29.442  27.933  1.00  0.00     0.009 A 
ATOM     47  C   UNL A   1      39.072  28.605  30.182  1.00  0.00     0.009 A 
ATOM     48  C   UNL A   1      37.443  29.684  28.200  1.00  0.00     0.001 A 
ATOM     49  C   UNL A   1      37.716  28.821  30.436  1.00  0.00     0.001 A 
ATOM     50  C   UNL A   1      36.903  29.365  29.446  1.00  0.00     0.000 A 
ENDBRANCH  26  45
BRANCH  38  51
ATOM     51  C   UNL A   1      45.813  32.089  29.529  1.00  0.00    -0.014 A 
ATOM     52  C   UNL A   1      46.119  32.312  30.879  1.00  0.00     0.009 A 
ATOM     53  C   UNL A   1      45.925  33.139  28.608  1.00  0.00     0.009 A 
ATOM     54  C   UNL A   1      46.515  33.579  31.302  1.00  0.00     0.001 A 
ATOM     55  C   UNL A   1      46.342  34.399  29.031  1.00  0.00     0.001 A 
ATOM     56  C   UNL A   1      46.632  34.619  30.378  1.00  0.00     0.000 A 
ENDBRANCH  38  51
ENDBRANCH  12  13
ENDBRANCH   5   7
ENDBRANCH   4   5
ENDBRANCH   3   4
ENDBRANCH   2   3
ENDBRANCH   1   2
BRANCH   1  57
ATOM     57  C   UNL A   1      37.000  21.914  25.158  1.00  0.00     0.202 C 
BRANCH  57  58
ATOM     58  C   UNL A   1      36.769  22.696  23.864  1.00  0.00     0.261 C 
BRANCH  58  59
ATOM     59  O   UNL A   1      35.898  23.803  24.144  1.00  0.00    -0.462 OA
BRANCH  59  60
ATOM     60  C   UNL A   1      34.757  23.842  23.417  1.00  0.00     0.329 C 
ATOM     61  O   UNL A   1      34.618  23.327  22.311  1.00  0.00    -0.250 OA
BRANCH  60  62
ATOM     62  C   UNL A   1      33.622  24.591  24.135  1.00  0.00     0.195 C 
BRANCH  62  63
ATOM     63  C   UNL A   1      32.737  23.800  25.126  1.00  0.00     0.074 C 
BRANCH  63  64
ATOM     64  C   UNL A   1      33.104  22.389  25.474  1.00  0.00    -0.020 A 
ATOM     65  C   UNL A   1      33.718  21.941  26.626  1.00  0.00     0.087 A 
ATOM     66  C   UNL A   1      32.838  21.219  24.680  1.00  0.00     0.003 A 
ATOM     67  N   UNL A   1      33.935  20.595  26.509  1.00  0.00    -0.361 N 
ATOM     68  C   UNL A   1      33.427  20.131  25.322  1.00  0.00     0.046 A 
ATOM     69  C   UNL A   1      32.169  20.982  23.460  1.00  0.00     0.010 A 
ATOM     70  H   UNL A   1      34.391  20.038  27.182  1.00  0.00     0.166 HD
ATOM     71  C   UNL A   1      33.442  18.840  24.779  1.00  0.00     0.026 A 
ATOM     72  C   UNL A   1      32.164  19.694  22.909  1.00  0.00     0.001 A 
ATOM     73  C   UNL A   1      32.811  18.644  23.550  1.00  0.00     0.002 A 
ENDBRANCH  63  64
ENDBRANCH  62  63
BRANCH  62  74
ATOM     74  N   UNL A   1      34.115  25.850  24.726  1.00  0.00    -0.356 N 
ATOM     75  H   UNL A   1      34.935  25.898  25.269  1.00  0.00     0.163 HD
BRANCH  74  76
ATOM     76  C   UNL A   1      33.325  26.968  24.452  1.00  0.00     0.137 A 
ATOM     77  N   UNL A   1      32.633  26.873  23.308  1.00  0.00    -0.219 NA
ATOM     78  C   UNL A   1      33.218  28.065  25.326  1.00  0.00     0.043 A 
ATOM     79  C   UNL A   1      31.769  27.863  23.066  1.00  0.00     0.224 A 
ATOM     80  C   UNL A   1      32.283  29.036  24.949  1.00  0.00     0.076 A 
ATOM     81  C   UNL A   1      33.979  28.252  26.511  1.00  0.00     0.014 A 
ATOM     82  N   UNL A   1      31.554  28.940  23.832  1.00  0.00    -0.236 NA
ATOM     83  C   UNL A   1      32.109  30.142  25.773  1.00  0.00     0.029 A 
ATOM     84  C   UNL A   1      33.779  29.362  27.327  1.00  0.00     0.001 A 
ATOM     85  C   UNL A   1      32.839  30.311  26.955  1.00  0.00     0.002 A 
ENDBRANCH  74  76
ENDBRANCH  62  74
ENDBRANCH  60  62
ENDBRANCH  59  60
ENDBRANCH  58  59
ENDBRANCH  57  58
ENDBRANCH   1  57
TORSDOF 18
ENDMDL
MODEL 2
REMARK VINA RESULT:     -11.2      1.361      5.917
REMARK SMILES O=C(OCCOCCOC(=O)[C@@H](Cc1c[nH]c2ccccc12)Nc1ncnc2ccccc12)c1ccc(-c2c3nc(c(-c4ccccc4)c4ccc([nH]4)c(-c4ccccc4)c4nc(c(-c5ccccc5)c5ccc2[nH]5)C=C4)C=C3)cc1
REMARK SMILES IDX 6 1 5 2 4 3 3 4 2 5 1 6 34 7 35 8 81 9 36 10 80 11 37 12
REMARK SMILES IDX 38 13 39 14 74 15 40 16 79 17 73 18 75 19 41 20 78 21 72 22
REMARK SMILES IDX 71 23 42 25 64 26 49 27 63 28 50 29 53 30 62 31 76 32 51 33
REMARK SMILES IDX 52 34 61 36 77 37 54 38 43 39 44 40 48 41 45 42 47 43 46 44
REMARK SMILES IDX 65 45 66 46 70 47 67 48 69 49 68 50 55 51 56 52 60 53 57 54
REMARK SMILES IDX 59 55 58 56 7 57 8 58 9 59 10 60 11 61 12 62 13 63 14 64
REMARK SMILES IDX 15 65 22 66 16 67 17 68 21 69 18 71 20 72 19 73 23 74 24 76
REMARK SMILES IDX 25 77 33 78 26 79 28 80 32 81 27 82 29 83 31 84 30 85
REMARK H PARENT 75 24 53 35 16 70 23 75
REMARK Flexibility Score: inf
ROOT
ATOM      1  O   UNL A   1      36.575  20.791  24.632  1.00  0.00    -0.374 OA
ENDROOT
BRANCH   1   2
ATOM      2  C   UNL A   1      37.704  19.982  24.969  1.00  0.00     0.202 C 
BRANCH   2   3
ATOM      3  C   UNL A   1      38.954  20.705  25.497  1.00  0.00     0.261 C 
BRANCH   3   4
ATOM      4  O   UNL A   1      39.971  19.777  25.919  1.00  0.00    -0.460 OA
BRANCH   4   5
ATOM      5  C   UNL A   1      41.294  19.996  26.105  1.00  0.00     0.338 C 
ATOM      6  O   UNL A   1      42.115  19.148  25.777  1.00  0.00    -0.246 OA
BRANCH   5   7
ATOM      7  C   UNL A   1      41.803  21.277  26.639  1.00  0.00     0.060 A 
ATOM      8  C   UNL A   1      41.875  21.576  27.996  1.00  0.00     0.016 A 
ATOM      9  C   UNL A   1      42.282  22.211  25.708  1.00  0.00     0.016 A 
ATOM     10  C   UNL A   1      42.286  22.809  28.434  1.00  0.00     0.010 A 
ATOM     11  C   UNL A   1      42.766  23.440  26.140  1.00  0.00     0.010 A 
ATOM     12  C   UNL A   1      42.735  23.735  27.505  1.00  0.00    -0.014 A 
BRANCH  12  13
ATOM     13  C   UNL A   1      43.080  25.050  28.029  1.00  0.00     0.031 A 
ATOM     14  C   UNL A   1      41.964  25.976  28.364  1.00  0.00     0.074 A 
ATOM     15  C   UNL A   1      44.362  25.279  28.349  1.00  0.00     0.049 A 
ATOM     16  N   UNL A   1      42.021  27.196  28.815  1.00  0.00    -0.248 NA
ATOM     17  C   UNL A   1      40.597  25.455  28.183  1.00  0.00     0.031 C 
ATOM     18  C   UNL A   1      45.455  24.310  28.188  1.00  0.00     0.029 A 
ATOM     19  N   UNL A   1      44.954  26.361  28.922  1.00  0.00    -0.354 N 
ATOM     20  C   UNL A   1      40.702  27.607  28.922  1.00  0.00     0.074 A 
ATOM     21  C   UNL A   1      39.862  26.503  28.519  1.00  0.00     0.031 C 
ATOM     22  C   UNL A   1      46.582  24.839  28.684  1.00  0.00     0.029 A 
ATOM     23  C   UNL A   1      46.303  26.203  29.111  1.00  0.00     0.049 A 
ATOM     24  H   UNL A   1      44.464  27.177  29.175  1.00  0.00     0.167 HD
ATOM     25  C   UNL A   1      40.253  28.826  29.295  1.00  0.00     0.031 A 
ATOM     26  C   UNL A   1      47.209  27.096  29.542  1.00  0.00     0.031 A 
ATOM     27  C   UNL A   1      41.146  29.891  29.653  1.00  0.00     0.049 A 
ATOM     28  C   UNL A   1      46.699  28.466  29.878  1.00  0.00     0.074 A 
ATOM     29  C   UNL A   1      40.864  31.212  29.937  1.00  0.00     0.029 A 
ATOM     30  N   UNL A   1      42.525  29.733  29.772  1.00  0.00    -0.354 N 
ATOM     31  N   UNL A   1      45.459  28.902  29.867  1.00  0.00    -0.248 NA
ATOM     32  C   UNL A   1      47.695  29.469  30.258  1.00  0.00     0.031 C 
ATOM     33  C   UNL A   1      42.080  31.860  30.193  1.00  0.00     0.029 A 
ATOM     34  C   UNL A   1      43.113  30.933  30.116  1.00  0.00     0.049 A 
ATOM     35  H   UNL A   1      43.009  28.888  29.631  1.00  0.00     0.167 HD
ATOM     36  C   UNL A   1      45.521  30.234  30.236  1.00  0.00     0.074 A 
ATOM     37  C   UNL A   1      46.923  30.525  30.487  1.00  0.00     0.031 C 
ATOM     38  C   UNL A   1      44.521  31.145  30.350  1.00  0.00     0.031 A 
BRANCH  25  39
ATOM     39  C   UNL A   1      38.774  29.053  29.191  1.00  0.00    -0.014 A 
ATOM     40  C   UNL A   1      38.164  29.424  27.982  1.00  0.00     0.009 A 
ATOM     41  C   UNL A   1      37.992  28.997  30.355  1.00  0.00     0.009 A 
ATOM     42  C   UNL A   1      36.813  29.782  27.952  1.00  0.00     0.001 A 
ATOM     43  C   UNL A   1      36.637  29.334  30.318  1.00  0.00     0.001 A 
ATOM     44  C   UNL A   1      36.052  29.739  29.121  1.00  0.00     0.000 A 
ENDBRANCH  25  39
BRANCH  26  45
ATOM     45  C   UNL A   1      48.645  26.721  29.590  1.00  0.00    -0.014 A 
ATOM     46  C   UNL A   1      49.192  26.090  30.716  1.00  0.00     0.009 A 
ATOM     47  C   UNL A   1      49.464  26.920  28.463  1.00  0.00     0.009 A 
ATOM     48  C   UNL A   1      50.525  25.666  30.710  1.00  0.00     0.001 A 
ATOM     49  C   UNL A   1      50.786  26.470  28.451  1.00  0.00     0.001 A 
ATOM     50  C   UNL A   1      51.317  25.848  29.576  1.00  0.00     0.000 A 
ENDBRANCH  26  45
BRANCH  38  51
ATOM     51  C   UNL A   1      44.926  32.517  30.785  1.00  0.00    -0.014 A 
ATOM     52  C   UNL A   1      45.002  32.844  32.146  1.00  0.00     0.009 A 
ATOM     53  C   UNL A   1      45.301  33.461  29.820  1.00  0.00     0.009 A 
ATOM     54  C   UNL A   1      45.432  34.112  32.533  1.00  0.00     0.001 A 
ATOM     55  C   UNL A   1      45.749  34.720  30.211  1.00  0.00     0.001 A 
ATOM     56  C   UNL A   1      45.810  35.046  31.567  1.00  0.00     0.000 A 
ENDBRANCH  38  51
ENDBRANCH  12  13
ENDBRANCH   5   7
ENDBRANCH   4   5
ENDBRANCH   3   4
ENDBRANCH   2   3
ENDBRANCH   1   2
BRANCH   1  57
ATOM     57  C   UNL A   1      36.791  22.204  24.532  1.00  0.00     0.202 C 
BRANCH  57  58
ATOM     58  C   UNL A   1      36.050  22.812  23.340  1.00  0.00     0.261 C 
BRANCH  58  59
ATOM     59  O   UNL A   1      34.884  23.498  23.823  1.00  0.00    -0.462 OA
BRANCH  59  60
ATOM     60  C   UNL A   1      33.817  23.484  22.993  1.00  0.00     0.329 C 
ATOM     61  O   UNL A   1      33.884  23.380  21.772  1.00  0.00    -0.250 OA
BRANCH  60  62
ATOM     62  C   UNL A   1      32.479  23.591  23.746  1.00  0.00     0.195 C 
BRANCH  62  63
ATOM     63  C   UNL A   1      31.784  22.284  24.191  1.00  0.00     0.074 C 
BRANCH  63  64
ATOM     64  C   UNL A   1      32.619  21.133  24.666  1.00  0.00    -0.020 A 
ATOM     65  C   UNL A   1      33.365  21.059  25.825  1.00  0.00     0.087 A 
ATOM     66  C   UNL A   1      32.760  19.858  24.015  1.00  0.00     0.003 A 
ATOM     67  N   UNL A   1      34.030  19.863  25.839  1.00  0.00    -0.361 N 
ATOM     68  C   UNL A   1      33.696  19.117  24.736  1.00  0.00     0.046 A 
ATOM     69  C   UNL A   1      32.197  19.266  22.864  1.00  0.00     0.010 A 
ATOM     70  H   UNL A   1      34.659  19.577  26.542  1.00  0.00     0.166 HD
ATOM     71  C   UNL A   1      34.147  17.854  24.332  1.00  0.00     0.026 A 
ATOM     72  C   UNL A   1      32.627  17.998  22.452  1.00  0.00     0.001 A 
ATOM     73  C   UNL A   1      33.605  17.313  23.166  1.00  0.00     0.002 A 
ENDBRANCH  63  64
ENDBRANCH  62  63
BRANCH  62  74
ATOM     74  N   UNL A   1      32.575  24.565  24.850  1.00  0.00    -0.356 N 
ATOM     75  H   UNL A   1      33.027  24.362  25.701  1.00  0.00     0.163 HD
BRANCH  74  76
ATOM     76  C   UNL A   1      31.973  25.797  24.592  1.00  0.00     0.137 A 
ATOM     77  N   UNL A   1      31.021  25.746  23.649  1.00  0.00    -0.219 NA
ATOM     78  C   UNL A   1      32.291  26.971  25.299  1.00  0.00     0.043 A 
ATOM     79  C   UNL A   1      30.331  26.874  23.455  1.00  0.00     0.224 A 
ATOM     80  C   UNL A   1      31.498  28.083  24.993  1.00  0.00     0.076 A 
ATOM     81  C   UNL A   1      33.337  27.100  26.253  1.00  0.00     0.014 A 
ATOM     82  N   UNL A   1      30.519  28.042  24.084  1.00  0.00    -0.236 NA
ATOM     83  C   UNL A   1      31.744  29.275  25.665  1.00  0.00     0.029 A 
ATOM     84  C   UNL A   1      33.556  28.301  26.922  1.00  0.00     0.001 A 
ATOM     85  C   UNL A   1      32.754  29.393  26.626  1.00  0.00     0.002 A 
ENDBRANCH  74  76
ENDBRANCH  62  74
ENDBRANCH  60  62
ENDBRANCH  59  60
ENDBRANCH  58  59
ENDBRANCH  57  58
ENDBRANCH   1  57
TORSDOF 18
ENDMDL
MODEL 3
REMARK VINA RESULT:     -11.1      4.542      9.062
REMARK SMILES O=C(OCCOCCOC(=O)[C@@H](Cc1c[nH]c2ccccc12)Nc1ncnc2ccccc12)c1ccc(-c2c3nc(c(-c4ccccc4)c4ccc([nH]4)c(-c4ccccc4)c4nc(c(-c5ccccc5)c5ccc2[nH]5)C=C4)C=C3)cc1
REMARK SMILES IDX 6 1 5 2 4 3 3 4 2 5 1 6 34 7 35 8 81 9 36 10 80 11 37 12
REMARK SMILES IDX 38 13 39 14 74 15 40 16 79 17 73 18 75 19 41 20 78 21 72 22
REMARK SMILES IDX 71 23 42 25 64 26 49 27 63 28 50 29 53 30 62 31 76 32 51 33
REMARK SMILES IDX 52 34 61 36 77 37 54 38 43 39 44 40 48 41 45 42 47 43 46 44
REMARK SMILES IDX 65 45 66 46 70 47 67 48 69 49 68 50 55 51 56 52 60 53 57 54
REMARK SMILES IDX 59 55 58 56 7 57 8 58 9 59 10 60 11 61 12 62 13 63 14 64
REMARK SMILES IDX 15 65 22 66 16 67 17 68 21 69 18 71 20 72 19 73 23 74 24 76
REMARK SMILES IDX 25 77 33 78 26 79 28 80 32 81 27 82 29 83 31 84 30 85
REMARK H PARENT 75 24 53 35 16 70 23 75
REMARK Flexibility Score: inf
ROOT
ATOM      1  O   UNL A   1      31.821  29.561  27.049  1.00  0.00    -0.374 OA
ENDROOT
BRANCH   1   2
ATOM      2  C   UNL A   1      32.492  30.815  26.915  1.00  0.00     0.202 C 
BRANCH   2   3
ATOM      3  C   UNL A   1      31.654  32.087  27.125  1.00  0.00     0.261 C 
BRANCH   3   4
ATOM      4  O   UNL A   1      32.462  33.277  27.071  1.00  0.00    -0.460 OA
BRANCH   4   5
ATOM      5  C   UNL A   1      33.068  33.936  28.086  1.00  0.00     0.338 C 
ATOM      6  O   UNL A   1      32.548  34.930  28.579  1.00  0.00    -0.246 OA
BRANCH   5   7
ATOM      7  C   UNL A   1      34.331  33.453  28.684  1.00  0.00     0.060 A 
ATOM      8  C   UNL A   1      35.593  33.783  28.199  1.00  0.00     0.016 A 
ATOM      9  C   UNL A   1      34.230  32.658  29.835  1.00  0.00     0.016 A 
ATOM     10  C   UNL A   1      36.730  33.246  28.746  1.00  0.00     0.010 A 
ATOM     11  C   UNL A   1      35.377  32.162  30.443  1.00  0.00     0.010 A 
ATOM     12  C   UNL A   1      36.619  32.441  29.870  1.00  0.00    -0.014 A 
BRANCH  12  13
ATOM     13  C   UNL A   1      37.856  31.840  30.350  1.00  0.00     0.031 A 
ATOM     14  C   UNL A   1      38.474  32.412  31.577  1.00  0.00     0.074 A 
ATOM     15  C   UNL A   1      38.262  30.700  29.771  1.00  0.00     0.049 A 
ATOM     16  N   UNL A   1      39.578  32.067  32.174  1.00  0.00    -0.248 NA
ATOM     17  C   UNL A   1      37.744  33.514  32.232  1.00  0.00     0.031 C 
ATOM     18  C   UNL A   1      37.567  30.022  28.669  1.00  0.00     0.029 A 
ATOM     19  N   UNL A   1      39.313  29.885  30.057  1.00  0.00    -0.354 N 
ATOM     20  C   UNL A   1      39.703  32.940  33.243  1.00  0.00     0.074 A 
ATOM     21  C   UNL A   1      38.553  33.814  33.234  1.00  0.00     0.031 C 
ATOM     22  C   UNL A   1      38.200  28.873  28.396  1.00  0.00     0.029 A 
ATOM     23  C   UNL A   1      39.383  28.786  29.240  1.00  0.00     0.049 A 
ATOM     24  H   UNL A   1      39.959  30.066  30.778  1.00  0.00     0.167 HD
ATOM     25  C   UNL A   1      40.724  33.012  34.125  1.00  0.00     0.031 A 
ATOM     26  C   UNL A   1      40.337  27.844  29.167  1.00  0.00     0.031 A 
ATOM     27  C   UNL A   1      41.855  32.131  34.056  1.00  0.00     0.049 A 
ATOM     28  C   UNL A   1      41.499  27.986  30.105  1.00  0.00     0.074 A 
ATOM     29  C   UNL A   1      43.022  32.146  34.792  1.00  0.00     0.029 A 
ATOM     30  N   UNL A   1      41.944  31.059  33.171  1.00  0.00    -0.354 N 
ATOM     31  N   UNL A   1      41.685  28.885  31.046  1.00  0.00    -0.248 NA
ATOM     32  C   UNL A   1      42.586  27.015  29.966  1.00  0.00     0.031 C 
ATOM     33  C   UNL A   1      43.832  31.101  34.325  1.00  0.00     0.029 A 
ATOM     34  C   UNL A   1      43.149  30.409  33.332  1.00  0.00     0.049 A 
ATOM     35  H   UNL A   1      41.247  30.804  32.524  1.00  0.00     0.167 HD
ATOM     36  C   UNL A   1      42.913  28.594  31.613  1.00  0.00     0.074 A 
ATOM     37  C   UNL A   1      43.415  27.418  30.922  1.00  0.00     0.031 C 
ATOM     38  C   UNL A   1      43.579  29.239  32.605  1.00  0.00     0.031 A 
BRANCH  25  39
ATOM     39  C   UNL A   1      40.679  34.146  35.107  1.00  0.00    -0.014 A 
ATOM     40  C   UNL A   1      40.067  34.014  36.363  1.00  0.00     0.009 A 
ATOM     41  C   UNL A   1      41.165  35.404  34.718  1.00  0.00     0.009 A 
ATOM     42  C   UNL A   1      39.901  35.130  37.189  1.00  0.00     0.001 A 
ATOM     43  C   UNL A   1      41.018  36.512  35.554  1.00  0.00     0.001 A 
ATOM     44  C   UNL A   1      40.374  36.377  36.782  1.00  0.00     0.000 A 
ENDBRANCH  25  39
BRANCH  26  45
ATOM     45  C   UNL A   1      40.241  26.779  28.137  1.00  0.00    -0.014 A 
ATOM     46  C   UNL A   1      40.864  26.918  26.890  1.00  0.00     0.009 A 
ATOM     47  C   UNL A   1      39.589  25.568  28.435  1.00  0.00     0.009 A 
ATOM     48  C   UNL A   1      40.836  25.868  25.965  1.00  0.00     0.001 A 
ATOM     49  C   UNL A   1      39.586  24.512  27.521  1.00  0.00     0.001 A 
ATOM     50  C   UNL A   1      40.207  24.665  26.284  1.00  0.00     0.000 A 
ENDBRANCH  26  45
BRANCH  38  51
ATOM     51  C   UNL A   1      44.899  28.656  32.998  1.00  0.00    -0.014 A 
ATOM     52  C   UNL A   1      46.087  29.102  32.402  1.00  0.00     0.009 A 
ATOM     53  C   UNL A   1      44.950  27.702  34.024  1.00  0.00     0.009 A 
ATOM     54  C   UNL A   1      47.311  28.583  32.819  1.00  0.00     0.001 A 
ATOM     55  C   UNL A   1      46.177  27.201  34.451  1.00  0.00     0.001 A 
ATOM     56  C   UNL A   1      47.356  27.639  33.846  1.00  0.00     0.000 A 
ENDBRANCH  38  51
ENDBRANCH  12  13
ENDBRANCH   5   7
ENDBRANCH   4   5
ENDBRANCH   3   4
ENDBRANCH   2   3
ENDBRANCH   1   2
BRANCH   1  57
ATOM     57  C   UNL A   1      32.307  28.472  26.255  1.00  0.00     0.202 C 
BRANCH  57  58
ATOM     58  C   UNL A   1      32.018  27.118  26.904  1.00  0.00     0.261 C 
BRANCH  58  59
ATOM     59  O   UNL A   1      30.691  26.706  26.540  1.00  0.00    -0.462 OA
BRANCH  59  60
ATOM     60  C   UNL A   1      30.551  25.394  26.242  1.00  0.00     0.329 C 
ATOM     61  O   UNL A   1      29.873  24.601  26.887  1.00  0.00    -0.250 OA
BRANCH  60  62
ATOM     62  C   UNL A   1      31.323  24.990  24.974  1.00  0.00     0.195 C 
BRANCH  62  63
ATOM     63  C   UNL A   1      31.894  23.556  24.892  1.00  0.00     0.074 C 
BRANCH  63  64
ATOM     64  C   UNL A   1      33.183  23.237  25.588  1.00  0.00    -0.020 A 
ATOM     65  C   UNL A   1      33.371  22.976  26.930  1.00  0.00     0.087 A 
ATOM     66  C   UNL A   1      34.473  23.098  24.966  1.00  0.00     0.003 A 
ATOM     67  N   UNL A   1      34.709  22.806  27.157  1.00  0.00    -0.361 N 
ATOM     68  C   UNL A   1      35.409  22.895  25.980  1.00  0.00     0.046 A 
ATOM     69  C   UNL A   1      34.943  23.146  23.636  1.00  0.00     0.010 A 
ATOM     70  H   UNL A   1      35.113  22.641  28.041  1.00  0.00     0.166 HD
ATOM     71  C   UNL A   1      36.787  22.808  25.743  1.00  0.00     0.026 A 
ATOM     72  C   UNL A   1      36.316  23.049  23.379  1.00  0.00     0.001 A 
ATOM     73  C   UNL A   1      37.225  22.904  24.422  1.00  0.00     0.002 A 
ENDBRANCH  63  64
ENDBRANCH  62  63
BRANCH  62  74
ATOM     74  N   UNL A   1      30.564  25.349  23.760  1.00  0.00    -0.356 N 
ATOM     75  H   UNL A   1      29.995  24.706  23.279  1.00  0.00     0.163 HD
BRANCH  74  76
ATOM     76  C   UNL A   1      30.718  26.674  23.350  1.00  0.00     0.137 A 
ATOM     77  N   UNL A   1      31.980  27.000  23.038  1.00  0.00    -0.219 NA
ATOM     78  C   UNL A   1      29.639  27.567  23.216  1.00  0.00     0.043 A 
ATOM     79  C   UNL A   1      32.157  28.220  22.521  1.00  0.00     0.224 A 
ATOM     80  C   UNL A   1      29.963  28.814  22.671  1.00  0.00     0.076 A 
ATOM     81  C   UNL A   1      28.296  27.299  23.599  1.00  0.00     0.014 A 
ATOM     82  N   UNL A   1      31.210  29.144  22.317  1.00  0.00    -0.236 NA
ATOM     83  C   UNL A   1      28.944  29.743  22.493  1.00  0.00     0.029 A 
ATOM     84  C   UNL A   1      27.291  28.241  23.400  1.00  0.00     0.001 A 
ATOM     85  C   UNL A   1      27.618  29.468  22.843  1.00  0.00     0.002 A 
ENDBRANCH  74  76
ENDBRANCH  62  74
ENDBRANCH  60  62
ENDBRANCH  59  60
ENDBRANCH  58  59
ENDBRANCH  57  58
ENDBRANCH   1  57
TORSDOF 18
ENDMDL
