MODEL 1
REMARK VINA RESULT:     -10.9      0.000      0.000
REMARK SMILES CC1=C(C(=O)OCCOCCOC(=O)c2ccc(-c3c4nc(c(-c5ccccc5)c5ccc([nH]5)c(-c5ccccc5)c5nc(c(-c6ccccc6)c6ccc3[nH]6)C=C5)C=C4)cc2)N2C(=O)[C@H](NC(=O)c3c(Cl)c(C(F)(F)F)nn3C)[C@@H]2SC1
REMARK SMILES IDX 8 1 7 2 6 3 4 4 5 5 3 6 1 7 2 8 83 9 63 10 82 11 64 12 81 13
REMARK SMILES IDX 65 14 66 15 67 16 68 17 69 19 70 20 71 21 79 22 72 23 73 24
REMARK SMILES IDX 78 25 80 26 74 27 75 28 76 29 77 30 9 31 10 32 11 33 12 34
REMARK SMILES IDX 13 35 14 36 15 37 16 38 62 39 17 40 61 41 18 42 19 43 20 44
REMARK SMILES IDX 55 45 21 46 60 47 54 48 56 49 22 50 59 51 53 52 52 53 23 55
REMARK SMILES IDX 45 56 30 57 44 58 31 59 34 60 43 61 57 62 32 63 33 64 42 66
REMARK SMILES IDX 58 67 35 68 24 69 25 70 29 71 26 72 28 73 27 74 46 75 47 76
REMARK SMILES IDX 51 77 48 78 50 79 49 80 36 81 37 82 41 83 38 84 40 85 39 86
REMARK H PARENT 67 18 56 54 34 65
REMARK Flexibility Score: inf
ROOT
ATOM      1  C   UNL A   1      43.309  20.875  25.767  1.00  0.00     0.202 C 
ENDROOT
BRANCH   1   2
ATOM      2  C   UNL A   1      42.670  22.037  26.529  1.00  0.00     0.261 C 
BRANCH   2   3
ATOM      3  O   UNL A   1      41.351  22.269  26.014  1.00  0.00    -0.459 OA
BRANCH   3   4
ATOM      4  C   UNL A   1      40.341  21.874  26.827  1.00  0.00     0.355 C 
ATOM      5  O   UNL A   1      40.328  21.906  28.045  1.00  0.00    -0.244 OA
BRANCH   4   6
ATOM      6  C   UNL A   1      39.174  21.467  25.984  1.00  0.00     0.131 C 
ATOM      7  C   UNL A   1      40.038  19.106  25.731  1.00  0.00     0.043 C 
ATOM      8  C   UNL A   1      39.009  20.196  25.545  1.00  0.00    -0.032 C 
ATOM      9  C   UNL A   1      37.755  19.708  24.836  1.00  0.00     0.105 C 
ATOM     10  N   UNL A   1      38.253  22.428  25.700  1.00  0.00    -0.289 N 
ATOM     11  S   UNL A   1      36.295  20.768  25.106  1.00  0.00    -0.129 SA
ATOM     12  C   UNL A   1      38.051  23.734  25.957  1.00  0.00     0.253 C 
ATOM     13  C   UNL A   1      37.199  22.283  24.726  1.00  0.00     0.181 C 
ATOM     14  O   UNL A   1      38.706  24.579  26.521  1.00  0.00    -0.272 OA
ATOM     15  C   UNL A   1      36.645  23.648  25.246  1.00  0.00     0.206 C 
BRANCH  15  16
ATOM     16  N   UNL A   1      35.485  23.612  26.174  1.00  0.00    -0.336 N 
ATOM     17  C   UNL A   1      34.163  23.890  25.935  1.00  0.00     0.271 C 
ATOM     18  H   UNL A   1      35.698  23.349  27.099  1.00  0.00     0.164 HD
ATOM     19  O   UNL A   1      33.395  23.919  26.893  1.00  0.00    -0.267 OA
BRANCH  17  20
ATOM     20  C   UNL A   1      33.732  24.132  24.587  1.00  0.00     0.145 A 
ATOM     21  C   UNL A   1      33.517  25.344  23.958  1.00  0.00     0.104 A 
ATOM     22  N   UNL A   1      33.297  23.196  23.688  1.00  0.00    -0.261 N 
ATOM     23  Cl  UNL A   1      33.761  26.902  24.591  1.00  0.00    -0.079 Cl
ATOM     24  C   UNL A   1      33.056  25.040  22.654  1.00  0.00     0.185 A 
ATOM     25  N   UNL A   1      32.980  23.703  22.482  1.00  0.00    -0.166 NA
ATOM     26  C   UNL A   1      33.105  21.778  23.898  1.00  0.00     0.174 C 
BRANCH  24  27
ATOM     27  C   UNL A   1      32.684  26.028  21.587  1.00  0.00     0.436 C 
ATOM     28  F   UNL A   1      31.447  26.556  21.795  1.00  0.00    -0.164 F 
ATOM     29  F   UNL A   1      33.552  27.075  21.535  1.00  0.00    -0.164 F 
ATOM     30  F   UNL A   1      32.665  25.488  20.337  1.00  0.00    -0.164 F 
ENDBRANCH  24  27
ENDBRANCH  17  20
ENDBRANCH  15  16
ENDBRANCH   4   6
ENDBRANCH   3   4
ENDBRANCH   2   3
ENDBRANCH   1   2
BRANCH   1  31
ATOM     31  O   UNL A   1      44.702  21.014  25.483  1.00  0.00    -0.374 OA
BRANCH  31  32
ATOM     32  C   UNL A   1      45.075  21.720  24.301  1.00  0.00     0.202 C 
BRANCH  32  33
ATOM     33  C   UNL A   1      45.602  23.146  24.500  1.00  0.00     0.261 C 
BRANCH  33  34
ATOM     34  O   UNL A   1      44.564  24.088  24.826  1.00  0.00    -0.460 OA
BRANCH  34  35
ATOM     35  C   UNL A   1      45.013  25.330  25.141  1.00  0.00     0.338 C 
ATOM     36  O   UNL A   1      45.947  25.932  24.641  1.00  0.00    -0.246 OA
BRANCH  35  37
ATOM     37  C   UNL A   1      44.107  25.962  26.118  1.00  0.00     0.060 A 
ATOM     38  C   UNL A   1      44.247  27.337  26.343  1.00  0.00     0.016 A 
ATOM     39  C   UNL A   1      43.210  25.205  26.873  1.00  0.00     0.016 A 
ATOM     40  C   UNL A   1      43.513  27.958  27.352  1.00  0.00     0.010 A 
ATOM     41  C   UNL A   1      42.481  25.828  27.891  1.00  0.00     0.010 A 
ATOM     42  C   UNL A   1      42.651  27.200  28.155  1.00  0.00    -0.014 A 
BRANCH  42  43
ATOM     43  C   UNL A   1      42.026  27.811  29.352  1.00  0.00     0.031 A 
ATOM     44  C   UNL A   1      40.671  28.452  29.226  1.00  0.00     0.074 A 
ATOM     45  C   UNL A   1      42.653  27.793  30.540  1.00  0.00     0.049 A 
ATOM     46  N   UNL A   1      39.972  29.097  30.125  1.00  0.00    -0.248 NA
ATOM     47  C   UNL A   1      40.018  28.353  27.911  1.00  0.00     0.031 C 
ATOM     48  C   UNL A   1      43.944  27.160  30.807  1.00  0.00     0.029 A 
ATOM     49  N   UNL A   1      42.284  28.329  31.748  1.00  0.00    -0.354 N 
ATOM     50  C   UNL A   1      38.804  29.488  29.484  1.00  0.00     0.074 A 
ATOM     51  C   UNL A   1      38.897  29.031  28.114  1.00  0.00     0.031 C 
ATOM     52  C   UNL A   1      44.266  27.356  32.097  1.00  0.00     0.029 A 
ATOM     53  C   UNL A   1      43.222  28.155  32.736  1.00  0.00     0.049 A 
ATOM     54  H   UNL A   1      41.430  28.796  31.893  1.00  0.00     0.167 HD
ATOM     55  C   UNL A   1      37.745  30.165  29.990  1.00  0.00     0.031 A 
ATOM     56  C   UNL A   1      43.246  28.609  34.004  1.00  0.00     0.031 A 
ATOM     57  C   UNL A   1      37.654  30.630  31.348  1.00  0.00     0.049 A 
ATOM     58  C   UNL A   1      42.098  29.434  34.519  1.00  0.00     0.074 A 
ATOM     59  C   UNL A   1      36.615  31.313  31.958  1.00  0.00     0.029 A 
ATOM     60  N   UNL A   1      38.643  30.468  32.305  1.00  0.00    -0.354 N 
ATOM     61  N   UNL A   1      40.991  29.782  33.907  1.00  0.00    -0.248 NA
ATOM     62  C   UNL A   1      42.202  29.925  35.901  1.00  0.00     0.031 C 
ATOM     63  C   UNL A   1      36.999  31.609  33.269  1.00  0.00     0.029 A 
ATOM     64  C   UNL A   1      38.253  31.063  33.492  1.00  0.00     0.049 A 
ATOM     65  H   UNL A   1      39.497  30.000  32.161  1.00  0.00     0.167 HD
ATOM     66  C   UNL A   1      40.256  30.507  34.839  1.00  0.00     0.074 A 
ATOM     67  C   UNL A   1      41.038  30.540  36.057  1.00  0.00     0.031 C 
ATOM     68  C   UNL A   1      39.040  31.088  34.696  1.00  0.00     0.031 A 
BRANCH  55  69
ATOM     69  C   UNL A   1      36.611  30.474  29.054  1.00  0.00    -0.014 A 
ATOM     70  C   UNL A   1      36.385  31.778  28.586  1.00  0.00     0.009 A 
ATOM     71  C   UNL A   1      35.777  29.437  28.607  1.00  0.00     0.009 A 
ATOM     72  C   UNL A   1      35.325  32.042  27.714  1.00  0.00     0.001 A 
ATOM     73  C   UNL A   1      34.736  29.699  27.716  1.00  0.00     0.001 A 
ATOM     74  C   UNL A   1      34.505  31.001  27.277  1.00  0.00     0.000 A 
ENDBRANCH  55  69
BRANCH  56  75
ATOM     75  C   UNL A   1      44.414  28.316  34.876  1.00  0.00    -0.014 A 
ATOM     76  C   UNL A   1      45.430  29.268  35.054  1.00  0.00     0.009 A 
ATOM     77  C   UNL A   1      44.524  27.075  35.523  1.00  0.00     0.009 A 
ATOM     78  C   UNL A   1      46.543  28.973  35.844  1.00  0.00     0.001 A 
ATOM     79  C   UNL A   1      45.625  26.794  36.334  1.00  0.00     0.001 A 
ATOM     80  C   UNL A   1      46.638  27.739  36.487  1.00  0.00     0.000 A 
ENDBRANCH  56  75
BRANCH  68  81
ATOM     81  C   UNL A   1      38.460  31.779  35.898  1.00  0.00    -0.014 A 
ATOM     82  C   UNL A   1      37.793  31.061  36.902  1.00  0.00     0.009 A 
ATOM     83  C   UNL A   1      38.633  33.164  36.052  1.00  0.00     0.009 A 
ATOM     84  C   UNL A   1      37.287  31.721  38.024  1.00  0.00     0.001 A 
ATOM     85  C   UNL A   1      38.149  33.817  37.187  1.00  0.00     0.001 A 
ATOM     86  C   UNL A   1      37.470  33.097  38.168  1.00  0.00     0.000 A 
ENDBRANCH  68  81
ENDBRANCH  42  43
ENDBRANCH  35  37
ENDBRANCH  34  35
ENDBRANCH  33  34
ENDBRANCH  32  33
ENDBRANCH  31  32
ENDBRANCH   1  31
TORSDOF 17
ENDMDL
MODEL 2
REMARK VINA RESULT:     -10.7      0.472      5.637
REMARK SMILES CC1=C(C(=O)OCCOCCOC(=O)c2ccc(-c3c4nc(c(-c5ccccc5)c5ccc([nH]5)c(-c5ccccc5)c5nc(c(-c6ccccc6)c6ccc3[nH]6)C=C5)C=C4)cc2)N2C(=O)[C@H](NC(=O)c3c(Cl)c(C(F)(F)F)nn3C)[C@@H]2SC1
REMARK SMILES IDX 8 1 7 2 6 3 4 4 5 5 3 6 1 7 2 8 83 9 63 10 82 11 64 12 81 13
REMARK SMILES IDX 65 14 66 15 67 16 68 17 69 19 70 20 71 21 79 22 72 23 73 24
REMARK SMILES IDX 78 25 80 26 74 27 75 28 76 29 77 30 9 31 10 32 11 33 12 34
REMARK SMILES IDX 13 35 14 36 15 37 16 38 62 39 17 40 61 41 18 42 19 43 20 44
REMARK SMILES IDX 55 45 21 46 60 47 54 48 56 49 22 50 59 51 53 52 52 53 23 55
REMARK SMILES IDX 45 56 30 57 44 58 31 59 34 60 43 61 57 62 32 63 33 64 42 66
REMARK SMILES IDX 58 67 35 68 24 69 25 70 29 71 26 72 28 73 27 74 46 75 47 76
REMARK SMILES IDX 51 77 48 78 50 79 49 80 36 81 37 82 41 83 38 84 40 85 39 86
REMARK H PARENT 67 18 56 54 34 65
REMARK Flexibility Score: inf
ROOT
ATOM      1  C   UNL A   1      43.340  20.523  25.759  1.00  0.00     0.202 C 
ENDROOT
BRANCH   1   2
ATOM      2  C   UNL A   1      42.674  21.600  26.618  1.00  0.00     0.261 C 
BRANCH   2   3
ATOM      3  O   UNL A   1      41.438  21.991  26.006  1.00  0.00    -0.459 OA
BRANCH   3   4
ATOM      4  C   UNL A   1      40.343  21.863  26.795  1.00  0.00     0.355 C 
ATOM      5  O   UNL A   1      40.258  22.141  27.978  1.00  0.00    -0.244 OA
BRANCH   4   6
ATOM      6  C   UNL A   1      39.193  21.406  25.954  1.00  0.00     0.131 C 
ATOM      7  C   UNL A   1      40.101  19.053  25.796  1.00  0.00     0.043 C 
ATOM      8  C   UNL A   1      39.055  20.117  25.560  1.00  0.00    -0.032 C 
ATOM      9  C   UNL A   1      37.818  19.582  24.855  1.00  0.00     0.105 C 
ATOM     10  N   UNL A   1      38.259  22.339  25.626  1.00  0.00    -0.289 N 
ATOM     11  S   UNL A   1      36.337  20.624  25.070  1.00  0.00    -0.129 SA
ATOM     12  C   UNL A   1      38.031  23.650  25.833  1.00  0.00     0.253 C 
ATOM     13  C   UNL A   1      37.218  22.140  24.646  1.00  0.00     0.181 C 
ATOM     14  O   UNL A   1      38.664  24.526  26.374  1.00  0.00    -0.272 OA
ATOM     15  C   UNL A   1      36.634  23.513  25.110  1.00  0.00     0.206 C 
BRANCH  15  16
ATOM     16  N   UNL A   1      35.465  23.489  26.026  1.00  0.00    -0.336 N 
ATOM     17  C   UNL A   1      34.151  23.799  25.778  1.00  0.00     0.271 C 
ATOM     18  H   UNL A   1      35.662  23.209  26.949  1.00  0.00     0.164 HD
ATOM     19  O   UNL A   1      33.374  23.832  26.729  1.00  0.00    -0.267 OA
BRANCH  17  20
ATOM     20  C   UNL A   1      33.740  24.070  24.430  1.00  0.00     0.145 A 
ATOM     21  C   UNL A   1      33.573  25.295  23.811  1.00  0.00     0.104 A 
ATOM     22  N   UNL A   1      33.278  23.159  23.518  1.00  0.00    -0.261 N 
ATOM     23  Cl  UNL A   1      33.868  26.837  24.462  1.00  0.00    -0.079 Cl
ATOM     24  C   UNL A   1      33.112  25.021  22.501  1.00  0.00     0.185 A 
ATOM     25  N   UNL A   1      32.988  23.689  22.315  1.00  0.00    -0.166 NA
ATOM     26  C   UNL A   1      33.033  21.748  23.712  1.00  0.00     0.174 C 
BRANCH  24  27
ATOM     27  C   UNL A   1      32.784  26.032  21.441  1.00  0.00     0.436 C 
ATOM     28  F   UNL A   1      31.486  26.434  21.510  1.00  0.00    -0.164 F 
ATOM     29  F   UNL A   1      33.546  27.154  21.552  1.00  0.00    -0.164 F 
ATOM     30  F   UNL A   1      32.975  25.567  20.176  1.00  0.00    -0.164 F 
ENDBRANCH  24  27
ENDBRANCH  17  20
ENDBRANCH  15  16
ENDBRANCH   4   6
ENDBRANCH   3   4
ENDBRANCH   2   3
ENDBRANCH   1   2
BRANCH   1  31
ATOM     31  O   UNL A   1      44.673  20.809  25.332  1.00  0.00    -0.374 OA
BRANCH  31  32
ATOM     32  C   UNL A   1      44.844  21.500  24.096  1.00  0.00     0.202 C 
BRANCH  32  33
ATOM     33  C   UNL A   1      45.474  22.895  24.180  1.00  0.00     0.261 C 
BRANCH  33  34
ATOM     34  O   UNL A   1      44.540  23.910  24.590  1.00  0.00    -0.460 OA
BRANCH  34  35
ATOM     35  C   UNL A   1      45.113  25.086  24.954  1.00  0.00     0.338 C 
ATOM     36  O   UNL A   1      46.144  25.574  24.525  1.00  0.00    -0.246 OA
BRANCH  35  37
ATOM     37  C   UNL A   1      44.227  25.814  25.881  1.00  0.00     0.060 A 
ATOM     38  C   UNL A   1      44.350  27.208  25.941  1.00  0.00     0.016 A 
ATOM     39  C   UNL A   1      43.367  25.137  26.747  1.00  0.00     0.016 A 
ATOM     40  C   UNL A   1      43.637  27.931  26.895  1.00  0.00     0.010 A 
ATOM     41  C   UNL A   1      42.660  25.864  27.710  1.00  0.00     0.010 A 
ATOM     42  C   UNL A   1      42.813  27.259  27.808  1.00  0.00    -0.014 A 
BRANCH  42  43
ATOM     43  C   UNL A   1      42.215  27.996  28.947  1.00  0.00     0.031 A 
ATOM     44  C   UNL A   1      42.927  28.002  30.272  1.00  0.00     0.074 A 
ATOM     45  C   UNL A   1      41.054  28.658  28.804  1.00  0.00     0.049 A 
ATOM     46  N   UNL A   1      42.553  28.527  31.411  1.00  0.00    -0.248 NA
ATOM     47  C   UNL A   1      44.233  27.326  30.318  1.00  0.00     0.031 C 
ATOM     48  C   UNL A   1      40.292  28.772  27.562  1.00  0.00     0.029 A 
ATOM     49  N   UNL A   1      40.311  29.357  29.722  1.00  0.00    -0.354 N 
ATOM     50  C   UNL A   1      43.571  28.237  32.311  1.00  0.00     0.074 A 
ATOM     51  C   UNL A   1      44.566  27.469  31.593  1.00  0.00     0.031 C 
ATOM     52  C   UNL A   1      39.180  29.490  27.798  1.00  0.00     0.029 A 
ATOM     53  C   UNL A   1      39.137  29.855  29.213  1.00  0.00     0.049 A 
ATOM     54  H   UNL A   1      40.592  29.488  30.656  1.00  0.00     0.167 HD
ATOM     55  C   UNL A   1      43.671  28.581  33.617  1.00  0.00     0.031 A 
ATOM     56  C   UNL A   1      38.131  30.508  29.824  1.00  0.00     0.031 A 
ATOM     57  C   UNL A   1      42.679  29.334  34.335  1.00  0.00     0.049 A 
ATOM     58  C   UNL A   1      38.224  30.804  31.297  1.00  0.00     0.074 A 
ATOM     59  C   UNL A   1      42.698  29.744  35.658  1.00  0.00     0.029 A 
ATOM     60  N   UNL A   1      41.486  29.784  33.794  1.00  0.00    -0.354 N 
ATOM     61  N   UNL A   1      39.200  30.539  32.133  1.00  0.00    -0.248 NA
ATOM     62  C   UNL A   1      37.078  31.492  31.909  1.00  0.00     0.031 C 
ATOM     63  C   UNL A   1      41.491  30.396  35.929  1.00  0.00     0.029 A 
ATOM     64  C   UNL A   1      40.746  30.442  34.762  1.00  0.00     0.049 A 
ATOM     65  H   UNL A   1      41.205  29.655  32.859  1.00  0.00     0.167 HD
ATOM     66  C   UNL A   1      38.797  31.053  33.360  1.00  0.00     0.074 A 
ATOM     67  C   UNL A   1      37.495  31.652  33.157  1.00  0.00     0.031 C 
ATOM     68  C   UNL A   1      39.452  31.034  34.546  1.00  0.00     0.031 A 
BRANCH  55  69
ATOM     69  C   UNL A   1      44.887  28.111  34.364  1.00  0.00    -0.014 A 
ATOM     70  C   UNL A   1      44.894  26.887  35.052  1.00  0.00     0.009 A 
ATOM     71  C   UNL A   1      46.055  28.890  34.351  1.00  0.00     0.009 A 
ATOM     72  C   UNL A   1      46.037  26.469  35.738  1.00  0.00     0.001 A 
ATOM     73  C   UNL A   1      47.203  28.457  35.016  1.00  0.00     0.001 A 
ATOM     74  C   UNL A   1      47.191  27.252  35.716  1.00  0.00     0.000 A 
ENDBRANCH  55  69
BRANCH  56  75
ATOM     75  C   UNL A   1      36.927  30.910  29.051  1.00  0.00    -0.014 A 
ATOM     76  C   UNL A   1      36.777  32.229  28.594  1.00  0.00     0.009 A 
ATOM     77  C   UNL A   1      35.914  29.977  28.778  1.00  0.00     0.009 A 
ATOM     78  C   UNL A   1      35.625  32.609  27.901  1.00  0.00     0.001 A 
ATOM     79  C   UNL A   1      34.777  30.354  28.062  1.00  0.00     0.001 A 
ATOM     80  C   UNL A   1      34.629  31.671  27.631  1.00  0.00     0.000 A 
ENDBRANCH  56  75
BRANCH  68  81
ATOM     81  C   UNL A   1      38.790  31.712  35.712  1.00  0.00    -0.014 A 
ATOM     82  C   UNL A   1      38.786  33.109  35.839  1.00  0.00     0.009 A 
ATOM     83  C   UNL A   1      38.112  30.940  36.670  1.00  0.00     0.009 A 
ATOM     84  C   UNL A   1      38.139  33.718  36.916  1.00  0.00     0.001 A 
ATOM     85  C   UNL A   1      37.444  31.552  37.731  1.00  0.00     0.001 A 
ATOM     86  C   UNL A   1      37.464  32.940  37.857  1.00  0.00     0.000 A 
ENDBRANCH  68  81
ENDBRANCH  42  43
ENDBRANCH  35  37
ENDBRANCH  34  35
ENDBRANCH  33  34
ENDBRANCH  32  33
ENDBRANCH  31  32
ENDBRANCH   1  31
TORSDOF 17
ENDMDL
MODEL 3
REMARK VINA RESULT:     -10.4      4.795      9.951
REMARK SMILES CC1=C(C(=O)OCCOCCOC(=O)c2ccc(-c3c4nc(c(-c5ccccc5)c5ccc([nH]5)c(-c5ccccc5)c5nc(c(-c6ccccc6)c6ccc3[nH]6)C=C5)C=C4)cc2)N2C(=O)[C@H](NC(=O)c3c(Cl)c(C(F)(F)F)nn3C)[C@@H]2SC1
REMARK SMILES IDX 8 1 7 2 6 3 4 4 5 5 3 6 1 7 2 8 83 9 63 10 82 11 64 12 81 13
REMARK SMILES IDX 65 14 66 15 67 16 68 17 69 19 70 20 71 21 79 22 72 23 73 24
REMARK SMILES IDX 78 25 80 26 74 27 75 28 76 29 77 30 9 31 10 32 11 33 12 34
REMARK SMILES IDX 13 35 14 36 15 37 16 38 62 39 17 40 61 41 18 42 19 43 20 44
REMARK SMILES IDX 55 45 21 46 60 47 54 48 56 49 22 50 59 51 53 52 52 53 23 55
REMARK SMILES IDX 45 56 30 57 44 58 31 59 34 60 43 61 57 62 32 63 33 64 42 66
REMARK SMILES IDX 58 67 35 68 24 69 25 70 29 71 26 72 28 73 27 74 46 75 47 76
REMARK SMILES IDX 51 77 48 78 50 79 49 80 36 81 37 82 41 83 38 84 40 85 39 86
REMARK H PARENT 67 18 56 54 34 65
REMARK Flexibility Score: inf
ROOT
ATOM      1  C   UNL A   1      34.540  30.202  27.531  1.00  0.00     0.202 C 
ENDROOT
BRANCH   1   2
ATOM      2  C   UNL A   1      33.213  29.954  26.812  1.00  0.00     0.261 C 
BRANCH   2   3
ATOM      3  O   UNL A   1      33.129  28.570  26.443  1.00  0.00    -0.459 OA
BRANCH   3   4
ATOM      4  C   UNL A   1      31.885  28.037  26.500  1.00  0.00     0.355 C 
ATOM      5  O   UNL A   1      31.138  28.024  27.463  1.00  0.00    -0.244 OA
BRANCH   4   6
ATOM      6  C   UNL A   1      31.512  27.533  25.141  1.00  0.00     0.131 C 
ATOM      7  C   UNL A   1      30.605  29.783  24.434  1.00  0.00     0.043 C 
ATOM      8  C   UNL A   1      30.993  28.344  24.188  1.00  0.00    -0.032 C 
ATOM      9  C   UNL A   1      30.765  27.910  22.748  1.00  0.00     0.105 C 
ATOM     10  N   UNL A   1      31.751  26.219  24.884  1.00  0.00    -0.289 N 
ATOM     11  S   UNL A   1      31.731  26.442  22.258  1.00  0.00    -0.129 SA
ATOM     12  C   UNL A   1      32.252  25.144  25.521  1.00  0.00     0.253 C 
ATOM     13  C   UNL A   1      31.253  25.511  23.728  1.00  0.00     0.181 C 
ATOM     14  O   UNL A   1      32.634  24.955  26.653  1.00  0.00    -0.272 OA
ATOM     15  C   UNL A   1      32.140  24.310  24.186  1.00  0.00     0.206 C 
BRANCH  15  16
ATOM     16  N   UNL A   1      33.429  24.097  23.481  1.00  0.00    -0.336 N 
ATOM     17  C   UNL A   1      34.116  22.933  23.242  1.00  0.00     0.271 C 
ATOM     18  H   UNL A   1      33.855  24.913  23.132  1.00  0.00     0.164 HD
ATOM     19  O   UNL A   1      35.237  23.012  22.747  1.00  0.00    -0.267 OA
BRANCH  17  20
ATOM     20  C   UNL A   1      33.503  21.678  23.576  1.00  0.00     0.145 A 
ATOM     21  C   UNL A   1      33.882  20.767  24.544  1.00  0.00     0.104 A 
ATOM     22  N   UNL A   1      32.494  21.055  22.892  1.00  0.00    -0.261 N 
ATOM     23  Cl  UNL A   1      35.156  20.904  25.659  1.00  0.00    -0.079 Cl
ATOM     24  C   UNL A   1      32.982  19.678  24.439  1.00  0.00     0.185 A 
ATOM     25  N   UNL A   1      32.092  19.896  23.448  1.00  0.00    -0.166 NA
ATOM     26  C   UNL A   1      31.866  21.466  21.656  1.00  0.00     0.174 C 
BRANCH  24  27
ATOM     27  C   UNL A   1      32.987  18.434  25.280  1.00  0.00     0.436 C 
ATOM     28  F   UNL A   1      32.875  18.718  26.606  1.00  0.00    -0.164 F 
ATOM     29  F   UNL A   1      31.953  17.604  24.971  1.00  0.00    -0.164 F 
ATOM     30  F   UNL A   1      34.122  17.695  25.140  1.00  0.00    -0.164 F 
ENDBRANCH  24  27
ENDBRANCH  17  20
ENDBRANCH  15  16
ENDBRANCH   4   6
ENDBRANCH   3   4
ENDBRANCH   2   3
ENDBRANCH   1   2
BRANCH   1  31
ATOM     31  O   UNL A   1      34.869  31.572  27.768  1.00  0.00    -0.374 OA
BRANCH  31  32
ATOM     32  C   UNL A   1      34.148  32.264  28.786  1.00  0.00     0.202 C 
BRANCH  32  33
ATOM     33  C   UNL A   1      34.880  32.467  30.118  1.00  0.00     0.261 C 
BRANCH  33  34
ATOM     34  O   UNL A   1      36.256  32.048  30.074  1.00  0.00    -0.460 OA
BRANCH  34  35
ATOM     35  C   UNL A   1      36.535  30.956  30.830  1.00  0.00     0.338 C 
ATOM     36  O   UNL A   1      35.877  30.501  31.749  1.00  0.00    -0.246 OA
BRANCH  35  37
ATOM     37  C   UNL A   1      37.720  30.261  30.295  1.00  0.00     0.060 A 
ATOM     38  C   UNL A   1      38.652  29.761  31.213  1.00  0.00     0.016 A 
ATOM     39  C   UNL A   1      37.966  30.191  28.923  1.00  0.00     0.016 A 
ATOM     40  C   UNL A   1      39.854  29.218  30.763  1.00  0.00     0.010 A 
ATOM     41  C   UNL A   1      39.176  29.655  28.474  1.00  0.00     0.010 A 
ATOM     42  C   UNL A   1      40.138  29.194  29.391  1.00  0.00    -0.014 A 
BRANCH  42  43
ATOM     43  C   UNL A   1      41.490  28.808  28.922  1.00  0.00     0.031 A 
ATOM     44  C   UNL A   1      41.740  27.389  28.490  1.00  0.00     0.074 A 
ATOM     45  C   UNL A   1      42.485  29.710  28.876  1.00  0.00     0.049 A 
ATOM     46  N   UNL A   1      42.856  26.823  28.107  1.00  0.00    -0.248 NA
ATOM     47  C   UNL A   1      40.576  26.488  28.491  1.00  0.00     0.031 C 
ATOM     48  C   UNL A   1      42.362  31.126  29.218  1.00  0.00     0.029 A 
ATOM     49  N   UNL A   1      43.803  29.562  28.523  1.00  0.00    -0.354 N 
ATOM     50  C   UNL A   1      42.532  25.502  27.830  1.00  0.00     0.074 A 
ATOM     51  C   UNL A   1      41.122  25.341  28.113  1.00  0.00     0.031 C 
ATOM     52  C   UNL A   1      43.560  31.716  29.070  1.00  0.00     0.029 A 
ATOM     53  C   UNL A   1      44.540  30.713  28.657  1.00  0.00     0.049 A 
ATOM     54  H   UNL A   1      44.185  28.711  28.207  1.00  0.00     0.167 HD
ATOM     55  C   UNL A   1      43.335  24.508  27.378  1.00  0.00     0.031 A 
ATOM     56  C   UNL A   1      45.859  30.927  28.489  1.00  0.00     0.031 A 
ATOM     57  C   UNL A   1      44.739  24.662  27.107  1.00  0.00     0.049 A 
ATOM     58  C   UNL A   1      46.748  29.787  28.070  1.00  0.00     0.074 A 
ATOM     59  C   UNL A   1      45.634  23.717  26.632  1.00  0.00     0.029 A 
ATOM     60  N   UNL A   1      45.455  25.833  27.294  1.00  0.00    -0.354 N 
ATOM     61  N   UNL A   1      46.427  28.545  27.795  1.00  0.00    -0.248 NA
ATOM     62  C   UNL A   1      48.183  30.081  27.936  1.00  0.00     0.031 C 
ATOM     63  C   UNL A   1      46.902  24.305  26.583  1.00  0.00     0.029 A 
ATOM     64  C   UNL A   1      46.786  25.629  26.973  1.00  0.00     0.049 A 
ATOM     65  H   UNL A   1      45.074  26.684  27.608  1.00  0.00     0.167 HD
ATOM     66  C   UNL A   1      47.612  27.920  27.428  1.00  0.00     0.074 A 
ATOM     67  C   UNL A   1      48.657  28.919  27.506  1.00  0.00     0.031 C 
ATOM     68  C   UNL A   1      47.814  26.633  27.055  1.00  0.00     0.031 A 
BRANCH  55  69
ATOM     69  C   UNL A   1      42.716  23.154  27.182  1.00  0.00    -0.014 A 
ATOM     70  C   UNL A   1      42.622  22.234  28.239  1.00  0.00     0.009 A 
ATOM     71  C   UNL A   1      42.188  22.805  25.929  1.00  0.00     0.009 A 
ATOM     72  C   UNL A   1      42.040  20.981  28.035  1.00  0.00     0.001 A 
ATOM     73  C   UNL A   1      41.584  21.563  25.735  1.00  0.00     0.001 A 
ATOM     74  C   UNL A   1      41.518  20.648  26.785  1.00  0.00     0.000 A 
ENDBRANCH  55  69
BRANCH  56  75
ATOM     75  C   UNL A   1      46.432  32.275  28.741  1.00  0.00    -0.014 A 
ATOM     76  C   UNL A   1      46.883  32.632  30.021  1.00  0.00     0.009 A 
ATOM     77  C   UNL A   1      46.515  33.217  27.704  1.00  0.00     0.009 A 
ATOM     78  C   UNL A   1      47.385  33.913  30.261  1.00  0.00     0.001 A 
ATOM     79  C   UNL A   1      47.042  34.488  27.941  1.00  0.00     0.001 A 
ATOM     80  C   UNL A   1      47.469  34.838  29.221  1.00  0.00     0.000 A 
ENDBRANCH  56  75
BRANCH  68  81
ATOM     81  C   UNL A   1      49.211  26.237  26.665  1.00  0.00    -0.014 A 
ATOM     82  C   UNL A   1      49.697  26.458  25.368  1.00  0.00     0.009 A 
ATOM     83  C   UNL A   1      50.070  25.685  27.629  1.00  0.00     0.009 A 
ATOM     84  C   UNL A   1      51.009  26.109  25.037  1.00  0.00     0.001 A 
ATOM     85  C   UNL A   1      51.387  25.361  27.303  1.00  0.00     0.001 A 
ATOM     86  C   UNL A   1      51.853  25.566  26.006  1.00  0.00     0.000 A 
ENDBRANCH  68  81
ENDBRANCH  42  43
ENDBRANCH  35  37
ENDBRANCH  34  35
ENDBRANCH  33  34
ENDBRANCH  32  33
ENDBRANCH  31  32
ENDBRANCH   1  31
TORSDOF 17
ENDMDL
