MODEL 1
REMARK VINA RESULT:      -9.8      0.000      0.000
REMARK SMILES O=C(CCc1cccnc1)Nc1ccsc1C(=O)OCCOCCOC(=O)c1ccc(-c2c3nc(c(-c4ccccc4)c4ccc([nH]4)c(-c4ccccc4)c4nc(c(-c5ccccc5)c5ccc2[nH]5)C=C4)C=C3)cc1
REMARK SMILES IDX 21 1 20 2 19 3 17 4 18 5 16 6 12 7 13 8 14 9 15 10 11 11
REMARK SMILES IDX 1 12 2 13 3 15 4 16 5 17 6 18 10 19 7 20 9 21 8 22 22 23
REMARK SMILES IDX 23 24 24 25 25 26 26 27 27 28 28 29 29 30 75 31 30 32 74 33
REMARK SMILES IDX 31 34 32 35 33 36 68 37 34 38 73 39 67 40 69 41 35 42 72 43
REMARK SMILES IDX 66 44 65 45 36 47 58 48 43 49 57 50 44 51 47 52 56 53 70 54
REMARK SMILES IDX 45 55 46 56 55 58 71 59 48 60 37 61 38 62 42 63 39 64 41 65
REMARK SMILES IDX 40 66 59 67 60 68 64 69 61 70 63 71 62 72 49 73 50 74 54 75
REMARK SMILES IDX 51 76 53 77 52 78
REMARK H PARENT 11 14 69 46 47 57
REMARK Flexibility Score: inf
ROOT
ATOM      1  C   UNL A   1      37.669  23.131  25.921  1.00  0.00     0.202 C 
ENDROOT
BRANCH   1   2
ATOM      2  C   UNL A   1      36.434  22.273  25.636  1.00  0.00     0.261 C 
BRANCH   2   3
ATOM      3  O   UNL A   1      35.271  22.793  26.310  1.00  0.00    -0.459 OA
BRANCH   3   4
ATOM      4  C   UNL A   1      34.310  21.857  26.582  1.00  0.00     0.350 C 
ATOM      5  O   UNL A   1      34.056  21.454  27.713  1.00  0.00    -0.245 OA
BRANCH   4   6
ATOM      6  C   UNL A   1      33.578  21.507  25.376  1.00  0.00     0.136 A 
ATOM      7  C   UNL A   1      32.909  22.273  24.425  1.00  0.00     0.066 A 
ATOM      8  C   UNL A   1      32.304  21.437  23.428  1.00  0.00     0.039 A 
ATOM      9  C   UNL A   1      32.528  20.097  23.634  1.00  0.00     0.068 A 
ATOM     10  S   UNL A   1      33.468  19.823  25.020  1.00  0.00    -0.135 S 
BRANCH   7  11
ATOM     11  N   UNL A   1      32.902  23.670  24.431  1.00  0.00    -0.325 N 
ATOM     12  O   UNL A   1      34.624  24.084  22.930  1.00  0.00    -0.275 OA
ATOM     13  C   UNL A   1      33.829  24.468  23.788  1.00  0.00     0.224 C 
ATOM     14  H   UNL A   1      32.183  24.120  24.929  1.00  0.00     0.169 HD
BRANCH  13  15
ATOM     15  C   UNL A   1      33.932  25.905  24.285  1.00  0.00     0.105 C 
BRANCH  15  16
ATOM     16  C   UNL A   1      33.841  26.117  25.789  1.00  0.00     0.047 C 
BRANCH  16  17
ATOM     17  C   UNL A   1      33.389  27.460  26.302  1.00  0.00    -0.029 A 
ATOM     18  C   UNL A   1      34.346  28.464  26.483  1.00  0.00     0.007 A 
ATOM     19  C   UNL A   1      32.080  27.781  26.645  1.00  0.00     0.114 A 
ATOM     20  C   UNL A   1      33.984  29.708  26.982  1.00  0.00     0.020 A 
ATOM     21  N   UNL A   1      31.691  28.996  27.089  1.00  0.00    -0.264 NA
ATOM     22  C   UNL A   1      32.649  29.930  27.256  1.00  0.00     0.111 A 
ENDBRANCH  16  17
ENDBRANCH  15  16
ENDBRANCH  13  15
ENDBRANCH   7  11
ENDBRANCH   4   6
ENDBRANCH   3   4
ENDBRANCH   2   3
ENDBRANCH   1   2
BRANCH   1  23
ATOM     23  O   UNL A   1      38.901  22.414  25.998  1.00  0.00    -0.374 OA
BRANCH  23  24
ATOM     24  C   UNL A   1      38.911  21.073  25.514  1.00  0.00     0.202 C 
BRANCH  24  25
ATOM     25  C   UNL A   1      39.740  20.072  26.327  1.00  0.00     0.261 C 
BRANCH  25  26
ATOM     26  O   UNL A   1      40.622  19.274  25.515  1.00  0.00    -0.460 OA
BRANCH  26  27
ATOM     27  C   UNL A   1      41.874  19.113  26.012  1.00  0.00     0.338 C 
ATOM     28  O   UNL A   1      42.507  18.076  26.108  1.00  0.00    -0.246 OA
BRANCH  27  29
ATOM     29  C   UNL A   1      42.456  20.431  26.334  1.00  0.00     0.060 A 
ATOM     30  C   UNL A   1      42.350  20.909  27.649  1.00  0.00     0.016 A 
ATOM     31  C   UNL A   1      43.035  21.223  25.341  1.00  0.00     0.016 A 
ATOM     32  C   UNL A   1      42.808  22.190  27.970  1.00  0.00     0.010 A 
ATOM     33  C   UNL A   1      43.494  22.503  25.664  1.00  0.00     0.010 A 
ATOM     34  C   UNL A   1      43.361  23.003  26.972  1.00  0.00    -0.014 A 
BRANCH  34  35
ATOM     35  C   UNL A   1      43.622  24.444  27.211  1.00  0.00     0.031 A 
ATOM     36  C   UNL A   1      45.049  24.909  27.223  1.00  0.00     0.074 A 
ATOM     37  C   UNL A   1      42.631  25.313  27.476  1.00  0.00     0.049 A 
ATOM     38  N   UNL A   1      45.537  26.081  27.532  1.00  0.00    -0.248 NA
ATOM     39  C   UNL A   1      46.060  23.910  26.841  1.00  0.00     0.031 C 
ATOM     40  C   UNL A   1      41.204  25.013  27.444  1.00  0.00     0.029 A 
ATOM     41  N   UNL A   1      42.687  26.633  27.851  1.00  0.00    -0.354 N 
ATOM     42  C   UNL A   1      46.913  25.960  27.389  1.00  0.00     0.074 A 
ATOM     43  C   UNL A   1      47.182  24.593  26.999  1.00  0.00     0.031 C 
ATOM     44  C   UNL A   1      40.515  26.106  27.813  1.00  0.00     0.029 A 
ATOM     45  C   UNL A   1      41.456  27.177  28.131  1.00  0.00     0.049 A 
ATOM     46  H   UNL A   1      43.527  27.141  27.913  1.00  0.00     0.167 HD
ATOM     47  C   UNL A   1      47.869  26.903  27.559  1.00  0.00     0.031 A 
ATOM     48  C   UNL A   1      41.128  28.392  28.608  1.00  0.00     0.031 A 
ATOM     49  C   UNL A   1      47.610  28.251  27.978  1.00  0.00     0.049 A 
ATOM     50  C   UNL A   1      42.213  29.392  28.900  1.00  0.00     0.074 A 
ATOM     51  C   UNL A   1      48.510  29.284  28.171  1.00  0.00     0.029 A 
ATOM     52  N   UNL A   1      46.353  28.750  28.282  1.00  0.00    -0.354 N 
ATOM     53  N   UNL A   1      43.508  29.276  28.732  1.00  0.00    -0.248 NA
ATOM     54  C   UNL A   1      41.790  30.694  29.438  1.00  0.00     0.031 C 
ATOM     55  C   UNL A   1      47.801  30.396  28.638  1.00  0.00     0.029 A 
ATOM     56  C   UNL A   1      46.456  30.069  28.686  1.00  0.00     0.049 A 
ATOM     57  H   UNL A   1      45.512  28.242  28.221  1.00  0.00     0.167 HD
ATOM     58  C   UNL A   1      44.050  30.502  29.098  1.00  0.00     0.074 A 
ATOM     59  C   UNL A   1      42.944  31.344  29.509  1.00  0.00     0.031 C 
ATOM     60  C   UNL A   1      45.345  30.899  29.078  1.00  0.00     0.031 A 
BRANCH  47  61
ATOM     61  C   UNL A   1      49.287  26.469  27.328  1.00  0.00    -0.014 A 
ATOM     62  C   UNL A   1      50.086  26.003  28.385  1.00  0.00     0.009 A 
ATOM     63  C   UNL A   1      49.841  26.557  26.042  1.00  0.00     0.009 A 
ATOM     64  C   UNL A   1      51.426  25.683  28.168  1.00  0.00     0.001 A 
ATOM     65  C   UNL A   1      51.175  26.208  25.823  1.00  0.00     0.001 A 
ATOM     66  C   UNL A   1      51.969  25.785  26.888  1.00  0.00     0.000 A 
ENDBRANCH  47  61
BRANCH  48  67
ATOM     67  C   UNL A   1      39.701  28.741  28.833  1.00  0.00    -0.014 A 
ATOM     68  C   UNL A   1      39.096  28.474  30.070  1.00  0.00     0.009 A 
ATOM     69  C   UNL A   1      38.939  29.338  27.817  1.00  0.00     0.009 A 
ATOM     70  C   UNL A   1      37.750  28.786  30.281  1.00  0.00     0.001 A 
ATOM     71  C   UNL A   1      37.600  29.668  28.038  1.00  0.00     0.001 A 
ATOM     72  C   UNL A   1      37.006  29.386  29.268  1.00  0.00     0.000 A 
ENDBRANCH  48  67
BRANCH  60  73
ATOM     73  C   UNL A   1      45.643  32.324  29.448  1.00  0.00    -0.014 A 
ATOM     74  C   UNL A   1      45.977  32.685  30.761  1.00  0.00     0.009 A 
ATOM     75  C   UNL A   1      45.659  33.304  28.443  1.00  0.00     0.009 A 
ATOM     76  C   UNL A   1      46.307  34.008  31.062  1.00  0.00     0.001 A 
ATOM     77  C   UNL A   1      46.013  34.619  28.743  1.00  0.00     0.001 A 
ATOM     78  C   UNL A   1      46.332  34.972  30.053  1.00  0.00     0.000 A 
ENDBRANCH  60  73
ENDBRANCH  34  35
ENDBRANCH  27  29
ENDBRANCH  26  27
ENDBRANCH  25  26
ENDBRANCH  24  25
ENDBRANCH  23  24
ENDBRANCH   1  23
TORSDOF 18
ENDMDL
MODEL 2
REMARK VINA RESULT:      -9.6      2.256      4.325
REMARK SMILES O=C(CCc1cccnc1)Nc1ccsc1C(=O)OCCOCCOC(=O)c1ccc(-c2c3nc(c(-c4ccccc4)c4ccc([nH]4)c(-c4ccccc4)c4nc(c(-c5ccccc5)c5ccc2[nH]5)C=C4)C=C3)cc1
REMARK SMILES IDX 21 1 20 2 19 3 17 4 18 5 16 6 12 7 13 8 14 9 15 10 11 11
REMARK SMILES IDX 1 12 2 13 3 15 4 16 5 17 6 18 10 19 7 20 9 21 8 22 22 23
REMARK SMILES IDX 23 24 24 25 25 26 26 27 27 28 28 29 29 30 75 31 30 32 74 33
REMARK SMILES IDX 31 34 32 35 33 36 68 37 34 38 73 39 67 40 69 41 35 42 72 43
REMARK SMILES IDX 66 44 65 45 36 47 58 48 43 49 57 50 44 51 47 52 56 53 70 54
REMARK SMILES IDX 45 55 46 56 55 58 71 59 48 60 37 61 38 62 42 63 39 64 41 65
REMARK SMILES IDX 40 66 59 67 60 68 64 69 61 70 63 71 62 72 49 73 50 74 54 75
REMARK SMILES IDX 51 76 53 77 52 78
REMARK H PARENT 11 14 69 46 47 57
REMARK Flexibility Score: inf
ROOT
ATOM      1  C   UNL A   1      36.079  22.723  24.072  1.00  0.00     0.202 C 
ENDROOT
BRANCH   1   2
ATOM      2  C   UNL A   1      35.754  23.795  25.115  1.00  0.00     0.261 C 
BRANCH   2   3
ATOM      3  O   UNL A   1      34.342  23.828  25.404  1.00  0.00    -0.459 OA
BRANCH   3   4
ATOM      4  C   UNL A   1      33.783  25.077  25.344  1.00  0.00     0.350 C 
ATOM      5  O   UNL A   1      34.393  26.107  25.610  1.00  0.00    -0.245 OA
BRANCH   4   6
ATOM      6  C   UNL A   1      32.428  25.008  24.822  1.00  0.00     0.136 A 
ATOM      7  C   UNL A   1      31.641  23.947  24.381  1.00  0.00     0.066 A 
ATOM      8  C   UNL A   1      30.366  24.413  23.917  1.00  0.00     0.039 A 
ATOM      9  C   UNL A   1      30.215  25.774  24.020  1.00  0.00     0.068 A 
ATOM     10  S   UNL A   1      31.595  26.512  24.677  1.00  0.00    -0.135 S 
BRANCH   7  11
ATOM     11  N   UNL A   1      32.042  22.611  24.457  1.00  0.00    -0.325 N 
ATOM     12  O   UNL A   1      32.890  22.324  22.316  1.00  0.00    -0.275 OA
ATOM     13  C   UNL A   1      32.518  21.865  23.395  1.00  0.00     0.224 C 
ATOM     14  H   UNL A   1      31.982  22.166  25.334  1.00  0.00     0.169 HD
BRANCH  13  15
ATOM     15  C   UNL A   1      32.454  20.352  23.560  1.00  0.00     0.105 C 
BRANCH  15  16
ATOM     16  C   UNL A   1      33.550  19.707  24.397  1.00  0.00     0.047 C 
BRANCH  16  17
ATOM     17  C   UNL A   1      33.519  18.215  24.600  1.00  0.00    -0.029 A 
ATOM     18  C   UNL A   1      32.626  17.685  25.537  1.00  0.00     0.007 A 
ATOM     19  C   UNL A   1      34.341  17.306  23.943  1.00  0.00     0.114 A 
ATOM     20  C   UNL A   1      32.582  16.319  25.782  1.00  0.00     0.020 A 
ATOM     21  N   UNL A   1      34.288  15.968  24.126  1.00  0.00    -0.264 NA
ATOM     22  C   UNL A   1      33.418  15.503  25.046  1.00  0.00     0.111 A 
ENDBRANCH  16  17
ENDBRANCH  15  16
ENDBRANCH  13  15
ENDBRANCH   7  11
ENDBRANCH   4   6
ENDBRANCH   3   4
ENDBRANCH   2   3
ENDBRANCH   1   2
BRANCH   1  23
ATOM     23  O   UNL A   1      37.379  22.144  24.183  1.00  0.00    -0.374 OA
BRANCH  23  24
ATOM     24  C   UNL A   1      37.566  21.136  25.174  1.00  0.00     0.202 C 
BRANCH  24  25
ATOM     25  C   UNL A   1      38.749  20.186  24.951  1.00  0.00     0.261 C 
BRANCH  25  26
ATOM     26  O   UNL A   1      39.391  19.784  26.177  1.00  0.00    -0.460 OA
BRANCH  26  27
ATOM     27  C   UNL A   1      40.745  19.717  26.122  1.00  0.00     0.338 C 
ATOM     28  O   UNL A   1      41.426  18.820  25.657  1.00  0.00    -0.246 OA
BRANCH  27  29
ATOM     29  C   UNL A   1      41.327  20.981  26.615  1.00  0.00     0.060 A 
ATOM     30  C   UNL A   1      41.157  21.317  27.967  1.00  0.00     0.016 A 
ATOM     31  C   UNL A   1      41.971  21.863  25.746  1.00  0.00     0.016 A 
ATOM     32  C   UNL A   1      41.616  22.547  28.449  1.00  0.00     0.010 A 
ATOM     33  C   UNL A   1      42.430  23.092  26.229  1.00  0.00     0.010 A 
ATOM     34  C   UNL A   1      42.234  23.451  27.575  1.00  0.00    -0.014 A 
BRANCH  34  35
ATOM     35  C   UNL A   1      42.502  24.852  27.982  1.00  0.00     0.031 A 
ATOM     36  C   UNL A   1      43.904  25.214  28.379  1.00  0.00     0.074 A 
ATOM     37  C   UNL A   1      41.523  25.770  28.064  1.00  0.00     0.049 A 
ATOM     38  N   UNL A   1      44.360  26.328  28.888  1.00  0.00    -0.248 NA
ATOM     39  C   UNL A   1      44.924  24.173  28.179  1.00  0.00     0.031 C 
ATOM     40  C   UNL A   1      40.135  25.573  27.660  1.00  0.00     0.029 A 
ATOM     41  N   UNL A   1      41.553  27.056  28.542  1.00  0.00    -0.354 N 
ATOM     42  C   UNL A   1      45.719  26.120  29.077  1.00  0.00     0.074 A 
ATOM     43  C   UNL A   1      46.006  24.765  28.660  1.00  0.00     0.031 C 
ATOM     44  C   UNL A   1      39.434  26.687  27.933  1.00  0.00     0.029 A 
ATOM     45  C   UNL A   1      40.321  27.667  28.554  1.00  0.00     0.049 A 
ATOM     46  H   UNL A   1      42.377  27.500  28.847  1.00  0.00     0.167 HD
ATOM     47  C   UNL A   1      46.652  26.981  29.549  1.00  0.00     0.031 A 
ATOM     48  C   UNL A   1      39.949  28.870  29.030  1.00  0.00     0.031 A 
ATOM     49  C   UNL A   1      46.367  28.315  29.995  1.00  0.00     0.049 A 
ATOM     50  C   UNL A   1      40.978  29.771  29.656  1.00  0.00     0.074 A 
ATOM     51  C   UNL A   1      47.244  29.268  30.483  1.00  0.00     0.029 A 
ATOM     52  N   UNL A   1      45.102  28.881  30.021  1.00  0.00    -0.354 N 
ATOM     53  N   UNL A   1      42.266  29.575  29.801  1.00  0.00    -0.248 NA
ATOM     54  C   UNL A   1      40.503  31.063  30.174  1.00  0.00     0.031 C 
ATOM     55  C   UNL A   1      46.500  30.396  30.848  1.00  0.00     0.029 A 
ATOM     56  C   UNL A   1      45.169  30.162  30.540  1.00  0.00     0.049 A 
ATOM     57  H   UNL A   1      44.277  28.437  29.716  1.00  0.00     0.167 HD
ATOM     58  C   UNL A   1      42.763  30.735  30.383  1.00  0.00     0.074 A 
ATOM     59  C   UNL A   1      41.636  31.625  30.576  1.00  0.00     0.031 C 
ATOM     60  C   UNL A   1      44.041  31.041  30.712  1.00  0.00     0.031 A 
BRANCH  47  61
ATOM     61  C   UNL A   1      48.058  26.464  29.638  1.00  0.00    -0.014 A 
ATOM     62  C   UNL A   1      48.947  26.589  28.558  1.00  0.00     0.009 A 
ATOM     63  C   UNL A   1      48.489  25.818  30.806  1.00  0.00     0.009 A 
ATOM     64  C   UNL A   1      50.223  26.030  28.627  1.00  0.00     0.001 A 
ATOM     65  C   UNL A   1      49.777  25.285  30.882  1.00  0.00     0.001 A 
ATOM     66  C   UNL A   1      50.637  25.379  29.789  1.00  0.00     0.000 A 
ENDBRANCH  47  61
BRANCH  48  67
ATOM     67  C   UNL A   1      38.531  29.303  28.926  1.00  0.00    -0.014 A 
ATOM     68  C   UNL A   1      37.644  29.076  29.989  1.00  0.00     0.009 A 
ATOM     69  C   UNL A   1      38.058  29.941  27.768  1.00  0.00     0.009 A 
ATOM     70  C   UNL A   1      36.306  29.468  29.888  1.00  0.00     0.001 A 
ATOM     71  C   UNL A   1      36.726  30.350  27.681  1.00  0.00     0.001 A 
ATOM     72  C   UNL A   1      35.850  30.108  28.738  1.00  0.00     0.000 A 
ENDBRANCH  48  67
BRANCH  60  73
ATOM     73  C   UNL A   1      44.312  32.415  31.253  1.00  0.00    -0.014 A 
ATOM     74  C   UNL A   1      44.343  32.666  32.632  1.00  0.00     0.009 A 
ATOM     75  C   UNL A   1      44.612  33.457  30.361  1.00  0.00     0.009 A 
ATOM     76  C   UNL A   1      44.657  33.942  33.107  1.00  0.00     0.001 A 
ATOM     77  C   UNL A   1      44.948  34.723  30.839  1.00  0.00     0.001 A 
ATOM     78  C   UNL A   1      44.965  34.967  32.211  1.00  0.00     0.000 A 
ENDBRANCH  60  73
ENDBRANCH  34  35
ENDBRANCH  27  29
ENDBRANCH  26  27
ENDBRANCH  25  26
ENDBRANCH  24  25
ENDBRANCH  23  24
ENDBRANCH   1  23
TORSDOF 18
ENDMDL
MODEL 3
REMARK VINA RESULT:      -9.6      4.731      8.740
REMARK SMILES O=C(CCc1cccnc1)Nc1ccsc1C(=O)OCCOCCOC(=O)c1ccc(-c2c3nc(c(-c4ccccc4)c4ccc([nH]4)c(-c4ccccc4)c4nc(c(-c5ccccc5)c5ccc2[nH]5)C=C4)C=C3)cc1
REMARK SMILES IDX 21 1 20 2 19 3 17 4 18 5 16 6 12 7 13 8 14 9 15 10 11 11
REMARK SMILES IDX 1 12 2 13 3 15 4 16 5 17 6 18 10 19 7 20 9 21 8 22 22 23
REMARK SMILES IDX 23 24 24 25 25 26 26 27 27 28 28 29 29 30 75 31 30 32 74 33
REMARK SMILES IDX 31 34 32 35 33 36 68 37 34 38 73 39 67 40 69 41 35 42 72 43
REMARK SMILES IDX 66 44 65 45 36 47 58 48 43 49 57 50 44 51 47 52 56 53 70 54
REMARK SMILES IDX 45 55 46 56 55 58 71 59 48 60 37 61 38 62 42 63 39 64 41 65
REMARK SMILES IDX 40 66 59 67 60 68 64 69 61 70 63 71 62 72 49 73 50 74 54 75
REMARK SMILES IDX 51 76 53 77 52 78
REMARK H PARENT 11 14 69 46 47 57
REMARK Flexibility Score: inf
ROOT
ATOM      1  C   UNL A   1      31.663  27.806  26.735  1.00  0.00     0.202 C 
ENDROOT
BRANCH   1   2
ATOM      2  C   UNL A   1      32.219  26.496  26.171  1.00  0.00     0.261 C 
BRANCH   2   3
ATOM      3  O   UNL A   1      31.160  25.645  25.689  1.00  0.00    -0.459 OA
BRANCH   3   4
ATOM      4  C   UNL A   1      31.244  24.346  26.112  1.00  0.00     0.350 C 
ATOM      5  O   UNL A   1      30.985  23.986  27.256  1.00  0.00    -0.245 OA
BRANCH   4   6
ATOM      6  C   UNL A   1      31.566  23.465  25.001  1.00  0.00     0.136 A 
ATOM      7  C   UNL A   1      31.382  23.577  23.626  1.00  0.00     0.066 A 
ATOM      8  C   UNL A   1      31.843  22.399  22.949  1.00  0.00     0.039 A 
ATOM      9  C   UNL A   1      32.358  21.451  23.800  1.00  0.00     0.068 A 
ATOM     10  S   UNL A   1      32.300  21.960  25.418  1.00  0.00    -0.135 S 
BRANCH   7  11
ATOM     11  N   UNL A   1      30.877  24.725  23.010  1.00  0.00    -0.325 N 
ATOM     12  O   UNL A   1      32.833  25.594  22.114  1.00  0.00    -0.275 OA
ATOM     13  C   UNL A   1      31.644  25.706  22.412  1.00  0.00     0.224 C 
ATOM     14  H   UNL A   1      29.899  24.844  23.001  1.00  0.00     0.169 HD
BRANCH  13  15
ATOM     15  C   UNL A   1      30.971  27.060  22.226  1.00  0.00     0.105 C 
BRANCH  15  16
ATOM     16  C   UNL A   1      29.756  27.347  23.097  1.00  0.00     0.047 C 
BRANCH  16  17
ATOM     17  C   UNL A   1      29.289  28.772  23.238  1.00  0.00    -0.029 A 
ATOM     18  C   UNL A   1      28.014  29.108  22.771  1.00  0.00     0.007 A 
ATOM     19  C   UNL A   1      30.045  29.807  23.777  1.00  0.00     0.114 A 
ATOM     20  C   UNL A   1      27.550  30.414  22.851  1.00  0.00     0.020 A 
ATOM     21  N   UNL A   1      29.603  31.077  23.910  1.00  0.00    -0.264 NA
ATOM     22  C   UNL A   1      28.371  31.356  23.438  1.00  0.00     0.111 A 
ENDBRANCH  16  17
ENDBRANCH  15  16
ENDBRANCH  13  15
ENDBRANCH   7  11
ENDBRANCH   4   6
ENDBRANCH   3   4
ENDBRANCH   2   3
ENDBRANCH   1   2
BRANCH   1  23
ATOM     23  O   UNL A   1      32.609  28.617  27.430  1.00  0.00    -0.374 OA
BRANCH  23  24
ATOM     24  C   UNL A   1      33.063  29.801  26.779  1.00  0.00     0.202 C 
BRANCH  24  25
ATOM     25  C   UNL A   1      32.360  31.102  27.185  1.00  0.00     0.261 C 
BRANCH  25  26
ATOM     26  O   UNL A   1      33.087  32.284  26.796  1.00  0.00    -0.460 OA
BRANCH  26  27
ATOM     27  C   UNL A   1      33.191  33.238  27.755  1.00  0.00     0.338 C 
ATOM     28  O   UNL A   1      32.354  34.064  28.076  1.00  0.00    -0.246 OA
BRANCH  27  29
ATOM     29  C   UNL A   1      34.466  33.075  28.483  1.00  0.00     0.060 A 
ATOM     30  C   UNL A   1      35.648  33.525  27.877  1.00  0.00     0.016 A 
ATOM     31  C   UNL A   1      34.510  32.422  29.717  1.00  0.00     0.016 A 
ATOM     32  C   UNL A   1      36.882  33.307  28.496  1.00  0.00     0.010 A 
ATOM     33  C   UNL A   1      35.744  32.206  30.335  1.00  0.00     0.010 A 
ATOM     34  C   UNL A   1      36.938  32.624  29.719  1.00  0.00    -0.014 A 
BRANCH  34  35
ATOM     35  C   UNL A   1      38.228  32.151  30.277  1.00  0.00     0.031 A 
ATOM     36  C   UNL A   1      38.795  30.865  29.749  1.00  0.00     0.074 A 
ATOM     37  C   UNL A   1      38.855  32.801  31.273  1.00  0.00     0.049 A 
ATOM     38  N   UNL A   1      39.832  30.185  30.161  1.00  0.00    -0.248 NA
ATOM     39  C   UNL A   1      38.089  30.265  28.606  1.00  0.00     0.031 C 
ATOM     40  C   UNL A   1      38.449  34.082  31.841  1.00  0.00     0.029 A 
ATOM     41  N   UNL A   1      39.966  32.451  31.999  1.00  0.00    -0.354 N 
ATOM     42  C   UNL A   1      39.900  29.073  29.332  1.00  0.00     0.074 A 
ATOM     43  C   UNL A   1      38.781  29.153  28.419  1.00  0.00     0.031 C 
ATOM     44  C   UNL A   1      39.279  34.400  32.849  1.00  0.00     0.029 A 
ATOM     45  C   UNL A   1      40.261  33.332  33.012  1.00  0.00     0.049 A 
ATOM     46  H   UNL A   1      40.501  31.645  31.812  1.00  0.00     0.167 HD
ATOM     47  C   UNL A   1      40.814  28.075  29.325  1.00  0.00     0.031 A 
ATOM     48  C   UNL A   1      41.203  33.272  33.972  1.00  0.00     0.031 A 
ATOM     49  C   UNL A   1      41.907  27.973  30.250  1.00  0.00     0.049 A 
ATOM     50  C   UNL A   1      42.141  32.098  34.019  1.00  0.00     0.074 A 
ATOM     51  C   UNL A   1      42.893  27.004  30.320  1.00  0.00     0.029 A 
ATOM     52  N   UNL A   1      42.149  28.868  31.280  1.00  0.00    -0.354 N 
ATOM     53  N   UNL A   1      42.214  31.068  33.212  1.00  0.00    -0.248 NA
ATOM     54  C   UNL A   1      43.134  32.084  35.104  1.00  0.00     0.031 C 
ATOM     55  C   UNL A   1      43.705  27.290  31.423  1.00  0.00     0.029 A 
ATOM     56  C   UNL A   1      43.254  28.463  32.007  1.00  0.00     0.049 A 
ATOM     57  H   UNL A   1      41.614  29.674  31.467  1.00  0.00     0.167 HD
ATOM     58  C   UNL A   1      43.287  30.308  33.662  1.00  0.00     0.074 A 
ATOM     59  C   UNL A   1      43.828  30.989  34.821  1.00  0.00     0.031 C 
ATOM     60  C   UNL A   1      43.789  29.159  33.149  1.00  0.00     0.031 A 
BRANCH  47  61
ATOM     61  C   UNL A   1      40.623  26.997  28.297  1.00  0.00    -0.014 A 
ATOM     62  C   UNL A   1      39.884  25.839  28.588  1.00  0.00     0.009 A 
ATOM     63  C   UNL A   1      41.216  27.129  27.033  1.00  0.00     0.009 A 
ATOM     64  C   UNL A   1      39.787  24.811  27.650  1.00  0.00     0.001 A 
ATOM     65  C   UNL A   1      41.093  26.110  26.087  1.00  0.00     0.001 A 
ATOM     66  C   UNL A   1      40.391  24.947  26.401  1.00  0.00     0.000 A 
ENDBRANCH  47  61
BRANCH  48  67
ATOM     67  C   UNL A   1      41.315  34.368  34.969  1.00  0.00    -0.014 A 
ATOM     68  C   UNL A   1      42.149  35.468  34.717  1.00  0.00     0.009 A 
ATOM     69  C   UNL A   1      40.594  34.322  36.173  1.00  0.00     0.009 A 
ATOM     70  C   UNL A   1      42.269  36.494  35.659  1.00  0.00     0.001 A 
ATOM     71  C   UNL A   1      40.701  35.359  37.102  1.00  0.00     0.001 A 
ATOM     72  C   UNL A   1      41.543  36.441  36.846  1.00  0.00     0.000 A 
ENDBRANCH  48  67
BRANCH  60  73
ATOM     73  C   UNL A   1      45.023  28.591  33.789  1.00  0.00    -0.014 A 
ATOM     74  C   UNL A   1      44.944  27.632  34.809  1.00  0.00     0.009 A 
ATOM     75  C   UNL A   1      46.284  28.973  33.306  1.00  0.00     0.009 A 
ATOM     76  C   UNL A   1      46.110  27.078  35.343  1.00  0.00     0.001 A 
ATOM     77  C   UNL A   1      47.445  28.400  33.826  1.00  0.00     0.001 A 
ATOM     78  C   UNL A   1      47.358  27.457  34.847  1.00  0.00     0.000 A 
ENDBRANCH  60  73
ENDBRANCH  34  35
ENDBRANCH  27  29
ENDBRANCH  26  27
ENDBRANCH  25  26
ENDBRANCH  24  25
ENDBRANCH  23  24
ENDBRANCH   1  23
TORSDOF 18
ENDMDL
