MODEL 1
REMARK VINA RESULT:     -10.4      0.000      0.000
REMARK SMILES Cc1ccccc1OCCC(=O)N[C@@](C)(C(=O)OCCOCCOC(=O)c1ccc(-c2c3nc(c(-c4ccccc4)c4ccc([nH]4)c(-c4ccccc4)c4nc(c(-c5ccccc5)c5ccc2[nH]5)C=C4)C=C3)cc1)C1CC1
REMARK SMILES IDX 19 1 18 2 16 3 17 4 14 5 15 6 13 7 11 8 12 9 10 11 9 12 8 13
REMARK SMILES IDX 7 14 1 15 2 16 3 17 4 18 6 19 5 20 75 21 76 22 77 23 20 24
REMARK SMILES IDX 21 25 22 26 23 27 24 28 25 29 26 30 27 31 28 32 74 33 29 34
REMARK SMILES IDX 73 35 30 36 31 37 32 38 67 39 33 40 72 41 66 42 68 43 34 44
REMARK SMILES IDX 71 45 65 46 64 47 35 49 57 50 42 51 56 52 43 53 46 54 55 55
REMARK SMILES IDX 69 56 44 57 45 58 54 60 70 61 47 62 36 63 37 64 41 65 38 66
REMARK SMILES IDX 40 67 39 68 58 69 59 70 63 71 60 72 62 73 61 74 48 75 49 76
REMARK SMILES IDX 53 77 50 78 52 79 51 80
REMARK H PARENT 13 10 68 48 46 59
REMARK Flexibility Score: inf
ROOT
ATOM      1  C   UNL A   1      31.755  28.912  26.999  1.00  0.00     0.261 C 
ENDROOT
BRANCH   1   2
ATOM      2  O   UNL A   1      31.992  28.048  25.863  1.00  0.00    -0.461 OA
BRANCH   2   3
ATOM      3  C   UNL A   1      31.219  27.779  24.776  1.00  0.00     0.331 C 
ATOM      4  O   UNL A   1      30.661  28.714  24.196  1.00  0.00    -0.249 OA
BRANCH   3   5
ATOM      5  C   UNL A   1      30.811  26.310  24.467  1.00  0.00     0.138 C 
ATOM      6  C   UNL A   1      29.391  26.438  23.941  1.00  0.00     0.048 C 
BRANCH   5   7
ATOM      7  N   UNL A   1      30.821  25.480  25.691  1.00  0.00    -0.340 N 
ATOM      8  C   UNL A   1      31.703  24.686  26.336  1.00  0.00     0.224 C 
ATOM      9  O   UNL A   1      31.236  23.999  27.251  1.00  0.00    -0.275 OA
ATOM     10  H   UNL A   1      29.955  25.516  26.160  1.00  0.00     0.164 HD
BRANCH   8  11
ATOM     11  C   UNL A   1      33.194  24.758  26.121  1.00  0.00     0.141 C 
BRANCH  11  12
ATOM     12  C   UNL A   1      34.094  23.535  26.268  1.00  0.00     0.239 C 
BRANCH  12  13
ATOM     13  O   UNL A   1      34.352  22.709  25.150  1.00  0.00    -0.493 OA
BRANCH  13  14
ATOM     14  C   UNL A   1      33.561  21.675  24.747  1.00  0.00     0.122 A 
ATOM     15  C   UNL A   1      32.598  22.426  22.453  1.00  0.00     0.048 C 
ATOM     16  C   UNL A   1      32.930  21.430  23.525  1.00  0.00    -0.009 A 
ATOM     17  C   UNL A   1      32.445  20.121  23.280  1.00  0.00     0.007 A 
ATOM     18  C   UNL A   1      32.526  19.106  24.233  1.00  0.00     0.001 A 
ATOM     19  C   UNL A   1      33.510  20.678  25.747  1.00  0.00     0.047 A 
ATOM     20  C   UNL A   1      33.027  19.396  25.490  1.00  0.00     0.004 A 
ENDBRANCH  13  14
ENDBRANCH  12  13
ENDBRANCH  11  12
ENDBRANCH   8  11
ENDBRANCH   5   7
BRANCH   5  21
ATOM     21  C   UNL A   1      31.770  25.696  23.439  1.00  0.00     0.026 C 
ATOM     22  C   UNL A   1      31.794  26.127  21.976  1.00  0.00     0.007 C 
ATOM     23  C   UNL A   1      32.970  26.416  22.851  1.00  0.00     0.007 C 
ENDBRANCH   5  21
ENDBRANCH   3   5
ENDBRANCH   2   3
ENDBRANCH   1   2
BRANCH   1  24
ATOM     24  C   UNL A   1      32.257  30.340  26.779  1.00  0.00     0.202 C 
BRANCH  24  25
ATOM     25  O   UNL A   1      33.413  30.541  27.577  1.00  0.00    -0.374 OA
BRANCH  25  26
ATOM     26  C   UNL A   1      33.942  31.856  27.628  1.00  0.00     0.202 C 
BRANCH  26  27
ATOM     27  C   UNL A   1      32.886  32.970  27.646  1.00  0.00     0.261 C 
BRANCH  27  28
ATOM     28  O   UNL A   1      33.486  34.201  28.092  1.00  0.00    -0.460 OA
BRANCH  28  29
ATOM     29  C   UNL A   1      33.477  34.407  29.437  1.00  0.00     0.338 C 
ATOM     30  O   UNL A   1      32.583  34.955  30.065  1.00  0.00    -0.246 OA
BRANCH  29  31
ATOM     31  C   UNL A   1      34.833  34.134  29.989  1.00  0.00     0.060 A 
ATOM     32  C   UNL A   1      35.982  34.413  29.228  1.00  0.00     0.016 A 
ATOM     33  C   UNL A   1      34.942  33.338  31.122  1.00  0.00     0.016 A 
ATOM     34  C   UNL A   1      37.206  33.785  29.527  1.00  0.00     0.010 A 
ATOM     35  C   UNL A   1      36.128  32.676  31.361  1.00  0.00     0.010 A 
ATOM     36  C   UNL A   1      37.270  32.854  30.566  1.00  0.00    -0.014 A 
BRANCH  36  37
ATOM     37  C   UNL A   1      38.370  31.898  30.808  1.00  0.00     0.031 A 
ATOM     38  C   UNL A   1      38.336  30.504  30.276  1.00  0.00     0.074 A 
ATOM     39  C   UNL A   1      39.569  32.310  31.294  1.00  0.00     0.049 A 
ATOM     40  N   UNL A   1      39.106  29.557  30.715  1.00  0.00    -0.248 NA
ATOM     41  C   UNL A   1      37.445  30.042  29.215  1.00  0.00     0.031 C 
ATOM     42  C   UNL A   1      40.872  31.688  31.031  1.00  0.00     0.029 A 
ATOM     43  N   UNL A   1      39.909  33.398  32.074  1.00  0.00    -0.354 N 
ATOM     44  C   UNL A   1      39.085  28.548  29.784  1.00  0.00     0.074 A 
ATOM     45  C   UNL A   1      37.975  28.854  28.916  1.00  0.00     0.031 C 
ATOM     46  C   UNL A   1      41.822  32.292  31.758  1.00  0.00     0.029 A 
ATOM     47  C   UNL A   1      41.174  33.241  32.638  1.00  0.00     0.049 A 
ATOM     48  H   UNL A   1      39.332  34.183  32.213  1.00  0.00     0.167 HD
ATOM     49  C   UNL A   1      40.093  27.634  29.732  1.00  0.00     0.031 A 
ATOM     50  C   UNL A   1      41.401  33.341  33.979  1.00  0.00     0.031 A 
ATOM     51  C   UNL A   1      41.175  27.927  30.675  1.00  0.00     0.049 A 
ATOM     52  C   UNL A   1      41.798  32.011  34.579  1.00  0.00     0.074 A 
ATOM     53  C   UNL A   1      42.465  28.402  30.504  1.00  0.00     0.029 A 
ATOM     54  N   UNL A   1      40.912  27.999  32.039  1.00  0.00    -0.354 N 
ATOM     55  N   UNL A   1      41.714  30.898  33.907  1.00  0.00    -0.248 NA
ATOM     56  C   UNL A   1      42.302  31.785  35.931  1.00  0.00     0.031 C 
ATOM     57  C   UNL A   1      42.982  28.749  31.778  1.00  0.00     0.029 A 
ATOM     58  C   UNL A   1      42.012  28.475  32.726  1.00  0.00     0.049 A 
ATOM     59  H   UNL A   1      40.057  27.745  32.458  1.00  0.00     0.167 HD
ATOM     60  C   UNL A   1      42.083  29.840  34.679  1.00  0.00     0.074 A 
ATOM     61  C   UNL A   1      42.450  30.445  35.946  1.00  0.00     0.031 C 
ATOM     62  C   UNL A   1      42.012  28.572  34.184  1.00  0.00     0.031 A 
BRANCH  49  63
ATOM     63  C   UNL A   1      40.215  26.603  28.632  1.00  0.00    -0.014 A 
ATOM     64  C   UNL A   1      39.293  25.543  28.543  1.00  0.00     0.009 A 
ATOM     65  C   UNL A   1      41.209  26.635  27.638  1.00  0.00     0.009 A 
ATOM     66  C   UNL A   1      39.410  24.532  27.579  1.00  0.00     0.001 A 
ATOM     67  C   UNL A   1      41.362  25.604  26.701  1.00  0.00     0.001 A 
ATOM     68  C   UNL A   1      40.463  24.547  26.675  1.00  0.00     0.000 A 
ENDBRANCH  49  63
BRANCH  50  69
ATOM     69  C   UNL A   1      40.621  34.437  34.613  1.00  0.00    -0.014 A 
ATOM     70  C   UNL A   1      39.601  34.045  35.503  1.00  0.00     0.009 A 
ATOM     71  C   UNL A   1      41.191  35.712  34.768  1.00  0.00     0.009 A 
ATOM     72  C   UNL A   1      39.275  34.835  36.609  1.00  0.00     0.001 A 
ATOM     73  C   UNL A   1      40.874  36.492  35.888  1.00  0.00     0.001 A 
ATOM     74  C   UNL A   1      39.945  36.037  36.825  1.00  0.00     0.000 A 
ENDBRANCH  50  69
BRANCH  62  75
ATOM     75  C   UNL A   1      41.998  27.302  34.994  1.00  0.00    -0.014 A 
ATOM     76  C   UNL A   1      41.234  27.118  36.153  1.00  0.00     0.009 A 
ATOM     77  C   UNL A   1      42.664  26.161  34.490  1.00  0.00     0.009 A 
ATOM     78  C   UNL A   1      41.160  25.871  36.788  1.00  0.00     0.001 A 
ATOM     79  C   UNL A   1      42.552  24.905  35.090  1.00  0.00     0.001 A 
ATOM     80  C   UNL A   1      41.805  24.763  36.248  1.00  0.00     0.000 A 
ENDBRANCH  62  75
ENDBRANCH  36  37
ENDBRANCH  29  31
ENDBRANCH  28  29
ENDBRANCH  27  28
ENDBRANCH  26  27
ENDBRANCH  25  26
ENDBRANCH  24  25
ENDBRANCH   1  24
TORSDOF 20
ENDMDL
MODEL 2
REMARK VINA RESULT:     -10.3      4.389      9.108
REMARK SMILES Cc1ccccc1OCCC(=O)N[C@@](C)(C(=O)OCCOCCOC(=O)c1ccc(-c2c3nc(c(-c4ccccc4)c4ccc([nH]4)c(-c4ccccc4)c4nc(c(-c5ccccc5)c5ccc2[nH]5)C=C4)C=C3)cc1)C1CC1
REMARK SMILES IDX 19 1 18 2 16 3 17 4 14 5 15 6 13 7 11 8 12 9 10 11 9 12 8 13
REMARK SMILES IDX 7 14 1 15 2 16 3 17 4 18 6 19 5 20 75 21 76 22 77 23 20 24
REMARK SMILES IDX 21 25 22 26 23 27 24 28 25 29 26 30 27 31 28 32 74 33 29 34
REMARK SMILES IDX 73 35 30 36 31 37 32 38 67 39 33 40 72 41 66 42 68 43 34 44
REMARK SMILES IDX 71 45 65 46 64 47 35 49 57 50 42 51 56 52 43 53 46 54 55 55
REMARK SMILES IDX 69 56 44 57 45 58 54 60 70 61 47 62 36 63 37 64 41 65 38 66
REMARK SMILES IDX 40 67 39 68 58 69 59 70 63 71 60 72 62 73 61 74 48 75 49 76
REMARK SMILES IDX 53 77 50 78 52 79 51 80
REMARK H PARENT 13 10 68 48 46 59
REMARK Flexibility Score: inf
ROOT
ATOM      1  C   UNL A   1      36.229  23.668  24.654  1.00  0.00     0.261 C 
ENDROOT
BRANCH   1   2
ATOM      2  O   UNL A   1      35.359  24.071  25.737  1.00  0.00    -0.461 OA
BRANCH   2   3
ATOM      3  C   UNL A   1      34.008  24.232  25.778  1.00  0.00     0.331 C 
ATOM      4  O   UNL A   1      33.338  23.457  26.466  1.00  0.00    -0.249 OA
BRANCH   3   5
ATOM      5  C   UNL A   1      33.314  25.168  24.748  1.00  0.00     0.138 C 
ATOM      6  C   UNL A   1      31.842  25.070  25.115  1.00  0.00     0.048 C 
BRANCH   5   7
ATOM      7  N   UNL A   1      33.519  24.693  23.364  1.00  0.00    -0.340 N 
ATOM      8  C   UNL A   1      33.274  23.564  22.663  1.00  0.00     0.224 C 
ATOM      9  O   UNL A   1      33.793  23.504  21.543  1.00  0.00    -0.275 OA
ATOM     10  H   UNL A   1      33.948  25.381  22.804  1.00  0.00     0.164 HD
BRANCH   8  11
ATOM     11  C   UNL A   1      32.274  22.520  23.096  1.00  0.00     0.141 C 
BRANCH  11  12
ATOM     12  C   UNL A   1      32.067  21.225  22.317  1.00  0.00     0.239 C 
BRANCH  12  13
ATOM     13  O   UNL A   1      31.841  20.013  23.009  1.00  0.00    -0.493 OA
BRANCH  13  14
ATOM     14  C   UNL A   1      32.819  19.154  23.414  1.00  0.00     0.122 A 
ATOM     15  C   UNL A   1      33.806  20.230  25.563  1.00  0.00     0.048 C 
ATOM     16  C   UNL A   1      33.567  19.111  24.592  1.00  0.00    -0.009 A 
ATOM     17  C   UNL A   1      34.277  17.920  24.883  1.00  0.00     0.007 A 
ATOM     18  C   UNL A   1      34.297  16.832  24.011  1.00  0.00     0.001 A 
ATOM     19  C   UNL A   1      32.962  18.100  22.482  1.00  0.00     0.047 A 
ATOM     20  C   UNL A   1      33.667  16.937  22.783  1.00  0.00     0.004 A 
ENDBRANCH  13  14
ENDBRANCH  12  13
ENDBRANCH  11  12
ENDBRANCH   8  11
ENDBRANCH   5   7
BRANCH   5  21
ATOM     21  C   UNL A   1      33.861  26.596  24.873  1.00  0.00     0.026 C 
ATOM     22  C   UNL A   1      32.954  27.817  24.994  1.00  0.00     0.007 C 
ATOM     23  C   UNL A   1      33.817  27.420  26.147  1.00  0.00     0.007 C 
ENDBRANCH   5  21
ENDBRANCH   3   5
ENDBRANCH   2   3
ENDBRANCH   1   2
BRANCH   1  24
ATOM     24  C   UNL A   1      36.732  22.230  24.796  1.00  0.00     0.202 C 
BRANCH  24  25
ATOM     25  O   UNL A   1      38.144  22.256  24.935  1.00  0.00    -0.374 OA
BRANCH  25  26
ATOM     26  C   UNL A   1      38.702  21.498  25.995  1.00  0.00     0.202 C 
BRANCH  26  27
ATOM     27  C   UNL A   1      39.386  20.195  25.558  1.00  0.00     0.261 C 
BRANCH  27  28
ATOM     28  O   UNL A   1      40.474  19.893  26.453  1.00  0.00    -0.460 OA
BRANCH  28  29
ATOM     29  C   UNL A   1      41.723  20.044  25.936  1.00  0.00     0.338 C 
ATOM     30  O   UNL A   1      42.309  19.225  25.245  1.00  0.00    -0.246 OA
BRANCH  29  31
ATOM     31  C   UNL A   1      42.382  21.220  26.570  1.00  0.00     0.060 A 
ATOM     32  C   UNL A   1      42.389  21.364  27.969  1.00  0.00     0.016 A 
ATOM     33  C   UNL A   1      42.722  22.304  25.771  1.00  0.00     0.016 A 
ATOM     34  C   UNL A   1      42.605  22.626  28.555  1.00  0.00     0.010 A 
ATOM     35  C   UNL A   1      42.861  23.546  26.354  1.00  0.00     0.010 A 
ATOM     36  C   UNL A   1      42.779  23.747  27.740  1.00  0.00    -0.014 A 
BRANCH  36  37
ATOM     37  C   UNL A   1      42.708  25.157  28.176  1.00  0.00     0.031 A 
ATOM     38  C   UNL A   1      41.494  25.993  27.947  1.00  0.00     0.074 A 
ATOM     39  C   UNL A   1      43.626  25.679  29.029  1.00  0.00     0.049 A 
ATOM     40  N   UNL A   1      41.499  27.288  28.023  1.00  0.00    -0.248 NA
ATOM     41  C   UNL A   1      40.173  25.467  27.611  1.00  0.00     0.031 C 
ATOM     42  C   UNL A   1      43.400  26.763  29.991  1.00  0.00     0.029 A 
ATOM     43  N   UNL A   1      44.940  25.330  29.275  1.00  0.00    -0.354 N 
ATOM     44  C   UNL A   1      40.192  27.697  28.134  1.00  0.00     0.074 A 
ATOM     45  C   UNL A   1      39.402  26.542  27.784  1.00  0.00     0.031 C 
ATOM     46  C   UNL A   1      44.553  27.093  30.589  1.00  0.00     0.029 A 
ATOM     47  C   UNL A   1      45.615  26.346  29.950  1.00  0.00     0.049 A 
ATOM     48  H   UNL A   1      45.347  24.475  29.009  1.00  0.00     0.167 HD
ATOM     49  C   UNL A   1      39.890  28.917  28.657  1.00  0.00     0.031 A 
ATOM     50  C   UNL A   1      46.782  26.885  29.494  1.00  0.00     0.031 A 
ATOM     51  C   UNL A   1      41.071  29.632  29.147  1.00  0.00     0.049 A 
ATOM     52  C   UNL A   1      46.602  28.324  29.065  1.00  0.00     0.074 A 
ATOM     53  C   UNL A   1      41.533  29.917  30.423  1.00  0.00     0.029 A 
ATOM     54  N   UNL A   1      42.116  29.933  28.279  1.00  0.00    -0.354 N 
ATOM     55  N   UNL A   1      45.424  28.870  28.959  1.00  0.00    -0.248 NA
ATOM     56  C   UNL A   1      47.664  29.264  28.715  1.00  0.00     0.031 C 
ATOM     57  C   UNL A   1      42.861  30.403  30.314  1.00  0.00     0.029 A 
ATOM     58  C   UNL A   1      43.204  30.427  28.974  1.00  0.00     0.049 A 
ATOM     59  H   UNL A   1      42.084  29.811  27.303  1.00  0.00     0.167 HD
ATOM     60  C   UNL A   1      45.526  30.151  28.513  1.00  0.00     0.074 A 
ATOM     61  C   UNL A   1      46.955  30.360  28.374  1.00  0.00     0.031 C 
ATOM     62  C   UNL A   1      44.402  30.888  28.278  1.00  0.00     0.031 A 
BRANCH  49  63
ATOM     63  C   UNL A   1      38.476  29.358  28.958  1.00  0.00    -0.014 A 
ATOM     64  C   UNL A   1      37.957  29.247  30.261  1.00  0.00     0.009 A 
ATOM     65  C   UNL A   1      37.609  29.913  27.999  1.00  0.00     0.009 A 
ATOM     66  C   UNL A   1      36.630  29.584  30.568  1.00  0.00     0.001 A 
ATOM     67  C   UNL A   1      36.269  30.208  28.285  1.00  0.00     0.001 A 
ATOM     68  C   UNL A   1      35.777  30.037  29.571  1.00  0.00     0.000 A 
ENDBRANCH  49  63
BRANCH  50  69
ATOM     69  C   UNL A   1      47.701  25.865  28.922  1.00  0.00    -0.014 A 
ATOM     70  C   UNL A   1      47.714  25.752  27.518  1.00  0.00     0.009 A 
ATOM     71  C   UNL A   1      48.842  25.462  29.637  1.00  0.00     0.009 A 
ATOM     72  C   UNL A   1      48.885  25.401  26.841  1.00  0.00     0.001 A 
ATOM     73  C   UNL A   1      50.018  25.128  28.953  1.00  0.00     0.001 A 
ATOM     74  C   UNL A   1      50.049  25.134  27.558  1.00  0.00     0.000 A 
ENDBRANCH  50  69
BRANCH  62  75
ATOM     75  C   UNL A   1      44.317  32.132  27.434  1.00  0.00    -0.014 A 
ATOM     76  C   UNL A   1      44.467  32.150  26.043  1.00  0.00     0.009 A 
ATOM     77  C   UNL A   1      43.907  33.343  28.041  1.00  0.00     0.009 A 
ATOM     78  C   UNL A   1      44.244  33.318  25.300  1.00  0.00     0.001 A 
ATOM     79  C   UNL A   1      43.636  34.494  27.300  1.00  0.00     0.001 A 
ATOM     80  C   UNL A   1      43.815  34.484  25.926  1.00  0.00     0.000 A 
ENDBRANCH  62  75
ENDBRANCH  36  37
ENDBRANCH  29  31
ENDBRANCH  28  29
ENDBRANCH  27  28
ENDBRANCH  26  27
ENDBRANCH  25  26
ENDBRANCH  24  25
ENDBRANCH   1  24
TORSDOF 20
ENDMDL
MODEL 3
REMARK VINA RESULT:     -10.2      1.403      2.110
REMARK SMILES Cc1ccccc1OCCC(=O)N[C@@](C)(C(=O)OCCOCCOC(=O)c1ccc(-c2c3nc(c(-c4ccccc4)c4ccc([nH]4)c(-c4ccccc4)c4nc(c(-c5ccccc5)c5ccc2[nH]5)C=C4)C=C3)cc1)C1CC1
REMARK SMILES IDX 19 1 18 2 16 3 17 4 14 5 15 6 13 7 11 8 12 9 10 11 9 12 8 13
REMARK SMILES IDX 7 14 1 15 2 16 3 17 4 18 6 19 5 20 75 21 76 22 77 23 20 24
REMARK SMILES IDX 21 25 22 26 23 27 24 28 25 29 26 30 27 31 28 32 74 33 29 34
REMARK SMILES IDX 73 35 30 36 31 37 32 38 67 39 33 40 72 41 66 42 68 43 34 44
REMARK SMILES IDX 71 45 65 46 64 47 35 49 57 50 42 51 56 52 43 53 46 54 55 55
REMARK SMILES IDX 69 56 44 57 45 58 54 60 70 61 47 62 36 63 37 64 41 65 38 66
REMARK SMILES IDX 40 67 39 68 58 69 59 70 63 71 60 72 62 73 61 74 48 75 49 76
REMARK SMILES IDX 53 77 50 78 52 79 51 80
REMARK H PARENT 13 10 68 48 46 59
REMARK Flexibility Score: inf
ROOT
ATOM      1  C   UNL A   1      31.761  29.305  25.077  1.00  0.00     0.261 C 
ENDROOT
BRANCH   1   2
ATOM      2  O   UNL A   1      31.618  27.870  25.191  1.00  0.00    -0.461 OA
BRANCH   2   3
ATOM      3  C   UNL A   1      31.924  26.875  24.315  1.00  0.00     0.331 C 
ATOM      4  O   UNL A   1      31.427  26.902  23.187  1.00  0.00    -0.249 OA
BRANCH   3   5
ATOM      5  C   UNL A   1      32.631  25.588  24.831  1.00  0.00     0.138 C 
ATOM      6  C   UNL A   1      33.472  26.088  25.995  1.00  0.00     0.048 C 
BRANCH   5   7
ATOM      7  N   UNL A   1      33.506  25.001  23.795  1.00  0.00    -0.340 N 
ATOM      8  C   UNL A   1      34.427  24.015  23.726  1.00  0.00     0.224 C 
ATOM      9  O   UNL A   1      35.090  23.973  22.683  1.00  0.00    -0.275 OA
ATOM     10  H   UNL A   1      33.385  25.446  22.924  1.00  0.00     0.164 HD
BRANCH   8  11
ATOM     11  C   UNL A   1      34.527  22.901  24.737  1.00  0.00     0.141 C 
BRANCH  11  12
ATOM     12  C   UNL A   1      35.459  21.709  24.541  1.00  0.00     0.239 C 
BRANCH  12  13
ATOM     13  O   UNL A   1      35.182  20.482  25.185  1.00  0.00    -0.493 OA
BRANCH  13  14
ATOM     14  C   UNL A   1      34.303  19.544  24.729  1.00  0.00     0.122 A 
ATOM     15  C   UNL A   1      31.985  20.715  24.789  1.00  0.00     0.048 C 
ATOM     16  C   UNL A   1      32.956  19.649  24.375  1.00  0.00    -0.009 A 
ATOM     17  C   UNL A   1      32.384  18.593  23.624  1.00  0.00     0.007 A 
ATOM     18  C   UNL A   1      33.101  17.445  23.287  1.00  0.00     0.001 A 
ATOM     19  C   UNL A   1      34.970  18.319  24.499  1.00  0.00     0.047 A 
ATOM     20  C   UNL A   1      34.391  17.289  23.761  1.00  0.00     0.004 A 
ENDBRANCH  13  14
ENDBRANCH  12  13
ENDBRANCH  11  12
ENDBRANCH   8  11
ENDBRANCH   5   7
BRANCH   5  21
ATOM     21  C   UNL A   1      31.591  24.544  25.258  1.00  0.00     0.026 C 
ATOM     22  C   UNL A   1      31.506  24.001  26.682  1.00  0.00     0.007 C 
ATOM     23  C   UNL A   1      30.394  24.841  26.143  1.00  0.00     0.007 C 
ENDBRANCH   5  21
ENDBRANCH   3   5
ENDBRANCH   2   3
ENDBRANCH   1   2
BRANCH   1  24
ATOM     24  C   UNL A   1      33.000  29.842  25.796  1.00  0.00     0.202 C 
BRANCH  24  25
ATOM     25  O   UNL A   1      32.582  30.532  26.962  1.00  0.00    -0.374 OA
BRANCH  25  26
ATOM     26  C   UNL A   1      31.612  31.554  26.796  1.00  0.00     0.202 C 
BRANCH  26  27
ATOM     27  C   UNL A   1      32.142  32.979  27.012  1.00  0.00     0.261 C 
BRANCH  27  28
ATOM     28  O   UNL A   1      33.368  32.932  27.767  1.00  0.00    -0.460 OA
BRANCH  28  29
ATOM     29  C   UNL A   1      33.487  33.857  28.757  1.00  0.00     0.338 C 
ATOM     30  O   UNL A   1      32.813  34.871  28.865  1.00  0.00    -0.246 OA
BRANCH  29  31
ATOM     31  C   UNL A   1      34.743  33.609  29.519  1.00  0.00     0.060 A 
ATOM     32  C   UNL A   1      35.923  34.300  29.193  1.00  0.00     0.016 A 
ATOM     33  C   UNL A   1      34.811  32.493  30.342  1.00  0.00     0.016 A 
ATOM     34  C   UNL A   1      37.178  33.793  29.581  1.00  0.00     0.010 A 
ATOM     35  C   UNL A   1      36.048  31.969  30.655  1.00  0.00     0.010 A 
ATOM     36  C   UNL A   1      37.250  32.578  30.265  1.00  0.00    -0.014 A 
BRANCH  36  37
ATOM     37  C   UNL A   1      38.469  31.769  30.470  1.00  0.00     0.031 A 
ATOM     38  C   UNL A   1      38.741  30.536  29.673  1.00  0.00     0.074 A 
ATOM     39  C   UNL A   1      39.517  32.239  31.194  1.00  0.00     0.049 A 
ATOM     40  N   UNL A   1      39.614  29.642  30.023  1.00  0.00    -0.248 NA
ATOM     41  C   UNL A   1      38.067  30.188  28.424  1.00  0.00     0.031 C 
ATOM     42  C   UNL A   1      40.929  31.893  31.004  1.00  0.00     0.029 A 
ATOM     43  N   UNL A   1      39.571  33.168  32.214  1.00  0.00    -0.354 N 
ATOM     44  C   UNL A   1      39.874  28.870  28.917  1.00  0.00     0.074 A 
ATOM     45  C   UNL A   1      38.828  29.187  27.976  1.00  0.00     0.031 C 
ATOM     46  C   UNL A   1      41.673  32.459  31.965  1.00  0.00     0.029 A 
ATOM     47  C   UNL A   1      40.775  33.084  32.912  1.00  0.00     0.049 A 
ATOM     48  H   UNL A   1      38.853  33.809  32.422  1.00  0.00     0.167 HD
ATOM     49  C   UNL A   1      41.027  28.151  28.831  1.00  0.00     0.031 A 
ATOM     50  C   UNL A   1      40.833  32.921  34.265  1.00  0.00     0.031 A 
ATOM     51  C   UNL A   1      41.930  28.390  29.959  1.00  0.00     0.049 A 
ATOM     52  C   UNL A   1      41.392  31.568  34.641  1.00  0.00     0.074 A 
ATOM     53  C   UNL A   1      43.127  29.079  30.073  1.00  0.00     0.029 A 
ATOM     54  N   UNL A   1      41.512  28.121  31.258  1.00  0.00    -0.354 N 
ATOM     55  N   UNL A   1      41.579  30.628  33.757  1.00  0.00    -0.248 NA
ATOM     56  C   UNL A   1      41.777  31.130  35.981  1.00  0.00     0.031 C 
ATOM     57  C   UNL A   1      43.432  29.213  31.451  1.00  0.00     0.029 A 
ATOM     58  C   UNL A   1      42.429  28.595  32.177  1.00  0.00     0.049 A 
ATOM     59  H   UNL A   1      40.675  27.657  31.491  1.00  0.00     0.167 HD
ATOM     60  C   UNL A   1      42.044  29.495  34.350  1.00  0.00     0.074 A 
ATOM     61  C   UNL A   1      42.157  29.856  35.751  1.00  0.00     0.031 C 
ATOM     62  C   UNL A   1      42.253  28.370  33.609  1.00  0.00     0.031 A 
BRANCH  49  63
ATOM     63  C   UNL A   1      41.449  27.416  27.578  1.00  0.00    -0.014 A 
ATOM     64  C   UNL A   1      42.113  28.097  26.542  1.00  0.00     0.009 A 
ATOM     65  C   UNL A   1      41.237  26.041  27.371  1.00  0.00     0.009 A 
ATOM     66  C   UNL A   1      42.462  27.467  25.339  1.00  0.00     0.001 A 
ATOM     67  C   UNL A   1      41.539  25.414  26.154  1.00  0.00     0.001 A 
ATOM     68  C   UNL A   1      42.148  26.131  25.133  1.00  0.00     0.000 A 
ENDBRANCH  49  63
BRANCH  50  69
ATOM     69  C   UNL A   1      39.807  33.722  34.984  1.00  0.00    -0.014 A 
ATOM     70  C   UNL A   1      38.733  33.003  35.545  1.00  0.00     0.009 A 
ATOM     71  C   UNL A   1      40.146  34.966  35.544  1.00  0.00     0.009 A 
ATOM     72  C   UNL A   1      38.123  33.436  36.726  1.00  0.00     0.001 A 
ATOM     73  C   UNL A   1      39.544  35.385  36.738  1.00  0.00     0.001 A 
ATOM     74  C   UNL A   1      38.561  34.604  37.346  1.00  0.00     0.000 A 
ENDBRANCH  50  69
BRANCH  62  75
ATOM     75  C   UNL A   1      42.376  26.966  34.142  1.00  0.00    -0.014 A 
ATOM     76  C   UNL A   1      43.531  26.183  34.035  1.00  0.00     0.009 A 
ATOM     77  C   UNL A   1      41.330  26.443  34.938  1.00  0.00     0.009 A 
ATOM     78  C   UNL A   1      43.628  24.936  34.667  1.00  0.00     0.001 A 
ATOM     79  C   UNL A   1      41.442  25.224  35.609  1.00  0.00     0.001 A 
ATOM     80  C   UNL A   1      42.591  24.464  35.465  1.00  0.00     0.000 A 
ENDBRANCH  62  75
ENDBRANCH  36  37
ENDBRANCH  29  31
ENDBRANCH  28  29
ENDBRANCH  27  28
ENDBRANCH  26  27
ENDBRANCH  25  26
ENDBRANCH  24  25
ENDBRANCH   1  24
TORSDOF 20
ENDMDL
