MODEL 1
REMARK VINA RESULT:     -10.2      0.000      0.000
REMARK SMILES COC[C@H]1CCN(C(=O)N2CC[C@H](C(=O)OCCOCCOC(=O)c3ccc(-c4c5nc(c(-c6ccccc6)c6ccc([nH]6)c(-c6ccccc6)c6nc(c(-c7ccccc7)c7ccc4[nH]7)C=C6)C=C5)cc3)[C@@H]2C)C1
REMARK SMILES IDX 18 1 17 2 16 3 14 4 15 5 13 6 10 7 11 8 73 9 12 10 74 11
REMARK SMILES IDX 8 12 9 13 7 14 4 15 5 16 75 17 6 18 3 19 2 20 1 21 19 22
REMARK SMILES IDX 20 23 21 24 22 25 23 26 24 27 25 28 26 29 72 30 27 31 71 32
REMARK SMILES IDX 28 33 29 34 30 35 65 36 31 37 70 38 64 39 66 40 32 41 69 42
REMARK SMILES IDX 63 43 62 44 33 46 55 47 40 48 54 49 41 50 44 51 53 52 67 53
REMARK SMILES IDX 42 54 43 55 52 57 68 58 45 59 34 60 35 61 39 62 36 63 38 64
REMARK SMILES IDX 37 65 56 66 57 67 61 68 58 69 60 70 59 71 46 72 47 73 51 74
REMARK SMILES IDX 48 75 50 76 49 77
REMARK H PARENT 66 45 44 56
REMARK Flexibility Score: inf
ROOT
ATOM      1  C   UNL A   1      39.535  21.695  26.210  1.00  0.00     0.202 C 
ENDROOT
BRANCH   1   2
ATOM      2  C   UNL A   1      38.221  21.443  25.466  1.00  0.00     0.261 C 
BRANCH   2   3
ATOM      3  O   UNL A   1      37.681  22.660  24.926  1.00  0.00    -0.463 OA
BRANCH   3   4
ATOM      4  C   UNL A   1      36.591  23.165  25.563  1.00  0.00     0.311 C 
ATOM      5  O   UNL A   1      36.376  24.354  25.762  1.00  0.00    -0.252 OA
BRANCH   4   6
ATOM      6  C   UNL A   1      35.665  22.082  26.060  1.00  0.00     0.123 C 
ATOM      7  N   UNL A   1      33.399  21.471  25.744  1.00  0.00    -0.321 N 
ATOM      8  C   UNL A   1      33.663  21.454  27.168  1.00  0.00     0.122 C 
ATOM      9  C   UNL A   1      34.655  21.595  25.002  1.00  0.00     0.098 C 
ATOM     10  C   UNL A   1      34.812  22.428  27.293  1.00  0.00     0.039 C 
ATOM     11  C   UNL A   1      34.477  22.491  23.776  1.00  0.00     0.032 C 
BRANCH   7  12
ATOM     12  C   UNL A   1      32.293  20.908  25.168  1.00  0.00     0.320 C 
ATOM     13  O   UNL A   1      31.165  21.356  25.374  1.00  0.00    -0.248 OA
BRANCH  12  14
ATOM     14  N   UNL A   1      32.492  19.757  24.446  1.00  0.00    -0.324 N 
ATOM     15  C   UNL A   1      33.393  17.608  23.984  1.00  0.00     0.036 C 
ATOM     16  C   UNL A   1      32.519  18.080  22.820  1.00  0.00     0.029 C 
ATOM     17  C   UNL A   1      33.078  18.604  25.104  1.00  0.00     0.127 C 
ATOM     18  C   UNL A   1      32.528  19.590  23.001  1.00  0.00     0.122 C 
BRANCH  15  19
ATOM     19  C   UNL A   1      33.263  16.153  24.434  1.00  0.00     0.165 C 
BRANCH  19  20
ATOM     20  O   UNL A   1      34.027  15.815  25.586  1.00  0.00    -0.384 OA
ATOM     21  C   UNL A   1      35.432  15.828  25.376  1.00  0.00     0.194 C 
ENDBRANCH  19  20
ENDBRANCH  15  19
ENDBRANCH  12  14
ENDBRANCH   7  12
ENDBRANCH   4   6
ENDBRANCH   3   4
ENDBRANCH   2   3
ENDBRANCH   1   2
BRANCH   1  22
ATOM     22  O   UNL A   1      40.667  20.952  25.763  1.00  0.00    -0.374 OA
BRANCH  22  23
ATOM     23  C   UNL A   1      41.880  21.087  26.501  1.00  0.00     0.202 C 
BRANCH  23  24
ATOM     24  C   UNL A   1      43.063  21.730  25.767  1.00  0.00     0.261 C 
BRANCH  24  25
ATOM     25  O   UNL A   1      42.666  22.846  24.947  1.00  0.00    -0.460 OA
BRANCH  25  26
ATOM     26  C   UNL A   1      43.444  23.945  25.080  1.00  0.00     0.338 C 
ATOM     27  O   UNL A   1      44.488  24.193  24.491  1.00  0.00    -0.246 OA
BRANCH  26  28
ATOM     28  C   UNL A   1      42.791  24.941  25.949  1.00  0.00     0.060 A 
ATOM     29  C   UNL A   1      43.523  26.089  26.278  1.00  0.00     0.016 A 
ATOM     30  C   UNL A   1      41.538  24.710  26.522  1.00  0.00     0.016 A 
ATOM     31  C   UNL A   1      43.029  26.985  27.222  1.00  0.00     0.010 A 
ATOM     32  C   UNL A   1      41.047  25.609  27.476  1.00  0.00     0.010 A 
ATOM     33  C   UNL A   1      41.807  26.731  27.857  1.00  0.00    -0.014 A 
BRANCH  33  34
ATOM     34  C   UNL A   1      41.400  27.569  29.010  1.00  0.00     0.031 A 
ATOM     35  C   UNL A   1      42.175  27.480  30.297  1.00  0.00     0.074 A 
ATOM     36  C   UNL A   1      40.381  28.439  28.900  1.00  0.00     0.049 A 
ATOM     37  N   UNL A   1      42.000  28.136  31.417  1.00  0.00    -0.248 NA
ATOM     38  C   UNL A   1      43.299  26.530  30.324  1.00  0.00     0.031 C 
ATOM     39  C   UNL A   1      39.578  28.654  27.696  1.00  0.00     0.029 A 
ATOM     40  N   UNL A   1      39.850  29.308  29.820  1.00  0.00    -0.354 N 
ATOM     41  C   UNL A   1      42.987  27.678  32.280  1.00  0.00     0.074 A 
ATOM     42  C   UNL A   1      43.739  26.668  31.566  1.00  0.00     0.031 C 
ATOM     43  C   UNL A   1      38.656  29.597  27.952  1.00  0.00     0.029 A 
ATOM     44  C   UNL A   1      38.785  30.030  29.342  1.00  0.00     0.049 A 
ATOM     45  H   UNL A   1      40.200  29.404  30.735  1.00  0.00     0.167 HD
ATOM     46  C   UNL A   1      43.251  28.066  33.551  1.00  0.00     0.031 A 
ATOM     47  C   UNL A   1      37.995  30.930  29.959  1.00  0.00     0.031 A 
ATOM     48  C   UNL A   1      42.499  29.059  34.271  1.00  0.00     0.049 A 
ATOM     49  C   UNL A   1      38.259  31.286  31.398  1.00  0.00     0.074 A 
ATOM     50  C   UNL A   1      42.700  29.528  35.558  1.00  0.00     0.029 A 
ATOM     51  N   UNL A   1      41.395  29.727  33.769  1.00  0.00    -0.354 N 
ATOM     52  N   UNL A   1      39.211  30.864  32.193  1.00  0.00    -0.248 NA
ATOM     53  C   UNL A   1      37.338  32.249  32.019  1.00  0.00     0.031 C 
ATOM     54  C   UNL A   1      41.685  30.446  35.852  1.00  0.00     0.029 A 
ATOM     55  C   UNL A   1      40.885  30.585  34.730  1.00  0.00     0.049 A 
ATOM     56  H   UNL A   1      41.027  29.611  32.863  1.00  0.00     0.167 HD
ATOM     57  C   UNL A   1      39.021  31.528  33.398  1.00  0.00     0.074 A 
ATOM     58  C   UNL A   1      37.870  32.390  33.225  1.00  0.00     0.031 C 
ATOM     59  C   UNL A   1      39.736  31.433  34.546  1.00  0.00     0.031 A 
BRANCH  46  60
ATOM     60  C   UNL A   1      44.390  27.388  34.257  1.00  0.00    -0.014 A 
ATOM     61  C   UNL A   1      45.690  27.916  34.218  1.00  0.00     0.009 A 
ATOM     62  C   UNL A   1      44.153  26.220  34.999  1.00  0.00     0.009 A 
ATOM     63  C   UNL A   1      46.736  27.270  34.882  1.00  0.00     0.001 A 
ATOM     64  C   UNL A   1      45.194  25.591  35.683  1.00  0.00     0.001 A 
ATOM     65  C   UNL A   1      46.486  26.111  35.617  1.00  0.00     0.000 A 
ENDBRANCH  46  60
BRANCH  47  66
ATOM     66  C   UNL A   1      36.862  31.550  29.226  1.00  0.00    -0.014 A 
ATOM     67  C   UNL A   1      35.685  30.827  28.983  1.00  0.00     0.009 A 
ATOM     68  C   UNL A   1      36.963  32.866  28.749  1.00  0.00     0.009 A 
ATOM     69  C   UNL A   1      34.639  31.404  28.258  1.00  0.00     0.001 A 
ATOM     70  C   UNL A   1      35.905  33.449  28.048  1.00  0.00     0.001 A 
ATOM     71  C   UNL A   1      34.748  32.714  27.795  1.00  0.00     0.000 A 
ENDBRANCH  47  66
BRANCH  59  72
ATOM     72  C   UNL A   1      39.311  32.303  35.695  1.00  0.00    -0.014 A 
ATOM     73  C   UNL A   1      39.859  33.581  35.881  1.00  0.00     0.009 A 
ATOM     74  C   UNL A   1      38.321  31.850  36.582  1.00  0.00     0.009 A 
ATOM     75  C   UNL A   1      39.446  34.375  36.954  1.00  0.00     0.001 A 
ATOM     76  C   UNL A   1      37.892  32.657  37.637  1.00  0.00     0.001 A 
ATOM     77  C   UNL A   1      38.461  33.915  37.827  1.00  0.00     0.000 A 
ENDBRANCH  59  72
ENDBRANCH  33  34
ENDBRANCH  26  28
ENDBRANCH  25  26
ENDBRANCH  24  25
ENDBRANCH  23  24
ENDBRANCH  22  23
ENDBRANCH   1  22
TORSDOF 18
ENDMDL
MODEL 2
REMARK VINA RESULT:      -9.9      4.217      8.198
REMARK SMILES COC[C@H]1CCN(C(=O)N2CC[C@H](C(=O)OCCOCCOC(=O)c3ccc(-c4c5nc(c(-c6ccccc6)c6ccc([nH]6)c(-c6ccccc6)c6nc(c(-c7ccccc7)c7ccc4[nH]7)C=C6)C=C5)cc3)[C@@H]2C)C1
REMARK SMILES IDX 18 1 17 2 16 3 14 4 15 5 13 6 10 7 11 8 73 9 12 10 74 11
REMARK SMILES IDX 8 12 9 13 7 14 4 15 5 16 75 17 6 18 3 19 2 20 1 21 19 22
REMARK SMILES IDX 20 23 21 24 22 25 23 26 24 27 25 28 26 29 72 30 27 31 71 32
REMARK SMILES IDX 28 33 29 34 30 35 65 36 31 37 70 38 64 39 66 40 32 41 69 42
REMARK SMILES IDX 63 43 62 44 33 46 55 47 40 48 54 49 41 50 44 51 53 52 67 53
REMARK SMILES IDX 42 54 43 55 52 57 68 58 45 59 34 60 35 61 39 62 36 63 38 64
REMARK SMILES IDX 37 65 56 66 57 67 61 68 58 69 60 70 59 71 46 72 47 73 51 74
REMARK SMILES IDX 48 75 50 76 49 77
REMARK H PARENT 66 45 44 56
REMARK Flexibility Score: inf
ROOT
ATOM      1  C   UNL A   1      36.355  21.066  24.938  1.00  0.00     0.202 C 
ENDROOT
BRANCH   1   2
ATOM      2  C   UNL A   1      34.940  20.485  24.996  1.00  0.00     0.261 C 
BRANCH   2   3
ATOM      3  O   UNL A   1      33.963  21.507  25.251  1.00  0.00    -0.463 OA
BRANCH   3   4
ATOM      4  C   UNL A   1      33.816  21.883  26.549  1.00  0.00     0.311 C 
ATOM      5  O   UNL A   1      33.713  21.118  27.500  1.00  0.00    -0.252 OA
BRANCH   4   6
ATOM      6  C   UNL A   1      33.742  23.382  26.706  1.00  0.00     0.123 C 
ATOM      7  N   UNL A   1      32.430  25.146  25.827  1.00  0.00    -0.321 N 
ATOM      8  C   UNL A   1      33.819  25.545  25.734  1.00  0.00     0.122 C 
ATOM      9  C   UNL A   1      32.307  23.942  26.651  1.00  0.00     0.098 C 
ATOM     10  C   UNL A   1      34.532  24.213  25.681  1.00  0.00     0.039 C 
ATOM     11  C   UNL A   1      31.238  23.005  26.091  1.00  0.00     0.032 C 
BRANCH   7  12
ATOM     12  C   UNL A   1      31.378  26.009  25.679  1.00  0.00     0.320 C 
ATOM     13  O   UNL A   1      30.624  26.265  26.617  1.00  0.00    -0.248 OA
BRANCH  12  14
ATOM     14  N   UNL A   1      31.141  26.480  24.411  1.00  0.00    -0.324 N 
ATOM     15  C   UNL A   1      30.283  27.965  22.768  1.00  0.00     0.036 C 
ATOM     16  C   UNL A   1      30.989  26.783  22.101  1.00  0.00     0.029 C 
ATOM     17  C   UNL A   1      30.688  27.848  24.240  1.00  0.00     0.127 C 
ATOM     18  C   UNL A   1      30.939  25.721  23.187  1.00  0.00     0.122 C 
BRANCH  15  19
ATOM     19  C   UNL A   1      30.529  29.361  22.197  1.00  0.00     0.165 C 
BRANCH  19  20
ATOM     20  O   UNL A   1      29.378  29.990  21.643  1.00  0.00    -0.384 OA
ATOM     21  C   UNL A   1      28.145  29.498  22.150  1.00  0.00     0.194 C 
ENDBRANCH  19  20
ENDBRANCH  15  19
ENDBRANCH  12  14
ENDBRANCH   7  12
ENDBRANCH   4   6
ENDBRANCH   3   4
ENDBRANCH   2   3
ENDBRANCH   1   2
BRANCH   1  22
ATOM     22  O   UNL A   1      37.421  20.126  24.822  1.00  0.00    -0.374 OA
BRANCH  22  23
ATOM     23  C   UNL A   1      38.691  20.498  25.352  1.00  0.00     0.202 C 
BRANCH  23  24
ATOM     24  C   UNL A   1      39.613  19.354  25.793  1.00  0.00     0.261 C 
BRANCH  24  25
ATOM     25  O   UNL A   1      40.931  19.452  25.220  1.00  0.00    -0.460 OA
BRANCH  25  26
ATOM     26  C   UNL A   1      41.928  19.578  26.125  1.00  0.00     0.338 C 
ATOM     27  O   UNL A   1      42.790  18.753  26.402  1.00  0.00    -0.246 OA
BRANCH  26  28
ATOM     28  C   UNL A   1      41.965  20.946  26.672  1.00  0.00     0.060 A 
ATOM     29  C   UNL A   1      42.095  22.001  25.761  1.00  0.00     0.016 A 
ATOM     30  C   UNL A   1      41.987  21.189  28.047  1.00  0.00     0.016 A 
ATOM     31  C   UNL A   1      42.301  23.300  26.221  1.00  0.00     0.010 A 
ATOM     32  C   UNL A   1      42.201  22.494  28.507  1.00  0.00     0.010 A 
ATOM     33  C   UNL A   1      42.395  23.548  27.596  1.00  0.00    -0.014 A 
BRANCH  33  34
ATOM     34  C   UNL A   1      42.831  24.887  28.063  1.00  0.00     0.031 A 
ATOM     35  C   UNL A   1      41.799  25.954  28.309  1.00  0.00     0.074 A 
ATOM     36  C   UNL A   1      44.127  25.136  28.315  1.00  0.00     0.049 A 
ATOM     37  N   UNL A   1      41.962  27.182  28.735  1.00  0.00    -0.248 NA
ATOM     38  C   UNL A   1      40.398  25.589  28.044  1.00  0.00     0.031 C 
ATOM     39  C   UNL A   1      45.220  24.176  28.161  1.00  0.00     0.029 A 
ATOM     40  N   UNL A   1      44.743  26.280  28.759  1.00  0.00    -0.354 N 
ATOM     41  C   UNL A   1      40.688  27.735  28.788  1.00  0.00     0.074 A 
ATOM     42  C   UNL A   1      39.767  26.721  28.322  1.00  0.00     0.031 C 
ATOM     43  C   UNL A   1      46.373  24.772  28.506  1.00  0.00     0.029 A 
ATOM     44  C   UNL A   1      46.105  26.160  28.878  1.00  0.00     0.049 A 
ATOM     45  H   UNL A   1      44.253  27.107  28.972  1.00  0.00     0.167 HD
ATOM     46  C   UNL A   1      40.316  28.972  29.194  1.00  0.00     0.031 A 
ATOM     47  C   UNL A   1      47.032  27.070  29.234  1.00  0.00     0.031 A 
ATOM     48  C   UNL A   1      41.228  29.990  29.644  1.00  0.00     0.049 A 
ATOM     49  C   UNL A   1      46.601  28.464  29.604  1.00  0.00     0.074 A 
ATOM     50  C   UNL A   1      40.942  31.269  30.088  1.00  0.00     0.029 A 
ATOM     51  N   UNL A   1      42.605  29.844  29.698  1.00  0.00    -0.354 N 
ATOM     52  N   UNL A   1      45.392  28.964  29.674  1.00  0.00    -0.248 NA
ATOM     53  C   UNL A   1      47.667  29.415  29.950  1.00  0.00     0.031 C 
ATOM     54  C   UNL A   1      42.152  31.916  30.363  1.00  0.00     0.029 A 
ATOM     55  C   UNL A   1      43.186  31.021  30.141  1.00  0.00     0.049 A 
ATOM     56  H   UNL A   1      43.097  29.026  29.459  1.00  0.00     0.167 HD
ATOM     57  C   UNL A   1      45.548  30.278  30.095  1.00  0.00     0.074 A 
ATOM     58  C   UNL A   1      46.969  30.494  30.278  1.00  0.00     0.031 C 
ATOM     59  C   UNL A   1      44.601  31.223  30.312  1.00  0.00     0.031 A 
BRANCH  46  60
ATOM     60  C   UNL A   1      38.852  29.305  29.138  1.00  0.00    -0.014 A 
ATOM     61  C   UNL A   1      38.261  29.797  27.964  1.00  0.00     0.009 A 
ATOM     62  C   UNL A   1      38.046  29.090  30.268  1.00  0.00     0.009 A 
ATOM     63  C   UNL A   1      36.897  30.099  27.934  1.00  0.00     0.001 A 
ATOM     64  C   UNL A   1      36.679  29.368  30.226  1.00  0.00     0.001 A 
ATOM     65  C   UNL A   1      36.107  29.880  29.062  1.00  0.00     0.000 A 
ENDBRANCH  46  60
BRANCH  47  66
ATOM     66  C   UNL A   1      48.470  26.699  29.244  1.00  0.00    -0.014 A 
ATOM     67  C   UNL A   1      49.258  26.858  28.094  1.00  0.00     0.009 A 
ATOM     68  C   UNL A   1      49.057  26.167  30.402  1.00  0.00     0.009 A 
ATOM     69  C   UNL A   1      50.601  26.470  28.099  1.00  0.00     0.001 A 
ATOM     70  C   UNL A   1      50.406  25.806  30.412  1.00  0.00     0.001 A 
ATOM     71  C   UNL A   1      51.174  25.949  29.258  1.00  0.00     0.000 A 
ENDBRANCH  47  66
BRANCH  59  72
ATOM     72  C   UNL A   1      45.068  32.566  30.799  1.00  0.00    -0.014 A 
ATOM     73  C   UNL A   1      45.357  33.604  29.901  1.00  0.00     0.009 A 
ATOM     74  C   UNL A   1      45.184  32.805  32.177  1.00  0.00     0.009 A 
ATOM     75  C   UNL A   1      45.785  34.847  30.375  1.00  0.00     0.001 A 
ATOM     76  C   UNL A   1      45.586  34.056  32.648  1.00  0.00     0.001 A 
ATOM     77  C   UNL A   1      45.896  35.073  31.747  1.00  0.00     0.000 A 
ENDBRANCH  59  72
ENDBRANCH  33  34
ENDBRANCH  26  28
ENDBRANCH  25  26
ENDBRANCH  24  25
ENDBRANCH  23  24
ENDBRANCH  22  23
ENDBRANCH   1  22
TORSDOF 18
ENDMDL
MODEL 3
REMARK VINA RESULT:      -9.6      4.475      9.330
REMARK SMILES COC[C@H]1CCN(C(=O)N2CC[C@H](C(=O)OCCOCCOC(=O)c3ccc(-c4c5nc(c(-c6ccccc6)c6ccc([nH]6)c(-c6ccccc6)c6nc(c(-c7ccccc7)c7ccc4[nH]7)C=C6)C=C5)cc3)[C@@H]2C)C1
REMARK SMILES IDX 18 1 17 2 16 3 14 4 15 5 13 6 10 7 11 8 73 9 12 10 74 11
REMARK SMILES IDX 8 12 9 13 7 14 4 15 5 16 75 17 6 18 3 19 2 20 1 21 19 22
REMARK SMILES IDX 20 23 21 24 22 25 23 26 24 27 25 28 26 29 72 30 27 31 71 32
REMARK SMILES IDX 28 33 29 34 30 35 65 36 31 37 70 38 64 39 66 40 32 41 69 42
REMARK SMILES IDX 63 43 62 44 33 46 55 47 40 48 54 49 41 50 44 51 53 52 67 53
REMARK SMILES IDX 42 54 43 55 52 57 68 58 45 59 34 60 35 61 39 62 36 63 38 64
REMARK SMILES IDX 37 65 56 66 57 67 61 68 58 69 60 70 59 71 46 72 47 73 51 74
REMARK SMILES IDX 48 75 50 76 49 77
REMARK H PARENT 66 45 44 56
REMARK Flexibility Score: inf
ROOT
ATOM      1  C   UNL A   1      33.361  31.838  27.574  1.00  0.00     0.202 C 
ENDROOT
BRANCH   1   2
ATOM      2  C   UNL A   1      33.587  30.396  27.114  1.00  0.00     0.261 C 
BRANCH   2   3
ATOM      3  O   UNL A   1      32.577  29.978  26.182  1.00  0.00    -0.463 OA
BRANCH   3   4
ATOM      4  C   UNL A   1      31.912  28.833  26.495  1.00  0.00     0.311 C 
ATOM      5  O   UNL A   1      31.704  28.424  27.630  1.00  0.00    -0.252 OA
BRANCH   4   6
ATOM      6  C   UNL A   1      31.483  28.067  25.268  1.00  0.00     0.123 C 
ATOM      7  N   UNL A   1      32.547  27.007  23.437  1.00  0.00    -0.321 N 
ATOM      8  C   UNL A   1      31.475  27.825  22.907  1.00  0.00     0.122 C 
ATOM      9  C   UNL A   1      32.433  26.913  24.893  1.00  0.00     0.098 C 
ATOM     10  C   UNL A   1      31.324  28.885  23.975  1.00  0.00     0.039 C 
ATOM     11  C   UNL A   1      33.814  26.934  25.549  1.00  0.00     0.032 C 
BRANCH   7  12
ATOM     12  C   UNL A   1      33.193  26.041  22.716  1.00  0.00     0.320 C 
ATOM     13  O   UNL A   1      33.803  26.313  21.682  1.00  0.00    -0.248 OA
BRANCH  12  14
ATOM     14  N   UNL A   1      33.032  24.744  23.139  1.00  0.00    -0.324 N 
ATOM     15  C   UNL A   1      33.681  22.501  23.574  1.00  0.00     0.036 C 
ATOM     16  C   UNL A   1      32.206  22.705  23.923  1.00  0.00     0.029 C 
ATOM     17  C   UNL A   1      34.208  23.924  23.368  1.00  0.00     0.127 C 
ATOM     18  C   UNL A   1      31.838  23.915  23.079  1.00  0.00     0.122 C 
BRANCH  15  19
ATOM     19  C   UNL A   1      34.541  21.689  24.543  1.00  0.00     0.165 C 
BRANCH  19  20
ATOM     20  O   UNL A   1      33.832  20.707  25.290  1.00  0.00    -0.384 OA
ATOM     21  C   UNL A   1      33.724  20.996  26.677  1.00  0.00     0.194 C 
ENDBRANCH  19  20
ENDBRANCH  15  19
ENDBRANCH  12  14
ENDBRANCH   7  12
ENDBRANCH   4   6
ENDBRANCH   3   4
ENDBRANCH   2   3
ENDBRANCH   1   2
BRANCH   1  22
ATOM     22  O   UNL A   1      34.511  32.682  27.596  1.00  0.00    -0.374 OA
BRANCH  22  23
ATOM     23  C   UNL A   1      34.399  33.934  28.269  1.00  0.00     0.202 C 
BRANCH  23  24
ATOM     24  C   UNL A   1      34.435  33.894  29.802  1.00  0.00     0.261 C 
BRANCH  24  25
ATOM     25  O   UNL A   1      35.721  33.500  30.317  1.00  0.00    -0.460 OA
BRANCH  25  26
ATOM     26  C   UNL A   1      35.714  32.344  31.020  1.00  0.00     0.338 C 
ATOM     27  O   UNL A   1      34.880  31.976  31.838  1.00  0.00    -0.246 OA
BRANCH  26  28
ATOM     28  C   UNL A   1      36.795  31.452  30.565  1.00  0.00     0.060 A 
ATOM     29  C   UNL A   1      37.571  30.825  31.548  1.00  0.00     0.016 A 
ATOM     30  C   UNL A   1      37.119  31.318  29.212  1.00  0.00     0.016 A 
ATOM     31  C   UNL A   1      38.706  30.103  31.186  1.00  0.00     0.010 A 
ATOM     32  C   UNL A   1      38.265  30.598  28.853  1.00  0.00     0.010 A 
ATOM     33  C   UNL A   1      39.083  30.019  29.840  1.00  0.00    -0.014 A 
BRANCH  33  34
ATOM     34  C   UNL A   1      40.403  29.440  29.491  1.00  0.00     0.031 A 
ATOM     35  C   UNL A   1      41.635  30.297  29.597  1.00  0.00     0.074 A 
ATOM     36  C   UNL A   1      40.512  28.150  29.130  1.00  0.00     0.049 A 
ATOM     37  N   UNL A   1      42.884  29.985  29.359  1.00  0.00    -0.248 NA
ATOM     38  C   UNL A   1      41.434  31.688  30.034  1.00  0.00     0.031 C 
ATOM     39  C   UNL A   1      39.402  27.202  29.032  1.00  0.00     0.029 A 
ATOM     40  N   UNL A   1      41.617  27.414  28.782  1.00  0.00    -0.354 N 
ATOM     41  C   UNL A   1      43.616  31.138  29.614  1.00  0.00     0.074 A 
ATOM     42  C   UNL A   1      42.671  32.164  29.997  1.00  0.00     0.031 C 
ATOM     43  C   UNL A   1      39.885  26.008  28.648  1.00  0.00     0.029 A 
ATOM     44  C   UNL A   1      41.328  26.114  28.449  1.00  0.00     0.049 A 
ATOM     45  H   UNL A   1      42.529  27.784  28.772  1.00  0.00     0.167 HD
ATOM     46  C   UNL A   1      44.956  31.326  29.545  1.00  0.00     0.031 A 
ATOM     47  C   UNL A   1      42.136  25.125  28.019  1.00  0.00     0.031 A 
ATOM     48  C   UNL A   1      45.900  30.314  29.151  1.00  0.00     0.049 A 
ATOM     49  C   UNL A   1      43.612  25.383  27.872  1.00  0.00     0.074 A 
ATOM     50  C   UNL A   1      47.279  30.408  29.065  1.00  0.00     0.029 A 
ATOM     51  N   UNL A   1      45.561  29.026  28.770  1.00  0.00    -0.354 N 
ATOM     52  N   UNL A   1      44.292  26.469  28.142  1.00  0.00    -0.248 NA
ATOM     53  C   UNL A   1      44.429  24.270  27.367  1.00  0.00     0.031 C 
ATOM     54  C   UNL A   1      47.770  29.189  28.581  1.00  0.00     0.029 A 
ATOM     55  C   UNL A   1      46.701  28.322  28.419  1.00  0.00     0.049 A 
ATOM     56  H   UNL A   1      44.646  28.664  28.753  1.00  0.00     0.167 HD
ATOM     57  C   UNL A   1      45.619  26.165  27.864  1.00  0.00     0.074 A 
ATOM     58  C   UNL A   1      45.648  24.787  27.417  1.00  0.00     0.031 C 
ATOM     59  C   UNL A   1      46.715  26.955  27.971  1.00  0.00     0.031 A 
BRANCH  46  60
ATOM     60  C   UNL A   1      45.478  32.695  29.874  1.00  0.00    -0.014 A 
ATOM     61  C   UNL A   1      45.980  32.996  31.150  1.00  0.00     0.009 A 
ATOM     62  C   UNL A   1      45.499  33.689  28.884  1.00  0.00     0.009 A 
ATOM     63  C   UNL A   1      46.462  34.276  31.436  1.00  0.00     0.001 A 
ATOM     64  C   UNL A   1      46.005  34.960  29.165  1.00  0.00     0.001 A 
ATOM     65  C   UNL A   1      46.478  35.254  30.442  1.00  0.00     0.000 A 
ENDBRANCH  46  60
BRANCH  47  66
ATOM     66  C   UNL A   1      41.565  23.797  27.677  1.00  0.00    -0.014 A 
ATOM     67  C   UNL A   1      40.739  23.640  26.554  1.00  0.00     0.009 A 
ATOM     68  C   UNL A   1      41.832  22.682  28.486  1.00  0.00     0.009 A 
ATOM     69  C   UNL A   1      40.175  22.396  26.261  1.00  0.00     0.001 A 
ATOM     70  C   UNL A   1      41.288  21.434  28.175  1.00  0.00     0.001 A 
ATOM     71  C   UNL A   1      40.452  21.295  27.068  1.00  0.00     0.000 A 
ENDBRANCH  47  66
BRANCH  59  72
ATOM     72  C   UNL A   1      48.042  26.340  27.624  1.00  0.00    -0.014 A 
ATOM     73  C   UNL A   1      48.733  25.534  28.542  1.00  0.00     0.009 A 
ATOM     74  C   UNL A   1      48.590  26.542  26.347  1.00  0.00     0.009 A 
ATOM     75  C   UNL A   1      49.963  24.969  28.196  1.00  0.00     0.001 A 
ATOM     76  C   UNL A   1      49.806  25.953  25.996  1.00  0.00     0.001 A 
ATOM     77  C   UNL A   1      50.496  25.175  26.925  1.00  0.00     0.000 A 
ENDBRANCH  59  72
ENDBRANCH  33  34
ENDBRANCH  26  28
ENDBRANCH  25  26
ENDBRANCH  24  25
ENDBRANCH  23  24
ENDBRANCH  22  23
ENDBRANCH   1  22
TORSDOF 18
ENDMDL
