MODEL 1
REMARK VINA RESULT:      -8.6      0.000      0.000
REMARK SMILES Cc1cc(Cl)ccc1Oc1cc(C)c(N)c(C(=O)OCCOCCOC(=O)c2ccc(-c3c4nc(c(-c5ccccc5)c5ccc([nH]5)c(-c5ccccc5)c5nc(c(-c6ccccc6)c6ccc3[nH]6)C=C5)C=C4)cc2)c1
REMARK SMILES IDX 22 1 21 2 20 3 19 4 17 5 18 6 16 7 10 8 11 9 76 10 12 11
REMARK SMILES IDX 13 12 14 13 9 14 8 15 1 16 2 17 3 18 4 19 7 20 5 21 6 22
REMARK SMILES IDX 15 23 23 26 24 27 25 28 26 29 27 30 28 31 29 32 75 33 30 34
REMARK SMILES IDX 74 35 31 36 32 37 33 38 68 39 34 40 73 41 67 42 69 43 35 44
REMARK SMILES IDX 72 45 66 46 65 47 36 49 58 50 43 51 57 52 44 53 47 54 56 55
REMARK SMILES IDX 70 56 45 57 46 58 55 60 71 61 48 62 37 63 38 64 42 65 39 66
REMARK SMILES IDX 41 67 40 68 59 69 60 70 64 71 61 72 63 73 62 74 49 75 50 76
REMARK SMILES IDX 54 77 51 78 53 79 52 80
REMARK H PARENT 15 24 15 25 69 48 47 59
REMARK Flexibility Score: inf
ROOT
ATOM      1  O   UNL A   1      34.169  35.295  33.305  1.00  0.00    -0.374 OA
ENDROOT
BRANCH   1   2
ATOM      2  C   UNL A   1      35.502  34.982  33.712  1.00  0.00     0.202 C 
BRANCH   2   3
ATOM      3  C   UNL A   1      35.750  33.528  34.124  1.00  0.00     0.261 C 
BRANCH   3   4
ATOM      4  O   UNL A   1      37.130  33.318  34.468  1.00  0.00    -0.460 OA
BRANCH   4   5
ATOM      5  C   UNL A   1      37.364  33.135  35.793  1.00  0.00     0.340 C 
ATOM      6  O   UNL A   1      36.531  33.202  36.685  1.00  0.00    -0.246 OA
BRANCH   5   7
ATOM      7  C   UNL A   1      38.766  32.692  36.027  1.00  0.00     0.086 A 
ATOM      8  C   UNL A   1      40.729  31.453  35.337  1.00  0.00     0.128 A 
ATOM      9  C   UNL A   1      41.441  31.992  36.406  1.00  0.00     0.052 A 
ATOM     10  C   UNL A   1      39.410  31.849  35.113  1.00  0.00     0.065 A 
ATOM     11  C   UNL A   1      40.788  32.780  37.371  1.00  0.00    -0.024 A 
ATOM     12  C   UNL A   1      41.545  33.184  38.610  1.00  0.00     0.047 C 
ATOM     13  C   UNL A   1      39.433  33.128  37.197  1.00  0.00     0.049 A 
BRANCH   8  14
ATOM     14  O   UNL A   1      41.246  30.572  34.425  1.00  0.00    -0.457 OA
BRANCH  14  15
ATOM     15  C   UNL A   1      41.643  29.293  34.758  1.00  0.00     0.130 A 
ATOM     16  C   UNL A   1      40.242  27.904  33.081  1.00  0.00     0.048 C 
ATOM     17  C   UNL A   1      41.256  28.070  34.177  1.00  0.00    -0.007 A 
ATOM     18  C   UNL A   1      41.852  26.881  34.655  1.00  0.00     0.027 A 
ATOM     19  C   UNL A   1      42.855  26.910  35.622  1.00  0.00     0.041 A 
ATOM     20  C   UNL A   1      42.665  29.299  35.727  1.00  0.00     0.049 A 
ATOM     21  Cl  UNL A   1      43.593  25.442  36.135  1.00  0.00    -0.084 Cl
ATOM     22  C   UNL A   1      43.275  28.119  36.153  1.00  0.00     0.024 A 
ENDBRANCH  14  15
ENDBRANCH   8  14
BRANCH  13  23
ATOM     23  N   UNL A   1      38.719  33.713  38.249  1.00  0.00    -0.398 N 
ATOM     24  H   UNL A   1      37.823  33.377  38.482  1.00  0.00     0.156 HD
ATOM     25  H   UNL A   1      39.111  34.461  38.754  1.00  0.00     0.156 HD
ENDBRANCH  13  23
ENDBRANCH   5   7
ENDBRANCH   4   5
ENDBRANCH   3   4
ENDBRANCH   2   3
ENDBRANCH   1   2
BRANCH   1  26
ATOM     26  C   UNL A   1      33.993  36.483  32.528  1.00  0.00     0.202 C 
BRANCH  26  27
ATOM     27  C   UNL A   1      32.934  36.407  31.423  1.00  0.00     0.261 C 
BRANCH  27  28
ATOM     28  O   UNL A   1      32.760  35.061  30.944  1.00  0.00    -0.460 OA
BRANCH  28  29
ATOM     29  C   UNL A   1      33.113  34.872  29.653  1.00  0.00     0.338 C 
ATOM     30  O   UNL A   1      32.601  35.381  28.663  1.00  0.00    -0.246 OA
BRANCH  29  31
ATOM     31  C   UNL A   1      34.350  34.073  29.566  1.00  0.00     0.060 A 
ATOM     32  C   UNL A   1      34.544  33.093  30.548  1.00  0.00     0.016 A 
ATOM     33  C   UNL A   1      35.334  34.314  28.603  1.00  0.00     0.016 A 
ATOM     34  C   UNL A   1      35.751  32.405  30.616  1.00  0.00     0.010 A 
ATOM     35  C   UNL A   1      36.549  33.620  28.674  1.00  0.00     0.010 A 
ATOM     36  C   UNL A   1      36.779  32.697  29.710  1.00  0.00    -0.014 A 
BRANCH  36  37
ATOM     37  C   UNL A   1      38.127  32.131  29.960  1.00  0.00     0.031 A 
ATOM     38  C   UNL A   1      39.089  32.883  30.838  1.00  0.00     0.074 A 
ATOM     39  C   UNL A   1      38.465  30.925  29.473  1.00  0.00     0.049 A 
ATOM     40  N   UNL A   1      40.266  32.517  31.281  1.00  0.00    -0.248 NA
ATOM     41  C   UNL A   1      38.672  34.225  31.274  1.00  0.00     0.031 C 
ATOM     42  C   UNL A   1      37.620  30.091  28.620  1.00  0.00     0.029 A 
ATOM     43  N   UNL A   1      39.610  30.188  29.642  1.00  0.00    -0.354 N 
ATOM     44  C   UNL A   1      40.729  33.581  32.044  1.00  0.00     0.074 A 
ATOM     45  C   UNL A   1      39.724  34.620  31.975  1.00  0.00     0.031 C 
ATOM     46  C   UNL A   1      38.275  28.950  28.343  1.00  0.00     0.029 A 
ATOM     47  C   UNL A   1      39.586  28.981  28.990  1.00  0.00     0.049 A 
ATOM     48  H   UNL A   1      40.375  30.496  30.179  1.00  0.00     0.167 HD
ATOM     49  C   UNL A   1      41.881  33.683  32.749  1.00  0.00     0.031 A 
ATOM     50  C   UNL A   1      40.514  28.007  28.922  1.00  0.00     0.031 A 
ATOM     51  C   UNL A   1      42.887  32.656  32.813  1.00  0.00     0.049 A 
ATOM     52  C   UNL A   1      41.797  28.149  29.694  1.00  0.00     0.074 A 
ATOM     53  C   UNL A   1      44.069  32.651  33.533  1.00  0.00     0.029 A 
ATOM     54  N   UNL A   1      42.835  31.457  32.120  1.00  0.00    -0.354 N 
ATOM     55  N   UNL A   1      42.192  29.132  30.467  1.00  0.00    -0.248 NA
ATOM     56  C   UNL A   1      42.752  27.036  29.600  1.00  0.00     0.031 C 
ATOM     57  C   UNL A   1      44.758  31.469  33.232  1.00  0.00     0.029 A 
ATOM     58  C   UNL A   1      43.977  30.716  32.370  1.00  0.00     0.049 A 
ATOM     59  H   UNL A   1      42.094  31.174  31.536  1.00  0.00     0.167 HD
ATOM     60  C   UNL A   1      43.427  28.745  30.972  1.00  0.00     0.074 A 
ATOM     61  C   UNL A   1      43.709  27.433  30.428  1.00  0.00     0.031 C 
ATOM     62  C   UNL A   1      44.251  29.416  31.815  1.00  0.00     0.031 A 
BRANCH  49  63
ATOM     63  C   UNL A   1      42.128  34.973  33.480  1.00  0.00    -0.014 A 
ATOM     64  C   UNL A   1      42.982  35.959  32.959  1.00  0.00     0.009 A 
ATOM     65  C   UNL A   1      41.482  35.211  34.703  1.00  0.00     0.009 A 
ATOM     66  C   UNL A   1      43.214  37.139  33.668  1.00  0.00     0.001 A 
ATOM     67  C   UNL A   1      41.695  36.404  35.397  1.00  0.00     0.001 A 
ATOM     68  C   UNL A   1      42.569  37.362  34.884  1.00  0.00     0.000 A 
ENDBRANCH  49  63
BRANCH  50  69
ATOM     69  C   UNL A   1      40.253  26.802  28.094  1.00  0.00    -0.014 A 
ATOM     70  C   UNL A   1      40.765  26.696  26.792  1.00  0.00     0.009 A 
ATOM     71  C   UNL A   1      39.496  25.741  28.615  1.00  0.00     0.009 A 
ATOM     72  C   UNL A   1      40.510  25.558  26.025  1.00  0.00     0.001 A 
ATOM     73  C   UNL A   1      39.265  24.594  27.855  1.00  0.00     0.001 A 
ATOM     74  C   UNL A   1      39.766  24.505  26.558  1.00  0.00     0.000 A 
ENDBRANCH  50  69
BRANCH  62  75
ATOM     75  C   UNL A   1      45.525  28.730  32.221  1.00  0.00    -0.014 A 
ATOM     76  C   UNL A   1      45.581  27.896  33.349  1.00  0.00     0.009 A 
ATOM     77  C   UNL A   1      46.682  28.895  31.441  1.00  0.00     0.009 A 
ATOM     78  C   UNL A   1      46.776  27.270  33.707  1.00  0.00     0.001 A 
ATOM     79  C   UNL A   1      47.868  28.246  31.786  1.00  0.00     0.001 A 
ATOM     80  C   UNL A   1      47.917  27.442  32.923  1.00  0.00     0.000 A 
ENDBRANCH  62  75
ENDBRANCH  36  37
ENDBRANCH  29  31
ENDBRANCH  28  29
ENDBRANCH  27  28
ENDBRANCH  26  27
ENDBRANCH   1  26
TORSDOF 17
ENDMDL
MODEL 2
REMARK VINA RESULT:      -8.5      5.220      8.968
REMARK SMILES Cc1cc(Cl)ccc1Oc1cc(C)c(N)c(C(=O)OCCOCCOC(=O)c2ccc(-c3c4nc(c(-c5ccccc5)c5ccc([nH]5)c(-c5ccccc5)c5nc(c(-c6ccccc6)c6ccc3[nH]6)C=C5)C=C4)cc2)c1
REMARK SMILES IDX 22 1 21 2 20 3 19 4 17 5 18 6 16 7 10 8 11 9 76 10 12 11
REMARK SMILES IDX 13 12 14 13 9 14 8 15 1 16 2 17 3 18 4 19 7 20 5 21 6 22
REMARK SMILES IDX 15 23 23 26 24 27 25 28 26 29 27 30 28 31 29 32 75 33 30 34
REMARK SMILES IDX 74 35 31 36 32 37 33 38 68 39 34 40 73 41 67 42 69 43 35 44
REMARK SMILES IDX 72 45 66 46 65 47 36 49 58 50 43 51 57 52 44 53 47 54 56 55
REMARK SMILES IDX 70 56 45 57 46 58 55 60 71 61 48 62 37 63 38 64 42 65 39 66
REMARK SMILES IDX 41 67 40 68 59 69 60 70 64 71 61 72 63 73 62 74 49 75 50 76
REMARK SMILES IDX 54 77 51 78 53 79 52 80
REMARK H PARENT 15 24 15 25 69 48 47 59
REMARK Flexibility Score: inf
ROOT
ATOM      1  O   UNL A   1      32.328  29.967  26.635  1.00  0.00    -0.374 OA
ENDROOT
BRANCH   1   2
ATOM      2  C   UNL A   1      33.551  29.720  25.940  1.00  0.00     0.202 C 
BRANCH   2   3
ATOM      3  C   UNL A   1      33.515  28.594  24.903  1.00  0.00     0.261 C 
BRANCH   3   4
ATOM      4  O   UNL A   1      33.644  29.115  23.570  1.00  0.00    -0.460 OA
BRANCH   4   5
ATOM      5  C   UNL A   1      33.298  28.249  22.584  1.00  0.00     0.340 C 
ATOM      6  O   UNL A   1      34.035  27.831  21.703  1.00  0.00    -0.246 OA
BRANCH   5   7
ATOM      7  C   UNL A   1      31.913  27.740  22.788  1.00  0.00     0.086 A 
ATOM      8  C   UNL A   1      30.385  25.935  23.308  1.00  0.00     0.128 A 
ATOM      9  C   UNL A   1      29.325  26.839  23.313  1.00  0.00     0.052 A 
ATOM     10  C   UNL A   1      31.687  26.396  23.105  1.00  0.00     0.065 A 
ATOM     11  C   UNL A   1      29.526  28.175  22.924  1.00  0.00    -0.024 A 
ATOM     12  C   UNL A   1      28.327  29.071  22.757  1.00  0.00     0.047 C 
ATOM     13  C   UNL A   1      30.828  28.638  22.643  1.00  0.00     0.049 A 
BRANCH   8  14
ATOM     14  O   UNL A   1      30.262  24.592  23.542  1.00  0.00    -0.457 OA
BRANCH  14  15
ATOM     15  C   UNL A   1      31.036  23.916  24.464  1.00  0.00     0.130 A 
ATOM     16  C   UNL A   1      32.677  22.674  22.892  1.00  0.00     0.048 C 
ATOM     17  C   UNL A   1      32.141  23.074  24.238  1.00  0.00    -0.007 A 
ATOM     18  C   UNL A   1      32.818  22.539  25.357  1.00  0.00     0.027 A 
ATOM     19  C   UNL A   1      32.459  22.888  26.658  1.00  0.00     0.041 A 
ATOM     20  C   UNL A   1      30.697  24.264  25.786  1.00  0.00     0.049 A 
ATOM     21  Cl  UNL A   1      33.345  22.257  27.991  1.00  0.00    -0.084 Cl
ATOM     22  C   UNL A   1      31.405  23.761  26.878  1.00  0.00     0.024 A 
ENDBRANCH  14  15
ENDBRANCH   8  14
BRANCH  13  23
ATOM     23  N   UNL A   1      31.013  29.889  22.044  1.00  0.00    -0.398 N 
ATOM     24  H   UNL A   1      31.477  30.606  22.534  1.00  0.00     0.156 HD
ATOM     25  H   UNL A   1      30.678  30.053  21.133  1.00  0.00     0.156 HD
ENDBRANCH  13  23
ENDBRANCH   5   7
ENDBRANCH   4   5
ENDBRANCH   3   4
ENDBRANCH   2   3
ENDBRANCH   1   2
BRANCH   1  26
ATOM     26  C   UNL A   1      31.491  31.005  26.118  1.00  0.00     0.202 C 
BRANCH  26  27
ATOM     27  C   UNL A   1      31.424  32.287  26.955  1.00  0.00     0.261 C 
BRANCH  27  28
ATOM     28  O   UNL A   1      32.623  33.072  26.823  1.00  0.00    -0.460 OA
BRANCH  28  29
ATOM     29  C   UNL A   1      33.143  33.508  27.993  1.00  0.00     0.338 C 
ATOM     30  O   UNL A   1      32.601  34.232  28.820  1.00  0.00    -0.246 OA
BRANCH  29  31
ATOM     31  C   UNL A   1      34.439  32.856  28.259  1.00  0.00     0.060 A 
ATOM     32  C   UNL A   1      34.401  31.548  28.758  1.00  0.00     0.016 A 
ATOM     33  C   UNL A   1      35.659  33.518  28.101  1.00  0.00     0.016 A 
ATOM     34  C   UNL A   1      35.575  30.925  29.171  1.00  0.00     0.010 A 
ATOM     35  C   UNL A   1      36.840  32.890  28.518  1.00  0.00     0.010 A 
ATOM     36  C   UNL A   1      36.795  31.610  29.098  1.00  0.00    -0.014 A 
BRANCH  36  37
ATOM     37  C   UNL A   1      37.979  31.019  29.769  1.00  0.00     0.031 A 
ATOM     38  C   UNL A   1      38.223  31.314  31.223  1.00  0.00     0.074 A 
ATOM     39  C   UNL A   1      38.787  30.171  29.112  1.00  0.00     0.049 A 
ATOM     40  N   UNL A   1      39.123  30.812  32.031  1.00  0.00    -0.248 NA
ATOM     41  C   UNL A   1      37.336  32.305  31.852  1.00  0.00     0.031 C 
ATOM     42  C   UNL A   1      38.654  29.794  27.705  1.00  0.00     0.029 A 
ATOM     43  N   UNL A   1      39.876  29.461  29.552  1.00  0.00    -0.354 N 
ATOM     44  C   UNL A   1      38.913  31.426  33.259  1.00  0.00     0.074 A 
ATOM     45  C   UNL A   1      37.824  32.363  33.083  1.00  0.00     0.031 C 
ATOM     46  C   UNL A   1      39.624  28.916  27.398  1.00  0.00     0.029 A 
ATOM     47  C   UNL A   1      40.449  28.678  28.581  1.00  0.00     0.049 A 
ATOM     48  H   UNL A   1      40.215  29.509  30.475  1.00  0.00     0.167 HD
ATOM     49  C   UNL A   1      39.559  31.223  34.433  1.00  0.00     0.031 A 
ATOM     50  C   UNL A   1      41.517  27.860  28.637  1.00  0.00     0.031 A 
ATOM     51  C   UNL A   1      40.647  30.299  34.610  1.00  0.00     0.049 A 
ATOM     52  C   UNL A   1      42.235  27.664  29.945  1.00  0.00     0.074 A 
ATOM     53  C   UNL A   1      41.338  29.994  35.770  1.00  0.00     0.029 A 
ATOM     54  N   UNL A   1      41.212  29.542  33.597  1.00  0.00    -0.354 N 
ATOM     55  N   UNL A   1      41.981  28.201  31.115  1.00  0.00    -0.248 NA
ATOM     56  C   UNL A   1      43.372  26.734  29.942  1.00  0.00     0.031 C 
ATOM     57  C   UNL A   1      42.357  29.091  35.446  1.00  0.00     0.029 A 
ATOM     58  C   UNL A   1      42.263  28.791  34.096  1.00  0.00     0.049 A 
ATOM     59  H   UNL A   1      40.909  29.537  32.659  1.00  0.00     0.167 HD
ATOM     60  C   UNL A   1      42.910  27.653  31.992  1.00  0.00     0.074 A 
ATOM     61  C   UNL A   1      43.722  26.734  31.222  1.00  0.00     0.031 C 
ATOM     62  C   UNL A   1      43.070  27.888  33.318  1.00  0.00     0.031 A 
BRANCH  49  63
ATOM     63  C   UNL A   1      39.121  32.049  35.610  1.00  0.00    -0.014 A 
ATOM     64  C   UNL A   1      38.166  31.574  36.524  1.00  0.00     0.009 A 
ATOM     65  C   UNL A   1      39.684  33.318  35.814  1.00  0.00     0.009 A 
ATOM     66  C   UNL A   1      37.757  32.370  37.596  1.00  0.00     0.001 A 
ATOM     67  C   UNL A   1      39.293  34.101  36.902  1.00  0.00     0.001 A 
ATOM     68  C   UNL A   1      38.322  33.630  37.786  1.00  0.00     0.000 A 
ENDBRANCH  49  63
BRANCH  50  69
ATOM     69  C   UNL A   1      41.965  27.153  27.410  1.00  0.00    -0.014 A 
ATOM     70  C   UNL A   1      41.466  25.882  27.087  1.00  0.00     0.009 A 
ATOM     71  C   UNL A   1      42.890  27.760  26.546  1.00  0.00     0.009 A 
ATOM     72  C   UNL A   1      41.897  25.228  25.932  1.00  0.00     0.001 A 
ATOM     73  C   UNL A   1      43.299  27.115  25.379  1.00  0.00     0.001 A 
ATOM     74  C   UNL A   1      42.808  25.847  25.075  1.00  0.00     0.000 A 
ENDBRANCH  50  69
BRANCH  62  75
ATOM     75  C   UNL A   1      44.150  27.119  34.027  1.00  0.00    -0.014 A 
ATOM     76  C   UNL A   1      45.447  27.638  34.164  1.00  0.00     0.009 A 
ATOM     77  C   UNL A   1      43.854  25.870  34.596  1.00  0.00     0.009 A 
ATOM     78  C   UNL A   1      46.434  26.905  34.826  1.00  0.00     0.001 A 
ATOM     79  C   UNL A   1      44.836  25.153  35.281  1.00  0.00     0.001 A 
ATOM     80  C   UNL A   1      46.127  25.666  35.388  1.00  0.00     0.000 A 
ENDBRANCH  62  75
ENDBRANCH  36  37
ENDBRANCH  29  31
ENDBRANCH  28  29
ENDBRANCH  27  28
ENDBRANCH  26  27
ENDBRANCH   1  26
TORSDOF 17
ENDMDL
MODEL 3
REMARK VINA RESULT:      -8.3      6.203     12.022
REMARK SMILES Cc1cc(Cl)ccc1Oc1cc(C)c(N)c(C(=O)OCCOCCOC(=O)c2ccc(-c3c4nc(c(-c5ccccc5)c5ccc([nH]5)c(-c5ccccc5)c5nc(c(-c6ccccc6)c6ccc3[nH]6)C=C5)C=C4)cc2)c1
REMARK SMILES IDX 22 1 21 2 20 3 19 4 17 5 18 6 16 7 10 8 11 9 76 10 12 11
REMARK SMILES IDX 13 12 14 13 9 14 8 15 1 16 2 17 3 18 4 19 7 20 5 21 6 22
REMARK SMILES IDX 15 23 23 26 24 27 25 28 26 29 27 30 28 31 29 32 75 33 30 34
REMARK SMILES IDX 74 35 31 36 32 37 33 38 68 39 34 40 73 41 67 42 69 43 35 44
REMARK SMILES IDX 72 45 66 46 65 47 36 49 58 50 43 51 57 52 44 53 47 54 56 55
REMARK SMILES IDX 70 56 45 57 46 58 55 60 71 61 48 62 37 63 38 64 42 65 39 66
REMARK SMILES IDX 41 67 40 68 59 69 60 70 64 71 61 72 63 73 62 74 49 75 50 76
REMARK SMILES IDX 54 77 51 78 53 79 52 80
REMARK H PARENT 15 24 15 25 69 48 47 59
REMARK Flexibility Score: inf
ROOT
ATOM      1  O   UNL A   1      37.538  21.222  24.726  1.00  0.00    -0.374 OA
ENDROOT
BRANCH   1   2
ATOM      2  C   UNL A   1      36.504  20.266  24.965  1.00  0.00     0.202 C 
BRANCH   2   3
ATOM      3  C   UNL A   1      35.089  20.834  25.114  1.00  0.00     0.261 C 
BRANCH   3   4
ATOM      4  O   UNL A   1      34.923  21.476  26.389  1.00  0.00    -0.460 OA
BRANCH   4   5
ATOM      5  C   UNL A   1      34.956  22.832  26.352  1.00  0.00     0.340 C 
ATOM      6  O   UNL A   1      35.951  23.530  26.482  1.00  0.00    -0.246 OA
BRANCH   5   7
ATOM      7  C   UNL A   1      33.624  23.385  25.980  1.00  0.00     0.086 A 
ATOM      8  C   UNL A   1      32.250  24.839  24.615  1.00  0.00     0.128 A 
ATOM      9  C   UNL A   1      31.106  24.299  25.197  1.00  0.00     0.052 A 
ATOM     10  C   UNL A   1      33.506  24.340  24.964  1.00  0.00     0.065 A 
ATOM     11  C   UNL A   1      31.211  23.395  26.270  1.00  0.00    -0.024 A 
ATOM     12  C   UNL A   1      29.958  22.982  26.996  1.00  0.00     0.047 C 
ATOM     13  C   UNL A   1      32.479  22.937  26.683  1.00  0.00     0.049 A 
BRANCH   8  14
ATOM     14  O   UNL A   1      32.247  25.820  23.660  1.00  0.00    -0.457 OA
BRANCH  14  15
ATOM     15  C   UNL A   1      31.599  27.027  23.826  1.00  0.00     0.130 A 
ATOM     16  C   UNL A   1      33.051  28.100  25.683  1.00  0.00     0.048 C 
ATOM     17  C   UNL A   1      31.926  28.093  24.686  1.00  0.00    -0.007 A 
ATOM     18  C   UNL A   1      31.139  29.265  24.634  1.00  0.00     0.027 A 
ATOM     19  C   UNL A   1      30.109  29.407  23.705  1.00  0.00     0.041 A 
ATOM     20  C   UNL A   1      30.561  27.196  22.889  1.00  0.00     0.049 A 
ATOM     21  Cl  UNL A   1      29.211  30.873  23.638  1.00  0.00    -0.084 Cl
ATOM     22  C   UNL A   1      29.823  28.378  22.821  1.00  0.00     0.024 A 
ENDBRANCH  14  15
ENDBRANCH   8  14
BRANCH  13  23
ATOM     23  N   UNL A   1      32.611  22.223  27.879  1.00  0.00    -0.398 N 
ATOM     24  H   UNL A   1      33.444  21.733  28.071  1.00  0.00     0.156 HD
ATOM     25  H   UNL A   1      31.872  22.209  28.529  1.00  0.00     0.156 HD
ENDBRANCH  13  23
ENDBRANCH   5   7
ENDBRANCH   4   5
ENDBRANCH   3   4
ENDBRANCH   2   3
ENDBRANCH   1   2
BRANCH   1  26
ATOM     26  C   UNL A   1      38.694  21.144  25.563  1.00  0.00     0.202 C 
BRANCH  26  27
ATOM     27  C   UNL A   1      39.412  19.790  25.585  1.00  0.00     0.261 C 
BRANCH  27  28
ATOM     28  O   UNL A   1      40.470  19.765  26.561  1.00  0.00    -0.460 OA
BRANCH  28  29
ATOM     29  C   UNL A   1      41.705  19.985  26.059  1.00  0.00     0.338 C 
ATOM     30  O   UNL A   1      42.280  19.335  25.193  1.00  0.00    -0.246 OA
BRANCH  29  31
ATOM     31  C   UNL A   1      42.256  21.253  26.574  1.00  0.00     0.060 A 
ATOM     32  C   UNL A   1      42.278  21.417  27.965  1.00  0.00     0.016 A 
ATOM     33  C   UNL A   1      42.671  22.288  25.732  1.00  0.00     0.016 A 
ATOM     34  C   UNL A   1      42.644  22.641  28.516  1.00  0.00     0.010 A 
ATOM     35  C   UNL A   1      43.039  23.520  26.289  1.00  0.00     0.010 A 
ATOM     36  C   UNL A   1      42.980  23.714  27.681  1.00  0.00    -0.014 A 
BRANCH  36  37
ATOM     37  C   UNL A   1      43.123  25.063  28.283  1.00  0.00     0.031 A 
ATOM     38  C   UNL A   1      44.488  25.543  28.693  1.00  0.00     0.074 A 
ATOM     39  C   UNL A   1      42.063  25.880  28.394  1.00  0.00     0.049 A 
ATOM     40  N   UNL A   1      44.856  26.723  29.127  1.00  0.00    -0.248 NA
ATOM     41  C   UNL A   1      45.585  24.566  28.604  1.00  0.00     0.031 C 
ATOM     42  C   UNL A   1      40.690  25.539  28.023  1.00  0.00     0.029 A 
ATOM     43  N   UNL A   1      41.982  27.175  28.842  1.00  0.00    -0.354 N 
ATOM     44  C   UNL A   1      46.221  26.630  29.363  1.00  0.00     0.074 A 
ATOM     45  C   UNL A   1      46.611  25.269  29.060  1.00  0.00     0.031 C 
ATOM     46  C   UNL A   1      39.902  26.603  28.254  1.00  0.00     0.029 A 
ATOM     47  C   UNL A   1      40.712  27.692  28.798  1.00  0.00     0.049 A 
ATOM     48  H   UNL A   1      42.761  27.683  29.165  1.00  0.00     0.167 HD
ATOM     49  C   UNL A   1      47.078  27.590  29.785  1.00  0.00     0.031 A 
ATOM     50  C   UNL A   1      40.252  28.907  29.154  1.00  0.00     0.031 A 
ATOM     51  C   UNL A   1      46.693  28.941  30.096  1.00  0.00     0.049 A 
ATOM     52  C   UNL A   1      41.216  29.953  29.640  1.00  0.00     0.074 A 
ATOM     53  C   UNL A   1      47.497  29.997  30.490  1.00  0.00     0.029 A 
ATOM     54  N   UNL A   1      45.393  29.419  30.059  1.00  0.00    -0.354 N 
ATOM     55  N   UNL A   1      42.516  29.871  29.794  1.00  0.00    -0.248 NA
ATOM     56  C   UNL A   1      40.651  31.266  29.981  1.00  0.00     0.031 C 
ATOM     57  C   UNL A   1      46.673  31.100  30.746  1.00  0.00     0.029 A 
ATOM     58  C   UNL A   1      45.365  30.746  30.454  1.00  0.00     0.049 A 
ATOM     59  H   UNL A   1      44.605  28.892  29.791  1.00  0.00     0.167 HD
ATOM     60  C   UNL A   1      42.927  31.127  30.224  1.00  0.00     0.074 A 
ATOM     61  C   UNL A   1      41.741  31.955  30.293  1.00  0.00     0.031 C 
ATOM     62  C   UNL A   1      44.177  31.556  30.528  1.00  0.00     0.031 A 
BRANCH  49  63
ATOM     63  C   UNL A   1      48.517  27.195  29.967  1.00  0.00    -0.014 A 
ATOM     64  C   UNL A   1      49.471  27.414  28.960  1.00  0.00     0.009 A 
ATOM     65  C   UNL A   1      48.926  26.607  31.174  1.00  0.00     0.009 A 
ATOM     66  C   UNL A   1      50.796  27.016  29.144  1.00  0.00     0.001 A 
ATOM     67  C   UNL A   1      50.258  26.234  31.365  1.00  0.00     0.001 A 
ATOM     68  C   UNL A   1      51.190  26.429  30.346  1.00  0.00     0.000 A 
ENDBRANCH  49  63
BRANCH  50  69
ATOM     69  C   UNL A   1      38.799  29.200  29.050  1.00  0.00    -0.014 A 
ATOM     70  C   UNL A   1      37.951  29.044  30.156  1.00  0.00     0.009 A 
ATOM     71  C   UNL A   1      38.258  29.653  27.836  1.00  0.00     0.009 A 
ATOM     72  C   UNL A   1      36.587  29.322  30.043  1.00  0.00     0.001 A 
ATOM     73  C   UNL A   1      36.900  29.954  27.734  1.00  0.00     0.001 A 
ATOM     74  C   UNL A   1      36.063  29.782  28.835  1.00  0.00     0.000 A 
ENDBRANCH  50  69
BRANCH  62  75
ATOM     75  C   UNL A   1      44.329  32.994  30.941  1.00  0.00    -0.014 A 
ATOM     76  C   UNL A   1      44.187  33.390  32.279  1.00  0.00     0.009 A 
ATOM     77  C   UNL A   1      44.656  33.962  29.977  1.00  0.00     0.009 A 
ATOM     78  C   UNL A   1      44.332  34.731  32.638  1.00  0.00     0.001 A 
ATOM     79  C   UNL A   1      44.828  35.298  30.343  1.00  0.00     0.001 A 
ATOM     80  C   UNL A   1      44.656  35.683  31.671  1.00  0.00     0.000 A 
ENDBRANCH  62  75
ENDBRANCH  36  37
ENDBRANCH  29  31
ENDBRANCH  28  29
ENDBRANCH  27  28
ENDBRANCH  26  27
ENDBRANCH   1  26
TORSDOF 17
ENDMDL
