MODEL 1
REMARK VINA RESULT:     -10.5      0.000      0.000
REMARK SMILES COc1ccc(CNC(=O)[C@H]2CC(C)=C(C)C[C@@H]2C(=O)OCCOCCOC(=O)c2ccc(-c3c4nc(c(-c5ccccc5)c5ccc([nH]5)c(-c5ccccc5)c5nc(c(-c6ccccc6)c6ccc3[nH]6)C=C5)C=C4)cc2)cc1OC
REMARK SMILES IDX 23 1 22 2 21 3 19 4 20 5 18 6 11 7 12 8 13 9 17 10 14 11
REMARK SMILES IDX 15 12 16 13 9 14 8 15 10 17 7 18 6 19 3 20 4 21 79 22 5 23
REMARK SMILES IDX 78 24 2 25 1 26 80 27 81 28 24 29 25 30 26 31 27 32 28 33
REMARK SMILES IDX 29 34 30 35 31 36 77 37 32 38 76 39 33 40 34 41 35 42 70 43
REMARK SMILES IDX 36 44 75 45 69 46 71 47 37 48 74 49 68 50 67 51 38 53 60 54
REMARK SMILES IDX 45 55 59 56 46 57 49 58 58 59 72 60 47 61 48 62 57 64 73 65
REMARK SMILES IDX 50 66 39 67 40 68 44 69 41 70 43 71 42 72 61 73 62 74 66 75
REMARK SMILES IDX 63 76 65 77 64 78 51 79 52 80 56 81 53 82 55 83 54 84
REMARK H PARENT 8 16 71 52 49 63
REMARK Flexibility Score: inf
ROOT
ATOM      1  C   UNL A   1      32.452  30.052  26.476  1.00  0.00     0.202 C 
ENDROOT
BRANCH   1   2
ATOM      2  C   UNL A   1      31.996  28.856  27.315  1.00  0.00     0.261 C 
BRANCH   2   3
ATOM      3  O   UNL A   1      31.298  27.885  26.528  1.00  0.00    -0.463 OA
BRANCH   3   4
ATOM      4  C   UNL A   1      32.103  27.150  25.726  1.00  0.00     0.310 C 
ATOM      5  O   UNL A   1      33.087  26.525  26.115  1.00  0.00    -0.252 OA
BRANCH   4   6
ATOM      6  C   UNL A   1      31.724  27.182  24.254  1.00  0.00     0.116 C 
ATOM      7  C   UNL A   1      32.478  28.115  23.289  1.00  0.00     0.097 C 
ATOM      8  C   UNL A   1      31.688  29.276  22.650  1.00  0.00     0.045 C 
ATOM      9  C   UNL A   1      30.194  29.154  22.559  1.00  0.00    -0.074 C 
ATOM     10  C   UNL A   1      30.176  27.259  24.198  1.00  0.00     0.046 C 
ATOM     11  C   UNL A   1      29.547  30.181  21.658  1.00  0.00     0.039 C 
ATOM     12  C   UNL A   1      29.513  28.233  23.261  1.00  0.00    -0.073 C 
ATOM     13  C   UNL A   1      28.005  28.144  23.230  1.00  0.00     0.039 C 
BRANCH   7  14
ATOM     14  C   UNL A   1      33.260  27.453  22.138  1.00  0.00     0.224 C 
ATOM     15  N   UNL A   1      32.794  26.419  21.387  1.00  0.00    -0.352 N 
ATOM     16  H   UNL A   1      33.039  26.444  20.434  1.00  0.00     0.163 HD
ATOM     17  O   UNL A   1      34.313  27.978  21.756  1.00  0.00    -0.275 OA
BRANCH  15  18
ATOM     18  C   UNL A   1      31.991  25.295  21.790  1.00  0.00     0.151 C 
BRANCH  18  19
ATOM     19  C   UNL A   1      32.592  24.370  22.799  1.00  0.00    -0.025 A 
ATOM     20  C   UNL A   1      33.811  23.137  24.999  1.00  0.00     0.160 A 
ATOM     21  C   UNL A   1      32.414  23.130  24.864  1.00  0.00     0.051 A 
ATOM     22  C   UNL A   1      34.612  23.722  24.012  1.00  0.00     0.161 A 
ATOM     23  C   UNL A   1      31.805  23.755  23.775  1.00  0.00     0.009 A 
ATOM     24  C   UNL A   1      33.988  24.328  22.919  1.00  0.00     0.056 A 
BRANCH  20  25
ATOM     25  O   UNL A   1      34.364  22.502  26.077  1.00  0.00    -0.493 OA
ATOM     26  C   UNL A   1      33.886  21.160  26.200  1.00  0.00     0.278 C 
ENDBRANCH  20  25
BRANCH  22  27
ATOM     27  O   UNL A   1      35.974  23.814  23.950  1.00  0.00    -0.493 OA
ATOM     28  C   UNL A   1      36.698  22.699  23.461  1.00  0.00     0.278 C 
ENDBRANCH  22  27
ENDBRANCH  18  19
ENDBRANCH  15  18
ENDBRANCH   7  14
ENDBRANCH   4   6
ENDBRANCH   3   4
ENDBRANCH   2   3
ENDBRANCH   1   2
BRANCH   1  29
ATOM     29  O   UNL A   1      31.443  30.912  25.956  1.00  0.00    -0.374 OA
BRANCH  29  30
ATOM     30  C   UNL A   1      31.314  32.226  26.506  1.00  0.00     0.202 C 
BRANCH  30  31
ATOM     31  C   UNL A   1      32.362  32.681  27.528  1.00  0.00     0.261 C 
BRANCH  31  32
ATOM     32  O   UNL A   1      32.470  34.118  27.575  1.00  0.00    -0.460 OA
BRANCH  32  33
ATOM     33  C   UNL A   1      33.122  34.604  28.656  1.00  0.00     0.338 C 
ATOM     34  O   UNL A   1      32.721  35.447  29.449  1.00  0.00    -0.246 OA
BRANCH  33  35
ATOM     35  C   UNL A   1      34.344  33.823  28.902  1.00  0.00     0.060 A 
ATOM     36  C   UNL A   1      34.380  33.013  30.045  1.00  0.00     0.016 A 
ATOM     37  C   UNL A   1      35.470  33.956  28.087  1.00  0.00     0.016 A 
ATOM     38  C   UNL A   1      35.558  32.363  30.404  1.00  0.00     0.010 A 
ATOM     39  C   UNL A   1      36.657  33.317  28.459  1.00  0.00     0.010 A 
ATOM     40  C   UNL A   1      36.714  32.546  29.635  1.00  0.00    -0.014 A 
BRANCH  40  41
ATOM     41  C   UNL A   1      38.012  32.050  30.145  1.00  0.00     0.031 A 
ATOM     42  C   UNL A   1      38.550  30.746  29.624  1.00  0.00     0.074 A 
ATOM     43  C   UNL A   1      38.717  32.765  31.037  1.00  0.00     0.049 A 
ATOM     44  N   UNL A   1      39.643  30.108  29.958  1.00  0.00    -0.248 NA
ATOM     45  C   UNL A   1      37.752  30.074  28.585  1.00  0.00     0.031 C 
ATOM     46  C   UNL A   1      38.330  34.068  31.574  1.00  0.00     0.029 A 
ATOM     47  N   UNL A   1      39.912  32.486  31.653  1.00  0.00    -0.354 N 
ATOM     48  C   UNL A   1      39.660  28.959  29.178  1.00  0.00     0.074 A 
ATOM     49  C   UNL A   1      38.459  28.975  28.371  1.00  0.00     0.031 C 
ATOM     50  C   UNL A   1      39.266  34.473  32.450  1.00  0.00     0.029 A 
ATOM     51  C   UNL A   1      40.295  33.441  32.560  1.00  0.00     0.049 A 
ATOM     52  H   UNL A   1      40.442  31.679  31.462  1.00  0.00     0.167 HD
ATOM     53  C   UNL A   1      40.592  27.978  29.138  1.00  0.00     0.031 A 
ATOM     54  C   UNL A   1      41.343  33.465  33.407  1.00  0.00     0.031 A 
ATOM     55  C   UNL A   1      41.776  27.953  29.954  1.00  0.00     0.049 A 
ATOM     56  C   UNL A   1      42.313  32.314  33.413  1.00  0.00     0.074 A 
ATOM     57  C   UNL A   1      42.788  27.008  29.976  1.00  0.00     0.029 A 
ATOM     58  N   UNL A   1      42.101  28.911  30.900  1.00  0.00    -0.354 N 
ATOM     59  N   UNL A   1      42.332  31.243  32.658  1.00  0.00    -0.248 NA
ATOM     60  C   UNL A   1      43.410  32.378  34.392  1.00  0.00     0.031 C 
ATOM     61  C   UNL A   1      43.696  27.367  30.979  1.00  0.00     0.029 A 
ATOM     62  C   UNL A   1      43.280  28.565  31.536  1.00  0.00     0.049 A 
ATOM     63  H   UNL A   1      41.572  29.720  31.091  1.00  0.00     0.167 HD
ATOM     64  C   UNL A   1      43.450  30.519  33.052  1.00  0.00     0.074 A 
ATOM     65  C   UNL A   1      44.093  31.280  34.103  1.00  0.00     0.031 C 
ATOM     66  C   UNL A   1      43.906  29.331  32.583  1.00  0.00     0.031 A 
BRANCH  53  67
ATOM     67  C   UNL A   1      40.346  26.827  28.203  1.00  0.00    -0.014 A 
ATOM     68  C   UNL A   1      39.589  25.713  28.600  1.00  0.00     0.009 A 
ATOM     69  C   UNL A   1      40.853  26.873  26.895  1.00  0.00     0.009 A 
ATOM     70  C   UNL A   1      39.371  24.656  27.713  1.00  0.00     0.001 A 
ATOM     71  C   UNL A   1      40.612  25.828  26.004  1.00  0.00     0.001 A 
ATOM     72  C   UNL A   1      39.878  24.717  26.416  1.00  0.00     0.000 A 
ENDBRANCH  53  67
BRANCH  54  73
ATOM     73  C   UNL A   1      41.515  34.604  34.345  1.00  0.00    -0.014 A 
ATOM     74  C   UNL A   1      40.907  34.590  35.609  1.00  0.00     0.009 A 
ATOM     75  C   UNL A   1      42.277  35.723  33.970  1.00  0.00     0.009 A 
ATOM     76  C   UNL A   1      41.041  35.683  36.469  1.00  0.00     0.001 A 
ATOM     77  C   UNL A   1      42.432  36.800  34.842  1.00  0.00     0.001 A 
ATOM     78  C   UNL A   1      41.806  36.784  36.088  1.00  0.00     0.000 A 
ENDBRANCH  54  73
BRANCH  66  79
ATOM     79  C   UNL A   1      45.176  28.795  33.181  1.00  0.00    -0.014 A 
ATOM     80  C   UNL A   1      45.155  27.984  34.326  1.00  0.00     0.009 A 
ATOM     81  C   UNL A   1      46.404  29.062  32.556  1.00  0.00     0.009 A 
ATOM     82  C   UNL A   1      46.345  27.476  34.850  1.00  0.00     0.001 A 
ATOM     83  C   UNL A   1      47.588  28.529  33.066  1.00  0.00     0.001 A 
ATOM     84  C   UNL A   1      47.559  27.743  34.217  1.00  0.00     0.000 A 
ENDBRANCH  66  79
ENDBRANCH  40  41
ENDBRANCH  33  35
ENDBRANCH  32  33
ENDBRANCH  31  32
ENDBRANCH  30  31
ENDBRANCH  29  30
ENDBRANCH   1  29
TORSDOF 19
ENDMDL
MODEL 2
REMARK VINA RESULT:     -10.2      0.691      5.759
REMARK SMILES COc1ccc(CNC(=O)[C@H]2CC(C)=C(C)C[C@@H]2C(=O)OCCOCCOC(=O)c2ccc(-c3c4nc(c(-c5ccccc5)c5ccc([nH]5)c(-c5ccccc5)c5nc(c(-c6ccccc6)c6ccc3[nH]6)C=C5)C=C4)cc2)cc1OC
REMARK SMILES IDX 23 1 22 2 21 3 19 4 20 5 18 6 11 7 12 8 13 9 17 10 14 11
REMARK SMILES IDX 15 12 16 13 9 14 8 15 10 17 7 18 6 19 3 20 4 21 79 22 5 23
REMARK SMILES IDX 78 24 2 25 1 26 80 27 81 28 24 29 25 30 26 31 27 32 28 33
REMARK SMILES IDX 29 34 30 35 31 36 77 37 32 38 76 39 33 40 34 41 35 42 70 43
REMARK SMILES IDX 36 44 75 45 69 46 71 47 37 48 74 49 68 50 67 51 38 53 60 54
REMARK SMILES IDX 45 55 59 56 46 57 49 58 58 59 72 60 47 61 48 62 57 64 73 65
REMARK SMILES IDX 50 66 39 67 40 68 44 69 41 70 43 71 42 72 61 73 62 74 66 75
REMARK SMILES IDX 63 76 65 77 64 78 51 79 52 80 56 81 53 82 55 83 54 84
REMARK H PARENT 8 16 71 52 49 63
REMARK Flexibility Score: inf
ROOT
ATOM      1  C   UNL A   1      32.528  29.795  26.676  1.00  0.00     0.202 C 
ENDROOT
BRANCH   1   2
ATOM      2  C   UNL A   1      32.143  28.480  27.356  1.00  0.00     0.261 C 
BRANCH   2   3
ATOM      3  O   UNL A   1      31.214  27.724  26.573  1.00  0.00    -0.463 OA
BRANCH   3   4
ATOM      4  C   UNL A   1      31.795  26.791  25.784  1.00  0.00     0.310 C 
ATOM      5  O   UNL A   1      32.533  25.897  26.193  1.00  0.00    -0.252 OA
BRANCH   4   6
ATOM      6  C   UNL A   1      31.502  26.950  24.301  1.00  0.00     0.116 C 
ATOM      7  C   UNL A   1      32.334  27.931  23.455  1.00  0.00     0.097 C 
ATOM      8  C   UNL A   1      31.613  29.163  22.869  1.00  0.00     0.045 C 
ATOM      9  C   UNL A   1      30.124  29.094  22.687  1.00  0.00    -0.074 C 
ATOM     10  C   UNL A   1      29.962  27.078  24.167  1.00  0.00     0.046 C 
ATOM     11  C   UNL A   1      29.556  30.208  21.836  1.00  0.00     0.039 C 
ATOM     12  C   UNL A   1      29.379  28.143  23.275  1.00  0.00    -0.073 C 
ATOM     13  C   UNL A   1      27.874  28.103  23.154  1.00  0.00     0.039 C 
BRANCH   7  14
ATOM     14  C   UNL A   1      33.162  27.337  22.300  1.00  0.00     0.224 C 
ATOM     15  N   UNL A   1      32.706  26.394  21.432  1.00  0.00    -0.352 N 
ATOM     16  H   UNL A   1      33.013  26.490  20.502  1.00  0.00     0.163 HD
ATOM     17  O   UNL A   1      34.258  27.846  22.031  1.00  0.00    -0.275 OA
BRANCH  15  18
ATOM     18  C   UNL A   1      31.835  25.276  21.685  1.00  0.00     0.151 C 
BRANCH  18  19
ATOM     19  C   UNL A   1      32.428  24.118  22.419  1.00  0.00    -0.025 A 
ATOM     20  C   UNL A   1      33.734  22.366  24.172  1.00  0.00     0.160 A 
ATOM     21  C   UNL A   1      32.344  22.536  24.243  1.00  0.00     0.051 A 
ATOM     22  C   UNL A   1      34.478  23.037  23.195  1.00  0.00     0.161 A 
ATOM     23  C   UNL A   1      31.693  23.417  23.379  1.00  0.00     0.009 A 
ATOM     24  C   UNL A   1      33.810  23.903  22.326  1.00  0.00     0.056 A 
BRANCH  20  25
ATOM     25  O   UNL A   1      34.327  21.482  25.032  1.00  0.00    -0.493 OA
ATOM     26  C   UNL A   1      33.427  21.063  26.059  1.00  0.00     0.278 C 
ENDBRANCH  20  25
BRANCH  22  27
ATOM     27  O   UNL A   1      35.822  22.992  22.952  1.00  0.00    -0.493 OA
ATOM     28  C   UNL A   1      36.702  23.388  23.990  1.00  0.00     0.278 C 
ENDBRANCH  22  27
ENDBRANCH  18  19
ENDBRANCH  15  18
ENDBRANCH   7  14
ENDBRANCH   4   6
ENDBRANCH   3   4
ENDBRANCH   2   3
ENDBRANCH   1   2
BRANCH   1  29
ATOM     29  O   UNL A   1      31.486  30.731  26.418  1.00  0.00    -0.374 OA
BRANCH  29  30
ATOM     30  C   UNL A   1      31.649  32.078  26.869  1.00  0.00     0.202 C 
BRANCH  30  31
ATOM     31  C   UNL A   1      32.907  32.417  27.673  1.00  0.00     0.261 C 
BRANCH  31  32
ATOM     32  O   UNL A   1      33.166  33.836  27.683  1.00  0.00    -0.460 OA
BRANCH  32  33
ATOM     33  C   UNL A   1      33.315  34.378  28.915  1.00  0.00     0.338 C 
ATOM     34  O   UNL A   1      32.475  34.988  29.564  1.00  0.00    -0.246 OA
BRANCH  33  35
ATOM     35  C   UNL A   1      34.598  33.958  29.499  1.00  0.00     0.060 A 
ATOM     36  C   UNL A   1      35.765  34.225  28.770  1.00  0.00     0.016 A 
ATOM     37  C   UNL A   1      34.652  33.228  30.688  1.00  0.00     0.016 A 
ATOM     38  C   UNL A   1      36.990  33.726  29.205  1.00  0.00     0.010 A 
ATOM     39  C   UNL A   1      35.881  32.713  31.113  1.00  0.00     0.010 A 
ATOM     40  C   UNL A   1      37.046  32.932  30.357  1.00  0.00    -0.014 A 
BRANCH  40  41
ATOM     41  C   UNL A   1      38.299  32.214  30.683  1.00  0.00     0.031 A 
ATOM     42  C   UNL A   1      39.256  32.827  31.668  1.00  0.00     0.074 A 
ATOM     43  C   UNL A   1      38.567  31.018  30.133  1.00  0.00     0.049 A 
ATOM     44  N   UNL A   1      40.423  32.391  32.069  1.00  0.00    -0.248 NA
ATOM     45  C   UNL A   1      38.840  34.097  32.285  1.00  0.00     0.031 C 
ATOM     46  C   UNL A   1      37.693  30.295  29.211  1.00  0.00     0.029 A 
ATOM     47  N   UNL A   1      39.663  30.202  30.273  1.00  0.00    -0.354 N 
ATOM     48  C   UNL A   1      40.884  33.336  32.979  1.00  0.00     0.074 A 
ATOM     49  C   UNL A   1      39.882  34.377  33.053  1.00  0.00     0.031 C 
ATOM     50  C   UNL A   1      38.292  29.144  28.857  1.00  0.00     0.029 A 
ATOM     51  C   UNL A   1      39.604  29.071  29.498  1.00  0.00     0.049 A 
ATOM     52  H   UNL A   1      40.417  30.409  30.870  1.00  0.00     0.167 HD
ATOM     53  C   UNL A   1      42.037  33.335  33.688  1.00  0.00     0.031 A 
ATOM     54  C   UNL A   1      40.519  28.101  29.306  1.00  0.00     0.031 A 
ATOM     55  C   UNL A   1      43.040  32.309  33.599  1.00  0.00     0.049 A 
ATOM     56  C   UNL A   1      41.835  28.174  30.031  1.00  0.00     0.074 A 
ATOM     57  C   UNL A   1      44.237  32.212  34.287  1.00  0.00     0.029 A 
ATOM     58  N   UNL A   1      42.969  31.207  32.762  1.00  0.00    -0.354 N 
ATOM     59  N   UNL A   1      42.252  29.059  30.903  1.00  0.00    -0.248 NA
ATOM     60  C   UNL A   1      42.809  27.110  29.743  1.00  0.00     0.031 C 
ATOM     61  C   UNL A   1      44.917  31.080  33.822  1.00  0.00     0.029 A 
ATOM     62  C   UNL A   1      44.114  30.442  32.890  1.00  0.00     0.049 A 
ATOM     63  H   UNL A   1      42.214  30.998  32.165  1.00  0.00     0.167 HD
ATOM     64  C   UNL A   1      43.523  28.648  31.285  1.00  0.00     0.074 A 
ATOM     65  C   UNL A   1      43.803  27.426  30.562  1.00  0.00     0.031 C 
ATOM     66  C   UNL A   1      44.380  29.229  32.160  1.00  0.00     0.031 A 
BRANCH  53  67
ATOM     67  C   UNL A   1      42.292  34.505  34.595  1.00  0.00    -0.014 A 
ATOM     68  C   UNL A   1      42.893  35.681  34.119  1.00  0.00     0.009 A 
ATOM     69  C   UNL A   1      41.896  34.440  35.940  1.00  0.00     0.009 A 
ATOM     70  C   UNL A   1      43.118  36.757  34.981  1.00  0.00     0.001 A 
ATOM     71  C   UNL A   1      42.099  35.527  36.792  1.00  0.00     0.001 A 
ATOM     72  C   UNL A   1      42.716  36.681  36.314  1.00  0.00     0.000 A 
ENDBRANCH  53  67
BRANCH  54  73
ATOM     73  C   UNL A   1      40.237  26.990  28.360  1.00  0.00    -0.014 A 
ATOM     74  C   UNL A   1      39.532  25.853  28.779  1.00  0.00     0.009 A 
ATOM     75  C   UNL A   1      40.690  27.057  27.032  1.00  0.00     0.009 A 
ATOM     76  C   UNL A   1      39.306  24.795  27.894  1.00  0.00     0.001 A 
ATOM     77  C   UNL A   1      40.439  26.012  26.143  1.00  0.00     0.001 A 
ATOM     78  C   UNL A   1      39.755  24.878  26.577  1.00  0.00     0.000 A 
ENDBRANCH  54  73
BRANCH  66  79
ATOM     79  C   UNL A   1      45.690  28.535  32.408  1.00  0.00    -0.014 A 
ATOM     80  C   UNL A   1      46.833  28.851  31.658  1.00  0.00     0.009 A 
ATOM     81  C   UNL A   1      45.791  27.591  33.441  1.00  0.00     0.009 A 
ATOM     82  C   UNL A   1      48.046  28.211  31.921  1.00  0.00     0.001 A 
ATOM     83  C   UNL A   1      47.012  26.974  33.720  1.00  0.00     0.001 A 
ATOM     84  C   UNL A   1      48.136  27.279  32.955  1.00  0.00     0.000 A 
ENDBRANCH  66  79
ENDBRANCH  40  41
ENDBRANCH  33  35
ENDBRANCH  32  33
ENDBRANCH  31  32
ENDBRANCH  30  31
ENDBRANCH  29  30
ENDBRANCH   1  29
TORSDOF 19
ENDMDL
MODEL 3
REMARK VINA RESULT:     -10.0      4.377     11.195
REMARK SMILES COc1ccc(CNC(=O)[C@H]2CC(C)=C(C)C[C@@H]2C(=O)OCCOCCOC(=O)c2ccc(-c3c4nc(c(-c5ccccc5)c5ccc([nH]5)c(-c5ccccc5)c5nc(c(-c6ccccc6)c6ccc3[nH]6)C=C5)C=C4)cc2)cc1OC
REMARK SMILES IDX 23 1 22 2 21 3 19 4 20 5 18 6 11 7 12 8 13 9 17 10 14 11
REMARK SMILES IDX 15 12 16 13 9 14 8 15 10 17 7 18 6 19 3 20 4 21 79 22 5 23
REMARK SMILES IDX 78 24 2 25 1 26 80 27 81 28 24 29 25 30 26 31 27 32 28 33
REMARK SMILES IDX 29 34 30 35 31 36 77 37 32 38 76 39 33 40 34 41 35 42 70 43
REMARK SMILES IDX 36 44 75 45 69 46 71 47 37 48 74 49 68 50 67 51 38 53 60 54
REMARK SMILES IDX 45 55 59 56 46 57 49 58 58 59 72 60 47 61 48 62 57 64 73 65
REMARK SMILES IDX 50 66 39 67 40 68 44 69 41 70 43 71 42 72 61 73 62 74 66 75
REMARK SMILES IDX 63 76 65 77 64 78 51 79 52 80 56 81 53 82 55 83 54 84
REMARK H PARENT 8 16 71 52 49 63
REMARK Flexibility Score: inf
ROOT
ATOM      1  C   UNL A   1      35.168  33.559  30.684  1.00  0.00     0.202 C 
ENDROOT
BRANCH   1   2
ATOM      2  C   UNL A   1      34.915  32.814  31.996  1.00  0.00     0.261 C 
BRANCH   2   3
ATOM      3  O   UNL A   1      35.802  31.703  32.162  1.00  0.00    -0.463 OA
BRANCH   3   4
ATOM      4  C   UNL A   1      36.960  32.015  32.789  1.00  0.00     0.310 C 
ATOM      5  O   UNL A   1      37.567  33.073  32.638  1.00  0.00    -0.252 OA
BRANCH   4   6
ATOM      6  C   UNL A   1      37.503  30.919  33.690  1.00  0.00     0.116 C 
ATOM      7  C   UNL A   1      38.775  31.169  34.521  1.00  0.00     0.097 C 
ATOM      8  C   UNL A   1      40.032  30.344  34.175  1.00  0.00     0.045 C 
ATOM      9  C   UNL A   1      39.848  29.034  33.464  1.00  0.00    -0.074 C 
ATOM     10  C   UNL A   1      37.488  29.613  32.855  1.00  0.00     0.046 C 
ATOM     11  C   UNL A   1      41.087  28.167  33.443  1.00  0.00     0.039 C 
ATOM     12  C   UNL A   1      38.689  28.705  32.870  1.00  0.00    -0.073 C 
ATOM     13  C   UNL A   1      38.514  27.421  32.094  1.00  0.00     0.039 C 
BRANCH   7  14
ATOM     14  C   UNL A   1      38.638  31.107  36.054  1.00  0.00     0.224 C 
ATOM     15  N   UNL A   1      37.867  31.951  36.792  1.00  0.00    -0.352 N 
ATOM     16  H   UNL A   1      37.413  31.543  37.564  1.00  0.00     0.163 HD
ATOM     17  O   UNL A   1      39.127  30.143  36.656  1.00  0.00    -0.275 OA
BRANCH  15  18
ATOM     18  C   UNL A   1      37.621  33.356  36.599  1.00  0.00     0.151 C 
BRANCH  18  19
ATOM     19  C   UNL A   1      38.683  34.293  37.077  1.00  0.00    -0.025 A 
ATOM     20  C   UNL A   1      41.009  35.558  37.989  1.00  0.00     0.160 A 
ATOM     21  C   UNL A   1      40.653  35.618  36.634  1.00  0.00     0.051 A 
ATOM     22  C   UNL A   1      40.182  34.902  38.908  1.00  0.00     0.161 A 
ATOM     23  C   UNL A   1      39.501  34.978  36.175  1.00  0.00     0.009 A 
ATOM     24  C   UNL A   1      39.023  34.281  38.437  1.00  0.00     0.056 A 
BRANCH  20  25
ATOM     25  O   UNL A   1      42.141  36.211  38.394  1.00  0.00    -0.493 OA
ATOM     26  C   UNL A   1      42.798  36.855  37.301  1.00  0.00     0.278 C 
ENDBRANCH  20  25
BRANCH  22  27
ATOM     27  O   UNL A   1      40.341  34.751  40.256  1.00  0.00    -0.493 OA
ATOM     28  C   UNL A   1      39.695  35.675  41.114  1.00  0.00     0.278 C 
ENDBRANCH  22  27
ENDBRANCH  18  19
ENDBRANCH  15  18
ENDBRANCH   7  14
ENDBRANCH   4   6
ENDBRANCH   3   4
ENDBRANCH   2   3
ENDBRANCH   1   2
BRANCH   1  29
ATOM     29  O   UNL A   1      34.139  34.423  30.211  1.00  0.00    -0.374 OA
BRANCH  29  30
ATOM     30  C   UNL A   1      33.980  34.588  28.799  1.00  0.00     0.202 C 
BRANCH  30  31
ATOM     31  C   UNL A   1      33.542  33.369  27.980  1.00  0.00     0.261 C 
BRANCH  31  32
ATOM     32  O   UNL A   1      34.659  32.512  27.664  1.00  0.00    -0.460 OA
BRANCH  32  33
ATOM     33  C   UNL A   1      34.404  31.187  27.765  1.00  0.00     0.338 C 
ATOM     34  O   UNL A   1      33.343  30.616  27.544  1.00  0.00    -0.246 OA
BRANCH  33  35
ATOM     35  C   UNL A   1      35.655  30.447  27.984  1.00  0.00     0.060 A 
ATOM     36  C   UNL A   1      35.867  29.885  29.251  1.00  0.00     0.016 A 
ATOM     37  C   UNL A   1      36.648  30.388  27.004  1.00  0.00     0.016 A 
ATOM     38  C   UNL A   1      37.091  29.297  29.558  1.00  0.00     0.010 A 
ATOM     39  C   UNL A   1      37.883  29.814  27.322  1.00  0.00     0.010 A 
ATOM     40  C   UNL A   1      38.119  29.297  28.608  1.00  0.00    -0.014 A 
BRANCH  40  41
ATOM     41  C   UNL A   1      39.483  28.887  29.014  1.00  0.00     0.031 A 
ATOM     42  C   UNL A   1      40.320  29.838  29.823  1.00  0.00     0.074 A 
ATOM     43  C   UNL A   1      39.959  27.673  28.691  1.00  0.00     0.049 A 
ATOM     44  N   UNL A   1      41.549  29.701  30.251  1.00  0.00    -0.248 NA
ATOM     45  C   UNL A   1      39.687  31.111  30.203  1.00  0.00     0.031 C 
ATOM     46  C   UNL A   1      39.223  26.642  27.960  1.00  0.00     0.029 A 
ATOM     47  N   UNL A   1      41.184  27.105  28.938  1.00  0.00    -0.354 N 
ATOM     48  C   UNL A   1      41.838  30.870  30.944  1.00  0.00     0.074 A 
ATOM     49  C   UNL A   1      40.666  31.714  30.860  1.00  0.00     0.031 C 
ATOM     50  C   UNL A   1      40.017  25.567  27.808  1.00  0.00     0.029 A 
ATOM     51  C   UNL A   1      41.324  25.852  28.396  1.00  0.00     0.049 A 
ATOM     52  H   UNL A   1      41.892  27.553  29.453  1.00  0.00     0.167 HD
ATOM     53  C   UNL A   1      42.977  31.209  31.592  1.00  0.00     0.031 A 
ATOM     54  C   UNL A   1      42.398  25.038  28.355  1.00  0.00     0.031 A 
ATOM     55  C   UNL A   1      44.148  30.378  31.659  1.00  0.00     0.049 A 
ATOM     56  C   UNL A   1      43.685  25.481  28.998  1.00  0.00     0.074 A 
ATOM     57  C   UNL A   1      45.348  30.628  32.303  1.00  0.00     0.029 A 
ATOM     58  N   UNL A   1      44.271  29.139  31.051  1.00  0.00    -0.354 N 
ATOM     59  N   UNL A   1      43.941  26.578  29.667  1.00  0.00    -0.248 NA
ATOM     60  C   UNL A   1      44.832  24.569  28.878  1.00  0.00     0.031 C 
ATOM     61  C   UNL A   1      46.217  29.565  32.034  1.00  0.00     0.029 A 
ATOM     62  C   UNL A   1      45.537  28.627  31.275  1.00  0.00     0.049 A 
ATOM     63  H   UNL A   1      43.562  28.689  30.536  1.00  0.00     0.167 HD
ATOM     64  C   UNL A   1      45.267  26.479  30.068  1.00  0.00     0.074 A 
ATOM     65  C   UNL A   1      45.758  25.207  29.579  1.00  0.00     0.031 C 
ATOM     66  C   UNL A   1      46.012  27.360  30.780  1.00  0.00     0.031 A 
BRANCH  53  67
ATOM     67  C   UNL A   1      43.024  32.560  32.248  1.00  0.00    -0.014 A 
ATOM     68  C   UNL A   1      42.716  32.723  33.608  1.00  0.00     0.009 A 
ATOM     69  C   UNL A   1      43.411  33.683  31.500  1.00  0.00     0.009 A 
ATOM     70  C   UNL A   1      42.768  33.989  34.197  1.00  0.00     0.001 A 
ATOM     71  C   UNL A   1      43.487  34.942  32.097  1.00  0.00     0.001 A 
ATOM     72  C   UNL A   1      43.158  35.095  33.442  1.00  0.00     0.000 A 
ENDBRANCH  53  67
BRANCH  54  73
ATOM     73  C   UNL A   1      42.314  23.733  27.651  1.00  0.00    -0.014 A 
ATOM     74  C   UNL A   1      42.650  23.627  26.294  1.00  0.00     0.009 A 
ATOM     75  C   UNL A   1      41.878  22.586  28.334  1.00  0.00     0.009 A 
ATOM     76  C   UNL A   1      42.530  22.403  25.629  1.00  0.00     0.001 A 
ATOM     77  C   UNL A   1      41.786  21.359  27.675  1.00  0.00     0.001 A 
ATOM     78  C   UNL A   1      42.103  21.270  26.321  1.00  0.00     0.000 A 
ENDBRANCH  54  73
BRANCH  66  79
ATOM     79  C   UNL A   1      47.426  26.968  31.100  1.00  0.00    -0.014 A 
ATOM     80  C   UNL A   1      48.496  27.378  30.290  1.00  0.00     0.009 A 
ATOM     81  C   UNL A   1      47.695  26.223  32.259  1.00  0.00     0.009 A 
ATOM     82  C   UNL A   1      49.806  27.024  30.621  1.00  0.00     0.001 A 
ATOM     83  C   UNL A   1      49.007  25.895  32.601  1.00  0.00     0.001 A 
ATOM     84  C   UNL A   1      50.061  26.288  31.778  1.00  0.00     0.000 A 
ENDBRANCH  66  79
ENDBRANCH  40  41
ENDBRANCH  33  35
ENDBRANCH  32  33
ENDBRANCH  31  32
ENDBRANCH  30  31
ENDBRANCH  29  30
ENDBRANCH   1  29
TORSDOF 19
ENDMDL
