MODEL 1
REMARK VINA RESULT:     -10.8      0.000      0.000
REMARK SMILES CCc1[nH]nc(-n2cccc2)c1C(=O)OCCOCCOC(=O)c1ccc(-c2c3nc(c(-c4ccccc4)c4ccc([nH]4)c(-c4ccccc4)c4nc(c(-c5ccccc5)c5ccc2[nH]5)C=C4)C=C3)cc1
REMARK SMILES IDX 19 1 18 2 17 3 16 4 15 5 13 6 14 7 12 8 3 9 4 10 5 11 6 13
REMARK SMILES IDX 2 14 1 15 7 16 8 17 11 18 9 19 10 20 20 21 21 22 22 23 23 24
REMARK SMILES IDX 24 25 25 26 71 27 26 28 70 29 27 30 28 31 29 32 64 33 30 34
REMARK SMILES IDX 69 35 63 36 65 37 31 38 68 39 62 40 61 41 32 43 54 44 39 45
REMARK SMILES IDX 53 46 40 47 43 48 52 49 66 50 41 51 42 52 51 54 67 55 44 56
REMARK SMILES IDX 33 57 34 58 38 59 35 60 37 61 36 62 55 63 56 64 60 65 57 66
REMARK SMILES IDX 59 67 58 68 45 69 46 70 50 71 47 72 49 73 48 74
REMARK H PARENT 4 12 65 42 43 53
REMARK Flexibility Score: inf
ROOT
ATOM      1  C   UNL A   1      33.263  31.701  27.623  1.00  0.00     0.202 C 
ENDROOT
BRANCH   1   2
ATOM      2  O   UNL A   1      32.660  30.507  27.148  1.00  0.00    -0.374 OA
BRANCH   2   3
ATOM      3  C   UNL A   1      33.318  29.715  26.161  1.00  0.00     0.202 C 
BRANCH   3   4
ATOM      4  C   UNL A   1      32.469  28.754  25.329  1.00  0.00     0.261 C 
BRANCH   4   5
ATOM      5  O   UNL A   1      31.302  29.399  24.786  1.00  0.00    -0.459 OA
BRANCH   5   6
ATOM      6  C   UNL A   1      30.977  29.036  23.507  1.00  0.00     0.343 C 
ATOM      7  O   UNL A   1      31.748  29.067  22.565  1.00  0.00    -0.246 OA
BRANCH   6   8
ATOM      8  C   UNL A   1      29.636  28.492  23.393  1.00  0.00     0.125 A 
ATOM      9  C   UNL A   1      29.167  27.209  23.650  1.00  0.00     0.052 A 
ATOM     10  N   UNL A   1      27.801  27.281  23.513  1.00  0.00    -0.280 N 
ATOM     11  N   UNL A   1      27.357  28.470  23.082  1.00  0.00    -0.156 NA
ATOM     12  H   UNL A   1      27.202  26.525  23.713  1.00  0.00     0.190 HD
ATOM     13  C   UNL A   1      28.472  29.199  23.002  1.00  0.00     0.173 A 
BRANCH   9  14
ATOM     14  C   UNL A   1      29.836  25.939  24.058  1.00  0.00     0.053 C 
ATOM     15  C   UNL A   1      29.945  25.816  25.574  1.00  0.00     0.011 C 
ENDBRANCH   9  14
BRANCH  13  16
ATOM     16  N   UNL A   1      28.404  30.468  22.369  1.00  0.00    -0.306 N 
ATOM     17  C   UNL A   1      28.712  31.675  22.964  1.00  0.00     0.093 A 
ATOM     18  C   UNL A   1      28.097  30.718  21.050  1.00  0.00     0.093 A 
ATOM     19  C   UNL A   1      28.482  32.691  22.066  1.00  0.00     0.020 A 
ATOM     20  C   UNL A   1      28.092  32.084  20.850  1.00  0.00     0.020 A 
ENDBRANCH  13  16
ENDBRANCH   6   8
ENDBRANCH   5   6
ENDBRANCH   4   5
ENDBRANCH   3   4
ENDBRANCH   2   3
ENDBRANCH   1   2
BRANCH   1  21
ATOM     21  C   UNL A   1      32.464  33.000  27.653  1.00  0.00     0.261 C 
BRANCH  21  22
ATOM     22  O   UNL A   1      33.251  34.170  27.531  1.00  0.00    -0.460 OA
BRANCH  22  23
ATOM     23  C   UNL A   1      33.127  34.933  28.639  1.00  0.00     0.338 C 
ATOM     24  O   UNL A   1      32.313  35.816  28.855  1.00  0.00    -0.246 OA
BRANCH  23  25
ATOM     25  C   UNL A   1      34.283  34.744  29.497  1.00  0.00     0.060 A 
ATOM     26  C   UNL A   1      35.516  34.830  28.849  1.00  0.00     0.016 A 
ATOM     27  C   UNL A   1      34.085  34.030  30.686  1.00  0.00     0.016 A 
ATOM     28  C   UNL A   1      36.527  34.018  29.290  1.00  0.00     0.010 A 
ATOM     29  C   UNL A   1      35.077  33.178  31.096  1.00  0.00     0.010 A 
ATOM     30  C   UNL A   1      36.273  33.161  30.372  1.00  0.00    -0.014 A 
BRANCH  30  31
ATOM     31  C   UNL A   1      37.414  32.431  30.910  1.00  0.00     0.031 A 
ATOM     32  C   UNL A   1      37.604  31.161  30.048  1.00  0.00     0.074 A 
ATOM     33  C   UNL A   1      37.962  32.959  32.051  1.00  0.00     0.049 A 
ATOM     34  N   UNL A   1      38.101  30.018  30.378  1.00  0.00    -0.248 NA
ATOM     35  C   UNL A   1      37.092  31.115  28.638  1.00  0.00     0.031 C 
ATOM     36  C   UNL A   1      37.604  34.267  32.666  1.00  0.00     0.029 A 
ATOM     37  N   UNL A   1      38.917  32.520  32.940  1.00  0.00    -0.354 N 
ATOM     38  C   UNL A   1      38.141  29.209  29.221  1.00  0.00     0.074 A 
ATOM     39  C   UNL A   1      37.415  29.897  28.206  1.00  0.00     0.031 C 
ATOM     40  C   UNL A   1      38.243  34.451  33.848  1.00  0.00     0.029 A 
ATOM     41  C   UNL A   1      39.082  33.300  34.124  1.00  0.00     0.049 A 
ATOM     42  H   UNL A   1      39.456  31.715  32.769  1.00  0.00     0.167 HD
ATOM     43  C   UNL A   1      38.904  28.083  29.148  1.00  0.00     0.031 A 
ATOM     44  C   UNL A   1      39.799  32.988  35.253  1.00  0.00     0.031 A 
ATOM     45  C   UNL A   1      39.455  27.798  30.429  1.00  0.00     0.049 A 
ATOM     46  C   UNL A   1      40.474  31.730  34.909  1.00  0.00     0.074 A 
ATOM     47  C   UNL A   1      38.864  27.376  31.591  1.00  0.00     0.029 A 
ATOM     48  N   UNL A   1      40.646  28.422  30.716  1.00  0.00    -0.354 N 
ATOM     49  N   UNL A   1      41.477  31.622  34.093  1.00  0.00    -0.248 NA
ATOM     50  C   UNL A   1      39.915  30.476  35.431  1.00  0.00     0.031 C 
ATOM     51  C   UNL A   1      39.431  28.243  32.549  1.00  0.00     0.029 A 
ATOM     52  C   UNL A   1      40.542  28.893  31.999  1.00  0.00     0.049 A 
ATOM     53  H   UNL A   1      41.422  28.511  30.117  1.00  0.00     0.167 HD
ATOM     54  C   UNL A   1      41.386  30.309  33.709  1.00  0.00     0.074 A 
ATOM     55  C   UNL A   1      40.678  29.615  34.765  1.00  0.00     0.031 C 
ATOM     56  C   UNL A   1      41.389  29.990  32.390  1.00  0.00     0.031 A 
BRANCH  43  57
ATOM     57  C   UNL A   1      39.449  27.336  27.971  1.00  0.00    -0.014 A 
ATOM     58  C   UNL A   1      39.302  25.929  27.987  1.00  0.00     0.009 A 
ATOM     59  C   UNL A   1      40.380  27.880  27.081  1.00  0.00     0.009 A 
ATOM     60  C   UNL A   1      40.148  25.095  27.259  1.00  0.00     0.001 A 
ATOM     61  C   UNL A   1      41.204  27.041  26.315  1.00  0.00     0.001 A 
ATOM     62  C   UNL A   1      41.116  25.655  26.437  1.00  0.00     0.000 A 
ENDBRANCH  43  57
BRANCH  44  63
ATOM     63  C   UNL A   1      40.010  33.442  36.684  1.00  0.00    -0.014 A 
ATOM     64  C   UNL A   1      41.176  33.332  37.442  1.00  0.00     0.009 A 
ATOM     65  C   UNL A   1      38.936  34.126  37.334  1.00  0.00     0.009 A 
ATOM     66  C   UNL A   1      41.282  33.959  38.712  1.00  0.00     0.001 A 
ATOM     67  C   UNL A   1      39.050  34.792  38.557  1.00  0.00     0.001 A 
ATOM     68  C   UNL A   1      40.240  34.721  39.246  1.00  0.00     0.000 A 
ENDBRANCH  44  63
BRANCH  56  69
ATOM     69  C   UNL A   1      41.990  31.028  31.454  1.00  0.00    -0.014 A 
ATOM     70  C   UNL A   1      43.387  31.154  31.383  1.00  0.00     0.009 A 
ATOM     71  C   UNL A   1      41.230  31.955  30.714  1.00  0.00     0.009 A 
ATOM     72  C   UNL A   1      43.997  32.160  30.622  1.00  0.00     0.001 A 
ATOM     73  C   UNL A   1      41.837  32.971  29.955  1.00  0.00     0.001 A 
ATOM     74  C   UNL A   1      43.224  33.071  29.908  1.00  0.00     0.000 A 
ENDBRANCH  56  69
ENDBRANCH  30  31
ENDBRANCH  23  25
ENDBRANCH  22  23
ENDBRANCH  21  22
ENDBRANCH   1  21
TORSDOF 16
ENDMDL
MODEL 2
REMARK VINA RESULT:     -10.6      6.248     11.215
REMARK SMILES CCc1[nH]nc(-n2cccc2)c1C(=O)OCCOCCOC(=O)c1ccc(-c2c3nc(c(-c4ccccc4)c4ccc([nH]4)c(-c4ccccc4)c4nc(c(-c5ccccc5)c5ccc2[nH]5)C=C4)C=C3)cc1
REMARK SMILES IDX 19 1 18 2 17 3 16 4 15 5 13 6 14 7 12 8 3 9 4 10 5 11 6 13
REMARK SMILES IDX 2 14 1 15 7 16 8 17 11 18 9 19 10 20 20 21 21 22 22 23 23 24
REMARK SMILES IDX 24 25 25 26 71 27 26 28 70 29 27 30 28 31 29 32 64 33 30 34
REMARK SMILES IDX 69 35 63 36 65 37 31 38 68 39 62 40 61 41 32 43 54 44 39 45
REMARK SMILES IDX 53 46 40 47 43 48 52 49 66 50 41 51 42 52 51 54 67 55 44 56
REMARK SMILES IDX 33 57 34 58 38 59 35 60 37 61 36 62 55 63 56 64 60 65 57 66
REMARK SMILES IDX 59 67 58 68 45 69 46 70 50 71 47 72 49 73 48 74
REMARK H PARENT 4 12 65 42 43 53
REMARK Flexibility Score: inf
ROOT
ATOM      1  C   UNL A   1      38.257  20.281  25.133  1.00  0.00     0.202 C 
ENDROOT
BRANCH   1   2
ATOM      2  O   UNL A   1      38.248  21.537  25.793  1.00  0.00    -0.374 OA
BRANCH   2   3
ATOM      3  C   UNL A   1      37.182  22.457  25.568  1.00  0.00     0.202 C 
BRANCH   3   4
ATOM      4  C   UNL A   1      35.774  22.046  26.000  1.00  0.00     0.261 C 
BRANCH   4   5
ATOM      5  O   UNL A   1      35.024  21.473  24.913  1.00  0.00    -0.459 OA
BRANCH   5   6
ATOM      6  C   UNL A   1      33.870  20.834  25.276  1.00  0.00     0.343 C 
ATOM      7  O   UNL A   1      33.478  20.718  26.423  1.00  0.00    -0.246 OA
BRANCH   6   8
ATOM      8  C   UNL A   1      33.081  20.395  24.139  1.00  0.00     0.125 A 
ATOM      9  C   UNL A   1      32.331  21.134  23.232  1.00  0.00     0.052 A 
ATOM     10  N   UNL A   1      31.907  20.236  22.282  1.00  0.00    -0.280 N 
ATOM     11  N   UNL A   1      32.223  18.962  22.556  1.00  0.00    -0.156 NA
ATOM     12  H   UNL A   1      31.414  20.503  21.474  1.00  0.00     0.190 HD
ATOM     13  C   UNL A   1      32.927  19.061  23.686  1.00  0.00     0.173 A 
BRANCH   9  14
ATOM     14  C   UNL A   1      32.008  22.587  23.119  1.00  0.00     0.053 C 
ATOM     15  C   UNL A   1      31.335  23.119  24.378  1.00  0.00     0.011 C 
ENDBRANCH   9  14
BRANCH  13  16
ATOM     16  N   UNL A   1      33.249  17.868  24.386  1.00  0.00    -0.306 N 
ATOM     17  C   UNL A   1      34.452  17.195  24.306  1.00  0.00     0.093 A 
ATOM     18  C   UNL A   1      32.466  17.216  25.313  1.00  0.00     0.093 A 
ATOM     19  C   UNL A   1      34.385  16.060  25.080  1.00  0.00     0.020 A 
ATOM     20  C   UNL A   1      33.124  16.073  25.720  1.00  0.00     0.020 A 
ENDBRANCH  13  16
ENDBRANCH   6   8
ENDBRANCH   5   6
ENDBRANCH   4   5
ENDBRANCH   3   4
ENDBRANCH   2   3
ENDBRANCH   1   2
BRANCH   1  21
ATOM     21  C   UNL A   1      39.329  19.249  25.468  1.00  0.00     0.261 C 
BRANCH  21  22
ATOM     22  O   UNL A   1      40.240  19.661  26.469  1.00  0.00    -0.460 OA
BRANCH  22  23
ATOM     23  C   UNL A   1      41.503  19.336  26.113  1.00  0.00     0.338 C 
ATOM     24  O   UNL A   1      41.924  18.250  25.749  1.00  0.00    -0.246 OA
BRANCH  23  25
ATOM     25  C   UNL A   1      42.405  20.419  26.461  1.00  0.00     0.060 A 
ATOM     26  C   UNL A   1      42.343  20.831  27.792  1.00  0.00     0.016 A 
ATOM     27  C   UNL A   1      42.840  21.246  25.417  1.00  0.00     0.016 A 
ATOM     28  C   UNL A   1      42.528  22.162  28.058  1.00  0.00     0.010 A 
ATOM     29  C   UNL A   1      42.973  22.587  25.673  1.00  0.00     0.010 A 
ATOM     30  C   UNL A   1      42.782  23.029  26.985  1.00  0.00    -0.014 A 
BRANCH  30  31
ATOM     31  C   UNL A   1      43.128  24.404  27.323  1.00  0.00     0.031 A 
ATOM     32  C   UNL A   1      41.808  25.202  27.437  1.00  0.00     0.074 A 
ATOM     33  C   UNL A   1      44.471  24.679  27.361  1.00  0.00     0.049 A 
ATOM     34  N   UNL A   1      41.592  26.457  27.230  1.00  0.00    -0.248 NA
ATOM     35  C   UNL A   1      40.518  24.499  27.744  1.00  0.00     0.031 C 
ATOM     36  C   UNL A   1      45.569  23.677  27.257  1.00  0.00     0.029 A 
ATOM     37  N   UNL A   1      45.204  25.838  27.485  1.00  0.00    -0.354 N 
ATOM     38  C   UNL A   1      40.243  26.727  27.550  1.00  0.00     0.074 A 
ATOM     39  C   UNL A   1      39.606  25.470  27.762  1.00  0.00     0.031 C 
ATOM     40  C   UNL A   1      46.784  24.277  27.217  1.00  0.00     0.029 A 
ATOM     41  C   UNL A   1      46.613  25.715  27.298  1.00  0.00     0.049 A 
ATOM     42  H   UNL A   1      44.779  26.702  27.690  1.00  0.00     0.167 HD
ATOM     43  C   UNL A   1      39.786  27.992  27.760  1.00  0.00     0.031 A 
ATOM     44  C   UNL A   1      47.541  26.719  27.161  1.00  0.00     0.031 A 
ATOM     45  C   UNL A   1      40.806  28.928  27.427  1.00  0.00     0.049 A 
ATOM     46  C   UNL A   1      46.773  27.948  27.392  1.00  0.00     0.074 A 
ATOM     47  C   UNL A   1      41.350  29.277  26.218  1.00  0.00     0.029 A 
ATOM     48  N   UNL A   1      41.690  29.227  28.436  1.00  0.00    -0.354 N 
ATOM     49  N   UNL A   1      46.332  28.345  28.546  1.00  0.00    -0.248 NA
ATOM     50  C   UNL A   1      46.366  28.743  26.226  1.00  0.00     0.031 C 
ATOM     51  C   UNL A   1      42.733  29.247  26.492  1.00  0.00     0.029 A 
ATOM     52  C   UNL A   1      42.941  29.215  27.875  1.00  0.00     0.049 A 
ATOM     53  H   UNL A   1      41.469  29.413  29.376  1.00  0.00     0.167 HD
ATOM     54  C   UNL A   1      45.296  29.166  28.183  1.00  0.00     0.074 A 
ATOM     55  C   UNL A   1      45.577  29.621  26.837  1.00  0.00     0.031 C 
ATOM     56  C   UNL A   1      44.070  28.992  28.740  1.00  0.00     0.031 A 
BRANCH  43  57
ATOM     57  C   UNL A   1      38.590  28.497  28.506  1.00  0.00    -0.014 A 
ATOM     58  C   UNL A   1      37.858  29.544  27.899  1.00  0.00     0.009 A 
ATOM     59  C   UNL A   1      38.382  28.267  29.869  1.00  0.00     0.009 A 
ATOM     60  C   UNL A   1      37.069  30.417  28.647  1.00  0.00     0.001 A 
ATOM     61  C   UNL A   1      37.554  29.119  30.614  1.00  0.00     0.001 A 
ATOM     62  C   UNL A   1      36.935  30.214  30.013  1.00  0.00     0.000 A 
ENDBRANCH  43  57
BRANCH  44  63
ATOM     63  C   UNL A   1      48.986  26.948  26.763  1.00  0.00    -0.014 A 
ATOM     64  C   UNL A   1      49.998  27.510  27.541  1.00  0.00     0.009 A 
ATOM     65  C   UNL A   1      49.408  26.481  25.479  1.00  0.00     0.009 A 
ATOM     66  C   UNL A   1      51.347  27.503  27.099  1.00  0.00     0.001 A 
ATOM     67  C   UNL A   1      50.740  26.418  25.060  1.00  0.00     0.001 A 
ATOM     68  C   UNL A   1      51.721  26.921  25.885  1.00  0.00     0.000 A 
ENDBRANCH  44  63
BRANCH  56  69
ATOM     69  C   UNL A   1      44.041  28.254  30.071  1.00  0.00    -0.014 A 
ATOM     70  C   UNL A   1      44.372  28.951  31.244  1.00  0.00     0.009 A 
ATOM     71  C   UNL A   1      43.797  26.873  30.198  1.00  0.00     0.009 A 
ATOM     72  C   UNL A   1      44.466  28.302  32.482  1.00  0.00     0.001 A 
ATOM     73  C   UNL A   1      43.898  26.216  31.438  1.00  0.00     0.001 A 
ATOM     74  C   UNL A   1      44.231  26.934  32.582  1.00  0.00     0.000 A 
ENDBRANCH  56  69
ENDBRANCH  30  31
ENDBRANCH  23  25
ENDBRANCH  22  23
ENDBRANCH  21  22
ENDBRANCH   1  21
TORSDOF 16
ENDMDL
MODEL 3
REMARK VINA RESULT:     -10.4      0.727      2.405
REMARK SMILES CCc1[nH]nc(-n2cccc2)c1C(=O)OCCOCCOC(=O)c1ccc(-c2c3nc(c(-c4ccccc4)c4ccc([nH]4)c(-c4ccccc4)c4nc(c(-c5ccccc5)c5ccc2[nH]5)C=C4)C=C3)cc1
REMARK SMILES IDX 19 1 18 2 17 3 16 4 15 5 13 6 14 7 12 8 3 9 4 10 5 11 6 13
REMARK SMILES IDX 2 14 1 15 7 16 8 17 11 18 9 19 10 20 20 21 21 22 22 23 23 24
REMARK SMILES IDX 24 25 25 26 71 27 26 28 70 29 27 30 28 31 29 32 64 33 30 34
REMARK SMILES IDX 69 35 63 36 65 37 31 38 68 39 62 40 61 41 32 43 54 44 39 45
REMARK SMILES IDX 53 46 40 47 43 48 52 49 66 50 41 51 42 52 51 54 67 55 44 56
REMARK SMILES IDX 33 57 34 58 38 59 35 60 37 61 36 62 55 63 56 64 60 65 57 66
REMARK SMILES IDX 59 67 58 68 45 69 46 70 50 71 47 72 49 73 48 74
REMARK H PARENT 4 12 65 42 43 53
REMARK Flexibility Score: inf
ROOT
ATOM      1  C   UNL A   1      33.294  31.669  27.642  1.00  0.00     0.202 C 
ENDROOT
BRANCH   1   2
ATOM      2  O   UNL A   1      33.243  30.809  26.513  1.00  0.00    -0.374 OA
BRANCH   2   3
ATOM      3  C   UNL A   1      32.156  29.898  26.355  1.00  0.00     0.202 C 
BRANCH   3   4
ATOM      4  C   UNL A   1      32.116  29.041  25.090  1.00  0.00     0.261 C 
BRANCH   4   5
ATOM      5  O   UNL A   1      31.149  29.529  24.141  1.00  0.00    -0.459 OA
BRANCH   5   6
ATOM      6  C   UNL A   1      30.776  28.632  23.177  1.00  0.00     0.343 C 
ATOM      7  O   UNL A   1      31.520  28.196  22.317  1.00  0.00    -0.246 OA
BRANCH   6   8
ATOM      8  C   UNL A   1      29.416  28.152  23.342  1.00  0.00     0.125 A 
ATOM      9  C   UNL A   1      28.207  28.774  23.053  1.00  0.00     0.052 A 
ATOM     10  N   UNL A   1      27.240  27.822  23.270  1.00  0.00    -0.280 N 
ATOM     11  N   UNL A   1      27.708  26.674  23.779  1.00  0.00    -0.156 NA
ATOM     12  H   UNL A   1      26.288  27.971  23.070  1.00  0.00     0.190 HD
ATOM     13  C   UNL A   1      29.026  26.880  23.829  1.00  0.00     0.173 A 
BRANCH   9  14
ATOM     14  C   UNL A   1      27.853  30.134  22.551  1.00  0.00     0.053 C 
ATOM     15  C   UNL A   1      27.641  31.123  23.691  1.00  0.00     0.011 C 
ENDBRANCH   9  14
BRANCH  13  16
ATOM     16  N   UNL A   1      29.830  25.936  24.522  1.00  0.00    -0.306 N 
ATOM     17  C   UNL A   1      30.514  24.889  23.938  1.00  0.00     0.093 A 
ATOM     18  C   UNL A   1      30.131  25.935  25.866  1.00  0.00     0.093 A 
ATOM     19  C   UNL A   1      31.142  24.158  24.920  1.00  0.00     0.020 A 
ATOM     20  C   UNL A   1      30.899  24.823  26.144  1.00  0.00     0.020 A 
ENDBRANCH  13  16
ENDBRANCH   6   8
ENDBRANCH   5   6
ENDBRANCH   4   5
ENDBRANCH   3   4
ENDBRANCH   2   3
ENDBRANCH   1   2
BRANCH   1  21
ATOM     21  C   UNL A   1      32.512  32.978  27.641  1.00  0.00     0.261 C 
BRANCH  21  22
ATOM     22  O   UNL A   1      33.317  34.137  27.539  1.00  0.00    -0.460 OA
BRANCH  22  23
ATOM     23  C   UNL A   1      33.176  34.901  28.644  1.00  0.00     0.338 C 
ATOM     24  O   UNL A   1      32.345  35.770  28.856  1.00  0.00    -0.246 OA
BRANCH  23  25
ATOM     25  C   UNL A   1      34.333  34.737  29.506  1.00  0.00     0.060 A 
ATOM     26  C   UNL A   1      35.564  34.775  28.850  1.00  0.00     0.016 A 
ATOM     27  C   UNL A   1      34.130  34.081  30.727  1.00  0.00     0.016 A 
ATOM     28  C   UNL A   1      36.566  33.971  29.325  1.00  0.00     0.010 A 
ATOM     29  C   UNL A   1      35.113  33.235  31.173  1.00  0.00     0.010 A 
ATOM     30  C   UNL A   1      36.305  33.169  30.446  1.00  0.00    -0.014 A 
BRANCH  30  31
ATOM     31  C   UNL A   1      37.438  32.449  31.013  1.00  0.00     0.031 A 
ATOM     32  C   UNL A   1      37.604  31.135  30.213  1.00  0.00     0.074 A 
ATOM     33  C   UNL A   1      38.001  33.023  32.125  1.00  0.00     0.049 A 
ATOM     34  N   UNL A   1      38.087  30.003  30.596  1.00  0.00    -0.248 NA
ATOM     35  C   UNL A   1      37.084  31.029  28.810  1.00  0.00     0.031 C 
ATOM     36  C   UNL A   1      37.665  34.365  32.677  1.00  0.00     0.029 A 
ATOM     37  N   UNL A   1      38.954  32.614  33.029  1.00  0.00    -0.354 N 
ATOM     38  C   UNL A   1      38.108  29.138  29.480  1.00  0.00     0.074 A 
ATOM     39  C   UNL A   1      37.387  29.786  28.436  1.00  0.00     0.031 C 
ATOM     40  C   UNL A   1      38.314  34.596  33.845  1.00  0.00     0.029 A 
ATOM     41  C   UNL A   1      39.137  33.448  34.172  1.00  0.00     0.049 A 
ATOM     42  H   UNL A   1      39.481  31.793  32.895  1.00  0.00     0.167 HD
ATOM     43  C   UNL A   1      38.854  27.999  29.458  1.00  0.00     0.031 A 
ATOM     44  C   UNL A   1      39.857  33.180  35.312  1.00  0.00     0.031 A 
ATOM     45  C   UNL A   1      39.409  27.768  30.748  1.00  0.00     0.049 A 
ATOM     46  C   UNL A   1      40.511  31.897  35.027  1.00  0.00     0.074 A 
ATOM     47  C   UNL A   1      38.818  27.412  31.933  1.00  0.00     0.029 A 
ATOM     48  N   UNL A   1      40.611  28.387  30.998  1.00  0.00    -0.354 N 
ATOM     49  N   UNL A   1      41.507  31.735  34.211  1.00  0.00    -0.248 NA
ATOM     50  C   UNL A   1      39.937  30.679  35.611  1.00  0.00     0.031 C 
ATOM     51  C   UNL A   1      39.404  28.316  32.844  1.00  0.00     0.029 A 
ATOM     52  C   UNL A   1      40.520  28.922  32.257  1.00  0.00     0.049 A 
ATOM     53  H   UNL A   1      41.384  28.436  30.392  1.00  0.00     0.167 HD
ATOM     54  C   UNL A   1      41.395  30.407  33.892  1.00  0.00     0.074 A 
ATOM     55  C   UNL A   1      40.683  29.775  34.984  1.00  0.00     0.031 C 
ATOM     56  C   UNL A   1      41.385  30.024  32.590  1.00  0.00     0.031 A 
BRANCH  43  57
ATOM     57  C   UNL A   1      39.382  27.187  28.315  1.00  0.00    -0.014 A 
ATOM     58  C   UNL A   1      39.358  25.781  28.470  1.00  0.00     0.009 A 
ATOM     59  C   UNL A   1      40.201  27.715  27.312  1.00  0.00     0.009 A 
ATOM     60  C   UNL A   1      40.223  24.951  27.759  1.00  0.00     0.001 A 
ATOM     61  C   UNL A   1      41.040  26.875  26.566  1.00  0.00     0.001 A 
ATOM     62  C   UNL A   1      41.081  25.505  26.820  1.00  0.00     0.000 A 
ENDBRANCH  43  57
BRANCH  44  63
ATOM     63  C   UNL A   1      40.082  33.700  36.719  1.00  0.00    -0.014 A 
ATOM     64  C   UNL A   1      41.287  33.741  37.421  1.00  0.00     0.009 A 
ATOM     65  C   UNL A   1      38.971  34.285  37.401  1.00  0.00     0.009 A 
ATOM     66  C   UNL A   1      41.382  34.415  38.666  1.00  0.00     0.001 A 
ATOM     67  C   UNL A   1      39.068  34.999  38.599  1.00  0.00     0.001 A 
ATOM     68  C   UNL A   1      40.289  35.078  39.230  1.00  0.00     0.000 A 
ENDBRANCH  44  63
BRANCH  56  69
ATOM     69  C   UNL A   1      41.997  31.006  31.602  1.00  0.00    -0.014 A 
ATOM     70  C   UNL A   1      41.151  31.863  30.881  1.00  0.00     0.009 A 
ATOM     71  C   UNL A   1      43.368  31.049  31.282  1.00  0.00     0.009 A 
ATOM     72  C   UNL A   1      41.644  32.715  29.883  1.00  0.00     0.001 A 
ATOM     73  C   UNL A   1      43.866  31.896  30.276  1.00  0.00     0.001 A 
ATOM     74  C   UNL A   1      43.001  32.731  29.577  1.00  0.00     0.000 A 
ENDBRANCH  56  69
ENDBRANCH  30  31
ENDBRANCH  23  25
ENDBRANCH  22  23
ENDBRANCH  21  22
ENDBRANCH   1  21
TORSDOF 16
ENDMDL
