MODEL 1
REMARK VINA RESULT:     -10.8      0.000      0.000
REMARK SMILES Cc1cccc(NC(=O)C[C@@H]2CCCCO2)c1C(=O)OCCOCCOC(=O)c1ccc(-c2c3nc(c(-c4ccccc4)c4ccc([nH]4)c(-c4ccccc4)c4nc(c(-c5ccccc5)c5ccc2[nH]5)C=C4)C=C3)cc1
REMARK SMILES IDX 22 1 21 2 20 3 18 4 19 5 17 6 1 7 2 8 3 9 4 10 6 11 5 12
REMARK SMILES IDX 7 13 8 14 9 16 10 17 11 18 12 19 16 20 13 21 15 22 14 23
REMARK SMILES IDX 23 24 24 25 25 26 26 27 27 28 28 29 29 30 30 31 76 32 31 33
REMARK SMILES IDX 75 34 32 35 33 36 34 37 69 38 35 39 74 40 68 41 70 42 36 43
REMARK SMILES IDX 73 44 67 45 66 46 37 48 59 49 44 50 58 51 45 52 48 53 57 54
REMARK SMILES IDX 71 55 46 56 47 57 56 59 72 60 49 61 38 62 39 63 43 64 40 65
REMARK SMILES IDX 42 66 41 67 60 68 61 69 65 70 62 71 64 72 63 73 50 74 51 75
REMARK SMILES IDX 55 76 52 77 54 78 53 79
REMARK H PARENT 7 15 70 47 48 58
REMARK Flexibility Score: inf
ROOT
ATOM      1  C   UNL A   1      37.339  23.326  25.773  1.00  0.00     0.202 C 
ENDROOT
BRANCH   1   2
ATOM      2  C   UNL A   1      36.439  23.358  24.585  1.00  0.00     0.261 C 
BRANCH   2   3
ATOM      3  O   UNL A   1      35.466  24.404  24.742  1.00  0.00    -0.460 OA
BRANCH   3   4
ATOM      4  C   UNL A   1      34.237  24.196  25.262  1.00  0.00     0.340 C 
ATOM      5  O   UNL A   1      33.717  24.813  26.171  1.00  0.00    -0.246 OA
BRANCH   4   6
ATOM      6  C   UNL A   1      33.604  23.023  24.573  1.00  0.00     0.086 A 
ATOM      7  C   UNL A   1      34.146  21.333  26.485  1.00  0.00     0.045 C 
ATOM      8  C   UNL A   1      33.507  21.732  25.173  1.00  0.00    -0.034 A 
ATOM      9  C   UNL A   1      32.891  20.695  24.458  1.00  0.00     0.004 A 
ATOM     10  C   UNL A   1      32.363  20.915  23.194  1.00  0.00     0.002 A 
ATOM     11  C   UNL A   1      33.196  23.196  23.215  1.00  0.00     0.056 A 
ATOM     12  C   UNL A   1      32.510  22.157  22.578  1.00  0.00     0.027 A 
BRANCH  11  13
ATOM     13  N   UNL A   1      33.604  24.356  22.508  1.00  0.00    -0.325 N 
ATOM     14  C   UNL A   1      32.903  25.441  22.042  1.00  0.00     0.227 C 
ATOM     15  H   UNL A   1      34.569  24.391  22.317  1.00  0.00     0.169 HD
ATOM     16  O   UNL A   1      33.489  26.243  21.304  1.00  0.00    -0.275 OA
BRANCH  14  17
ATOM     17  C   UNL A   1      31.448  25.684  22.377  1.00  0.00     0.132 C 
BRANCH  17  18
ATOM     18  C   UNL A   1      31.118  26.225  23.783  1.00  0.00     0.127 C 
ATOM     19  C   UNL A   1      29.709  26.841  23.819  1.00  0.00     0.033 C 
ATOM     20  O   UNL A   1      32.034  27.146  24.372  1.00  0.00    -0.378 OA
ATOM     21  C   UNL A   1      29.666  28.162  23.058  1.00  0.00     0.005 C 
ATOM     22  C   UNL A   1      32.080  28.446  23.811  1.00  0.00     0.160 C 
ATOM     23  C   UNL A   1      30.731  29.112  23.583  1.00  0.00     0.029 C 
ENDBRANCH  17  18
ENDBRANCH  14  17
ENDBRANCH  11  13
ENDBRANCH   4   6
ENDBRANCH   3   4
ENDBRANCH   2   3
ENDBRANCH   1   2
BRANCH   1  24
ATOM     24  O   UNL A   1      37.934  22.043  25.721  1.00  0.00    -0.374 OA
BRANCH  24  25
ATOM     25  C   UNL A   1      39.272  21.964  26.151  1.00  0.00     0.202 C 
BRANCH  25  26
ATOM     26  C   UNL A   1      39.838  20.551  25.974  1.00  0.00     0.261 C 
BRANCH  26  27
ATOM     27  O   UNL A   1      41.031  20.398  26.780  1.00  0.00    -0.460 OA
BRANCH  27  28
ATOM     28  C   UNL A   1      42.219  20.695  26.179  1.00  0.00     0.338 C 
ATOM     29  O   UNL A   1      42.752  20.034  25.302  1.00  0.00    -0.246 OA
BRANCH  28  30
ATOM     30  C   UNL A   1      42.918  21.780  26.935  1.00  0.00     0.060 A 
ATOM     31  C   UNL A   1      42.681  21.953  28.314  1.00  0.00     0.016 A 
ATOM     32  C   UNL A   1      43.511  22.805  26.205  1.00  0.00     0.016 A 
ATOM     33  C   UNL A   1      42.879  23.210  28.916  1.00  0.00     0.010 A 
ATOM     34  C   UNL A   1      43.594  24.059  26.771  1.00  0.00     0.010 A 
ATOM     35  C   UNL A   1      43.248  24.288  28.115  1.00  0.00    -0.014 A 
BRANCH  35  36
ATOM     36  C   UNL A   1      43.201  25.713  28.476  1.00  0.00     0.031 A 
ATOM     37  C   UNL A   1      41.950  26.459  28.211  1.00  0.00     0.074 A 
ATOM     38  C   UNL A   1      44.126  26.254  29.312  1.00  0.00     0.049 A 
ATOM     39  N   UNL A   1      41.824  27.723  28.403  1.00  0.00    -0.248 NA
ATOM     40  C   UNL A   1      40.732  25.859  27.664  1.00  0.00     0.031 C 
ATOM     41  C   UNL A   1      43.975  27.386  30.232  1.00  0.00     0.029 A 
ATOM     42  N   UNL A   1      45.450  25.876  29.513  1.00  0.00    -0.354 N 
ATOM     43  C   UNL A   1      40.487  28.024  28.360  1.00  0.00     0.074 A 
ATOM     44  C   UNL A   1      39.862  26.869  27.773  1.00  0.00     0.031 C 
ATOM     45  C   UNL A   1      45.180  27.760  30.700  1.00  0.00     0.029 A 
ATOM     46  C   UNL A   1      46.179  26.963  30.010  1.00  0.00     0.049 A 
ATOM     47  H   UNL A   1      45.818  24.980  29.335  1.00  0.00     0.167 HD
ATOM     48  C   UNL A   1      40.070  29.178  28.950  1.00  0.00     0.031 A 
ATOM     49  C   UNL A   1      47.280  27.403  29.343  1.00  0.00     0.031 A 
ATOM     50  C   UNL A   1      41.219  29.991  29.378  1.00  0.00     0.049 A 
ATOM     51  C   UNL A   1      46.938  28.748  28.768  1.00  0.00     0.074 A 
ATOM     52  C   UNL A   1      41.765  30.297  30.613  1.00  0.00     0.029 A 
ATOM     53  N   UNL A   1      42.185  30.335  28.430  1.00  0.00    -0.354 N 
ATOM     54  N   UNL A   1      45.701  29.119  28.561  1.00  0.00    -0.248 NA
ATOM     55  C   UNL A   1      47.895  29.819  28.514  1.00  0.00     0.031 C 
ATOM     56  C   UNL A   1      43.111  30.724  30.395  1.00  0.00     0.029 A 
ATOM     57  C   UNL A   1      43.366  30.726  29.030  1.00  0.00     0.049 A 
ATOM     58  H   UNL A   1      42.042  30.303  27.456  1.00  0.00     0.167 HD
ATOM     59  C   UNL A   1      45.667  30.449  28.304  1.00  0.00     0.074 A 
ATOM     60  C   UNL A   1      47.067  30.836  28.211  1.00  0.00     0.031 C 
ATOM     61  C   UNL A   1      44.507  31.155  28.221  1.00  0.00     0.031 A 
BRANCH  48  62
ATOM     62  C   UNL A   1      38.633  29.499  29.296  1.00  0.00    -0.014 A 
ATOM     63  C   UNL A   1      38.132  29.145  30.561  1.00  0.00     0.009 A 
ATOM     64  C   UNL A   1      37.701  30.081  28.415  1.00  0.00     0.009 A 
ATOM     65  C   UNL A   1      36.793  29.368  30.923  1.00  0.00     0.001 A 
ATOM     66  C   UNL A   1      36.369  30.333  28.777  1.00  0.00     0.001 A 
ATOM     67  C   UNL A   1      35.914  29.974  30.034  1.00  0.00     0.000 A 
ENDBRANCH  48  62
BRANCH  49  68
ATOM     68  C   UNL A   1      48.063  26.270  28.754  1.00  0.00    -0.014 A 
ATOM     69  C   UNL A   1      48.135  26.215  27.342  1.00  0.00     0.009 A 
ATOM     70  C   UNL A   1      49.083  25.635  29.483  1.00  0.00     0.009 A 
ATOM     71  C   UNL A   1      49.249  25.668  26.689  1.00  0.00     0.001 A 
ATOM     72  C   UNL A   1      50.204  25.101  28.823  1.00  0.00     0.001 A 
ATOM     73  C   UNL A   1      50.304  25.148  27.432  1.00  0.00     0.000 A 
ENDBRANCH  49  68
BRANCH  61  74
ATOM     74  C   UNL A   1      44.384  32.364  27.345  1.00  0.00    -0.014 A 
ATOM     75  C   UNL A   1      44.447  32.292  25.945  1.00  0.00     0.009 A 
ATOM     76  C   UNL A   1      43.982  33.589  27.910  1.00  0.00     0.009 A 
ATOM     77  C   UNL A   1      44.181  33.405  25.149  1.00  0.00     0.001 A 
ATOM     78  C   UNL A   1      43.653  34.685  27.114  1.00  0.00     0.001 A 
ATOM     79  C   UNL A   1      43.771  34.598  25.734  1.00  0.00     0.000 A 
ENDBRANCH  61  74
ENDBRANCH  35  36
ENDBRANCH  28  30
ENDBRANCH  27  28
ENDBRANCH  26  27
ENDBRANCH  25  26
ENDBRANCH  24  25
ENDBRANCH   1  24
TORSDOF 17
ENDMDL
MODEL 2
REMARK VINA RESULT:     -10.8      5.496     10.720
REMARK SMILES Cc1cccc(NC(=O)C[C@@H]2CCCCO2)c1C(=O)OCCOCCOC(=O)c1ccc(-c2c3nc(c(-c4ccccc4)c4ccc([nH]4)c(-c4ccccc4)c4nc(c(-c5ccccc5)c5ccc2[nH]5)C=C4)C=C3)cc1
REMARK SMILES IDX 22 1 21 2 20 3 18 4 19 5 17 6 1 7 2 8 3 9 4 10 6 11 5 12
REMARK SMILES IDX 7 13 8 14 9 16 10 17 11 18 12 19 16 20 13 21 15 22 14 23
REMARK SMILES IDX 23 24 24 25 25 26 26 27 27 28 28 29 29 30 30 31 76 32 31 33
REMARK SMILES IDX 75 34 32 35 33 36 34 37 69 38 35 39 74 40 68 41 70 42 36 43
REMARK SMILES IDX 73 44 67 45 66 46 37 48 59 49 44 50 58 51 45 52 48 53 57 54
REMARK SMILES IDX 71 55 46 56 47 57 56 59 72 60 49 61 38 62 39 63 43 64 40 65
REMARK SMILES IDX 42 66 41 67 60 68 61 69 65 70 62 71 64 72 63 73 50 74 51 75
REMARK SMILES IDX 55 76 52 77 54 78 53 79
REMARK H PARENT 7 15 70 47 48 58
REMARK Flexibility Score: inf
ROOT
ATOM      1  C   UNL A   1      32.911  35.867  29.149  1.00  0.00     0.202 C 
ENDROOT
BRANCH   1   2
ATOM      2  C   UNL A   1      34.222  35.246  28.806  1.00  0.00     0.261 C 
BRANCH   2   3
ATOM      3  O   UNL A   1      34.124  33.817  28.914  1.00  0.00    -0.460 OA
BRANCH   3   4
ATOM      4  C   UNL A   1      33.629  33.035  27.931  1.00  0.00     0.340 C 
ATOM      5  O   UNL A   1      32.648  33.256  27.249  1.00  0.00    -0.246 OA
BRANCH   4   6
ATOM      6  C   UNL A   1      34.459  31.788  27.830  1.00  0.00     0.086 A 
ATOM      7  C   UNL A   1      36.727  33.006  28.253  1.00  0.00     0.045 C 
ATOM      8  C   UNL A   1      35.870  31.777  28.048  1.00  0.00    -0.034 A 
ATOM      9  C   UNL A   1      36.563  30.563  27.942  1.00  0.00     0.004 A 
ATOM     10  C   UNL A   1      35.896  29.383  27.648  1.00  0.00     0.002 A 
ATOM     11  C   UNL A   1      33.811  30.598  27.379  1.00  0.00     0.056 A 
ATOM     12  C   UNL A   1      34.529  29.398  27.373  1.00  0.00     0.027 A 
BRANCH  11  13
ATOM     13  N   UNL A   1      32.505  30.682  26.831  1.00  0.00    -0.325 N 
ATOM     14  C   UNL A   1      31.972  30.218  25.653  1.00  0.00     0.227 C 
ATOM     15  H   UNL A   1      31.862  31.162  27.399  1.00  0.00     0.169 HD
ATOM     16  O   UNL A   1      30.830  30.579  25.346  1.00  0.00    -0.275 OA
BRANCH  14  17
ATOM     17  C   UNL A   1      32.728  29.304  24.714  1.00  0.00     0.132 C 
BRANCH  17  18
ATOM     18  C   UNL A   1      32.042  27.990  24.287  1.00  0.00     0.127 C 
ATOM     19  C   UNL A   1      31.444  27.261  25.502  1.00  0.00     0.033 C 
ATOM     20  O   UNL A   1      32.808  27.058  23.526  1.00  0.00    -0.378 OA
ATOM     21  C   UNL A   1      32.540  26.664  26.379  1.00  0.00     0.005 C 
ATOM     22  C   UNL A   1      33.841  26.372  24.213  1.00  0.00     0.160 C 
ATOM     23  C   UNL A   1      33.452  25.769  25.555  1.00  0.00     0.029 C 
ENDBRANCH  17  18
ENDBRANCH  14  17
ENDBRANCH  11  13
ENDBRANCH   4   6
ENDBRANCH   3   4
ENDBRANCH   2   3
ENDBRANCH   1   2
BRANCH   1  24
ATOM     24  O   UNL A   1      32.539  35.240  30.361  1.00  0.00    -0.374 OA
BRANCH  24  25
ATOM     25  C   UNL A   1      32.229  36.099  31.433  1.00  0.00     0.202 C 
BRANCH  25  26
ATOM     26  C   UNL A   1      33.184  37.297  31.489  1.00  0.00     0.261 C 
BRANCH  26  27
ATOM     27  O   UNL A   1      34.440  36.893  32.083  1.00  0.00    -0.460 OA
BRANCH  27  28
ATOM     28  C   UNL A   1      34.367  36.153  33.227  1.00  0.00     0.338 C 
ATOM     29  O   UNL A   1      34.097  36.589  34.335  1.00  0.00    -0.246 OA
BRANCH  28  30
ATOM     30  C   UNL A   1      34.938  34.790  32.993  1.00  0.00     0.060 A 
ATOM     31  C   UNL A   1      34.983  33.848  34.042  1.00  0.00     0.016 A 
ATOM     32  C   UNL A   1      35.726  34.598  31.863  1.00  0.00     0.016 A 
ATOM     33  C   UNL A   1      35.939  32.816  34.028  1.00  0.00     0.010 A 
ATOM     34  C   UNL A   1      36.732  33.658  31.909  1.00  0.00     0.010 A 
ATOM     35  C   UNL A   1      36.877  32.782  32.998  1.00  0.00    -0.014 A 
BRANCH  35  36
ATOM     36  C   UNL A   1      38.122  31.999  32.964  1.00  0.00     0.031 A 
ATOM     37  C   UNL A   1      38.112  30.703  32.249  1.00  0.00     0.074 A 
ATOM     38  C   UNL A   1      39.315  32.569  33.277  1.00  0.00     0.049 A 
ATOM     39  N   UNL A   1      39.112  29.896  32.230  1.00  0.00    -0.248 NA
ATOM     40  C   UNL A   1      36.957  30.170  31.524  1.00  0.00     0.031 C 
ATOM     41  C   UNL A   1      40.651  32.222  32.783  1.00  0.00     0.029 A 
ATOM     42  N   UNL A   1      39.578  33.626  34.144  1.00  0.00    -0.354 N 
ATOM     43  C   UNL A   1      38.884  28.967  31.248  1.00  0.00     0.074 A 
ATOM     44  C   UNL A   1      37.487  29.096  30.928  1.00  0.00     0.031 C 
ATOM     45  C   UNL A   1      41.588  32.857  33.511  1.00  0.00     0.029 A 
ATOM     46  C   UNL A   1      40.904  33.550  34.589  1.00  0.00     0.049 A 
ATOM     47  H   UNL A   1      38.932  34.322  34.403  1.00  0.00     0.167 HD
ATOM     48  C   UNL A   1      39.952  28.291  30.744  1.00  0.00     0.031 A 
ATOM     49  C   UNL A   1      41.169  33.487  35.921  1.00  0.00     0.031 A 
ATOM     50  C   UNL A   1      41.168  28.583  31.519  1.00  0.00     0.049 A 
ATOM     51  C   UNL A   1      41.697  32.108  36.200  1.00  0.00     0.074 A 
ATOM     52  C   UNL A   1      42.312  29.319  31.260  1.00  0.00     0.029 A 
ATOM     53  N   UNL A   1      41.151  28.364  32.898  1.00  0.00    -0.354 N 
ATOM     54  N   UNL A   1      41.451  31.099  35.405  1.00  0.00    -0.248 NA
ATOM     55  C   UNL A   1      42.627  31.768  37.269  1.00  0.00     0.031 C 
ATOM     56  C   UNL A   1      42.917  29.631  32.517  1.00  0.00     0.029 A 
ATOM     57  C   UNL A   1      42.173  29.045  33.531  1.00  0.00     0.049 A 
ATOM     58  H   UNL A   1      40.494  27.795  33.361  1.00  0.00     0.167 HD
ATOM     59  C   UNL A   1      42.258  30.061  35.735  1.00  0.00     0.074 A 
ATOM     60  C   UNL A   1      42.926  30.494  36.953  1.00  0.00     0.031 C 
ATOM     61  C   UNL A   1      42.357  28.935  34.978  1.00  0.00     0.031 A 
BRANCH  48  62
ATOM     62  C   UNL A   1      39.942  27.501  29.454  1.00  0.00    -0.014 A 
ATOM     63  C   UNL A   1      39.382  26.211  29.439  1.00  0.00     0.009 A 
ATOM     64  C   UNL A   1      40.519  27.926  28.242  1.00  0.00     0.009 A 
ATOM     65  C   UNL A   1      39.389  25.407  28.287  1.00  0.00     0.001 A 
ATOM     66  C   UNL A   1      40.507  27.142  27.079  1.00  0.00     0.001 A 
ATOM     67  C   UNL A   1      39.942  25.878  27.102  1.00  0.00     0.000 A 
ENDBRANCH  48  62
BRANCH  49  68
ATOM     68  C   UNL A   1      40.232  34.344  36.715  1.00  0.00    -0.014 A 
ATOM     69  C   UNL A   1      39.391  33.677  37.638  1.00  0.00     0.009 A 
ATOM     70  C   UNL A   1      40.510  35.700  36.952  1.00  0.00     0.009 A 
ATOM     71  C   UNL A   1      38.960  34.302  38.817  1.00  0.00     0.001 A 
ATOM     72  C   UNL A   1      40.088  36.318  38.143  1.00  0.00     0.001 A 
ATOM     73  C   UNL A   1      39.344  35.612  39.088  1.00  0.00     0.000 A 
ENDBRANCH  49  68
BRANCH  61  74
ATOM     74  C   UNL A   1      42.672  27.603  35.588  1.00  0.00    -0.014 A 
ATOM     75  C   UNL A   1      41.677  26.742  36.077  1.00  0.00     0.009 A 
ATOM     76  C   UNL A   1      43.978  27.087  35.488  1.00  0.00     0.009 A 
ATOM     77  C   UNL A   1      41.981  25.449  36.502  1.00  0.00     0.001 A 
ATOM     78  C   UNL A   1      44.273  25.775  35.852  1.00  0.00     0.001 A 
ATOM     79  C   UNL A   1      43.277  24.962  36.377  1.00  0.00     0.000 A 
ENDBRANCH  61  74
ENDBRANCH  35  36
ENDBRANCH  28  30
ENDBRANCH  27  28
ENDBRANCH  26  27
ENDBRANCH  25  26
ENDBRANCH  24  25
ENDBRANCH   1  24
TORSDOF 17
ENDMDL
MODEL 3
REMARK VINA RESULT:     -10.6      3.588      9.090
REMARK SMILES Cc1cccc(NC(=O)C[C@@H]2CCCCO2)c1C(=O)OCCOCCOC(=O)c1ccc(-c2c3nc(c(-c4ccccc4)c4ccc([nH]4)c(-c4ccccc4)c4nc(c(-c5ccccc5)c5ccc2[nH]5)C=C4)C=C3)cc1
REMARK SMILES IDX 22 1 21 2 20 3 18 4 19 5 17 6 1 7 2 8 3 9 4 10 6 11 5 12
REMARK SMILES IDX 7 13 8 14 9 16 10 17 11 18 12 19 16 20 13 21 15 22 14 23
REMARK SMILES IDX 23 24 24 25 25 26 26 27 27 28 28 29 29 30 30 31 76 32 31 33
REMARK SMILES IDX 75 34 32 35 33 36 34 37 69 38 35 39 74 40 68 41 70 42 36 43
REMARK SMILES IDX 73 44 67 45 66 46 37 48 59 49 44 50 58 51 45 52 48 53 57 54
REMARK SMILES IDX 71 55 46 56 47 57 56 59 72 60 49 61 38 62 39 63 43 64 40 65
REMARK SMILES IDX 42 66 41 67 60 68 61 69 65 70 62 71 64 72 63 73 50 74 51 75
REMARK SMILES IDX 55 76 52 77 54 78 53 79
REMARK H PARENT 7 15 70 47 48 58
REMARK Flexibility Score: inf
ROOT
ATOM      1  C   UNL A   1      33.457  28.418  24.906  1.00  0.00     0.202 C 
ENDROOT
BRANCH   1   2
ATOM      2  C   UNL A   1      33.879  27.795  26.192  1.00  0.00     0.261 C 
BRANCH   2   3
ATOM      3  O   UNL A   1      33.148  26.576  26.403  1.00  0.00    -0.460 OA
BRANCH   3   4
ATOM      4  C   UNL A   1      31.799  26.518  26.418  1.00  0.00     0.340 C 
ATOM      5  O   UNL A   1      31.055  27.076  27.200  1.00  0.00    -0.246 OA
BRANCH   4   6
ATOM      6  C   UNL A   1      31.335  25.596  25.329  1.00  0.00     0.086 A 
ATOM      7  C   UNL A   1      30.107  27.461  23.979  1.00  0.00     0.045 C 
ATOM      8  C   UNL A   1      30.619  26.052  24.181  1.00  0.00    -0.034 A 
ATOM      9  C   UNL A   1      30.232  25.120  23.207  1.00  0.00     0.004 A 
ATOM     10  C   UNL A   1      30.551  23.776  23.339  1.00  0.00     0.002 A 
ATOM     11  C   UNL A   1      31.521  24.194  25.525  1.00  0.00     0.056 A 
ATOM     12  C   UNL A   1      31.195  23.316  24.487  1.00  0.00     0.027 A 
BRANCH  11  13
ATOM     13  N   UNL A   1      31.908  23.717  26.804  1.00  0.00    -0.325 N 
ATOM     14  C   UNL A   1      32.963  22.938  27.213  1.00  0.00     0.227 C 
ATOM     15  H   UNL A   1      31.310  23.995  27.534  1.00  0.00     0.169 HD
ATOM     16  O   UNL A   1      32.970  22.529  28.380  1.00  0.00    -0.275 OA
BRANCH  14  17
ATOM     17  C   UNL A   1      34.099  22.548  26.293  1.00  0.00     0.132 C 
BRANCH  17  18
ATOM     18  C   UNL A   1      35.140  23.631  25.942  1.00  0.00     0.127 C 
ATOM     19  C   UNL A   1      34.889  24.199  24.535  1.00  0.00     0.033 C 
ATOM     20  O   UNL A   1      36.520  23.288  26.056  1.00  0.00    -0.378 OA
ATOM     21  C   UNL A   1      35.255  23.183  23.458  1.00  0.00     0.005 C 
ATOM     22  C   UNL A   1      37.035  22.387  25.092  1.00  0.00     0.160 C 
ATOM     23  C   UNL A   1      36.685  22.701  23.645  1.00  0.00     0.029 C 
ENDBRANCH  17  18
ENDBRANCH  14  17
ENDBRANCH  11  13
ENDBRANCH   4   6
ENDBRANCH   3   4
ENDBRANCH   2   3
ENDBRANCH   1   2
BRANCH   1  24
ATOM     24  O   UNL A   1      33.292  29.787  25.224  1.00  0.00    -0.374 OA
BRANCH  24  25
ATOM     25  C   UNL A   1      32.007  30.173  25.651  1.00  0.00     0.202 C 
BRANCH  25  26
ATOM     26  C   UNL A   1      32.044  30.814  27.043  1.00  0.00     0.261 C 
BRANCH  26  27
ATOM     27  O   UNL A   1      33.326  31.454  27.251  1.00  0.00    -0.460 OA
BRANCH  27  28
ATOM     28  C   UNL A   1      33.311  32.663  27.883  1.00  0.00     0.338 C 
ATOM     29  O   UNL A   1      32.496  33.552  27.690  1.00  0.00    -0.246 OA
BRANCH  28  30
ATOM     30  C   UNL A   1      34.588  32.864  28.635  1.00  0.00     0.060 A 
ATOM     31  C   UNL A   1      35.701  33.455  28.002  1.00  0.00     0.016 A 
ATOM     32  C   UNL A   1      34.768  32.153  29.818  1.00  0.00     0.016 A 
ATOM     33  C   UNL A   1      37.004  33.188  28.462  1.00  0.00     0.010 A 
ATOM     34  C   UNL A   1      36.046  31.803  30.193  1.00  0.00     0.010 A 
ATOM     35  C   UNL A   1      37.176  32.282  29.506  1.00  0.00    -0.014 A 
BRANCH  35  36
ATOM     36  C   UNL A   1      38.432  31.638  29.918  1.00  0.00     0.031 A 
ATOM     37  C   UNL A   1      38.851  30.407  29.209  1.00  0.00     0.074 A 
ATOM     38  C   UNL A   1      39.343  32.302  30.677  1.00  0.00     0.049 A 
ATOM     39  N   UNL A   1      39.880  29.713  29.542  1.00  0.00    -0.248 NA
ATOM     40  C   UNL A   1      38.125  29.816  28.084  1.00  0.00     0.031 C 
ATOM     41  C   UNL A   1      40.799  32.135  30.713  1.00  0.00     0.029 A 
ATOM     42  N   UNL A   1      39.131  33.310  31.614  1.00  0.00    -0.354 N 
ATOM     43  C   UNL A   1      40.150  28.845  28.516  1.00  0.00     0.074 A 
ATOM     44  C   UNL A   1      38.968  28.853  27.697  1.00  0.00     0.031 C 
ATOM     45  C   UNL A   1      41.312  32.805  31.761  1.00  0.00     0.029 A 
ATOM     46  C   UNL A   1      40.196  33.338  32.524  1.00  0.00     0.049 A 
ATOM     47  H   UNL A   1      38.353  33.913  31.633  1.00  0.00     0.167 HD
ATOM     48  C   UNL A   1      41.405  28.325  28.430  1.00  0.00     0.031 A 
ATOM     49  C   UNL A   1      39.953  33.198  33.854  1.00  0.00     0.031 A 
ATOM     50  C   UNL A   1      42.200  28.679  29.616  1.00  0.00     0.049 A 
ATOM     51  C   UNL A   1      40.508  31.864  34.265  1.00  0.00     0.074 A 
ATOM     52  C   UNL A   1      43.256  29.548  29.833  1.00  0.00     0.029 A 
ATOM     53  N   UNL A   1      41.700  28.353  30.878  1.00  0.00    -0.354 N 
ATOM     54  N   UNL A   1      40.703  30.900  33.404  1.00  0.00    -0.248 NA
ATOM     55  C   UNL A   1      41.011  31.539  35.595  1.00  0.00     0.031 C 
ATOM     56  C   UNL A   1      43.307  29.822  31.235  1.00  0.00     0.029 A 
ATOM     57  C   UNL A   1      42.320  29.084  31.873  1.00  0.00     0.049 A 
ATOM     58  H   UNL A   1      40.995  27.685  31.040  1.00  0.00     0.167 HD
ATOM     59  C   UNL A   1      41.453  29.928  33.979  1.00  0.00     0.074 A 
ATOM     60  C   UNL A   1      41.562  30.331  35.373  1.00  0.00     0.031 C 
ATOM     61  C   UNL A   1      41.967  28.881  33.278  1.00  0.00     0.031 A 
BRANCH  48  62
ATOM     62  C   UNL A   1      41.974  27.641  27.206  1.00  0.00    -0.014 A 
ATOM     63  C   UNL A   1      41.452  26.398  26.805  1.00  0.00     0.009 A 
ATOM     64  C   UNL A   1      43.056  28.119  26.443  1.00  0.00     0.009 A 
ATOM     65  C   UNL A   1      41.971  25.689  25.709  1.00  0.00     0.001 A 
ATOM     66  C   UNL A   1      43.564  27.432  25.331  1.00  0.00     0.001 A 
ATOM     67  C   UNL A   1      43.021  26.212  24.964  1.00  0.00     0.000 A 
ENDBRANCH  48  62
BRANCH  49  68
ATOM     68  C   UNL A   1      38.689  33.888  34.265  1.00  0.00    -0.014 A 
ATOM     69  C   UNL A   1      37.906  34.448  33.227  1.00  0.00     0.009 A 
ATOM     70  C   UNL A   1      38.037  33.559  35.466  1.00  0.00     0.009 A 
ATOM     71  C   UNL A   1      36.511  34.546  33.337  1.00  0.00     0.001 A 
ATOM     72  C   UNL A   1      36.638  33.646  35.564  1.00  0.00     0.001 A 
ATOM     73  C   UNL A   1      35.873  34.106  34.492  1.00  0.00     0.000 A 
ENDBRANCH  49  68
BRANCH  61  74
ATOM     74  C   UNL A   1      42.197  27.546  33.916  1.00  0.00    -0.014 A 
ATOM     75  C   UNL A   1      43.403  26.841  33.780  1.00  0.00     0.009 A 
ATOM     76  C   UNL A   1      41.269  27.060  34.858  1.00  0.00     0.009 A 
ATOM     77  C   UNL A   1      43.647  25.674  34.504  1.00  0.00     0.001 A 
ATOM     78  C   UNL A   1      41.537  25.930  35.628  1.00  0.00     0.001 A 
ATOM     79  C   UNL A   1      42.719  25.227  35.437  1.00  0.00     0.000 A 
ENDBRANCH  61  74
ENDBRANCH  35  36
ENDBRANCH  28  30
ENDBRANCH  27  28
ENDBRANCH  26  27
ENDBRANCH  25  26
ENDBRANCH  24  25
ENDBRANCH   1  24
TORSDOF 17
ENDMDL
