MODEL 1
REMARK VINA RESULT:      -8.7      0.000      0.000
REMARK SMILES C=Cc1cc(Cl)cc2c1O[C@H](C(F)(F)F)C(C(=O)OCCOCCOC(=O)c1ccc(-c3c4nc(c(-c5ccccc5)c5ccc([nH]5)c(-c5ccccc5)c5nc(c(-c6ccccc6)c6ccc3[nH]6)C=C5)C=C4)cc1)=C2
REMARK SMILES IDX 23 1 22 2 21 3 20 4 19 5 17 6 18 7 16 8 3 9 4 10 9 11 5 12
REMARK SMILES IDX 8 13 10 14 6 15 7 16 76 17 11 18 2 19 1 20 12 21 13 22 14 23
REMARK SMILES IDX 15 24 24 25 25 26 26 27 27 28 28 29 29 30 75 31 30 32 74 33
REMARK SMILES IDX 31 34 32 35 33 36 68 37 34 38 73 39 67 40 69 41 35 42 72 43
REMARK SMILES IDX 66 44 65 45 36 47 58 48 43 49 57 50 44 51 47 52 56 53 70 54
REMARK SMILES IDX 45 55 46 56 55 58 71 59 48 60 37 61 38 62 42 63 39 64 41 65
REMARK SMILES IDX 40 66 59 67 60 68 64 69 61 70 63 71 62 72 49 73 50 74 54 75
REMARK SMILES IDX 51 76 53 77 52 78
REMARK H PARENT 69 46 47 57
REMARK Flexibility Score: inf
ROOT
ATOM      1  C   UNL A   1      45.457  19.988  24.780  1.00  0.00     0.202 C 
ENDROOT
BRANCH   1   2
ATOM      2  O   UNL A   1      46.176  21.002  25.479  1.00  0.00    -0.374 OA
BRANCH   2   3
ATOM      3  C   UNL A   1      45.657  22.328  25.484  1.00  0.00     0.202 C 
BRANCH   3   4
ATOM      4  C   UNL A   1      45.656  23.100  24.161  1.00  0.00     0.261 C 
BRANCH   4   5
ATOM      5  O   UNL A   1      46.299  24.378  24.277  1.00  0.00    -0.460 OA
BRANCH   5   6
ATOM      6  C   UNL A   1      46.787  24.646  25.511  1.00  0.00     0.338 C 
ATOM      7  O   UNL A   1      47.660  24.031  26.103  1.00  0.00    -0.246 OA
BRANCH   6   8
ATOM      8  C   UNL A   1      46.196  25.895  26.026  1.00  0.00     0.087 C 
ATOM      9  C   UNL A   1      44.461  29.579  27.002  1.00  0.00     0.018 A 
ATOM     10  C   UNL A   1      43.111  29.785  26.673  1.00  0.00     0.032 A 
ATOM     11  C   UNL A   1      45.035  28.314  26.759  1.00  0.00     0.135 A 
ATOM     12  C   UNL A   1      42.342  28.744  26.159  1.00  0.00     0.042 A 
ATOM     13  C   UNL A   1      44.260  27.285  26.209  1.00  0.00     0.019 A 
ATOM     14  O   UNL A   1      46.351  28.137  27.100  1.00  0.00    -0.475 OA
ATOM     15  Cl  UNL A   1      40.688  29.014  25.766  1.00  0.00    -0.084 Cl
ATOM     16  C   UNL A   1      42.906  27.495  25.930  1.00  0.00     0.032 A 
ATOM     17  C   UNL A   1      44.875  26.021  25.852  1.00  0.00     0.027 C 
ATOM     18  C   UNL A   1      47.060  26.946  26.662  1.00  0.00     0.316 C 
BRANCH   9  19
ATOM     19  C   UNL A   1      45.287  30.696  27.494  1.00  0.00     0.004 C 
ATOM     20  C   UNL A   1      46.131  31.410  26.737  1.00  0.00     0.009 C 
ENDBRANCH   9  19
BRANCH  18  21
ATOM     21  C   UNL A   1      48.223  27.381  25.759  1.00  0.00     0.430 C 
ATOM     22  F   UNL A   1      47.855  27.389  24.455  1.00  0.00    -0.167 F 
ATOM     23  F   UNL A   1      48.644  28.634  26.049  1.00  0.00    -0.167 F 
ATOM     24  F   UNL A   1      49.289  26.557  25.875  1.00  0.00    -0.167 F 
ENDBRANCH  18  21
ENDBRANCH   6   8
ENDBRANCH   5   6
ENDBRANCH   4   5
ENDBRANCH   3   4
ENDBRANCH   2   3
ENDBRANCH   1   2
BRANCH   1  25
ATOM     25  C   UNL A   1      44.268  19.318  25.482  1.00  0.00     0.261 C 
BRANCH  25  26
ATOM     26  O   UNL A   1      43.006  19.628  24.871  1.00  0.00    -0.460 OA
BRANCH  26  27
ATOM     27  C   UNL A   1      41.958  19.689  25.730  1.00  0.00     0.338 C 
ATOM     28  O   UNL A   1      41.186  18.788  26.024  1.00  0.00    -0.246 OA
BRANCH  27  29
ATOM     29  C   UNL A   1      41.982  20.981  26.440  1.00  0.00     0.060 A 
ATOM     30  C   UNL A   1      41.919  21.039  27.833  1.00  0.00     0.016 A 
ATOM     31  C   UNL A   1      42.118  22.151  25.682  1.00  0.00     0.016 A 
ATOM     32  C   UNL A   1      42.025  22.279  28.467  1.00  0.00     0.010 A 
ATOM     33  C   UNL A   1      42.225  23.387  26.318  1.00  0.00     0.010 A 
ATOM     34  C   UNL A   1      42.201  23.457  27.718  1.00  0.00    -0.014 A 
BRANCH  34  35
ATOM     35  C   UNL A   1      42.500  24.738  28.406  1.00  0.00     0.031 A 
ATOM     36  C   UNL A   1      43.861  25.038  28.954  1.00  0.00     0.074 A 
ATOM     37  C   UNL A   1      41.505  25.635  28.540  1.00  0.00     0.049 A 
ATOM     38  N   UNL A   1      44.297  26.148  29.494  1.00  0.00    -0.248 NA
ATOM     39  C   UNL A   1      44.861  23.963  28.895  1.00  0.00     0.031 C 
ATOM     40  C   UNL A   1      40.130  25.435  28.079  1.00  0.00     0.029 A 
ATOM     41  N   UNL A   1      41.494  26.895  29.084  1.00  0.00    -0.354 N 
ATOM     42  C   UNL A   1      45.625  25.916  29.820  1.00  0.00     0.074 A 
ATOM     43  C   UNL A   1      45.911  24.541  29.467  1.00  0.00     0.031 C 
ATOM     44  C   UNL A   1      39.422  26.548  28.317  1.00  0.00     0.029 A 
ATOM     45  C   UNL A   1      40.278  27.526  28.983  1.00  0.00     0.049 A 
ATOM     46  H   UNL A   1      42.282  27.307  29.506  1.00  0.00     0.167 HD
ATOM     47  C   UNL A   1      46.526  26.781  30.345  1.00  0.00     0.031 A 
ATOM     48  C   UNL A   1      39.890  28.757  29.372  1.00  0.00     0.031 A 
ATOM     49  C   UNL A   1      46.224  28.141  30.716  1.00  0.00     0.049 A 
ATOM     50  C   UNL A   1      40.898  29.681  29.995  1.00  0.00     0.074 A 
ATOM     51  C   UNL A   1      47.083  29.101  31.221  1.00  0.00     0.029 A 
ATOM     52  N   UNL A   1      44.970  28.729  30.637  1.00  0.00    -0.354 N 
ATOM     53  N   UNL A   1      42.174  29.477  30.215  1.00  0.00    -0.248 NA
ATOM     54  C   UNL A   1      40.421  31.009  30.407  1.00  0.00     0.031 C 
ATOM     55  C   UNL A   1      46.337  30.240  31.524  1.00  0.00     0.029 A 
ATOM     56  C   UNL A   1      45.028  30.026  31.122  1.00  0.00     0.049 A 
ATOM     57  H   UNL A   1      44.160  28.291  30.290  1.00  0.00     0.167 HD
ATOM     58  C   UNL A   1      42.659  30.656  30.768  1.00  0.00     0.074 A 
ATOM     59  C   UNL A   1      41.543  31.578  30.830  1.00  0.00     0.031 C 
ATOM     60  C   UNL A   1      43.916  30.943  31.185  1.00  0.00     0.031 A 
BRANCH  47  61
ATOM     61  C   UNL A   1      47.939  26.304  30.546  1.00  0.00    -0.014 A 
ATOM     62  C   UNL A   1      48.342  25.802  31.795  1.00  0.00     0.009 A 
ATOM     63  C   UNL A   1      48.906  26.469  29.541  1.00  0.00     0.009 A 
ATOM     64  C   UNL A   1      49.682  25.499  32.041  1.00  0.00     0.001 A 
ATOM     65  C   UNL A   1      50.241  26.133  29.779  1.00  0.00     0.001 A 
ATOM     66  C   UNL A   1      50.630  25.662  31.032  1.00  0.00     0.000 A 
ENDBRANCH  47  61
BRANCH  48  67
ATOM     67  C   UNL A   1      38.485  29.185  29.130  1.00  0.00    -0.014 A 
ATOM     68  C   UNL A   1      38.094  29.677  27.873  1.00  0.00     0.009 A 
ATOM     69  C   UNL A   1      37.544  29.167  30.170  1.00  0.00     0.009 A 
ATOM     70  C   UNL A   1      36.805  30.175  27.672  1.00  0.00     0.001 A 
ATOM     71  C   UNL A   1      36.243  29.631  29.955  1.00  0.00     0.001 A 
ATOM     72  C   UNL A   1      35.879  30.146  28.712  1.00  0.00     0.000 A 
ENDBRANCH  48  67
BRANCH  60  73
ATOM     73  C   UNL A   1      44.186  32.315  31.743  1.00  0.00    -0.014 A 
ATOM     74  C   UNL A   1      44.752  33.304  30.920  1.00  0.00     0.009 A 
ATOM     75  C   UNL A   1      43.999  32.597  33.105  1.00  0.00     0.009 A 
ATOM     76  C   UNL A   1      45.151  34.531  31.453  1.00  0.00     0.001 A 
ATOM     77  C   UNL A   1      44.364  33.840  33.628  1.00  0.00     0.001 A 
ATOM     78  C   UNL A   1      44.953  34.800  32.805  1.00  0.00     0.000 A 
ENDBRANCH  60  73
ENDBRANCH  34  35
ENDBRANCH  27  29
ENDBRANCH  26  27
ENDBRANCH  25  26
ENDBRANCH   1  25
TORSDOF 16
ENDMDL
MODEL 2
REMARK VINA RESULT:      -8.1      5.267      7.723
REMARK SMILES C=Cc1cc(Cl)cc2c1O[C@H](C(F)(F)F)C(C(=O)OCCOCCOC(=O)c1ccc(-c3c4nc(c(-c5ccccc5)c5ccc([nH]5)c(-c5ccccc5)c5nc(c(-c6ccccc6)c6ccc3[nH]6)C=C5)C=C4)cc1)=C2
REMARK SMILES IDX 23 1 22 2 21 3 20 4 19 5 17 6 18 7 16 8 3 9 4 10 9 11 5 12
REMARK SMILES IDX 8 13 10 14 6 15 7 16 76 17 11 18 2 19 1 20 12 21 13 22 14 23
REMARK SMILES IDX 15 24 24 25 25 26 26 27 27 28 28 29 29 30 75 31 30 32 74 33
REMARK SMILES IDX 31 34 32 35 33 36 68 37 34 38 73 39 67 40 69 41 35 42 72 43
REMARK SMILES IDX 66 44 65 45 36 47 58 48 43 49 57 50 44 51 47 52 56 53 70 54
REMARK SMILES IDX 45 55 46 56 55 58 71 59 48 60 37 61 38 62 42 63 39 64 41 65
REMARK SMILES IDX 40 66 59 67 60 68 64 69 61 70 63 71 62 72 49 73 50 74 54 75
REMARK SMILES IDX 51 76 53 77 52 78
REMARK H PARENT 69 46 47 57
REMARK Flexibility Score: inf
ROOT
ATOM      1  C   UNL A   1      37.808  20.705  25.242  1.00  0.00     0.202 C 
ENDROOT
BRANCH   1   2
ATOM      2  O   UNL A   1      36.755  21.599  25.594  1.00  0.00    -0.374 OA
BRANCH   2   3
ATOM      3  C   UNL A   1      35.434  21.084  25.723  1.00  0.00     0.202 C 
BRANCH   3   4
ATOM      4  C   UNL A   1      34.278  21.941  25.200  1.00  0.00     0.261 C 
BRANCH   4   5
ATOM      5  O   UNL A   1      34.670  23.302  24.971  1.00  0.00    -0.460 OA
BRANCH   5   6
ATOM      6  C   UNL A   1      34.516  23.718  23.691  1.00  0.00     0.338 C 
ATOM      7  O   UNL A   1      34.956  23.179  22.688  1.00  0.00    -0.246 OA
BRANCH   6   8
ATOM      8  C   UNL A   1      33.613  24.883  23.646  1.00  0.00     0.087 C 
ATOM      9  C   UNL A   1      30.932  28.080  23.999  1.00  0.00     0.018 A 
ATOM     10  C   UNL A   1      31.264  29.132  24.869  1.00  0.00     0.032 A 
ATOM     11  C   UNL A   1      31.863  27.040  23.804  1.00  0.00     0.135 A 
ATOM     12  C   UNL A   1      32.510  29.170  25.490  1.00  0.00     0.042 A 
ATOM     13  C   UNL A   1      33.099  27.070  24.461  1.00  0.00     0.019 A 
ATOM     14  O   UNL A   1      31.518  26.031  22.941  1.00  0.00    -0.475 OA
ATOM     15  Cl  UNL A   1      32.902  30.469  26.549  1.00  0.00    -0.084 Cl
ATOM     16  C   UNL A   1      33.431  28.148  25.288  1.00  0.00     0.032 A 
ATOM     17  C   UNL A   1      34.012  25.948  24.352  1.00  0.00     0.027 C 
ATOM     18  C   UNL A   1      32.324  24.823  22.878  1.00  0.00     0.316 C 
BRANCH   9  19
ATOM     19  C   UNL A   1      29.593  28.014  23.386  1.00  0.00     0.004 C 
ATOM     20  C   UNL A   1      28.967  29.051  22.812  1.00  0.00     0.009 C 
ENDBRANCH   9  19
BRANCH  18  21
ATOM     21  C   UNL A   1      31.444  23.634  23.291  1.00  0.00     0.430 C 
ATOM     22  F   UNL A   1      31.478  23.442  24.632  1.00  0.00    -0.167 F 
ATOM     23  F   UNL A   1      30.146  23.831  22.962  1.00  0.00    -0.167 F 
ATOM     24  F   UNL A   1      31.842  22.482  22.705  1.00  0.00    -0.167 F 
ENDBRANCH  18  21
ENDBRANCH   6   8
ENDBRANCH   5   6
ENDBRANCH   4   5
ENDBRANCH   3   4
ENDBRANCH   2   3
ENDBRANCH   1   2
BRANCH   1  25
ATOM     25  C   UNL A   1      39.242  21.061  25.661  1.00  0.00     0.261 C 
BRANCH  25  26
ATOM     26  O   UNL A   1      39.975  19.936  26.172  1.00  0.00    -0.460 OA
BRANCH  26  27
ATOM     27  C   UNL A   1      41.316  19.999  25.985  1.00  0.00     0.338 C 
ATOM     28  O   UNL A   1      42.008  19.246  25.316  1.00  0.00    -0.246 OA
BRANCH  27  29
ATOM     29  C   UNL A   1      41.832  21.255  26.559  1.00  0.00     0.060 A 
ATOM     30  C   UNL A   1      42.339  22.266  25.742  1.00  0.00     0.016 A 
ATOM     31  C   UNL A   1      41.757  21.428  27.947  1.00  0.00     0.016 A 
ATOM     32  C   UNL A   1      42.744  23.470  26.323  1.00  0.00     0.010 A 
ATOM     33  C   UNL A   1      42.159  22.632  28.523  1.00  0.00     0.010 A 
ATOM     34  C   UNL A   1      42.636  23.671  27.712  1.00  0.00    -0.014 A 
BRANCH  34  35
ATOM     35  C   UNL A   1      42.891  25.014  28.291  1.00  0.00     0.031 A 
ATOM     36  C   UNL A   1      44.264  25.443  28.709  1.00  0.00     0.074 A 
ATOM     37  C   UNL A   1      41.846  25.850  28.444  1.00  0.00     0.049 A 
ATOM     38  N   UNL A   1      44.656  26.615  29.140  1.00  0.00    -0.248 NA
ATOM     39  C   UNL A   1      45.332  24.436  28.642  1.00  0.00     0.031 C 
ATOM     40  C   UNL A   1      40.459  25.525  28.107  1.00  0.00     0.029 A 
ATOM     41  N   UNL A   1      41.784  27.141  28.905  1.00  0.00    -0.354 N 
ATOM     42  C   UNL A   1      46.018  26.496  29.375  1.00  0.00     0.074 A 
ATOM     43  C   UNL A   1      46.376  25.122  29.091  1.00  0.00     0.031 C 
ATOM     44  C   UNL A   1      39.692  26.601  28.327  1.00  0.00     0.029 A 
ATOM     45  C   UNL A   1      40.521  27.680  28.859  1.00  0.00     0.049 A 
ATOM     46  H   UNL A   1      42.569  27.634  29.236  1.00  0.00     0.167 HD
ATOM     47  C   UNL A   1      46.890  27.454  29.770  1.00  0.00     0.031 A 
ATOM     48  C   UNL A   1      40.075  28.906  29.196  1.00  0.00     0.031 A 
ATOM     49  C   UNL A   1      46.519  28.814  30.075  1.00  0.00     0.049 A 
ATOM     50  C   UNL A   1      41.056  29.937  29.677  1.00  0.00     0.074 A 
ATOM     51  C   UNL A   1      47.341  29.863  30.448  1.00  0.00     0.029 A 
ATOM     52  N   UNL A   1      45.223  29.309  30.058  1.00  0.00    -0.354 N 
ATOM     53  N   UNL A   1      42.357  29.836  29.809  1.00  0.00    -0.248 NA
ATOM     54  C   UNL A   1      40.516  31.255  30.038  1.00  0.00     0.031 C 
ATOM     55  C   UNL A   1      46.538  30.967  30.734  1.00  0.00     0.029 A 
ATOM     56  C   UNL A   1      45.223  30.638  30.451  1.00  0.00     0.049 A 
ATOM     57  H   UNL A   1      44.424  28.794  29.804  1.00  0.00     0.167 HD
ATOM     58  C   UNL A   1      42.794  31.081  30.244  1.00  0.00     0.074 A 
ATOM     59  C   UNL A   1      41.622  31.927  30.334  1.00  0.00     0.031 C 
ATOM     60  C   UNL A   1      44.054  31.480  30.541  1.00  0.00     0.031 A 
BRANCH  47  61
ATOM     61  C   UNL A   1      48.346  27.089  29.890  1.00  0.00    -0.014 A 
ATOM     62  C   UNL A   1      49.188  27.177  28.769  1.00  0.00     0.009 A 
ATOM     63  C   UNL A   1      48.856  26.536  31.076  1.00  0.00     0.009 A 
ATOM     64  C   UNL A   1      50.498  26.700  28.825  1.00  0.00     0.001 A 
ATOM     65  C   UNL A   1      50.178  26.090  31.139  1.00  0.00     0.001 A 
ATOM     66  C   UNL A   1      50.993  26.160  30.010  1.00  0.00     0.000 A 
ENDBRANCH  47  61
BRANCH  48  67
ATOM     67  C   UNL A   1      38.629  29.220  29.039  1.00  0.00    -0.014 A 
ATOM     68  C   UNL A   1      38.124  29.664  27.804  1.00  0.00     0.009 A 
ATOM     69  C   UNL A   1      37.757  29.143  30.134  1.00  0.00     0.009 A 
ATOM     70  C   UNL A   1      36.790  30.057  27.679  1.00  0.00     0.001 A 
ATOM     71  C   UNL A   1      36.413  29.502  29.998  1.00  0.00     0.001 A 
ATOM     72  C   UNL A   1      35.935  29.970  28.775  1.00  0.00     0.000 A 
ENDBRANCH  48  67
BRANCH  60  73
ATOM     73  C   UNL A   1      44.265  32.903  30.987  1.00  0.00    -0.014 A 
ATOM     74  C   UNL A   1      44.151  33.232  32.349  1.00  0.00     0.009 A 
ATOM     75  C   UNL A   1      44.452  33.937  30.057  1.00  0.00     0.009 A 
ATOM     76  C   UNL A   1      44.191  34.563  32.766  1.00  0.00     0.001 A 
ATOM     77  C   UNL A   1      44.530  35.266  30.481  1.00  0.00     0.001 A 
ATOM     78  C   UNL A   1      44.385  35.579  31.833  1.00  0.00     0.000 A 
ENDBRANCH  60  73
ENDBRANCH  34  35
ENDBRANCH  27  29
ENDBRANCH  26  27
ENDBRANCH  25  26
ENDBRANCH   1  25
TORSDOF 16
ENDMDL
MODEL 3
REMARK VINA RESULT:      -8.0      5.630      8.257
REMARK SMILES C=Cc1cc(Cl)cc2c1O[C@H](C(F)(F)F)C(C(=O)OCCOCCOC(=O)c1ccc(-c3c4nc(c(-c5ccccc5)c5ccc([nH]5)c(-c5ccccc5)c5nc(c(-c6ccccc6)c6ccc3[nH]6)C=C5)C=C4)cc1)=C2
REMARK SMILES IDX 23 1 22 2 21 3 20 4 19 5 17 6 18 7 16 8 3 9 4 10 9 11 5 12
REMARK SMILES IDX 8 13 10 14 6 15 7 16 76 17 11 18 2 19 1 20 12 21 13 22 14 23
REMARK SMILES IDX 15 24 24 25 25 26 26 27 27 28 28 29 29 30 75 31 30 32 74 33
REMARK SMILES IDX 31 34 32 35 33 36 68 37 34 38 73 39 67 40 69 41 35 42 72 43
REMARK SMILES IDX 66 44 65 45 36 47 58 48 43 49 57 50 44 51 47 52 56 53 70 54
REMARK SMILES IDX 45 55 46 56 55 58 71 59 48 60 37 61 38 62 42 63 39 64 41 65
REMARK SMILES IDX 40 66 59 67 60 68 64 69 61 70 63 71 62 72 49 73 50 74 54 75
REMARK SMILES IDX 51 76 53 77 52 78
REMARK H PARENT 69 46 47 57
REMARK Flexibility Score: inf
ROOT
ATOM      1  C   UNL A   1      36.647  20.647  25.222  1.00  0.00     0.202 C 
ENDROOT
BRANCH   1   2
ATOM      2  O   UNL A   1      35.528  21.258  25.861  1.00  0.00    -0.374 OA
BRANCH   2   3
ATOM      3  C   UNL A   1      34.222  20.770  25.569  1.00  0.00     0.202 C 
BRANCH   3   4
ATOM      4  C   UNL A   1      33.110  21.797  25.337  1.00  0.00     0.261 C 
BRANCH   4   5
ATOM      5  O   UNL A   1      33.607  23.144  25.326  1.00  0.00    -0.460 OA
BRANCH   5   6
ATOM      6  C   UNL A   1      33.747  23.675  24.088  1.00  0.00     0.338 C 
ATOM      7  O   UNL A   1      34.175  23.113  23.093  1.00  0.00    -0.246 OA
BRANCH   6   8
ATOM      8  C   UNL A   1      33.182  25.038  24.059  1.00  0.00     0.087 C 
ATOM      9  C   UNL A   1      31.436  28.822  24.458  1.00  0.00     0.018 A 
ATOM     10  C   UNL A   1      32.030  29.738  25.341  1.00  0.00     0.032 A 
ATOM     11  C   UNL A   1      32.061  27.576  24.247  1.00  0.00     0.135 A 
ATOM     12  C   UNL A   1      33.240  29.438  25.963  1.00  0.00     0.042 A 
ATOM     13  C   UNL A   1      33.259  27.272  24.905  1.00  0.00     0.019 A 
ATOM     14  O   UNL A   1      31.465  26.706  23.371  1.00  0.00    -0.475 OA
ATOM     15  Cl  UNL A   1      33.956  30.575  27.039  1.00  0.00    -0.084 Cl
ATOM     16  C   UNL A   1      33.860  28.213  25.746  1.00  0.00     0.032 A 
ATOM     17  C   UNL A   1      33.845  25.951  24.779  1.00  0.00     0.027 C 
ATOM     18  C   UNL A   1      31.925  25.329  23.292  1.00  0.00     0.316 C 
BRANCH   9  19
ATOM     19  C   UNL A   1      30.128  29.119  23.844  1.00  0.00     0.004 C 
ATOM     20  C   UNL A   1      29.957  29.844  22.731  1.00  0.00     0.009 C 
ENDBRANCH   9  19
BRANCH  18  21
ATOM     21  C   UNL A   1      30.762  24.408  23.688  1.00  0.00     0.430 C 
ATOM     22  F   UNL A   1      29.571  24.936  23.318  1.00  0.00    -0.167 F 
ATOM     23  F   UNL A   1      30.851  23.198  23.087  1.00  0.00    -0.167 F 
ATOM     24  F   UNL A   1      30.717  24.196  25.023  1.00  0.00    -0.167 F 
ENDBRANCH  18  21
ENDBRANCH   6   8
ENDBRANCH   5   6
ENDBRANCH   4   5
ENDBRANCH   3   4
ENDBRANCH   2   3
ENDBRANCH   1   2
BRANCH   1  25
ATOM     25  C   UNL A   1      37.914  21.485  25.006  1.00  0.00     0.261 C 
BRANCH  25  26
ATOM     26  O   UNL A   1      38.177  22.397  26.085  1.00  0.00    -0.460 OA
BRANCH  26  27
ATOM     27  C   UNL A   1      39.491  22.627  26.327  1.00  0.00     0.338 C 
ATOM     28  O   UNL A   1      40.439  21.926  26.003  1.00  0.00    -0.246 OA
BRANCH  27  29
ATOM     29  C   UNL A   1      39.657  23.980  26.887  1.00  0.00     0.060 A 
ATOM     30  C   UNL A   1      39.179  24.298  28.158  1.00  0.00     0.016 A 
ATOM     31  C   UNL A   1      40.353  24.930  26.128  1.00  0.00     0.016 A 
ATOM     32  C   UNL A   1      39.428  25.569  28.681  1.00  0.00     0.010 A 
ATOM     33  C   UNL A   1      40.603  26.197  26.653  1.00  0.00     0.010 A 
ATOM     34  C   UNL A   1      40.160  26.519  27.943  1.00  0.00    -0.014 A 
BRANCH  34  35
ATOM     35  C   UNL A   1      40.579  27.792  28.581  1.00  0.00     0.031 A 
ATOM     36  C   UNL A   1      41.988  28.019  29.034  1.00  0.00     0.074 A 
ATOM     37  C   UNL A   1      39.650  28.752  28.756  1.00  0.00     0.049 A 
ATOM     38  N   UNL A   1      42.524  29.111  29.519  1.00  0.00    -0.248 NA
ATOM     39  C   UNL A   1      42.916  26.883  28.939  1.00  0.00     0.031 C 
ATOM     40  C   UNL A   1      38.239  28.627  28.387  1.00  0.00     0.029 A 
ATOM     41  N   UNL A   1      39.750  30.020  29.269  1.00  0.00    -0.354 N 
ATOM     42  C   UNL A   1      43.854  28.803  29.766  1.00  0.00     0.074 A 
ATOM     43  C   UNL A   1      44.033  27.407  29.429  1.00  0.00     0.031 C 
ATOM     44  C   UNL A   1      37.616  29.786  28.642  1.00  0.00     0.029 A 
ATOM     45  C   UNL A   1      38.570  30.723  29.230  1.00  0.00     0.049 A 
ATOM     46  H   UNL A   1      40.588  30.391  29.630  1.00  0.00     0.167 HD
ATOM     47  C   UNL A   1      44.837  29.621  30.212  1.00  0.00     0.031 A 
ATOM     48  C   UNL A   1      38.283  31.982  29.612  1.00  0.00     0.031 A 
ATOM     49  C   UNL A   1      44.642  31.005  30.569  1.00  0.00     0.049 A 
ATOM     50  C   UNL A   1      39.383  32.856  30.148  1.00  0.00     0.074 A 
ATOM     51  C   UNL A   1      45.588  31.920  30.996  1.00  0.00     0.029 A 
ATOM     52  N   UNL A   1      43.423  31.668  30.556  1.00  0.00    -0.354 N 
ATOM     53  N   UNL A   1      40.656  32.578  30.293  1.00  0.00    -0.248 NA
ATOM     54  C   UNL A   1      39.015  34.218  30.557  1.00  0.00     0.031 C 
ATOM     55  C   UNL A   1      44.933  33.109  31.318  1.00  0.00     0.029 A 
ATOM     56  C   UNL A   1      43.590  32.968  31.004  1.00  0.00     0.049 A 
ATOM     57  H   UNL A   1      42.568  31.273  30.271  1.00  0.00     0.167 HD
ATOM     58  C   UNL A   1      41.245  33.736  30.785  1.00  0.00     0.074 A 
ATOM     59  C   UNL A   1      40.193  34.726  30.895  1.00  0.00     0.031 C 
ATOM     60  C   UNL A   1      42.541  33.953  31.115  1.00  0.00     0.031 A 
BRANCH  47  61
ATOM     61  C   UNL A   1      46.229  29.063  30.335  1.00  0.00    -0.014 A 
ATOM     62  C   UNL A   1      46.685  28.574  31.571  1.00  0.00     0.009 A 
ATOM     63  C   UNL A   1      47.134  29.137  29.263  1.00  0.00     0.009 A 
ATOM     64  C   UNL A   1      48.018  28.195  31.738  1.00  0.00     0.001 A 
ATOM     65  C   UNL A   1      48.459  28.725  29.424  1.00  0.00     0.001 A 
ATOM     66  C   UNL A   1      48.903  28.267  30.664  1.00  0.00     0.000 A 
ENDBRANCH  47  61
BRANCH  48  67
ATOM     67  C   UNL A   1      36.894  32.492  29.450  1.00  0.00    -0.014 A 
ATOM     68  C   UNL A   1      36.509  33.152  28.270  1.00  0.00     0.009 A 
ATOM     69  C   UNL A   1      35.965  32.380  30.494  1.00  0.00     0.009 A 
ATOM     70  C   UNL A   1      35.239  33.720  28.154  1.00  0.00     0.001 A 
ATOM     71  C   UNL A   1      34.681  32.917  30.361  1.00  0.00     0.001 A 
ATOM     72  C   UNL A   1      34.324  33.597  29.198  1.00  0.00     0.000 A 
ENDBRANCH  48  67
BRANCH  60  73
ATOM     73  C   UNL A   1      42.929  35.317  31.622  1.00  0.00    -0.014 A 
ATOM     74  C   UNL A   1      43.504  36.250  30.743  1.00  0.00     0.009 A 
ATOM     75  C   UNL A   1      42.844  35.638  32.986  1.00  0.00     0.009 A 
ATOM     76  C   UNL A   1      44.009  37.461  31.220  1.00  0.00     0.001 A 
ATOM     77  C   UNL A   1      43.315  36.867  33.455  1.00  0.00     0.001 A 
ATOM     78  C   UNL A   1      43.911  37.770  32.574  1.00  0.00     0.000 A 
ENDBRANCH  60  73
ENDBRANCH  34  35
ENDBRANCH  27  29
ENDBRANCH  26  27
ENDBRANCH  25  26
ENDBRANCH   1  25
TORSDOF 16
ENDMDL
