MODEL 1
REMARK VINA RESULT:     -11.0      0.000      0.000
REMARK SMILES COc1cccc(NC(=O)[C@@H]2[C@@H](C(=O)OCCOCCOC(=O)c3ccc(-c4c5nc(c(-c6ccccc6)c6ccc([nH]6)c(-c6ccccc6)c6nc(c(-c7ccccc7)c7ccc4[nH]7)C=C6)C=C5)cc3)[C@H]3C=C[C@@H]2C3)c1
REMARK SMILES IDX 17 1 16 2 15 3 13 4 14 5 12 6 11 7 75 8 72 9 74 10 76 11
REMARK SMILES IDX 73 12 9 13 8 14 10 16 7 17 3 18 4 19 77 20 5 21 6 22 2 23
REMARK SMILES IDX 1 24 18 25 19 26 20 27 21 28 22 29 23 30 24 31 25 32 71 33
REMARK SMILES IDX 26 34 70 35 27 36 28 37 29 38 64 39 30 40 69 41 63 42 65 43
REMARK SMILES IDX 31 44 68 45 62 46 61 47 32 49 54 50 39 51 53 52 40 53 43 54
REMARK SMILES IDX 52 55 66 56 41 57 42 58 51 60 67 61 44 62 33 63 34 64 38 65
REMARK SMILES IDX 35 66 37 67 36 68 55 69 56 70 60 71 57 72 59 73 58 74 45 75
REMARK SMILES IDX 46 76 50 77 47 78 49 79 48 80
REMARK H PARENT 8 15 65 48 43 59
REMARK Flexibility Score: inf
ROOT
ATOM      1  C   UNL A   1      39.507  20.537  26.117  1.00  0.00     0.202 C 
ENDROOT
BRANCH   1   2
ATOM      2  C   UNL A   1      38.817  21.723  25.443  1.00  0.00     0.261 C 
BRANCH   2   3
ATOM      3  O   UNL A   1      37.441  21.819  25.829  1.00  0.00    -0.463 OA
BRANCH   3   4
ATOM      4  C   UNL A   1      37.028  23.090  26.093  1.00  0.00     0.310 C 
ATOM      5  O   UNL A   1      37.773  24.049  26.240  1.00  0.00    -0.252 OA
BRANCH   4   6
ATOM      6  C   UNL A   1      35.519  23.148  26.159  1.00  0.00     0.119 C 
ATOM      7  C   UNL A   1      34.844  21.869  25.555  1.00  0.00     0.100 C 
ATOM      8  C   UNL A   1      34.001  22.497  24.406  1.00  0.00     0.025 C 
ATOM      9  C   UNL A   1      34.991  24.304  25.265  1.00  0.00     0.027 C 
ATOM     10  C   UNL A   1      34.974  23.023  23.365  1.00  0.00    -0.027 C 
ATOM     11  C   UNL A   1      33.562  23.844  24.997  1.00  0.00     0.017 C 
ATOM     12  C   UNL A   1      35.544  24.126  23.870  1.00  0.00    -0.027 C 
BRANCH   7  13
ATOM     13  C   UNL A   1      33.965  21.143  26.568  1.00  0.00     0.228 C 
ATOM     14  N   UNL A   1      33.249  20.011  26.315  1.00  0.00    -0.326 N 
ATOM     15  H   UNL A   1      32.808  19.678  27.130  1.00  0.00     0.169 HD
ATOM     16  O   UNL A   1      33.904  21.545  27.738  1.00  0.00    -0.274 OA
BRANCH  14  17
ATOM     17  C   UNL A   1      32.971  19.190  25.208  1.00  0.00     0.044 A 
ATOM     18  C   UNL A   1      33.104  16.929  24.295  1.00  0.00     0.120 A 
ATOM     19  C   UNL A   1      32.725  17.393  23.043  1.00  0.00     0.046 A 
ATOM     20  C   UNL A   1      33.232  17.815  25.370  1.00  0.00     0.072 A 
ATOM     21  C   UNL A   1      32.400  18.736  22.889  1.00  0.00     0.006 A 
ATOM     22  C   UNL A   1      32.501  19.621  23.971  1.00  0.00     0.026 A 
BRANCH  18  23
ATOM     23  O   UNL A   1      33.460  15.612  24.402  1.00  0.00    -0.497 OA
ATOM     24  C   UNL A   1      32.813  14.989  25.510  1.00  0.00     0.278 C 
ENDBRANCH  18  23
ENDBRANCH  14  17
ENDBRANCH   7  13
ENDBRANCH   4   6
ENDBRANCH   3   4
ENDBRANCH   2   3
ENDBRANCH   1   2
BRANCH   1  25
ATOM     25  O   UNL A   1      40.688  20.782  26.874  1.00  0.00    -0.374 OA
BRANCH  25  26
ATOM     26  C   UNL A   1      41.937  20.358  26.332  1.00  0.00     0.202 C 
BRANCH  26  27
ATOM     27  C   UNL A   1      42.874  21.391  25.703  1.00  0.00     0.261 C 
BRANCH  27  28
ATOM     28  O   UNL A   1      42.210  22.613  25.382  1.00  0.00    -0.460 OA
BRANCH  28  29
ATOM     29  C   UNL A   1      43.034  23.684  25.334  1.00  0.00     0.338 C 
ATOM     30  O   UNL A   1      43.995  23.861  24.600  1.00  0.00    -0.246 OA
BRANCH  29  31
ATOM     31  C   UNL A   1      42.472  24.741  26.184  1.00  0.00     0.060 A 
ATOM     32  C   UNL A   1      43.156  25.963  26.236  1.00  0.00     0.016 A 
ATOM     33  C   UNL A   1      41.309  24.531  26.925  1.00  0.00     0.016 A 
ATOM     34  C   UNL A   1      42.708  26.967  27.082  1.00  0.00     0.010 A 
ATOM     35  C   UNL A   1      40.865  25.533  27.781  1.00  0.00     0.010 A 
ATOM     36  C   UNL A   1      41.589  26.735  27.891  1.00  0.00    -0.014 A 
BRANCH  36  37
ATOM     37  C   UNL A   1      41.279  27.676  28.984  1.00  0.00     0.031 A 
ATOM     38  C   UNL A   1      42.121  27.625  30.227  1.00  0.00     0.074 A 
ATOM     39  C   UNL A   1      40.279  28.563  28.856  1.00  0.00     0.049 A 
ATOM     40  N   UNL A   1      42.009  28.315  31.331  1.00  0.00    -0.248 NA
ATOM     41  C   UNL A   1      43.237  26.661  30.230  1.00  0.00     0.031 C 
ATOM     42  C   UNL A   1      39.437  28.726  27.671  1.00  0.00     0.029 A 
ATOM     43  N   UNL A   1      39.805  29.495  29.740  1.00  0.00    -0.354 N 
ATOM     44  C   UNL A   1      43.021  27.856  32.163  1.00  0.00     0.074 A 
ATOM     45  C   UNL A   1      43.725  26.814  31.451  1.00  0.00     0.031 C 
ATOM     46  C   UNL A   1      38.542  29.702  27.905  1.00  0.00     0.029 A 
ATOM     47  C   UNL A   1      38.726  30.199  29.266  1.00  0.00     0.049 A 
ATOM     48  H   UNL A   1      40.199  29.646  30.629  1.00  0.00     0.167 HD
ATOM     49  C   UNL A   1      43.334  28.271  33.412  1.00  0.00     0.031 A 
ATOM     50  C   UNL A   1      37.965  31.125  29.878  1.00  0.00     0.031 A 
ATOM     51  C   UNL A   1      42.625  29.308  34.110  1.00  0.00     0.049 A 
ATOM     52  C   UNL A   1      38.293  31.512  31.296  1.00  0.00     0.074 A 
ATOM     53  C   UNL A   1      42.879  29.830  35.365  1.00  0.00     0.029 A 
ATOM     54  N   UNL A   1      41.517  29.974  33.611  1.00  0.00    -0.354 N 
ATOM     55  N   UNL A   1      39.277  31.102  32.061  1.00  0.00    -0.248 NA
ATOM     56  C   UNL A   1      37.408  32.497  31.932  1.00  0.00     0.031 C 
ATOM     57  C   UNL A   1      41.881  30.765  35.655  1.00  0.00     0.029 A 
ATOM     58  C   UNL A   1      41.051  30.878  34.550  1.00  0.00     0.049 A 
ATOM     59  H   UNL A   1      41.119  29.827  32.723  1.00  0.00     0.167 HD
ATOM     60  C   UNL A   1      39.151  31.807  33.252  1.00  0.00     0.074 A 
ATOM     61  C   UNL A   1      38.005  32.681  33.101  1.00  0.00     0.031 C 
ATOM     62  C   UNL A   1      39.913  31.742  34.371  1.00  0.00     0.031 A 
BRANCH  49  63
ATOM     63  C   UNL A   1      44.464  27.577  34.120  1.00  0.00    -0.014 A 
ATOM     64  C   UNL A   1      45.769  28.094  34.109  1.00  0.00     0.009 A 
ATOM     65  C   UNL A   1      44.203  26.409  34.855  1.00  0.00     0.009 A 
ATOM     66  C   UNL A   1      46.792  27.442  34.801  1.00  0.00     0.001 A 
ATOM     67  C   UNL A   1      45.221  25.777  35.570  1.00  0.00     0.001 A 
ATOM     68  C   UNL A   1      46.516  26.290  35.537  1.00  0.00     0.000 A 
ENDBRANCH  49  63
BRANCH  50  69
ATOM     69  C   UNL A   1      36.806  31.736  29.174  1.00  0.00    -0.014 A 
ATOM     70  C   UNL A   1      36.905  33.022  28.620  1.00  0.00     0.009 A 
ATOM     71  C   UNL A   1      35.582  31.055  29.089  1.00  0.00     0.009 A 
ATOM     72  C   UNL A   1      35.792  33.628  28.034  1.00  0.00     0.001 A 
ATOM     73  C   UNL A   1      34.480  31.649  28.471  1.00  0.00     0.001 A 
ATOM     74  C   UNL A   1      34.581  32.940  27.956  1.00  0.00     0.000 A 
ENDBRANCH  50  69
BRANCH  62  75
ATOM     75  C   UNL A   1      39.564  32.677  35.496  1.00  0.00    -0.014 A 
ATOM     76  C   UNL A   1      40.144  33.951  35.597  1.00  0.00     0.009 A 
ATOM     77  C   UNL A   1      38.606  32.287  36.445  1.00  0.00     0.009 A 
ATOM     78  C   UNL A   1      39.798  34.799  36.650  1.00  0.00     0.001 A 
ATOM     79  C   UNL A   1      38.236  33.151  37.475  1.00  0.00     0.001 A 
ATOM     80  C   UNL A   1      38.841  34.402  37.583  1.00  0.00     0.000 A 
ENDBRANCH  62  75
ENDBRANCH  36  37
ENDBRANCH  29  31
ENDBRANCH  28  29
ENDBRANCH  27  28
ENDBRANCH  26  27
ENDBRANCH  25  26
ENDBRANCH   1  25
TORSDOF 17
ENDMDL
MODEL 2
REMARK VINA RESULT:     -10.7      4.272      9.286
REMARK SMILES COc1cccc(NC(=O)[C@@H]2[C@@H](C(=O)OCCOCCOC(=O)c3ccc(-c4c5nc(c(-c6ccccc6)c6ccc([nH]6)c(-c6ccccc6)c6nc(c(-c7ccccc7)c7ccc4[nH]7)C=C6)C=C5)cc3)[C@H]3C=C[C@@H]2C3)c1
REMARK SMILES IDX 17 1 16 2 15 3 13 4 14 5 12 6 11 7 75 8 72 9 74 10 76 11
REMARK SMILES IDX 73 12 9 13 8 14 10 16 7 17 3 18 4 19 77 20 5 21 6 22 2 23
REMARK SMILES IDX 1 24 18 25 19 26 20 27 21 28 22 29 23 30 24 31 25 32 71 33
REMARK SMILES IDX 26 34 70 35 27 36 28 37 29 38 64 39 30 40 69 41 63 42 65 43
REMARK SMILES IDX 31 44 68 45 62 46 61 47 32 49 54 50 39 51 53 52 40 53 43 54
REMARK SMILES IDX 52 55 66 56 41 57 42 58 51 60 67 61 44 62 33 63 34 64 38 65
REMARK SMILES IDX 35 66 37 67 36 68 55 69 56 70 60 71 57 72 59 73 58 74 45 75
REMARK SMILES IDX 46 76 50 77 47 78 49 79 48 80
REMARK H PARENT 8 15 65 48 43 59
REMARK Flexibility Score: inf
ROOT
ATOM      1  C   UNL A   1      32.046  28.940  26.706  1.00  0.00     0.202 C 
ENDROOT
BRANCH   1   2
ATOM      2  C   UNL A   1      33.111  27.851  26.573  1.00  0.00     0.261 C 
BRANCH   2   3
ATOM      3  O   UNL A   1      32.625  26.728  25.828  1.00  0.00    -0.463 OA
BRANCH   3   4
ATOM      4  C   UNL A   1      33.595  26.048  25.157  1.00  0.00     0.310 C 
ATOM      5  O   UNL A   1      34.386  25.270  25.672  1.00  0.00    -0.252 OA
BRANCH   4   6
ATOM      6  C   UNL A   1      33.541  26.377  23.682  1.00  0.00     0.119 C 
ATOM      7  C   UNL A   1      32.207  27.090  23.276  1.00  0.00     0.100 C 
ATOM      8  C   UNL A   1      31.638  26.081  22.236  1.00  0.00     0.025 C 
ATOM      9  C   UNL A   1      33.532  25.067  22.845  1.00  0.00     0.027 C 
ATOM     10  C   UNL A   1      31.258  24.818  22.990  1.00  0.00    -0.027 C 
ATOM     11  C   UNL A   1      32.902  25.551  21.543  1.00  0.00     0.017 C 
ATOM     12  C   UNL A   1      32.397  24.195  23.327  1.00  0.00    -0.027 C 
BRANCH   7  13
ATOM     13  C   UNL A   1      32.448  28.463  22.657  1.00  0.00     0.228 C 
ATOM     14  N   UNL A   1      31.486  29.402  22.435  1.00  0.00    -0.326 N 
ATOM     15  H   UNL A   1      31.875  30.239  22.089  1.00  0.00     0.169 HD
ATOM     16  O   UNL A   1      33.598  28.819  22.363  1.00  0.00    -0.274 OA
BRANCH  14  17
ATOM     17  C   UNL A   1      30.089  29.502  22.566  1.00  0.00     0.044 A 
ATOM     18  C   UNL A   1      28.192  31.023  22.794  1.00  0.00     0.120 A 
ATOM     19  C   UNL A   1      27.346  29.957  23.063  1.00  0.00     0.046 A 
ATOM     20  C   UNL A   1      29.553  30.805  22.553  1.00  0.00     0.072 A 
ATOM     21  C   UNL A   1      27.852  28.663  23.012  1.00  0.00     0.006 A 
ATOM     22  C   UNL A   1      29.209  28.439  22.743  1.00  0.00     0.026 A 
BRANCH  18  23
ATOM     23  O   UNL A   1      27.674  32.286  22.896  1.00  0.00    -0.497 OA
ATOM     24  C   UNL A   1      28.704  33.272  22.885  1.00  0.00     0.278 C 
ENDBRANCH  18  23
ENDBRANCH  14  17
ENDBRANCH   7  13
ENDBRANCH   4   6
ENDBRANCH   3   4
ENDBRANCH   2   3
ENDBRANCH   1   2
BRANCH   1  25
ATOM     25  O   UNL A   1      32.430  30.293  26.488  1.00  0.00    -0.374 OA
BRANCH  25  26
ATOM     26  C   UNL A   1      31.414  31.294  26.502  1.00  0.00     0.202 C 
BRANCH  26  27
ATOM     27  C   UNL A   1      31.749  32.702  26.996  1.00  0.00     0.261 C 
BRANCH  27  28
ATOM     28  O   UNL A   1      33.122  32.845  27.361  1.00  0.00    -0.460 OA
BRANCH  28  29
ATOM     29  C   UNL A   1      33.354  33.857  28.227  1.00  0.00     0.338 C 
ATOM     30  O   UNL A   1      32.610  34.783  28.518  1.00  0.00    -0.246 OA
BRANCH  29  31
ATOM     31  C   UNL A   1      34.596  33.573  28.954  1.00  0.00     0.060 A 
ATOM     32  C   UNL A   1      35.805  33.910  28.331  1.00  0.00     0.016 A 
ATOM     33  C   UNL A   1      34.574  32.973  30.214  1.00  0.00     0.016 A 
ATOM     34  C   UNL A   1      37.008  33.593  28.945  1.00  0.00     0.010 A 
ATOM     35  C   UNL A   1      35.781  32.645  30.825  1.00  0.00     0.010 A 
ATOM     36  C   UNL A   1      36.996  32.917  30.171  1.00  0.00    -0.014 A 
BRANCH  36  37
ATOM     37  C   UNL A   1      38.249  32.332  30.686  1.00  0.00     0.031 A 
ATOM     38  C   UNL A   1      38.752  31.062  30.058  1.00  0.00     0.074 A 
ATOM     39  C   UNL A   1      38.924  32.933  31.678  1.00  0.00     0.049 A 
ATOM     40  N   UNL A   1      39.796  30.342  30.372  1.00  0.00    -0.248 NA
ATOM     41  C   UNL A   1      37.969  30.529  28.928  1.00  0.00     0.031 C 
ATOM     42  C   UNL A   1      38.546  34.193  32.319  1.00  0.00     0.029 A 
ATOM     43  N   UNL A   1      40.074  32.558  32.321  1.00  0.00    -0.354 N 
ATOM     44  C   UNL A   1      39.783  29.265  29.496  1.00  0.00     0.074 A 
ATOM     45  C   UNL A   1      38.619  29.409  28.652  1.00  0.00     0.031 C 
ATOM     46  C   UNL A   1      39.450  34.485  33.271  1.00  0.00     0.029 A 
ATOM     47  C   UNL A   1      40.442  33.413  33.328  1.00  0.00     0.049 A 
ATOM     48  H   UNL A   1      40.586  31.752  32.083  1.00  0.00     0.167 HD
ATOM     49  C   UNL A   1      40.668  28.246  29.406  1.00  0.00     0.031 A 
ATOM     50  C   UNL A   1      41.456  33.323  34.209  1.00  0.00     0.031 A 
ATOM     51  C   UNL A   1      41.822  28.113  30.253  1.00  0.00     0.049 A 
ATOM     52  C   UNL A   1      42.381  32.138  34.130  1.00  0.00     0.074 A 
ATOM     53  C   UNL A   1      42.803  27.139  30.225  1.00  0.00     0.029 A 
ATOM     54  N   UNL A   1      42.143  28.982  31.284  1.00  0.00    -0.354 N 
ATOM     55  N   UNL A   1      42.385  31.144  33.273  1.00  0.00    -0.248 NA
ATOM     56  C   UNL A   1      43.447  32.065  35.138  1.00  0.00     0.031 C 
ATOM     57  C   UNL A   1      43.681  27.378  31.286  1.00  0.00     0.029 A 
ATOM     58  C   UNL A   1      43.289  28.544  31.926  1.00  0.00     0.049 A 
ATOM     59  H   UNL A   1      41.633  29.788  31.526  1.00  0.00     0.167 HD
ATOM     60  C   UNL A   1      43.475  30.352  33.615  1.00  0.00     0.074 A 
ATOM     61  C   UNL A   1      44.115  30.990  34.748  1.00  0.00     0.031 C 
ATOM     62  C   UNL A   1      43.910  29.202  33.046  1.00  0.00     0.031 A 
BRANCH  49  63
ATOM     63  C   UNL A   1      40.403  27.174  28.387  1.00  0.00    -0.014 A 
ATOM     64  C   UNL A   1      40.938  27.240  27.091  1.00  0.00     0.009 A 
ATOM     65  C   UNL A   1      39.643  26.050  28.750  1.00  0.00     0.009 A 
ATOM     66  C   UNL A   1      40.699  26.213  26.175  1.00  0.00     0.001 A 
ATOM     67  C   UNL A   1      39.430  25.012  27.843  1.00  0.00     0.001 A 
ATOM     68  C   UNL A   1      39.952  25.097  26.554  1.00  0.00     0.000 A 
ENDBRANCH  49  63
BRANCH  50  69
ATOM     69  C   UNL A   1      41.644  34.364  35.254  1.00  0.00    -0.014 A 
ATOM     70  C   UNL A   1      40.975  34.268  36.484  1.00  0.00     0.009 A 
ATOM     71  C   UNL A   1      42.459  35.481  35.012  1.00  0.00     0.009 A 
ATOM     72  C   UNL A   1      41.087  35.288  37.432  1.00  0.00     0.001 A 
ATOM     73  C   UNL A   1      42.596  36.482  35.975  1.00  0.00     0.001 A 
ATOM     74  C   UNL A   1      41.899  36.393  37.179  1.00  0.00     0.000 A 
ENDBRANCH  50  69
BRANCH  62  75
ATOM     75  C   UNL A   1      45.165  28.590  33.604  1.00  0.00    -0.014 A 
ATOM     76  C   UNL A   1      45.121  27.608  34.606  1.00  0.00     0.009 A 
ATOM     77  C   UNL A   1      46.411  28.977  33.084  1.00  0.00     0.009 A 
ATOM     78  C   UNL A   1      46.303  27.056  35.101  1.00  0.00     0.001 A 
ATOM     79  C   UNL A   1      47.587  28.397  33.555  1.00  0.00     0.001 A 
ATOM     80  C   UNL A   1      47.534  27.445  34.572  1.00  0.00     0.000 A 
ENDBRANCH  62  75
ENDBRANCH  36  37
ENDBRANCH  29  31
ENDBRANCH  28  29
ENDBRANCH  27  28
ENDBRANCH  26  27
ENDBRANCH  25  26
ENDBRANCH   1  25
TORSDOF 17
ENDMDL
MODEL 3
REMARK VINA RESULT:     -10.5      3.926      6.206
REMARK SMILES COc1cccc(NC(=O)[C@@H]2[C@@H](C(=O)OCCOCCOC(=O)c3ccc(-c4c5nc(c(-c6ccccc6)c6ccc([nH]6)c(-c6ccccc6)c6nc(c(-c7ccccc7)c7ccc4[nH]7)C=C6)C=C5)cc3)[C@H]3C=C[C@@H]2C3)c1
REMARK SMILES IDX 17 1 16 2 15 3 13 4 14 5 12 6 11 7 75 8 72 9 74 10 76 11
REMARK SMILES IDX 73 12 9 13 8 14 10 16 7 17 3 18 4 19 77 20 5 21 6 22 2 23
REMARK SMILES IDX 1 24 18 25 19 26 20 27 21 28 22 29 23 30 24 31 25 32 71 33
REMARK SMILES IDX 26 34 70 35 27 36 28 37 29 38 64 39 30 40 69 41 63 42 65 43
REMARK SMILES IDX 31 44 68 45 62 46 61 47 32 49 54 50 39 51 53 52 40 53 43 54
REMARK SMILES IDX 52 55 66 56 41 57 42 58 51 60 67 61 44 62 33 63 34 64 38 65
REMARK SMILES IDX 35 66 37 67 36 68 55 69 56 70 60 71 57 72 59 73 58 74 45 75
REMARK SMILES IDX 46 76 50 77 47 78 49 79 48 80
REMARK H PARENT 8 15 65 48 43 59
REMARK Flexibility Score: inf
ROOT
ATOM      1  C   UNL A   1      37.278  23.288  25.780  1.00  0.00     0.202 C 
ENDROOT
BRANCH   1   2
ATOM      2  C   UNL A   1      36.556  23.694  24.495  1.00  0.00     0.261 C 
BRANCH   2   3
ATOM      3  O   UNL A   1      35.205  24.093  24.756  1.00  0.00    -0.463 OA
BRANCH   3   4
ATOM      4  C   UNL A   1      34.317  23.692  23.804  1.00  0.00     0.310 C 
ATOM      5  O   UNL A   1      34.512  23.751  22.598  1.00  0.00    -0.252 OA
BRANCH   4   6
ATOM      6  C   UNL A   1      33.065  23.146  24.452  1.00  0.00     0.119 C 
ATOM      7  C   UNL A   1      33.123  23.213  26.017  1.00  0.00     0.100 C 
ATOM      8  C   UNL A   1      32.985  21.705  26.381  1.00  0.00     0.025 C 
ATOM      9  C   UNL A   1      32.929  21.627  24.151  1.00  0.00     0.027 C 
ATOM     10  C   UNL A   1      34.253  21.009  25.917  1.00  0.00    -0.027 C 
ATOM     11  C   UNL A   1      32.034  21.174  25.299  1.00  0.00     0.017 C 
ATOM     12  C   UNL A   1      34.202  20.935  24.579  1.00  0.00    -0.027 C 
BRANCH   7  13
ATOM     13  C   UNL A   1      31.985  24.042  26.604  1.00  0.00     0.228 C 
ATOM     14  N   UNL A   1      31.755  25.358  26.334  1.00  0.00    -0.326 N 
ATOM     15  H   UNL A   1      30.929  25.672  26.769  1.00  0.00     0.169 HD
ATOM     16  O   UNL A   1      31.150  23.510  27.349  1.00  0.00    -0.274 OA
BRANCH  14  17
ATOM     17  C   UNL A   1      32.374  26.387  25.604  1.00  0.00     0.044 A 
ATOM     18  C   UNL A   1      33.724  28.419  25.737  1.00  0.00     0.120 A 
ATOM     19  C   UNL A   1      33.507  28.672  24.389  1.00  0.00     0.046 A 
ATOM     20  C   UNL A   1      33.161  27.292  26.345  1.00  0.00     0.072 A 
ATOM     21  C   UNL A   1      32.790  27.751  23.635  1.00  0.00     0.006 A 
ATOM     22  C   UNL A   1      32.248  26.606  24.236  1.00  0.00     0.026 A 
BRANCH  18  23
ATOM     23  O   UNL A   1      34.395  29.366  26.460  1.00  0.00    -0.497 OA
ATOM     24  C   UNL A   1      33.514  30.389  26.920  1.00  0.00     0.278 C 
ENDBRANCH  18  23
ENDBRANCH  14  17
ENDBRANCH   7  13
ENDBRANCH   4   6
ENDBRANCH   3   4
ENDBRANCH   2   3
ENDBRANCH   1   2
BRANCH   1  25
ATOM     25  O   UNL A   1      38.327  22.329  25.693  1.00  0.00    -0.374 OA
BRANCH  25  26
ATOM     26  C   UNL A   1      38.000  21.008  25.266  1.00  0.00     0.202 C 
BRANCH  26  27
ATOM     27  C   UNL A   1      39.094  19.940  25.213  1.00  0.00     0.261 C 
BRANCH  27  28
ATOM     28  O   UNL A   1      39.870  19.888  26.411  1.00  0.00    -0.460 OA
BRANCH  28  29
ATOM     29  C   UNL A   1      41.201  19.789  26.193  1.00  0.00     0.338 C 
ATOM     30  O   UNL A   1      41.806  18.889  25.629  1.00  0.00    -0.246 OA
BRANCH  29  31
ATOM     31  C   UNL A   1      41.829  21.062  26.566  1.00  0.00     0.060 A 
ATOM     32  C   UNL A   1      41.953  21.349  27.932  1.00  0.00     0.016 A 
ATOM     33  C   UNL A   1      42.272  21.961  25.595  1.00  0.00     0.016 A 
ATOM     34  C   UNL A   1      42.471  22.571  28.334  1.00  0.00     0.010 A 
ATOM     35  C   UNL A   1      42.782  23.191  25.998  1.00  0.00     0.010 A 
ATOM     36  C   UNL A   1      42.842  23.512  27.366  1.00  0.00    -0.014 A 
BRANCH  36  37
ATOM     37  C   UNL A   1      43.122  24.901  27.779  1.00  0.00     0.031 A 
ATOM     38  C   UNL A   1      44.557  25.326  27.916  1.00  0.00     0.074 A 
ATOM     39  C   UNL A   1      42.116  25.760  28.007  1.00  0.00     0.049 A 
ATOM     40  N   UNL A   1      45.044  26.473  28.309  1.00  0.00    -0.248 NA
ATOM     41  C   UNL A   1      45.579  24.323  27.570  1.00  0.00     0.031 C 
ATOM     42  C   UNL A   1      40.692  25.458  27.854  1.00  0.00     0.029 A 
ATOM     43  N   UNL A   1      42.143  27.065  28.420  1.00  0.00    -0.354 N 
ATOM     44  C   UNL A   1      46.425  26.322  28.277  1.00  0.00     0.074 A 
ATOM     45  C   UNL A   1      46.701  24.969  27.850  1.00  0.00     0.031 C 
ATOM     46  C   UNL A   1      39.979  26.552  28.173  1.00  0.00     0.029 A 
ATOM     47  C   UNL A   1      40.896  27.611  28.591  1.00  0.00     0.049 A 
ATOM     48  H   UNL A   1      42.976  27.563  28.580  1.00  0.00     0.167 HD
ATOM     49  C   UNL A   1      47.376  27.235  28.579  1.00  0.00     0.031 A 
ATOM     50  C   UNL A   1      40.541  28.824  29.053  1.00  0.00     0.031 A 
ATOM     51  C   UNL A   1      47.088  28.578  29.004  1.00  0.00     0.049 A 
ATOM     52  C   UNL A   1      41.623  29.793  29.451  1.00  0.00     0.074 A 
ATOM     53  C   UNL A   1      47.976  29.595  29.301  1.00  0.00     0.029 A 
ATOM     54  N   UNL A   1      45.813  29.084  29.197  1.00  0.00    -0.354 N 
ATOM     55  N   UNL A   1      42.927  29.656  29.380  1.00  0.00    -0.248 NA
ATOM     56  C   UNL A   1      41.184  31.088  29.987  1.00  0.00     0.031 C 
ATOM     57  C   UNL A   1      47.239  30.697  29.743  1.00  0.00     0.029 A 
ATOM     58  C   UNL A   1      45.890  30.390  29.648  1.00  0.00     0.049 A 
ATOM     59  H   UNL A   1      44.977  28.589  29.040  1.00  0.00     0.167 HD
ATOM     60  C   UNL A   1      43.460  30.860  29.825  1.00  0.00     0.074 A 
ATOM     61  C   UNL A   1      42.338  31.718  30.149  1.00  0.00     0.031 C 
ATOM     62  C   UNL A   1      44.758  31.226  29.954  1.00  0.00     0.031 A 
BRANCH  49  63
ATOM     63  C   UNL A   1      48.813  26.803  28.500  1.00  0.00    -0.014 A 
ATOM     64  C   UNL A   1      49.468  26.217  29.595  1.00  0.00     0.009 A 
ATOM     65  C   UNL A   1      49.509  26.941  27.289  1.00  0.00     0.009 A 
ATOM     66  C   UNL A   1      50.795  25.798  29.483  1.00  0.00     0.001 A 
ATOM     67  C   UNL A   1      50.826  26.495  27.170  1.00  0.00     0.001 A 
ATOM     68  C   UNL A   1      51.471  25.930  28.269  1.00  0.00     0.000 A 
ENDBRANCH  49  63
BRANCH  50  69
ATOM     69  C   UNL A   1      39.107  29.191  29.190  1.00  0.00    -0.014 A 
ATOM     70  C   UNL A   1      38.406  28.904  30.372  1.00  0.00     0.009 A 
ATOM     71  C   UNL A   1      38.419  29.793  28.125  1.00  0.00     0.009 A 
ATOM     72  C   UNL A   1      37.039  29.173  30.468  1.00  0.00     0.001 A 
ATOM     73  C   UNL A   1      37.060  30.093  28.237  1.00  0.00     0.001 A 
ATOM     74  C   UNL A   1      36.367  29.770  29.402  1.00  0.00     0.000 A 
ENDBRANCH  50  69
BRANCH  62  75
ATOM     75  C   UNL A   1      45.034  32.630  30.414  1.00  0.00    -0.014 A 
ATOM     76  C   UNL A   1      45.207  32.937  31.773  1.00  0.00     0.009 A 
ATOM     77  C   UNL A   1      45.165  33.654  29.463  1.00  0.00     0.009 A 
ATOM     78  C   UNL A   1      45.467  34.250  32.170  1.00  0.00     0.001 A 
ATOM     79  C   UNL A   1      45.460  34.958  29.860  1.00  0.00     0.001 A 
ATOM     80  C   UNL A   1      45.599  35.257  31.214  1.00  0.00     0.000 A 
ENDBRANCH  62  75
ENDBRANCH  36  37
ENDBRANCH  29  31
ENDBRANCH  28  29
ENDBRANCH  27  28
ENDBRANCH  26  27
ENDBRANCH  25  26
ENDBRANCH   1  25
TORSDOF 17
ENDMDL
