MODEL 1
REMARK VINA RESULT:     -11.2      0.000      0.000
REMARK SMILES O=C(CCc1cn(-c2ccc(Br)cc2)nc1-c1ccccc1)OCCOCCOC(=O)c1ccc(-c2c3nc(c(-c4ccccc4)c4ccc([nH]4)c(-c4ccccc4)c4nc(c(-c5ccccc5)c5ccc2[nH]5)C=C4)C=C3)cc1
REMARK SMILES IDX 25 1 24 2 23 3 2 4 1 5 3 6 4 7 5 8 6 9 16 10 7 11 15 12
REMARK SMILES IDX 17 13 18 14 22 15 19 16 21 17 20 18 8 19 9 20 14 21 10 22
REMARK SMILES IDX 13 23 11 24 12 25 26 26 27 27 28 28 29 29 30 30 31 31 32 32
REMARK SMILES IDX 33 33 79 34 34 35 78 36 35 37 36 38 37 39 72 40 38 41 77 42
REMARK SMILES IDX 71 43 73 44 39 45 76 46 70 47 69 48 40 50 62 51 47 52 61 53
REMARK SMILES IDX 48 54 51 55 60 56 74 57 49 58 50 59 59 61 75 62 52 63 41 64
REMARK SMILES IDX 42 65 46 66 43 67 45 68 44 69 63 70 64 71 68 72 65 73 67 74
REMARK SMILES IDX 66 75 53 76 54 77 58 78 55 79 57 80 56 81
REMARK H PARENT 73 49 51 60
REMARK Flexibility Score: inf
ROOT
ATOM      1  C   UNL A   1      31.734  26.862  26.850  1.00  0.00     0.202 C 
ENDROOT
BRANCH   1   2
ATOM      2  C   UNL A   1      30.475  26.053  26.541  1.00  0.00     0.261 C 
BRANCH   2   3
ATOM      3  O   UNL A   1      30.360  24.644  26.864  1.00  0.00    -0.463 OA
BRANCH   3   4
ATOM      4  C   UNL A   1      31.126  23.554  26.737  1.00  0.00     0.306 C 
ATOM      5  O   UNL A   1      32.119  23.439  27.457  1.00  0.00    -0.252 OA
BRANCH   4   6
ATOM      6  C   UNL A   1      30.800  22.472  25.760  1.00  0.00     0.127 C 
BRANCH   6   7
ATOM      7  C   UNL A   1      31.723  22.492  24.552  1.00  0.00     0.051 C 
BRANCH   7   8
ATOM      8  C   UNL A   1      31.945  23.859  23.984  1.00  0.00    -0.001 A 
ATOM      9  C   UNL A   1      31.059  24.658  23.296  1.00  0.00     0.119 A 
ATOM     10  C   UNL A   1      33.152  24.626  23.973  1.00  0.00     0.096 A 
ATOM     11  N   UNL A   1      31.620  25.913  23.256  1.00  0.00    -0.240 N 
ATOM     12  N   UNL A   1      32.880  25.923  23.735  1.00  0.00    -0.168 NA
BRANCH  10  13
ATOM     13  C   UNL A   1      34.512  24.112  24.147  1.00  0.00     0.002 A 
ATOM     14  C   UNL A   1      35.141  23.318  23.186  1.00  0.00     0.010 A 
ATOM     15  C   UNL A   1      35.186  24.376  25.355  1.00  0.00     0.010 A 
ATOM     16  C   UNL A   1      36.436  22.835  23.417  1.00  0.00     0.001 A 
ATOM     17  C   UNL A   1      36.477  23.906  25.579  1.00  0.00     0.001 A 
ATOM     18  C   UNL A   1      37.103  23.135  24.606  1.00  0.00     0.000 A 
ENDBRANCH  10  13
BRANCH  11  19
ATOM     19  C   UNL A   1      30.908  27.082  22.918  1.00  0.00     0.065 A 
ATOM     20  C   UNL A   1      31.588  28.184  22.385  1.00  0.00     0.029 A 
ATOM     21  C   UNL A   1      29.556  27.172  23.268  1.00  0.00     0.029 A 
ATOM     22  C   UNL A   1      30.909  29.400  22.247  1.00  0.00     0.018 A 
ATOM     23  C   UNL A   1      28.873  28.372  23.074  1.00  0.00     0.018 A 
ATOM     24  C   UNL A   1      29.556  29.486  22.587  1.00  0.00     0.018 A 
ATOM     25  Br  UNL A   1      28.643  31.133  22.412  1.00  0.00    -0.051 Br
ENDBRANCH  11  19
ENDBRANCH   7   8
ENDBRANCH   6   7
ENDBRANCH   4   6
ENDBRANCH   3   4
ENDBRANCH   2   3
ENDBRANCH   1   2
BRANCH   1  26
ATOM     26  O   UNL A   1      31.781  28.271  26.612  1.00  0.00    -0.374 OA
BRANCH  26  27
ATOM     27  C   UNL A   1      32.707  29.106  27.298  1.00  0.00     0.202 C 
BRANCH  27  28
ATOM     28  C   UNL A   1      32.732  30.545  26.811  1.00  0.00     0.261 C 
BRANCH  28  29
ATOM     29  O   UNL A   1      33.593  31.294  27.646  1.00  0.00    -0.460 OA
BRANCH  29  30
ATOM     30  C   UNL A   1      33.185  32.569  27.871  1.00  0.00     0.338 C 
ATOM     31  O   UNL A   1      32.224  33.137  27.410  1.00  0.00    -0.246 OA
BRANCH  30  32
ATOM     32  C   UNL A   1      34.202  33.203  28.730  1.00  0.00     0.060 A 
ATOM     33  C   UNL A   1      35.171  33.926  28.038  1.00  0.00     0.016 A 
ATOM     34  C   UNL A   1      34.427  32.652  29.996  1.00  0.00     0.016 A 
ATOM     35  C   UNL A   1      36.474  33.711  28.402  1.00  0.00     0.010 A 
ATOM     36  C   UNL A   1      35.721  32.404  30.334  1.00  0.00     0.010 A 
ATOM     37  C   UNL A   1      36.710  32.820  29.447  1.00  0.00    -0.014 A 
BRANCH  37  38
ATOM     38  C   UNL A   1      38.038  32.298  29.627  1.00  0.00     0.031 A 
ATOM     39  C   UNL A   1      38.085  30.862  29.322  1.00  0.00     0.074 A 
ATOM     40  C   UNL A   1      39.088  33.098  29.880  1.00  0.00     0.049 A 
ATOM     41  N   UNL A   1      37.980  29.891  30.167  1.00  0.00    -0.248 NA
ATOM     42  C   UNL A   1      37.909  30.470  27.912  1.00  0.00     0.031 C 
ATOM     43  C   UNL A   1      39.163  34.561  29.863  1.00  0.00     0.029 A 
ATOM     44  N   UNL A   1      40.371  32.735  30.106  1.00  0.00    -0.354 N 
ATOM     45  C   UNL A   1      37.983  28.757  29.372  1.00  0.00     0.074 A 
ATOM     46  C   UNL A   1      37.568  29.191  28.065  1.00  0.00     0.031 C 
ATOM     47  C   UNL A   1      40.466  34.935  29.822  1.00  0.00     0.029 A 
ATOM     48  C   UNL A   1      41.301  33.748  29.929  1.00  0.00     0.049 A 
ATOM     49  H   UNL A   1      40.626  31.822  30.373  1.00  0.00     0.167 HD
ATOM     50  C   UNL A   1      38.741  27.676  29.703  1.00  0.00     0.031 A 
ATOM     51  C   UNL A   1      42.639  33.571  29.787  1.00  0.00     0.031 A 
ATOM     52  C   UNL A   1      39.176  27.745  31.080  1.00  0.00     0.049 A 
ATOM     53  C   UNL A   1      42.955  32.191  30.246  1.00  0.00     0.074 A 
ATOM     54  C   UNL A   1      38.531  27.873  32.296  1.00  0.00     0.029 A 
ATOM     55  N   UNL A   1      40.481  28.126  31.300  1.00  0.00    -0.354 N 
ATOM     56  N   UNL A   1      42.860  31.811  31.490  1.00  0.00    -0.248 NA
ATOM     57  C   UNL A   1      42.888  31.115  29.266  1.00  0.00     0.031 C 
ATOM     58  C   UNL A   1      39.357  28.744  33.066  1.00  0.00     0.029 A 
ATOM     59  C   UNL A   1      40.499  29.042  32.319  1.00  0.00     0.049 A 
ATOM     60  H   UNL A   1      41.268  27.796  30.808  1.00  0.00     0.167 HD
ATOM     61  C   UNL A   1      42.284  30.547  31.434  1.00  0.00     0.074 A 
ATOM     62  C   UNL A   1      42.411  30.133  30.037  1.00  0.00     0.031 C 
ATOM     63  C   UNL A   1      41.483  30.096  32.446  1.00  0.00     0.031 A 
BRANCH  50  64
ATOM     64  C   UNL A   1      39.476  26.852  28.668  1.00  0.00    -0.014 A 
ATOM     65  C   UNL A   1      40.357  27.516  27.802  1.00  0.00     0.009 A 
ATOM     66  C   UNL A   1      39.154  25.520  28.330  1.00  0.00     0.009 A 
ATOM     67  C   UNL A   1      40.813  26.909  26.626  1.00  0.00     0.001 A 
ATOM     68  C   UNL A   1      39.637  24.896  27.181  1.00  0.00     0.001 A 
ATOM     69  C   UNL A   1      40.444  25.605  26.310  1.00  0.00     0.000 A 
ENDBRANCH  50  64
BRANCH  51  70
ATOM     70  C   UNL A   1      43.595  34.365  28.979  1.00  0.00    -0.014 A 
ATOM     71  C   UNL A   1      43.193  34.975  27.780  1.00  0.00     0.009 A 
ATOM     72  C   UNL A   1      44.837  34.750  29.519  1.00  0.00     0.009 A 
ATOM     73  C   UNL A   1      43.985  35.957  27.166  1.00  0.00     0.001 A 
ATOM     74  C   UNL A   1      45.630  35.727  28.905  1.00  0.00     0.001 A 
ATOM     75  C   UNL A   1      45.197  36.342  27.736  1.00  0.00     0.000 A 
ENDBRANCH  51  70
BRANCH  63  76
ATOM     76  C   UNL A   1      41.437  30.904  33.723  1.00  0.00    -0.014 A 
ATOM     77  C   UNL A   1      40.557  31.983  33.925  1.00  0.00     0.009 A 
ATOM     78  C   UNL A   1      42.200  30.458  34.811  1.00  0.00     0.009 A 
ATOM     79  C   UNL A   1      40.467  32.611  35.173  1.00  0.00     0.001 A 
ATOM     80  C   UNL A   1      42.095  31.072  36.061  1.00  0.00     0.001 A 
ATOM     81  C   UNL A   1      41.234  32.152  36.240  1.00  0.00     0.000 A 
ENDBRANCH  63  76
ENDBRANCH  37  38
ENDBRANCH  30  32
ENDBRANCH  29  30
ENDBRANCH  28  29
ENDBRANCH  27  28
ENDBRANCH  26  27
ENDBRANCH   1  26
TORSDOF 18
ENDMDL
MODEL 2
REMARK VINA RESULT:     -11.1      4.928      9.007
REMARK SMILES O=C(CCc1cn(-c2ccc(Br)cc2)nc1-c1ccccc1)OCCOCCOC(=O)c1ccc(-c2c3nc(c(-c4ccccc4)c4ccc([nH]4)c(-c4ccccc4)c4nc(c(-c5ccccc5)c5ccc2[nH]5)C=C4)C=C3)cc1
REMARK SMILES IDX 25 1 24 2 23 3 2 4 1 5 3 6 4 7 5 8 6 9 16 10 7 11 15 12
REMARK SMILES IDX 17 13 18 14 22 15 19 16 21 17 20 18 8 19 9 20 14 21 10 22
REMARK SMILES IDX 13 23 11 24 12 25 26 26 27 27 28 28 29 29 30 30 31 31 32 32
REMARK SMILES IDX 33 33 79 34 34 35 78 36 35 37 36 38 37 39 72 40 38 41 77 42
REMARK SMILES IDX 71 43 73 44 39 45 76 46 70 47 69 48 40 50 62 51 47 52 61 53
REMARK SMILES IDX 48 54 51 55 60 56 74 57 49 58 50 59 59 61 75 62 52 63 41 64
REMARK SMILES IDX 42 65 46 66 43 67 45 68 44 69 63 70 64 71 68 72 65 73 67 74
REMARK SMILES IDX 66 75 53 76 54 77 58 78 55 79 57 80 56 81
REMARK H PARENT 73 49 51 60
REMARK Flexibility Score: inf
ROOT
ATOM      1  C   UNL A   1      40.149  21.553  26.599  1.00  0.00     0.202 C 
ENDROOT
BRANCH   1   2
ATOM      2  C   UNL A   1      38.952  21.111  25.757  1.00  0.00     0.261 C 
BRANCH   2   3
ATOM      3  O   UNL A   1      37.710  21.859  25.723  1.00  0.00    -0.463 OA
BRANCH   3   4
ATOM      4  C   UNL A   1      36.605  21.873  24.968  1.00  0.00     0.306 C 
ATOM      5  O   UNL A   1      36.037  20.807  24.727  1.00  0.00    -0.252 OA
BRANCH   4   6
ATOM      6  C   UNL A   1      36.040  23.145  24.424  1.00  0.00     0.127 C 
BRANCH   6   7
ATOM      7  C   UNL A   1      35.191  22.912  23.185  1.00  0.00     0.051 C 
BRANCH   7   8
ATOM      8  C   UNL A   1      33.758  23.315  23.349  1.00  0.00    -0.001 A 
ATOM      9  C   UNL A   1      33.237  24.575  23.542  1.00  0.00     0.119 A 
ATOM     10  C   UNL A   1      32.604  22.473  23.401  1.00  0.00     0.096 A 
ATOM     11  N   UNL A   1      31.883  24.471  23.327  1.00  0.00    -0.240 N 
ATOM     12  N   UNL A   1      31.490  23.191  23.168  1.00  0.00    -0.168 NA
BRANCH  10  13
ATOM     13  C   UNL A   1      32.584  21.041  23.705  1.00  0.00     0.002 A 
ATOM     14  C   UNL A   1      32.272  20.076  22.746  1.00  0.00     0.010 A 
ATOM     15  C   UNL A   1      32.830  20.626  25.028  1.00  0.00     0.010 A 
ATOM     16  C   UNL A   1      32.247  18.721  23.099  1.00  0.00     0.001 A 
ATOM     17  C   UNL A   1      32.817  19.278  25.377  1.00  0.00     0.001 A 
ATOM     18  C   UNL A   1      32.527  18.324  24.408  1.00  0.00     0.000 A 
ENDBRANCH  10  13
BRANCH  11  19
ATOM     19  C   UNL A   1      31.032  25.577  23.125  1.00  0.00     0.065 A 
ATOM     20  C   UNL A   1      31.449  26.640  22.316  1.00  0.00     0.029 A 
ATOM     21  C   UNL A   1      29.847  25.658  23.865  1.00  0.00     0.029 A 
ATOM     22  C   UNL A   1      30.687  27.814  22.289  1.00  0.00     0.018 A 
ATOM     23  C   UNL A   1      29.065  26.810  23.788  1.00  0.00     0.018 A 
ATOM     24  C   UNL A   1      29.499  27.891  23.021  1.00  0.00     0.018 A 
ATOM     25  Br  UNL A   1      28.477  29.482  22.994  1.00  0.00    -0.051 Br
ENDBRANCH  11  19
ENDBRANCH   7   8
ENDBRANCH   6   7
ENDBRANCH   4   6
ENDBRANCH   3   4
ENDBRANCH   2   3
ENDBRANCH   1   2
BRANCH   1  26
ATOM     26  O   UNL A   1      40.731  20.678  27.568  1.00  0.00    -0.374 OA
BRANCH  26  27
ATOM     27  C   UNL A   1      41.845  19.854  27.244  1.00  0.00     0.202 C 
BRANCH  27  28
ATOM     28  C   UNL A   1      42.333  19.997  25.812  1.00  0.00     0.261 C 
BRANCH  28  29
ATOM     29  O   UNL A   1      43.742  20.127  25.821  1.00  0.00    -0.460 OA
BRANCH  29  30
ATOM     30  C   UNL A   1      44.308  20.168  24.588  1.00  0.00     0.338 C 
ATOM     31  O   UNL A   1      44.372  19.284  23.767  1.00  0.00    -0.246 OA
BRANCH  30  32
ATOM     32  C   UNL A   1      44.942  21.491  24.447  1.00  0.00     0.060 A 
ATOM     33  C   UNL A   1      46.022  21.707  25.302  1.00  0.00     0.016 A 
ATOM     34  C   UNL A   1      44.174  22.533  23.919  1.00  0.00     0.016 A 
ATOM     35  C   UNL A   1      46.045  22.901  25.973  1.00  0.00     0.010 A 
ATOM     36  C   UNL A   1      44.170  23.704  24.613  1.00  0.00     0.010 A 
ATOM     37  C   UNL A   1      45.012  23.800  25.717  1.00  0.00    -0.014 A 
BRANCH  37  38
ATOM     38  C   UNL A   1      44.797  24.888  26.633  1.00  0.00     0.031 A 
ATOM     39  C   UNL A   1      45.891  25.864  26.559  1.00  0.00     0.074 A 
ATOM     40  C   UNL A   1      43.649  25.022  27.320  1.00  0.00     0.049 A 
ATOM     41  N   UNL A   1      46.936  25.910  27.316  1.00  0.00    -0.248 NA
ATOM     42  C   UNL A   1      45.993  26.664  25.325  1.00  0.00     0.031 C 
ATOM     43  C   UNL A   1      42.396  24.273  27.187  1.00  0.00     0.029 A 
ATOM     44  N   UNL A   1      43.335  25.969  28.234  1.00  0.00    -0.354 N 
ATOM     45  C   UNL A   1      47.695  26.934  26.774  1.00  0.00     0.074 A 
ATOM     46  C   UNL A   1      47.260  27.066  25.410  1.00  0.00     0.031 C 
ATOM     47  C   UNL A   1      41.405  24.958  27.808  1.00  0.00     0.029 A 
ATOM     48  C   UNL A   1      41.978  26.119  28.472  1.00  0.00     0.049 A 
ATOM     49  H   UNL A   1      44.018  26.511  28.692  1.00  0.00     0.167 HD
ATOM     50  C   UNL A   1      48.270  27.873  27.574  1.00  0.00     0.031 A 
ATOM     51  C   UNL A   1      41.401  27.182  29.087  1.00  0.00     0.031 A 
ATOM     52  C   UNL A   1      48.294  27.441  28.953  1.00  0.00     0.049 A 
ATOM     53  C   UNL A   1      42.480  27.928  29.790  1.00  0.00     0.074 A 
ATOM     54  C   UNL A   1      48.792  26.335  29.615  1.00  0.00     0.029 A 
ATOM     55  N   UNL A   1      47.354  27.994  29.793  1.00  0.00    -0.354 N 
ATOM     56  N   UNL A   1      43.120  27.456  30.823  1.00  0.00    -0.248 NA
ATOM     57  C   UNL A   1      43.186  28.965  29.049  1.00  0.00     0.031 C 
ATOM     58  C   UNL A   1      47.817  26.022  30.607  1.00  0.00     0.029 A 
ATOM     59  C   UNL A   1      46.814  26.993  30.558  1.00  0.00     0.049 A 
ATOM     60  H   UNL A   1      47.110  28.948  29.837  1.00  0.00     0.167 HD
ATOM     61  C   UNL A   1      44.450  27.796  30.606  1.00  0.00     0.074 A 
ATOM     62  C   UNL A   1      44.416  28.804  29.547  1.00  0.00     0.031 C 
ATOM     63  C   UNL A   1      45.462  27.006  31.076  1.00  0.00     0.031 A 
BRANCH  50  64
ATOM     64  C   UNL A   1      48.341  29.334  27.188  1.00  0.00    -0.014 A 
ATOM     65  C   UNL A   1      49.587  29.974  27.254  1.00  0.00     0.009 A 
ATOM     66  C   UNL A   1      47.218  30.172  27.017  1.00  0.00     0.009 A 
ATOM     67  C   UNL A   1      49.688  31.371  27.241  1.00  0.00     0.001 A 
ATOM     68  C   UNL A   1      47.315  31.561  26.963  1.00  0.00     0.001 A 
ATOM     69  C   UNL A   1      48.552  32.164  27.108  1.00  0.00     0.000 A 
ENDBRANCH  50  64
BRANCH  51  70
ATOM     70  C   UNL A   1      40.071  27.785  28.834  1.00  0.00    -0.014 A 
ATOM     71  C   UNL A   1      39.095  27.830  29.844  1.00  0.00     0.009 A 
ATOM     72  C   UNL A   1      39.846  28.560  27.681  1.00  0.00     0.009 A 
ATOM     73  C   UNL A   1      37.961  28.646  29.719  1.00  0.00     0.001 A 
ATOM     74  C   UNL A   1      38.713  29.372  27.554  1.00  0.00     0.001 A 
ATOM     75  C   UNL A   1      37.777  29.427  28.581  1.00  0.00     0.000 A 
ENDBRANCH  51  70
BRANCH  63  76
ATOM     76  C   UNL A   1      45.102  25.894  32.035  1.00  0.00    -0.014 A 
ATOM     77  C   UNL A   1      44.610  24.643  31.619  1.00  0.00     0.009 A 
ATOM     78  C   UNL A   1      45.420  26.065  33.389  1.00  0.00     0.009 A 
ATOM     79  C   UNL A   1      44.418  23.607  32.540  1.00  0.00     0.001 A 
ATOM     80  C   UNL A   1      45.246  25.024  34.304  1.00  0.00     0.001 A 
ATOM     81  C   UNL A   1      44.740  23.797  33.881  1.00  0.00     0.000 A 
ENDBRANCH  63  76
ENDBRANCH  37  38
ENDBRANCH  30  32
ENDBRANCH  29  30
ENDBRANCH  28  29
ENDBRANCH  27  28
ENDBRANCH  26  27
ENDBRANCH   1  26
TORSDOF 18
ENDMDL
MODEL 3
REMARK VINA RESULT:     -10.6      3.745      7.619
REMARK SMILES O=C(CCc1cn(-c2ccc(Br)cc2)nc1-c1ccccc1)OCCOCCOC(=O)c1ccc(-c2c3nc(c(-c4ccccc4)c4ccc([nH]4)c(-c4ccccc4)c4nc(c(-c5ccccc5)c5ccc2[nH]5)C=C4)C=C3)cc1
REMARK SMILES IDX 25 1 24 2 23 3 2 4 1 5 3 6 4 7 5 8 6 9 16 10 7 11 15 12
REMARK SMILES IDX 17 13 18 14 22 15 19 16 21 17 20 18 8 19 9 20 14 21 10 22
REMARK SMILES IDX 13 23 11 24 12 25 26 26 27 27 28 28 29 29 30 30 31 31 32 32
REMARK SMILES IDX 33 33 79 34 34 35 78 36 35 37 36 38 37 39 72 40 38 41 77 42
REMARK SMILES IDX 71 43 73 44 39 45 76 46 70 47 69 48 40 50 62 51 47 52 61 53
REMARK SMILES IDX 48 54 51 55 60 56 74 57 49 58 50 59 59 61 75 62 52 63 41 64
REMARK SMILES IDX 42 65 46 66 43 67 45 68 44 69 63 70 64 71 68 72 65 73 67 74
REMARK SMILES IDX 66 75 53 76 54 77 58 78 55 79 57 80 56 81
REMARK H PARENT 73 49 51 60
REMARK Flexibility Score: inf
ROOT
ATOM      1  C   UNL A   1      41.556  20.168  26.330  1.00  0.00     0.202 C 
ENDROOT
BRANCH   1   2
ATOM      2  C   UNL A   1      40.488  21.247  26.503  1.00  0.00     0.261 C 
BRANCH   2   3
ATOM      3  O   UNL A   1      39.174  21.140  25.900  1.00  0.00    -0.463 OA
BRANCH   3   4
ATOM      4  C   UNL A   1      38.200  21.983  25.537  1.00  0.00     0.306 C 
ATOM      5  O   UNL A   1      38.159  23.100  26.053  1.00  0.00    -0.252 OA
BRANCH   4   6
ATOM      6  C   UNL A   1      37.173  21.609  24.518  1.00  0.00     0.127 C 
BRANCH   6   7
ATOM      7  C   UNL A   1      36.227  20.532  25.024  1.00  0.00     0.051 C 
BRANCH   7   8
ATOM      8  C   UNL A   1      34.785  20.936  25.003  1.00  0.00    -0.001 A 
ATOM      9  C   UNL A   1      34.233  22.164  25.291  1.00  0.00     0.119 A 
ATOM     10  C   UNL A   1      33.643  20.119  24.734  1.00  0.00     0.096 A 
ATOM     11  N   UNL A   1      32.935  22.121  24.838  1.00  0.00    -0.240 N 
ATOM     12  N   UNL A   1      32.581  20.887  24.426  1.00  0.00    -0.168 NA
BRANCH  10  13
ATOM     13  C   UNL A   1      33.579  18.659  24.814  1.00  0.00     0.002 A 
ATOM     14  C   UNL A   1      32.764  17.993  25.731  1.00  0.00     0.010 A 
ATOM     15  C   UNL A   1      34.417  17.898  23.975  1.00  0.00     0.010 A 
ATOM     16  C   UNL A   1      32.761  16.593  25.777  1.00  0.00     0.001 A 
ATOM     17  C   UNL A   1      34.405  16.506  24.012  1.00  0.00     0.001 A 
ATOM     18  C   UNL A   1      33.573  15.853  24.914  1.00  0.00     0.000 A 
ENDBRANCH  10  13
BRANCH  11  19
ATOM     19  C   UNL A   1      32.125  23.261  24.663  1.00  0.00     0.065 A 
ATOM     20  C   UNL A   1      31.205  23.309  23.608  1.00  0.00     0.029 A 
ATOM     21  C   UNL A   1      32.367  24.388  25.457  1.00  0.00     0.029 A 
ATOM     22  C   UNL A   1      30.559  24.517  23.323  1.00  0.00     0.018 A 
ATOM     23  C   UNL A   1      31.677  25.572  25.201  1.00  0.00     0.018 A 
ATOM     24  C   UNL A   1      30.795  25.639  24.123  1.00  0.00     0.018 A 
ATOM     25  Br  UNL A   1      29.930  27.275  23.730  1.00  0.00    -0.051 Br
ENDBRANCH  11  19
ENDBRANCH   7   8
ENDBRANCH   6   7
ENDBRANCH   4   6
ENDBRANCH   3   4
ENDBRANCH   2   3
ENDBRANCH   1   2
BRANCH   1  26
ATOM     26  O   UNL A   1      42.630  20.336  25.401  1.00  0.00    -0.374 OA
BRANCH  26  27
ATOM     27  C   UNL A   1      43.709  21.222  25.673  1.00  0.00     0.202 C 
BRANCH  27  28
ATOM     28  C   UNL A   1      43.903  22.310  24.630  1.00  0.00     0.261 C 
BRANCH  28  29
ATOM     29  O   UNL A   1      42.891  23.284  24.794  1.00  0.00    -0.460 OA
BRANCH  29  30
ATOM     30  C   UNL A   1      43.283  24.389  25.478  1.00  0.00     0.338 C 
ATOM     31  O   UNL A   1      44.328  24.988  25.391  1.00  0.00    -0.246 OA
BRANCH  30  32
ATOM     32  C   UNL A   1      42.219  24.694  26.451  1.00  0.00     0.060 A 
ATOM     33  C   UNL A   1      41.221  25.539  25.969  1.00  0.00     0.016 A 
ATOM     34  C   UNL A   1      42.522  24.580  27.812  1.00  0.00     0.016 A 
ATOM     35  C   UNL A   1      40.852  26.580  26.780  1.00  0.00     0.010 A 
ATOM     36  C   UNL A   1      42.188  25.634  28.604  1.00  0.00     0.010 A 
ATOM     37  C   UNL A   1      41.478  26.679  28.020  1.00  0.00    -0.014 A 
BRANCH  37  38
ATOM     38  C   UNL A   1      41.393  27.920  28.743  1.00  0.00     0.031 A 
ATOM     39  C   UNL A   1      42.501  28.814  28.387  1.00  0.00     0.074 A 
ATOM     40  C   UNL A   1      40.328  28.227  29.503  1.00  0.00     0.049 A 
ATOM     41  N   UNL A   1      43.621  28.943  29.017  1.00  0.00    -0.248 NA
ATOM     42  C   UNL A   1      42.496  29.379  27.025  1.00  0.00     0.031 C 
ATOM     43  C   UNL A   1      39.047  27.527  29.631  1.00  0.00     0.029 A 
ATOM     44  N   UNL A   1      40.140  29.335  30.258  1.00  0.00    -0.354 N 
ATOM     45  C   UNL A   1      44.348  29.818  28.228  1.00  0.00     0.074 A 
ATOM     46  C   UNL A   1      43.776  29.729  26.912  1.00  0.00     0.031 C 
ATOM     47  C   UNL A   1      38.146  28.357  30.213  1.00  0.00     0.029 A 
ATOM     48  C   UNL A   1      38.820  29.589  30.597  1.00  0.00     0.049 A 
ATOM     49  H   UNL A   1      40.882  29.916  30.542  1.00  0.00     0.167 HD
ATOM     50  C   UNL A   1      45.032  30.855  28.785  1.00  0.00     0.031 A 
ATOM     51  C   UNL A   1      38.342  30.770  31.064  1.00  0.00     0.031 A 
ATOM     52  C   UNL A   1      45.188  30.672  30.210  1.00  0.00     0.049 A 
ATOM     53  C   UNL A   1      39.511  31.576  31.512  1.00  0.00     0.074 A 
ATOM     54  C   UNL A   1      45.720  29.677  31.008  1.00  0.00     0.029 A 
ATOM     55  N   UNL A   1      44.357  31.409  31.025  1.00  0.00    -0.354 N 
ATOM     56  N   UNL A   1      40.241  31.263  32.546  1.00  0.00    -0.248 NA
ATOM     57  C   UNL A   1      40.165  32.431  30.530  1.00  0.00     0.031 C 
ATOM     58  C   UNL A   1      44.845  29.592  32.131  1.00  0.00     0.029 A 
ATOM     59  C   UNL A   1      43.872  30.585  32.007  1.00  0.00     0.049 A 
ATOM     60  H   UNL A   1      44.148  32.366  30.920  1.00  0.00     0.167 HD
ATOM     61  C   UNL A   1      41.550  31.495  32.141  1.00  0.00     0.074 A 
ATOM     62  C   UNL A   1      41.435  32.302  30.927  1.00  0.00     0.031 C 
ATOM     63  C   UNL A   1      42.582  30.753  32.644  1.00  0.00     0.031 A 
BRANCH  50  64
ATOM     64  C   UNL A   1      45.104  32.221  28.137  1.00  0.00    -0.014 A 
ATOM     65  C   UNL A   1      46.370  32.797  27.954  1.00  0.00     0.009 A 
ATOM     66  C   UNL A   1      43.996  33.072  27.939  1.00  0.00     0.009 A 
ATOM     67  C   UNL A   1      46.512  34.163  27.679  1.00  0.00     0.001 A 
ATOM     68  C   UNL A   1      44.131  34.423  27.625  1.00  0.00     0.001 A 
ATOM     69  C   UNL A   1      45.394  34.977  27.527  1.00  0.00     0.000 A 
ENDBRANCH  50  64
BRANCH  51  70
ATOM     70  C   UNL A   1      37.011  31.382  30.839  1.00  0.00    -0.014 A 
ATOM     71  C   UNL A   1      36.094  31.522  31.894  1.00  0.00     0.009 A 
ATOM     72  C   UNL A   1      36.737  32.074  29.644  1.00  0.00     0.009 A 
ATOM     73  C   UNL A   1      34.969  32.352  31.769  1.00  0.00     0.001 A 
ATOM     74  C   UNL A   1      35.613  32.899  29.518  1.00  0.00     0.001 A 
ATOM     75  C   UNL A   1      34.736  33.050  30.587  1.00  0.00     0.000 A 
ENDBRANCH  51  70
BRANCH  63  76
ATOM     76  C   UNL A   1      42.293  29.847  33.818  1.00  0.00    -0.014 A 
ATOM     77  C   UNL A   1      41.872  28.511  33.678  1.00  0.00     0.009 A 
ATOM     78  C   UNL A   1      42.608  30.312  35.102  1.00  0.00     0.009 A 
ATOM     79  C   UNL A   1      41.745  27.679  34.797  1.00  0.00     0.001 A 
ATOM     80  C   UNL A   1      42.500  29.475  36.215  1.00  0.00     0.001 A 
ATOM     81  C   UNL A   1      42.063  28.161  36.064  1.00  0.00     0.000 A 
ENDBRANCH  63  76
ENDBRANCH  37  38
ENDBRANCH  30  32
ENDBRANCH  29  30
ENDBRANCH  28  29
ENDBRANCH  27  28
ENDBRANCH  26  27
ENDBRANCH   1  26
TORSDOF 18
ENDMDL
