MODEL 1
REMARK VINA RESULT:     -10.6      0.000      0.000
REMARK SMILES O=C(Cc1ccc(F)c(F)c1)NC1(C(=O)OCCOCCOC(=O)c2ccc(-c3c4nc(c(-c5ccccc5)c5ccc([nH]5)c(-c5ccccc5)c5nc(c(-c6ccccc6)c6ccc3[nH]6)C=C5)C=C4)cc2)CCCC1
REMARK SMILES IDX 18 1 17 2 16 3 14 4 15 5 13 6 73 7 76 8 74 9 75 10 12 11
REMARK SMILES IDX 1 12 2 13 3 15 4 16 5 17 11 18 6 19 9 20 7 21 10 22 8 23
REMARK SMILES IDX 19 24 20 25 21 26 22 27 23 28 24 29 25 30 26 31 72 32 27 33
REMARK SMILES IDX 71 34 28 35 29 36 30 37 65 38 31 39 70 40 64 41 66 42 32 43
REMARK SMILES IDX 69 44 63 45 62 46 33 48 55 49 40 50 54 51 41 52 44 53 53 54
REMARK SMILES IDX 67 55 42 56 43 57 52 59 68 60 45 61 34 62 35 63 39 64 36 65
REMARK SMILES IDX 38 66 37 67 56 68 57 69 61 70 58 71 60 72 59 73 46 74 47 75
REMARK SMILES IDX 51 76 48 77 50 78 49 79
REMARK H PARENT 12 14 66 47 44 58
REMARK Flexibility Score: inf
ROOT
ATOM      1  C   UNL A   1      34.592  29.649  27.256  1.00  0.00     0.202 C 
ENDROOT
BRANCH   1   2
ATOM      2  C   UNL A   1      33.336  28.966  26.709  1.00  0.00     0.261 C 
BRANCH   2   3
ATOM      3  O   UNL A   1      33.448  27.532  26.762  1.00  0.00    -0.461 OA
BRANCH   3   4
ATOM      4  C   UNL A   1      32.319  26.848  26.441  1.00  0.00     0.331 C 
ATOM      5  O   UNL A   1      31.229  27.002  26.988  1.00  0.00    -0.249 OA
BRANCH   4   6
ATOM      6  C   UNL A   1      32.516  25.832  25.293  1.00  0.00     0.138 C 
ATOM      7  C   UNL A   1      32.081  24.449  25.795  1.00  0.00     0.040 C 
ATOM      8  C   UNL A   1      33.952  25.562  24.820  1.00  0.00     0.040 C 
ATOM      9  C   UNL A   1      33.317  23.899  26.492  1.00  0.00     0.003 C 
ATOM     10  C   UNL A   1      34.498  24.433  25.694  1.00  0.00     0.003 C 
BRANCH   6  11
ATOM     11  N   UNL A   1      31.586  26.290  24.242  1.00  0.00    -0.340 N 
ATOM     12  O   UNL A   1      32.797  28.028  23.350  1.00  0.00    -0.275 OA
ATOM     13  C   UNL A   1      31.776  27.347  23.381  1.00  0.00     0.225 C 
ATOM     14  H   UNL A   1      30.744  25.789  24.147  1.00  0.00     0.164 HD
BRANCH  13  15
ATOM     15  C   UNL A   1      30.581  27.666  22.497  1.00  0.00     0.135 C 
BRANCH  15  16
ATOM     16  C   UNL A   1      29.641  28.772  22.945  1.00  0.00    -0.036 A 
ATOM     17  C   UNL A   1      28.260  28.576  22.750  1.00  0.00     0.007 A 
ATOM     18  C   UNL A   1      30.064  29.997  23.479  1.00  0.00     0.046 A 
ATOM     19  C   UNL A   1      27.336  29.578  23.066  1.00  0.00     0.043 A 
ATOM     20  C   UNL A   1      29.141  30.999  23.776  1.00  0.00     0.159 A 
ATOM     21  C   UNL A   1      27.786  30.791  23.569  1.00  0.00     0.158 A 
ATOM     22  F   UNL A   1      29.581  32.172  24.250  1.00  0.00    -0.204 F 
ATOM     23  F   UNL A   1      26.903  31.760  23.849  1.00  0.00    -0.204 F 
ENDBRANCH  15  16
ENDBRANCH  13  15
ENDBRANCH   6  11
ENDBRANCH   4   6
ENDBRANCH   3   4
ENDBRANCH   2   3
ENDBRANCH   1   2
BRANCH   1  24
ATOM     24  O   UNL A   1      34.434  30.979  27.750  1.00  0.00    -0.374 OA
BRANCH  24  25
ATOM     25  C   UNL A   1      33.145  31.582  27.626  1.00  0.00     0.202 C 
BRANCH  25  26
ATOM     26  C   UNL A   1      33.105  33.076  27.283  1.00  0.00     0.261 C 
BRANCH  26  27
ATOM     27  O   UNL A   1      32.311  33.831  28.220  1.00  0.00    -0.460 OA
BRANCH  27  28
ATOM     28  C   UNL A   1      32.930  34.915  28.738  1.00  0.00     0.338 C 
ATOM     29  O   UNL A   1      32.533  36.072  28.736  1.00  0.00    -0.246 OA
BRANCH  28  30
ATOM     30  C   UNL A   1      34.120  34.506  29.506  1.00  0.00     0.060 A 
ATOM     31  C   UNL A   1      35.367  34.695  28.899  1.00  0.00     0.016 A 
ATOM     32  C   UNL A   1      34.024  33.876  30.749  1.00  0.00     0.016 A 
ATOM     33  C   UNL A   1      36.519  34.205  29.506  1.00  0.00     0.010 A 
ATOM     34  C   UNL A   1      35.185  33.377  31.355  1.00  0.00     0.010 A 
ATOM     35  C   UNL A   1      36.431  33.506  30.718  1.00  0.00    -0.014 A 
BRANCH  35  36
ATOM     36  C   UNL A   1      37.639  32.814  31.227  1.00  0.00     0.031 A 
ATOM     37  C   UNL A   1      38.248  33.255  32.530  1.00  0.00     0.074 A 
ATOM     38  C   UNL A   1      38.140  31.748  30.577  1.00  0.00     0.049 A 
ATOM     39  N   UNL A   1      39.240  32.725  33.201  1.00  0.00    -0.248 NA
ATOM     40  C   UNL A   1      37.657  34.444  33.164  1.00  0.00     0.031 C 
ATOM     41  C   UNL A   1      37.621  31.200  29.325  1.00  0.00     0.029 A 
ATOM     42  N   UNL A   1      39.191  30.926  30.897  1.00  0.00    -0.354 N 
ATOM     43  C   UNL A   1      39.388  33.511  34.338  1.00  0.00     0.074 A 
ATOM     44  C   UNL A   1      38.408  34.572  34.249  1.00  0.00     0.031 C 
ATOM     45  C   UNL A   1      38.352  30.123  28.987  1.00  0.00     0.029 A 
ATOM     46  C   UNL A   1      39.395  29.918  29.988  1.00  0.00     0.049 A 
ATOM     47  H   UNL A   1      39.745  31.047  31.702  1.00  0.00     0.167 HD
ATOM     48  C   UNL A   1      40.253  33.359  35.369  1.00  0.00     0.031 A 
ATOM     49  C   UNL A   1      40.320  28.940  29.965  1.00  0.00     0.031 A 
ATOM     50  C   UNL A   1      41.242  32.317  35.455  1.00  0.00     0.049 A 
ATOM     51  C   UNL A   1      41.313  28.831  31.092  1.00  0.00     0.074 A 
ATOM     52  C   UNL A   1      42.155  32.074  36.467  1.00  0.00     0.029 A 
ATOM     53  N   UNL A   1      41.455  31.351  34.484  1.00  0.00    -0.354 N 
ATOM     54  N   UNL A   1      41.415  29.558  32.176  1.00  0.00    -0.248 NA
ATOM     55  C   UNL A   1      42.307  27.753  30.991  1.00  0.00     0.031 C 
ATOM     56  C   UNL A   1      42.954  30.991  36.085  1.00  0.00     0.029 A 
ATOM     57  C   UNL A   1      42.504  30.527  34.860  1.00  0.00     0.049 A 
ATOM     58  H   UNL A   1      40.938  31.264  33.651  1.00  0.00     0.167 HD
ATOM     59  C   UNL A   1      42.472  29.016  32.898  1.00  0.00     0.074 A 
ATOM     60  C   UNL A   1      42.962  27.886  32.136  1.00  0.00     0.031 C 
ATOM     61  C   UNL A   1      42.991  29.417  34.084  1.00  0.00     0.031 A 
BRANCH  48  62
ATOM     62  C   UNL A   1      40.182  34.368  36.480  1.00  0.00    -0.014 A 
ATOM     63  C   UNL A   1      39.332  34.178  37.581  1.00  0.00     0.009 A 
ATOM     64  C   UNL A   1      40.999  35.508  36.439  1.00  0.00     0.009 A 
ATOM     65  C   UNL A   1      39.279  35.129  38.604  1.00  0.00     0.001 A 
ATOM     66  C   UNL A   1      40.960  36.444  37.474  1.00  0.00     0.001 A 
ATOM     67  C   UNL A   1      40.095  36.258  38.550  1.00  0.00     0.000 A 
ENDBRANCH  48  62
BRANCH  49  68
ATOM     68  C   UNL A   1      40.360  27.981  28.831  1.00  0.00    -0.014 A 
ATOM     69  C   UNL A   1      41.071  28.282  27.660  1.00  0.00     0.009 A 
ATOM     70  C   UNL A   1      39.664  26.764  28.911  1.00  0.00     0.009 A 
ATOM     71  C   UNL A   1      41.066  27.393  26.583  1.00  0.00     0.001 A 
ATOM     72  C   UNL A   1      39.683  25.867  27.842  1.00  0.00     0.001 A 
ATOM     73  C   UNL A   1      40.377  26.185  26.677  1.00  0.00     0.000 A 
ENDBRANCH  49  68
BRANCH  61  74
ATOM     74  C   UNL A   1      44.137  28.615  34.632  1.00  0.00    -0.014 A 
ATOM     75  C   UNL A   1      45.468  28.957  34.343  1.00  0.00     0.009 A 
ATOM     76  C   UNL A   1      43.884  27.510  35.460  1.00  0.00     0.009 A 
ATOM     77  C   UNL A   1      46.519  28.183  34.837  1.00  0.00     0.001 A 
ATOM     78  C   UNL A   1      44.939  26.755  35.976  1.00  0.00     0.001 A 
ATOM     79  C   UNL A   1      46.254  27.085  35.655  1.00  0.00     0.000 A 
ENDBRANCH  61  74
ENDBRANCH  35  36
ENDBRANCH  28  30
ENDBRANCH  27  28
ENDBRANCH  26  27
ENDBRANCH  25  26
ENDBRANCH  24  25
ENDBRANCH   1  24
TORSDOF 17
ENDMDL
MODEL 2
REMARK VINA RESULT:     -10.5      1.779      2.423
REMARK SMILES O=C(Cc1ccc(F)c(F)c1)NC1(C(=O)OCCOCCOC(=O)c2ccc(-c3c4nc(c(-c5ccccc5)c5ccc([nH]5)c(-c5ccccc5)c5nc(c(-c6ccccc6)c6ccc3[nH]6)C=C5)C=C4)cc2)CCCC1
REMARK SMILES IDX 18 1 17 2 16 3 14 4 15 5 13 6 73 7 76 8 74 9 75 10 12 11
REMARK SMILES IDX 1 12 2 13 3 15 4 16 5 17 11 18 6 19 9 20 7 21 10 22 8 23
REMARK SMILES IDX 19 24 20 25 21 26 22 27 23 28 24 29 25 30 26 31 72 32 27 33
REMARK SMILES IDX 71 34 28 35 29 36 30 37 65 38 31 39 70 40 64 41 66 42 32 43
REMARK SMILES IDX 69 44 63 45 62 46 33 48 55 49 40 50 54 51 41 52 44 53 53 54
REMARK SMILES IDX 67 55 42 56 43 57 52 59 68 60 45 61 34 62 35 63 39 64 36 65
REMARK SMILES IDX 38 66 37 67 56 68 57 69 61 70 58 71 60 72 59 73 46 74 47 75
REMARK SMILES IDX 51 76 48 77 50 78 49 79
REMARK H PARENT 12 14 66 47 44 58
REMARK Flexibility Score: inf
ROOT
ATOM      1  C   UNL A   1      32.453  29.436  27.272  1.00  0.00     0.202 C 
ENDROOT
BRANCH   1   2
ATOM      2  C   UNL A   1      32.483  28.039  26.644  1.00  0.00     0.261 C 
BRANCH   2   3
ATOM      3  O   UNL A   1      31.400  27.852  25.716  1.00  0.00    -0.461 OA
BRANCH   3   4
ATOM      4  C   UNL A   1      31.617  26.924  24.748  1.00  0.00     0.331 C 
ATOM      5  O   UNL A   1      32.665  26.803  24.116  1.00  0.00    -0.249 OA
BRANCH   4   6
ATOM      6  C   UNL A   1      30.407  25.996  24.498  1.00  0.00     0.138 C 
ATOM      7  C   UNL A   1      30.004  25.360  25.835  1.00  0.00     0.040 C 
ATOM      8  C   UNL A   1      30.629  24.761  23.612  1.00  0.00     0.040 C 
ATOM      9  C   UNL A   1      30.910  24.144  25.958  1.00  0.00     0.003 C 
ATOM     10  C   UNL A   1      31.093  23.635  24.536  1.00  0.00     0.003 C 
BRANCH   6  11
ATOM     11  N   UNL A   1      29.339  26.909  24.044  1.00  0.00    -0.340 N 
ATOM     12  O   UNL A   1      30.299  27.744  22.131  1.00  0.00    -0.275 OA
ATOM     13  C   UNL A   1      29.370  27.719  22.932  1.00  0.00     0.225 C 
ATOM     14  H   UNL A   1      28.522  26.941  24.592  1.00  0.00     0.164 HD
BRANCH  13  15
ATOM     15  C   UNL A   1      28.178  28.653  22.797  1.00  0.00     0.135 C 
BRANCH  15  16
ATOM     16  C   UNL A   1      28.446  30.148  22.783  1.00  0.00    -0.036 A 
ATOM     17  C   UNL A   1      29.143  30.699  23.876  1.00  0.00     0.007 A 
ATOM     18  C   UNL A   1      27.988  31.022  21.785  1.00  0.00     0.046 A 
ATOM     19  C   UNL A   1      29.362  32.077  23.974  1.00  0.00     0.043 A 
ATOM     20  C   UNL A   1      28.194  32.396  21.897  1.00  0.00     0.159 A 
ATOM     21  C   UNL A   1      28.875  32.920  22.984  1.00  0.00     0.158 A 
ATOM     22  F   UNL A   1      27.712  33.207  20.945  1.00  0.00    -0.204 F 
ATOM     23  F   UNL A   1      29.064  34.243  23.091  1.00  0.00    -0.204 F 
ENDBRANCH  15  16
ENDBRANCH  13  15
ENDBRANCH   6  11
ENDBRANCH   4   6
ENDBRANCH   3   4
ENDBRANCH   2   3
ENDBRANCH   1   2
BRANCH   1  24
ATOM     24  O   UNL A   1      31.499  30.355  26.742  1.00  0.00    -0.374 OA
BRANCH  24  25
ATOM     25  C   UNL A   1      31.875  31.732  26.673  1.00  0.00     0.202 C 
BRANCH  25  26
ATOM     26  C   UNL A   1      32.902  32.226  27.699  1.00  0.00     0.261 C 
BRANCH  26  27
ATOM     27  O   UNL A   1      33.092  33.653  27.639  1.00  0.00    -0.460 OA
BRANCH  27  28
ATOM     28  C   UNL A   1      33.295  34.246  28.837  1.00  0.00     0.338 C 
ATOM     29  O   UNL A   1      32.497  34.908  29.486  1.00  0.00    -0.246 OA
BRANCH  28  30
ATOM     30  C   UNL A   1      34.597  33.839  29.394  1.00  0.00     0.060 A 
ATOM     31  C   UNL A   1      35.741  34.190  28.666  1.00  0.00     0.016 A 
ATOM     32  C   UNL A   1      34.703  33.061  30.550  1.00  0.00     0.016 A 
ATOM     33  C   UNL A   1      36.990  33.718  29.059  1.00  0.00     0.010 A 
ATOM     34  C   UNL A   1      35.961  32.581  30.940  1.00  0.00     0.010 A 
ATOM     35  C   UNL A   1      37.103  32.877  30.174  1.00  0.00    -0.014 A 
BRANCH  35  36
ATOM     36  C   UNL A   1      38.406  32.221  30.439  1.00  0.00     0.031 A 
ATOM     37  C   UNL A   1      39.360  32.844  31.422  1.00  0.00     0.074 A 
ATOM     38  C   UNL A   1      38.703  31.039  29.871  1.00  0.00     0.049 A 
ATOM     39  N   UNL A   1      40.501  32.386  31.871  1.00  0.00    -0.248 NA
ATOM     40  C   UNL A   1      38.972  34.150  31.978  1.00  0.00     0.031 C 
ATOM     41  C   UNL A   1      37.850  30.315  28.930  1.00  0.00     0.029 A 
ATOM     42  N   UNL A   1      39.802  30.231  30.023  1.00  0.00    -0.354 N 
ATOM     43  C   UNL A   1      40.965  33.343  32.766  1.00  0.00     0.074 A 
ATOM     44  C   UNL A   1      39.999  34.421  32.771  1.00  0.00     0.031 C 
ATOM     45  C   UNL A   1      38.455  29.162  28.594  1.00  0.00     0.029 A 
ATOM     46  C   UNL A   1      39.740  29.077  29.284  1.00  0.00     0.049 A 
ATOM     47  H   UNL A   1      40.561  30.458  30.608  1.00  0.00     0.167 HD
ATOM     48  C   UNL A   1      42.087  33.323  33.525  1.00  0.00     0.031 A 
ATOM     49  C   UNL A   1      40.621  28.064  29.175  1.00  0.00     0.031 A 
ATOM     50  C   UNL A   1      43.060  32.263  33.512  1.00  0.00     0.049 A 
ATOM     51  C   UNL A   1      41.892  28.096  29.980  1.00  0.00     0.074 A 
ATOM     52  C   UNL A   1      44.222  32.148  34.255  1.00  0.00     0.029 A 
ATOM     53  N   UNL A   1      42.989  31.139  32.704  1.00  0.00    -0.354 N 
ATOM     54  N   UNL A   1      42.297  28.989  30.849  1.00  0.00    -0.248 NA
ATOM     55  C   UNL A   1      42.817  26.969  29.796  1.00  0.00     0.031 C 
ATOM     56  C   UNL A   1      44.881  30.978  33.860  1.00  0.00     0.029 A 
ATOM     57  C   UNL A   1      44.102  30.339  32.910  1.00  0.00     0.049 A 
ATOM     58  H   UNL A   1      42.257  30.939  32.077  1.00  0.00     0.167 HD
ATOM     59  C   UNL A   1      43.516  28.524  31.329  1.00  0.00     0.074 A 
ATOM     60  C   UNL A   1      43.770  27.259  30.670  1.00  0.00     0.031 C 
ATOM     61  C   UNL A   1      44.349  29.092  32.235  1.00  0.00     0.031 A 
BRANCH  48  62
ATOM     62  C   UNL A   1      42.334  34.506  34.418  1.00  0.00    -0.014 A 
ATOM     63  C   UNL A   1      42.918  35.682  33.921  1.00  0.00     0.009 A 
ATOM     64  C   UNL A   1      41.949  34.454  35.766  1.00  0.00     0.009 A 
ATOM     65  C   UNL A   1      43.140  36.772  34.767  1.00  0.00     0.001 A 
ATOM     66  C   UNL A   1      42.152  35.553  36.603  1.00  0.00     0.001 A 
ATOM     67  C   UNL A   1      42.754  36.707  36.105  1.00  0.00     0.000 A 
ENDBRANCH  48  62
BRANCH  49  68
ATOM     68  C   UNL A   1      40.337  26.928  28.260  1.00  0.00    -0.014 A 
ATOM     69  C   UNL A   1      39.552  25.845  28.682  1.00  0.00     0.009 A 
ATOM     70  C   UNL A   1      40.872  26.915  26.962  1.00  0.00     0.009 A 
ATOM     71  C   UNL A   1      39.327  24.762  27.830  1.00  0.00     0.001 A 
ATOM     72  C   UNL A   1      40.623  25.843  26.104  1.00  0.00     0.001 A 
ATOM     73  C   UNL A   1      39.858  24.764  26.541  1.00  0.00     0.000 A 
ENDBRANCH  49  68
BRANCH  61  74
ATOM     74  C   UNL A   1      45.605  28.338  32.572  1.00  0.00    -0.014 A 
ATOM     75  C   UNL A   1      46.798  28.560  31.868  1.00  0.00     0.009 A 
ATOM     76  C   UNL A   1      45.597  27.402  33.618  1.00  0.00     0.009 A 
ATOM     77  C   UNL A   1      47.947  27.829  32.176  1.00  0.00     0.001 A 
ATOM     78  C   UNL A   1      46.755  26.692  33.942  1.00  0.00     0.001 A 
ATOM     79  C   UNL A   1      47.925  26.898  33.214  1.00  0.00     0.000 A 
ENDBRANCH  61  74
ENDBRANCH  35  36
ENDBRANCH  28  30
ENDBRANCH  27  28
ENDBRANCH  26  27
ENDBRANCH  25  26
ENDBRANCH  24  25
ENDBRANCH   1  24
TORSDOF 17
ENDMDL
MODEL 3
REMARK VINA RESULT:     -10.3      4.106      5.923
REMARK SMILES O=C(Cc1ccc(F)c(F)c1)NC1(C(=O)OCCOCCOC(=O)c2ccc(-c3c4nc(c(-c5ccccc5)c5ccc([nH]5)c(-c5ccccc5)c5nc(c(-c6ccccc6)c6ccc3[nH]6)C=C5)C=C4)cc2)CCCC1
REMARK SMILES IDX 18 1 17 2 16 3 14 4 15 5 13 6 73 7 76 8 74 9 75 10 12 11
REMARK SMILES IDX 1 12 2 13 3 15 4 16 5 17 11 18 6 19 9 20 7 21 10 22 8 23
REMARK SMILES IDX 19 24 20 25 21 26 22 27 23 28 24 29 25 30 26 31 72 32 27 33
REMARK SMILES IDX 71 34 28 35 29 36 30 37 65 38 31 39 70 40 64 41 66 42 32 43
REMARK SMILES IDX 69 44 63 45 62 46 33 48 55 49 40 50 54 51 41 52 44 53 53 54
REMARK SMILES IDX 67 55 42 56 43 57 52 59 68 60 45 61 34 62 35 63 39 64 36 65
REMARK SMILES IDX 38 66 37 67 56 68 57 69 61 70 58 71 60 72 59 73 46 74 47 75
REMARK SMILES IDX 51 76 48 77 50 78 49 79
REMARK H PARENT 12 14 66 47 44 58
REMARK Flexibility Score: inf
ROOT
ATOM      1  C   UNL A   1      32.567  27.317  25.334  1.00  0.00     0.202 C 
ENDROOT
BRANCH   1   2
ATOM      2  C   UNL A   1      33.000  26.626  24.038  1.00  0.00     0.261 C 
BRANCH   2   3
ATOM      3  O   UNL A   1      32.870  25.196  24.131  1.00  0.00    -0.461 OA
BRANCH   3   4
ATOM      4  C   UNL A   1      33.750  24.481  23.384  1.00  0.00     0.331 C 
ATOM      5  O   UNL A   1      34.027  24.720  22.210  1.00  0.00    -0.249 OA
BRANCH   4   6
ATOM      6  C   UNL A   1      34.404  23.309  24.150  1.00  0.00     0.138 C 
ATOM      7  C   UNL A   1      34.545  23.717  25.623  1.00  0.00     0.040 C 
ATOM      8  C   UNL A   1      35.848  22.937  23.783  1.00  0.00     0.040 C 
ATOM      9  C   UNL A   1      35.860  24.482  25.674  1.00  0.00     0.003 C 
ATOM     10  C   UNL A   1      36.760  23.800  24.654  1.00  0.00     0.003 C 
BRANCH   6  11
ATOM     11  N   UNL A   1      33.425  22.211  24.034  1.00  0.00    -0.340 N 
ATOM     12  O   UNL A   1      34.198  20.795  25.670  1.00  0.00    -0.275 OA
ATOM     13  C   UNL A   1      33.406  21.047  24.768  1.00  0.00     0.225 C 
ATOM     14  H   UNL A   1      32.712  22.322  23.364  1.00  0.00     0.164 HD
BRANCH  13  15
ATOM     15  C   UNL A   1      32.355  20.039  24.329  1.00  0.00     0.135 C 
BRANCH  15  16
ATOM     16  C   UNL A   1      32.698  18.563  24.435  1.00  0.00    -0.036 A 
ATOM     17  C   UNL A   1      32.328  17.889  25.616  1.00  0.00     0.007 A 
ATOM     18  C   UNL A   1      33.414  17.848  23.465  1.00  0.00     0.046 A 
ATOM     19  C   UNL A   1      32.675  16.549  25.821  1.00  0.00     0.043 A 
ATOM     20  C   UNL A   1      33.772  16.519  23.683  1.00  0.00     0.159 A 
ATOM     21  C   UNL A   1      33.406  15.874  24.854  1.00  0.00     0.158 A 
ATOM     22  F   UNL A   1      34.488  15.875  22.751  1.00  0.00    -0.204 F 
ATOM     23  F   UNL A   1      33.760  14.598  25.062  1.00  0.00    -0.204 F 
ENDBRANCH  15  16
ENDBRANCH  13  15
ENDBRANCH   6  11
ENDBRANCH   4   6
ENDBRANCH   3   4
ENDBRANCH   2   3
ENDBRANCH   1   2
BRANCH   1  24
ATOM     24  O   UNL A   1      31.598  28.358  25.212  1.00  0.00    -0.374 OA
BRANCH  24  25
ATOM     25  C   UNL A   1      32.079  29.693  25.043  1.00  0.00     0.202 C 
BRANCH  25  26
ATOM     26  C   UNL A   1      31.715  30.707  26.135  1.00  0.00     0.261 C 
BRANCH  26  27
ATOM     27  O   UNL A   1      32.603  30.633  27.267  1.00  0.00    -0.460 OA
BRANCH  27  28
ATOM     28  C   UNL A   1      33.366  31.732  27.458  1.00  0.00     0.338 C 
ATOM     29  O   UNL A   1      32.999  32.899  27.490  1.00  0.00    -0.246 OA
BRANCH  28  30
ATOM     30  C   UNL A   1      34.741  31.344  27.822  1.00  0.00     0.060 A 
ATOM     31  C   UNL A   1      34.981  29.983  28.047  1.00  0.00     0.016 A 
ATOM     32  C   UNL A   1      35.753  32.285  28.025  1.00  0.00     0.016 A 
ATOM     33  C   UNL A   1      36.217  29.563  28.529  1.00  0.00     0.010 A 
ATOM     34  C   UNL A   1      36.995  31.861  28.517  1.00  0.00     0.010 A 
ATOM     35  C   UNL A   1      37.218  30.503  28.806  1.00  0.00    -0.014 A 
BRANCH  35  36
ATOM     36  C   UNL A   1      38.439  30.051  29.517  1.00  0.00     0.031 A 
ATOM     37  C   UNL A   1      38.627  30.415  30.965  1.00  0.00     0.074 A 
ATOM     38  C   UNL A   1      39.331  29.255  28.902  1.00  0.00     0.049 A 
ATOM     39  N   UNL A   1      39.567  30.041  31.796  1.00  0.00    -0.248 NA
ATOM     40  C   UNL A   1      37.619  31.310  31.555  1.00  0.00     0.031 C 
ATOM     41  C   UNL A   1      39.246  28.803  27.514  1.00  0.00     0.029 A 
ATOM     42  N   UNL A   1      40.477  28.671  29.379  1.00  0.00    -0.354 N 
ATOM     43  C   UNL A   1      39.260  30.649  33.008  1.00  0.00     0.074 A 
ATOM     44  C   UNL A   1      38.069  31.442  32.794  1.00  0.00     0.031 C 
ATOM     45  C   UNL A   1      40.294  28.002  27.254  1.00  0.00     0.029 A 
ATOM     46  C   UNL A   1      41.128  27.900  28.449  1.00  0.00     0.049 A 
ATOM     47  H   UNL A   1      40.802  28.793  30.301  1.00  0.00     0.167 HD
ATOM     48  C   UNL A   1      39.906  30.549  34.195  1.00  0.00     0.031 A 
ATOM     49  C   UNL A   1      42.268  27.190  28.550  1.00  0.00     0.031 A 
ATOM     50  C   UNL A   1      41.101  29.777  34.410  1.00  0.00     0.049 A 
ATOM     51  C   UNL A   1      43.002  27.147  29.863  1.00  0.00     0.074 A 
ATOM     52  C   UNL A   1      41.819  29.605  35.581  1.00  0.00     0.029 A 
ATOM     53  N   UNL A   1      41.761  29.058  33.426  1.00  0.00    -0.354 N 
ATOM     54  N   UNL A   1      42.680  27.696  31.008  1.00  0.00    -0.248 NA
ATOM     55  C   UNL A   1      44.249  26.371  29.896  1.00  0.00     0.031 C 
ATOM     56  C   UNL A   1      42.942  28.821  35.293  1.00  0.00     0.029 A 
ATOM     57  C   UNL A   1      42.894  28.462  33.957  1.00  0.00     0.049 A 
ATOM     58  H   UNL A   1      41.468  28.981  32.490  1.00  0.00     0.167 HD
ATOM     59  C   UNL A   1      43.674  27.319  31.903  1.00  0.00     0.074 A 
ATOM     60  C   UNL A   1      44.597  26.475  31.170  1.00  0.00     0.031 C 
ATOM     61  C   UNL A   1      43.811  27.640  33.212  1.00  0.00     0.031 A 
BRANCH  48  62
ATOM     62  C   UNL A   1      39.339  31.322  35.352  1.00  0.00    -0.014 A 
ATOM     63  C   UNL A   1      38.339  30.776  36.172  1.00  0.00     0.009 A 
ATOM     64  C   UNL A   1      39.834  32.602  35.644  1.00  0.00     0.009 A 
ATOM     65  C   UNL A   1      37.823  31.511  37.243  1.00  0.00     0.001 A 
ATOM     66  C   UNL A   1      39.333  33.324  36.729  1.00  0.00     0.001 A 
ATOM     67  C   UNL A   1      38.324  32.782  37.521  1.00  0.00     0.000 A 
ENDBRANCH  48  62
BRANCH  49  68
ATOM     68  C   UNL A   1      42.796  26.461  27.368  1.00  0.00    -0.014 A 
ATOM     69  C   UNL A   1      42.387  25.148  27.093  1.00  0.00     0.009 A 
ATOM     70  C   UNL A   1      43.731  27.075  26.519  1.00  0.00     0.009 A 
ATOM     71  C   UNL A   1      42.921  24.455  26.004  1.00  0.00     0.001 A 
ATOM     72  C   UNL A   1      44.243  26.389  25.417  1.00  0.00     0.001 A 
ATOM     73  C   UNL A   1      43.845  25.077  25.165  1.00  0.00     0.000 A 
ENDBRANCH  49  68
BRANCH  61  74
ATOM     74  C   UNL A   1      44.996  27.062  33.935  1.00  0.00    -0.014 A 
ATOM     75  C   UNL A   1      44.920  25.813  34.571  1.00  0.00     0.009 A 
ATOM     76  C   UNL A   1      46.207  27.770  33.969  1.00  0.00     0.009 A 
ATOM     77  C   UNL A   1      46.022  25.306  35.263  1.00  0.00     0.001 A 
ATOM     78  C   UNL A   1      47.315  27.247  34.637  1.00  0.00     0.001 A 
ATOM     79  C   UNL A   1      47.218  26.021  35.293  1.00  0.00     0.000 A 
ENDBRANCH  61  74
ENDBRANCH  35  36
ENDBRANCH  28  30
ENDBRANCH  27  28
ENDBRANCH  26  27
ENDBRANCH  25  26
ENDBRANCH  24  25
ENDBRANCH   1  24
TORSDOF 17
ENDMDL
