MODEL 1
REMARK VINA RESULT:     -11.1      0.000      0.000
REMARK SMILES CC(=O)Nc1ccc(/C(=C\c2ccc(S(C)(=O)=O)cc2)C(=O)OCCOCCOC(=O)c2ccc(-c3c4nc(c(-c5ccccc5)c5ccc([nH]5)c(-c5ccccc5)c5nc(c(-c6ccccc6)c6ccc3[nH]6)C=C5)C=C4)cc2)cc1
REMARK SMILES IDX 26 1 25 2 24 3 23 4 21 5 22 6 9 7 10 8 8 9 5 10 6 11 81 12
REMARK SMILES IDX 7 13 80 14 4 15 1 16 2 17 3 18 11 20 12 21 20 22 13 23 19 24
REMARK SMILES IDX 14 25 15 26 16 27 17 28 18 29 27 30 28 31 29 32 30 33 31 34
REMARK SMILES IDX 32 35 33 36 79 37 34 38 78 39 35 40 36 41 37 42 72 43 38 44
REMARK SMILES IDX 77 45 71 46 73 47 39 48 76 49 70 50 69 51 40 53 62 54 47 55
REMARK SMILES IDX 61 56 48 57 51 58 60 59 74 60 49 61 50 62 59 64 75 65 52 66
REMARK SMILES IDX 41 67 42 68 46 69 43 70 45 71 44 72 63 73 64 74 68 75 65 76
REMARK SMILES IDX 67 77 66 78 53 79 54 80 58 81 55 82 57 83 56 84
REMARK H PARENT 4 19 73 52 51 63
REMARK Flexibility Score: inf
ROOT
ATOM      1  O   UNL A   1      33.579  33.397  28.284  1.00  0.00    -0.374 OA
ENDROOT
BRANCH   1   2
ATOM      2  C   UNL A   1      34.071  32.195  27.690  1.00  0.00     0.202 C 
BRANCH   2   3
ATOM      3  C   UNL A   1      33.036  31.086  27.478  1.00  0.00     0.261 C 
BRANCH   3   4
ATOM      4  O   UNL A   1      33.409  30.262  26.363  1.00  0.00    -0.460 OA
BRANCH   4   5
ATOM      5  C   UNL A   1      34.129  29.153  26.680  1.00  0.00     0.338 C 
ATOM      6  O   UNL A   1      34.932  29.059  27.596  1.00  0.00    -0.246 OA
BRANCH   5   7
ATOM      7  C   UNL A   1      33.692  27.982  25.850  1.00  0.00     0.067 C 
ATOM      8  C   UNL A   1      34.219  26.780  26.189  1.00  0.00     0.024 C 
BRANCH   7   9
ATOM      9  C   UNL A   1      32.748  28.250  24.725  1.00  0.00    -0.011 A 
ATOM     10  C   UNL A   1      30.836  29.030  22.769  1.00  0.00     0.041 A 
ATOM     11  C   UNL A   1      32.203  29.036  22.481  1.00  0.00     0.027 A 
ATOM     12  C   UNL A   1      30.425  28.522  23.995  1.00  0.00     0.027 A 
ATOM     13  C   UNL A   1      33.145  28.637  23.442  1.00  0.00     0.011 A 
ATOM     14  C   UNL A   1      31.367  28.138  24.956  1.00  0.00     0.011 A 
BRANCH  10  15
ATOM     15  N   UNL A   1      29.965  29.500  21.774  1.00  0.00    -0.326 N 
ATOM     16  C   UNL A   1      28.414  30.952  23.093  1.00  0.00     0.114 C 
ATOM     17  C   UNL A   1      28.829  30.256  21.826  1.00  0.00     0.221 C 
ATOM     18  O   UNL A   1      28.173  30.406  20.792  1.00  0.00    -0.275 OA
ATOM     19  H   UNL A   1      30.223  29.232  20.863  1.00  0.00     0.169 HD
ENDBRANCH  10  15
ENDBRANCH   7   9
BRANCH   8  20
ATOM     20  C   UNL A   1      33.825  25.472  25.647  1.00  0.00    -0.025 A 
ATOM     21  C   UNL A   1      34.612  24.962  24.604  1.00  0.00     0.009 A 
ATOM     22  C   UNL A   1      32.832  24.666  26.221  1.00  0.00     0.009 A 
ATOM     23  C   UNL A   1      34.509  23.623  24.232  1.00  0.00     0.021 A 
ATOM     24  C   UNL A   1      32.729  23.319  25.856  1.00  0.00     0.021 A 
ATOM     25  C   UNL A   1      33.595  22.799  24.890  1.00  0.00     0.067 A 
BRANCH  25  26
ATOM     26  S   UNL A   1      33.701  21.042  24.631  1.00  0.00     0.175 S 
ATOM     27  C   UNL A   1      33.022  20.336  26.105  1.00  0.00     0.163 C 
ATOM     28  O   UNL A   1      32.811  20.731  23.528  1.00  0.00    -0.224 OA
ATOM     29  O   UNL A   1      35.107  20.690  24.569  1.00  0.00    -0.224 OA
ENDBRANCH  25  26
ENDBRANCH   8  20
ENDBRANCH   5   7
ENDBRANCH   4   5
ENDBRANCH   3   4
ENDBRANCH   2   3
ENDBRANCH   1   2
BRANCH   1  30
ATOM     30  C   UNL A   1      34.460  34.102  29.160  1.00  0.00     0.202 C 
BRANCH  30  31
ATOM     31  C   UNL A   1      34.292  33.850  30.660  1.00  0.00     0.261 C 
BRANCH  31  32
ATOM     32  O   UNL A   1      34.517  32.472  30.994  1.00  0.00    -0.460 OA
BRANCH  32  33
ATOM     33  C   UNL A   1      35.488  32.260  31.910  1.00  0.00     0.338 C 
ATOM     34  O   UNL A   1      35.478  32.574  33.094  1.00  0.00    -0.246 OA
BRANCH  33  35
ATOM     35  C   UNL A   1      36.541  31.415  31.323  1.00  0.00     0.060 A 
ATOM     36  C   UNL A   1      37.360  30.687  32.196  1.00  0.00     0.016 A 
ATOM     37  C   UNL A   1      36.760  31.384  29.944  1.00  0.00     0.016 A 
ATOM     38  C   UNL A   1      38.443  29.967  31.699  1.00  0.00     0.010 A 
ATOM     39  C   UNL A   1      37.851  30.671  29.448  1.00  0.00     0.010 A 
ATOM     40  C   UNL A   1      38.718  29.996  30.326  1.00  0.00    -0.014 A 
BRANCH  40  41
ATOM     41  C   UNL A   1      40.011  29.490  29.811  1.00  0.00     0.031 A 
ATOM     42  C   UNL A   1      41.164  30.448  29.722  1.00  0.00     0.074 A 
ATOM     43  C   UNL A   1      40.149  28.218  29.407  1.00  0.00     0.049 A 
ATOM     44  N   UNL A   1      42.343  30.281  29.181  1.00  0.00    -0.248 NA
ATOM     45  C   UNL A   1      40.953  31.778  30.317  1.00  0.00     0.031 C 
ATOM     46  C   UNL A   1      39.128  27.179  29.510  1.00  0.00     0.029 A 
ATOM     47  N   UNL A   1      41.214  27.592  28.812  1.00  0.00    -0.354 N 
ATOM     48  C   UNL A   1      43.005  31.491  29.349  1.00  0.00     0.074 A 
ATOM     49  C   UNL A   1      42.091  32.388  30.021  1.00  0.00     0.031 C 
ATOM     50  C   UNL A   1      39.615  26.040  28.987  1.00  0.00     0.029 A 
ATOM     51  C   UNL A   1      40.959  26.288  28.470  1.00  0.00     0.049 A 
ATOM     52  H   UNL A   1      42.078  28.035  28.647  1.00  0.00     0.167 HD
ATOM     53  C   UNL A   1      44.262  31.826  28.974  1.00  0.00     0.031 A 
ATOM     54  C   UNL A   1      41.717  25.407  27.789  1.00  0.00     0.031 A 
ATOM     55  C   UNL A   1      45.159  30.936  28.289  1.00  0.00     0.049 A 
ATOM     56  C   UNL A   1      43.070  25.832  27.286  1.00  0.00     0.074 A 
ATOM     57  C   UNL A   1      46.455  31.173  27.865  1.00  0.00     0.029 A 
ATOM     58  N   UNL A   1      44.845  29.638  27.918  1.00  0.00    -0.354 N 
ATOM     59  N   UNL A   1      43.690  26.977  27.443  1.00  0.00    -0.248 NA
ATOM     60  C   UNL A   1      43.829  24.841  26.508  1.00  0.00     0.031 C 
ATOM     61  C   UNL A   1      46.905  30.035  27.189  1.00  0.00     0.029 A 
ATOM     62  C   UNL A   1      45.913  29.068  27.247  1.00  0.00     0.049 A 
ATOM     63  H   UNL A   1      43.990  29.187  28.104  1.00  0.00     0.167 HD
ATOM     64  C   UNL A   1      44.924  26.832  26.823  1.00  0.00     0.074 A 
ATOM     65  C   UNL A   1      44.963  25.490  26.278  1.00  0.00     0.031 C 
ATOM     66  C   UNL A   1      45.938  27.726  26.723  1.00  0.00     0.031 A 
BRANCH  53  67
ATOM     67  C   UNL A   1      44.705  33.234  29.254  1.00  0.00    -0.014 A 
ATOM     68  C   UNL A   1      45.352  33.575  30.452  1.00  0.00     0.009 A 
ATOM     69  C   UNL A   1      44.457  34.240  28.307  1.00  0.00     0.009 A 
ATOM     70  C   UNL A   1      45.695  34.903  30.717  1.00  0.00     0.001 A 
ATOM     71  C   UNL A   1      44.829  35.560  28.561  1.00  0.00     0.001 A 
ATOM     72  C   UNL A   1      45.435  35.894  29.771  1.00  0.00     0.000 A 
ENDBRANCH  53  67
BRANCH  54  73
ATOM     73  C   UNL A   1      41.210  24.034  27.540  1.00  0.00    -0.014 A 
ATOM     74  C   UNL A   1      41.726  22.949  28.264  1.00  0.00     0.009 A 
ATOM     75  C   UNL A   1      40.201  23.801  26.592  1.00  0.00     0.009 A 
ATOM     76  C   UNL A   1      41.251  21.655  28.034  1.00  0.00     0.001 A 
ATOM     77  C   UNL A   1      39.711  22.510  26.382  1.00  0.00     0.001 A 
ATOM     78  C   UNL A   1      40.240  21.438  27.099  1.00  0.00     0.000 A 
ENDBRANCH  54  73
BRANCH  66  79
ATOM     79  C   UNL A   1      47.205  27.270  26.056  1.00  0.00    -0.014 A 
ATOM     80  C   UNL A   1      48.134  26.457  26.721  1.00  0.00     0.009 A 
ATOM     81  C   UNL A   1      47.426  27.598  24.708  1.00  0.00     0.009 A 
ATOM     82  C   UNL A   1      49.270  25.996  26.052  1.00  0.00     0.001 A 
ATOM     83  C   UNL A   1      48.548  27.115  24.036  1.00  0.00     0.001 A 
ATOM     84  C   UNL A   1      49.472  26.319  24.709  1.00  0.00     0.000 A 
ENDBRANCH  66  79
ENDBRANCH  40  41
ENDBRANCH  33  35
ENDBRANCH  32  33
ENDBRANCH  31  32
ENDBRANCH  30  31
ENDBRANCH   1  30
TORSDOF 18
ENDMDL
MODEL 2
REMARK VINA RESULT:     -10.5      4.893      8.889
REMARK SMILES CC(=O)Nc1ccc(/C(=C\c2ccc(S(C)(=O)=O)cc2)C(=O)OCCOCCOC(=O)c2ccc(-c3c4nc(c(-c5ccccc5)c5ccc([nH]5)c(-c5ccccc5)c5nc(c(-c6ccccc6)c6ccc3[nH]6)C=C5)C=C4)cc2)cc1
REMARK SMILES IDX 26 1 25 2 24 3 23 4 21 5 22 6 9 7 10 8 8 9 5 10 6 11 81 12
REMARK SMILES IDX 7 13 80 14 4 15 1 16 2 17 3 18 11 20 12 21 20 22 13 23 19 24
REMARK SMILES IDX 14 25 15 26 16 27 17 28 18 29 27 30 28 31 29 32 30 33 31 34
REMARK SMILES IDX 32 35 33 36 79 37 34 38 78 39 35 40 36 41 37 42 72 43 38 44
REMARK SMILES IDX 77 45 71 46 73 47 39 48 76 49 70 50 69 51 40 53 62 54 47 55
REMARK SMILES IDX 61 56 48 57 51 58 60 59 74 60 49 61 50 62 59 64 75 65 52 66
REMARK SMILES IDX 41 67 42 68 46 69 43 70 45 71 44 72 63 73 64 74 68 75 65 76
REMARK SMILES IDX 67 77 66 78 53 79 54 80 58 81 55 82 57 83 56 84
REMARK H PARENT 4 19 73 52 51 63
REMARK Flexibility Score: inf
ROOT
ATOM      1  O   UNL A   1      36.654  33.279  31.307  1.00  0.00    -0.374 OA
ENDROOT
BRANCH   1   2
ATOM      2  C   UNL A   1      37.707  33.190  30.346  1.00  0.00     0.202 C 
BRANCH   2   3
ATOM      3  C   UNL A   1      38.607  34.423  30.230  1.00  0.00     0.261 C 
BRANCH   3   4
ATOM      4  O   UNL A   1      38.911  34.943  31.533  1.00  0.00    -0.460 OA
BRANCH   4   5
ATOM      5  C   UNL A   1      40.037  34.443  32.106  1.00  0.00     0.338 C 
ATOM      6  O   UNL A   1      41.176  34.576  31.683  1.00  0.00    -0.246 OA
BRANCH   5   7
ATOM      7  C   UNL A   1      39.726  33.827  33.438  1.00  0.00     0.067 C 
ATOM      8  C   UNL A   1      39.207  34.658  34.374  1.00  0.00     0.024 C 
BRANCH   7   9
ATOM      9  C   UNL A   1      40.036  32.377  33.615  1.00  0.00    -0.011 A 
ATOM     10  C   UNL A   1      40.629  29.680  34.295  1.00  0.00     0.041 A 
ATOM     11  C   UNL A   1      39.445  30.011  33.631  1.00  0.00     0.027 A 
ATOM     12  C   UNL A   1      41.565  30.684  34.510  1.00  0.00     0.027 A 
ATOM     13  C   UNL A   1      39.159  31.340  33.283  1.00  0.00     0.011 A 
ATOM     14  C   UNL A   1      41.271  32.011  34.175  1.00  0.00     0.011 A 
BRANCH  10  15
ATOM     15  N   UNL A   1      40.810  28.336  34.660  1.00  0.00    -0.326 N 
ATOM     16  C   UNL A   1      43.053  27.836  33.675  1.00  0.00     0.114 C 
ATOM     17  C   UNL A   1      41.778  27.423  34.357  1.00  0.00     0.221 C 
ATOM     18  O   UNL A   1      41.612  26.251  34.705  1.00  0.00    -0.275 OA
ATOM     19  H   UNL A   1      40.102  27.985  35.246  1.00  0.00     0.169 HD
ENDBRANCH  10  15
ENDBRANCH   7   9
BRANCH   8  20
ATOM     20  C   UNL A   1      38.667  34.268  35.685  1.00  0.00    -0.025 A 
ATOM     21  C   UNL A   1      37.345  33.802  35.704  1.00  0.00     0.009 A 
ATOM     22  C   UNL A   1      39.446  34.187  36.847  1.00  0.00     0.009 A 
ATOM     23  C   UNL A   1      36.847  33.136  36.823  1.00  0.00     0.021 A 
ATOM     24  C   UNL A   1      38.954  33.513  37.971  1.00  0.00     0.021 A 
ATOM     25  C   UNL A   1      37.672  32.960  37.936  1.00  0.00     0.067 A 
BRANCH  25  26
ATOM     26  S   UNL A   1      37.140  31.841  39.213  1.00  0.00     0.175 S 
ATOM     27  C   UNL A   1      35.611  32.522  39.788  1.00  0.00     0.163 C 
ATOM     28  O   UNL A   1      36.856  30.575  38.564  1.00  0.00    -0.224 OA
ATOM     29  O   UNL A   1      38.103  31.918  40.295  1.00  0.00    -0.224 OA
ENDBRANCH  25  26
ENDBRANCH   8  20
ENDBRANCH   5   7
ENDBRANCH   4   5
ENDBRANCH   3   4
ENDBRANCH   2   3
ENDBRANCH   1   2
BRANCH   1  30
ATOM     30  C   UNL A   1      35.417  33.848  30.873  1.00  0.00     0.202 C 
BRANCH  30  31
ATOM     31  C   UNL A   1      34.743  33.194  29.664  1.00  0.00     0.261 C 
BRANCH  31  32
ATOM     32  O   UNL A   1      34.832  31.762  29.718  1.00  0.00    -0.460 OA
BRANCH  32  33
ATOM     33  C   UNL A   1      35.011  31.157  28.522  1.00  0.00     0.338 C 
ATOM     34  O   UNL A   1      34.387  31.354  27.487  1.00  0.00    -0.246 OA
BRANCH  33  35
ATOM     35  C   UNL A   1      36.216  30.313  28.574  1.00  0.00     0.060 A 
ATOM     36  C   UNL A   1      36.505  29.658  29.779  1.00  0.00     0.016 A 
ATOM     37  C   UNL A   1      37.078  30.214  27.481  1.00  0.00     0.016 A 
ATOM     38  C   UNL A   1      37.694  28.945  29.917  1.00  0.00     0.010 A 
ATOM     39  C   UNL A   1      38.273  29.508  27.623  1.00  0.00     0.010 A 
ATOM     40  C   UNL A   1      38.602  28.907  28.852  1.00  0.00    -0.014 A 
BRANCH  40  41
ATOM     41  C   UNL A   1      39.982  28.413  29.062  1.00  0.00     0.031 A 
ATOM     42  C   UNL A   1      41.000  29.365  29.624  1.00  0.00     0.074 A 
ATOM     43  C   UNL A   1      40.328  27.158  28.738  1.00  0.00     0.049 A 
ATOM     44  N   UNL A   1      42.291  29.210  29.767  1.00  0.00    -0.248 NA
ATOM     45  C   UNL A   1      40.491  30.670  30.076  1.00  0.00     0.031 C 
ATOM     46  C   UNL A   1      39.417  26.124  28.255  1.00  0.00     0.029 A 
ATOM     47  N   UNL A   1      41.556  26.549  28.758  1.00  0.00    -0.354 N 
ATOM     48  C   UNL A   1      42.751  30.407  30.302  1.00  0.00     0.074 A 
ATOM     49  C   UNL A   1      41.607  31.282  30.438  1.00  0.00     0.031 C 
ATOM     50  C   UNL A   1      40.122  25.004  28.014  1.00  0.00     0.029 A 
ATOM     51  C   UNL A   1      41.535  25.262  28.281  1.00  0.00     0.049 A 
ATOM     52  H   UNL A   1      42.373  26.991  29.083  1.00  0.00     0.167 HD
ATOM     53  C   UNL A   1      44.015  30.747  30.648  1.00  0.00     0.031 A 
ATOM     54  C   UNL A   1      42.549  24.405  28.058  1.00  0.00     0.031 A 
ATOM     55  C   UNL A   1      45.150  29.879  30.492  1.00  0.00     0.049 A 
ATOM     56  C   UNL A   1      43.961  24.839  28.348  1.00  0.00     0.074 A 
ATOM     57  C   UNL A   1      46.474  30.123  30.813  1.00  0.00     0.029 A 
ATOM     58  N   UNL A   1      45.094  28.600  29.961  1.00  0.00    -0.354 N 
ATOM     59  N   UNL A   1      44.392  25.971  28.849  1.00  0.00    -0.248 NA
ATOM     60  C   UNL A   1      45.027  23.875  28.037  1.00  0.00     0.031 C 
ATOM     61  C   UNL A   1      47.227  29.010  30.424  1.00  0.00     0.029 A 
ATOM     62  C   UNL A   1      46.363  28.050  29.920  1.00  0.00     0.049 A 
ATOM     63  H   UNL A   1      44.272  28.149  29.658  1.00  0.00     0.167 HD
ATOM     64  C   UNL A   1      45.770  25.842  28.954  1.00  0.00     0.074 A 
ATOM     65  C   UNL A   1      46.107  24.524  28.455  1.00  0.00     0.031 C 
ATOM     66  C   UNL A   1      46.676  26.731  29.431  1.00  0.00     0.031 A 
BRANCH  53  67
ATOM     67  C   UNL A   1      44.228  32.138  31.174  1.00  0.00    -0.014 A 
ATOM     68  C   UNL A   1      44.225  32.410  32.551  1.00  0.00     0.009 A 
ATOM     69  C   UNL A   1      44.419  33.198  30.273  1.00  0.00     0.009 A 
ATOM     70  C   UNL A   1      44.360  33.723  33.012  1.00  0.00     0.001 A 
ATOM     71  C   UNL A   1      44.585  34.503  30.738  1.00  0.00     0.001 A 
ATOM     72  C   UNL A   1      44.541  34.767  32.106  1.00  0.00     0.000 A 
ENDBRANCH  53  67
BRANCH  54  73
ATOM     73  C   UNL A   1      42.265  23.047  27.527  1.00  0.00    -0.014 A 
ATOM     74  C   UNL A   1      41.849  22.024  28.391  1.00  0.00     0.009 A 
ATOM     75  C   UNL A   1      42.393  22.770  26.157  1.00  0.00     0.009 A 
ATOM     76  C   UNL A   1      41.579  20.746  27.897  1.00  0.00     0.001 A 
ATOM     77  C   UNL A   1      42.099  21.497  25.661  1.00  0.00     0.001 A 
ATOM     78  C   UNL A   1      41.697  20.486  26.532  1.00  0.00     0.000 A 
ENDBRANCH  54  73
BRANCH  66  79
ATOM     79  C   UNL A   1      48.111  26.293  29.501  1.00  0.00    -0.014 A 
ATOM     80  C   UNL A   1      48.996  26.500  28.433  1.00  0.00     0.009 A 
ATOM     81  C   UNL A   1      48.602  25.737  30.695  1.00  0.00     0.009 A 
ATOM     82  C   UNL A   1      50.340  26.141  28.553  1.00  0.00     0.001 A 
ATOM     83  C   UNL A   1      49.949  25.403  30.821  1.00  0.00     0.001 A 
ATOM     84  C   UNL A   1      50.817  25.601  29.749  1.00  0.00     0.000 A 
ENDBRANCH  66  79
ENDBRANCH  40  41
ENDBRANCH  33  35
ENDBRANCH  32  33
ENDBRANCH  31  32
ENDBRANCH  30  31
ENDBRANCH   1  30
TORSDOF 18
ENDMDL
MODEL 3
REMARK VINA RESULT:     -10.4      3.516      5.741
REMARK SMILES CC(=O)Nc1ccc(/C(=C\c2ccc(S(C)(=O)=O)cc2)C(=O)OCCOCCOC(=O)c2ccc(-c3c4nc(c(-c5ccccc5)c5ccc([nH]5)c(-c5ccccc5)c5nc(c(-c6ccccc6)c6ccc3[nH]6)C=C5)C=C4)cc2)cc1
REMARK SMILES IDX 26 1 25 2 24 3 23 4 21 5 22 6 9 7 10 8 8 9 5 10 6 11 81 12
REMARK SMILES IDX 7 13 80 14 4 15 1 16 2 17 3 18 11 20 12 21 20 22 13 23 19 24
REMARK SMILES IDX 14 25 15 26 16 27 17 28 18 29 27 30 28 31 29 32 30 33 31 34
REMARK SMILES IDX 32 35 33 36 79 37 34 38 78 39 35 40 36 41 37 42 72 43 38 44
REMARK SMILES IDX 77 45 71 46 73 47 39 48 76 49 70 50 69 51 40 53 62 54 47 55
REMARK SMILES IDX 61 56 48 57 51 58 60 59 74 60 49 61 50 62 59 64 75 65 52 66
REMARK SMILES IDX 41 67 42 68 46 69 43 70 45 71 44 72 63 73 64 74 68 75 65 76
REMARK SMILES IDX 67 77 66 78 53 79 54 80 58 81 55 82 57 83 56 84
REMARK H PARENT 4 19 73 52 51 63
REMARK Flexibility Score: inf
ROOT
ATOM      1  O   UNL A   1      32.942  35.167  30.855  1.00  0.00    -0.374 OA
ENDROOT
BRANCH   1   2
ATOM      2  C   UNL A   1      33.510  35.329  29.554  1.00  0.00     0.202 C 
BRANCH   2   3
ATOM      3  C   UNL A   1      33.278  34.172  28.579  1.00  0.00     0.261 C 
BRANCH   3   4
ATOM      4  O   UNL A   1      34.033  33.019  28.984  1.00  0.00    -0.460 OA
BRANCH   4   5
ATOM      5  C   UNL A   1      34.940  32.574  28.075  1.00  0.00     0.338 C 
ATOM      6  O   UNL A   1      35.809  33.246  27.542  1.00  0.00    -0.246 OA
BRANCH   5   7
ATOM      7  C   UNL A   1      34.846  31.084  27.919  1.00  0.00     0.067 C 
ATOM      8  C   UNL A   1      33.699  30.613  27.371  1.00  0.00     0.024 C 
BRANCH   7   9
ATOM      9  C   UNL A   1      35.999  30.268  28.398  1.00  0.00    -0.011 A 
ATOM     10  C   UNL A   1      38.388  29.002  29.282  1.00  0.00     0.041 A 
ATOM     11  C   UNL A   1      37.275  29.104  30.121  1.00  0.00     0.027 A 
ATOM     12  C   UNL A   1      38.260  29.427  27.966  1.00  0.00     0.027 A 
ATOM     13  C   UNL A   1      36.092  29.716  29.680  1.00  0.00     0.011 A 
ATOM     14  C   UNL A   1      37.084  30.050  27.533  1.00  0.00     0.011 A 
BRANCH  10  15
ATOM     15  N   UNL A   1      39.551  28.429  29.820  1.00  0.00    -0.326 N 
ATOM     16  C   UNL A   1      41.275  29.090  28.134  1.00  0.00     0.114 C 
ATOM     17  C   UNL A   1      40.829  28.327  29.351  1.00  0.00     0.221 C 
ATOM     18  O   UNL A   1      41.634  27.637  29.981  1.00  0.00    -0.275 OA
ATOM     19  H   UNL A   1      39.419  28.021  30.706  1.00  0.00     0.169 HD
ENDBRANCH  10  15
ENDBRANCH   7   9
BRANCH   8  20
ATOM     20  C   UNL A   1      33.435  29.226  26.961  1.00  0.00    -0.025 A 
ATOM     21  C   UNL A   1      32.327  28.598  27.548  1.00  0.00     0.009 A 
ATOM     22  C   UNL A   1      34.121  28.585  25.920  1.00  0.00     0.009 A 
ATOM     23  C   UNL A   1      31.822  27.414  27.015  1.00  0.00     0.021 A 
ATOM     24  C   UNL A   1      33.615  27.399  25.376  1.00  0.00     0.021 A 
ATOM     25  C   UNL A   1      32.446  26.843  25.904  1.00  0.00     0.067 A 
BRANCH  25  26
ATOM     26  S   UNL A   1      31.610  25.527  25.048  1.00  0.00     0.175 S 
ATOM     27  C   UNL A   1      29.891  25.909  25.222  1.00  0.00     0.163 C 
ATOM     28  O   UNL A   1      31.963  25.654  23.647  1.00  0.00    -0.224 OA
ATOM     29  O   UNL A   1      31.874  24.296  25.769  1.00  0.00    -0.224 OA
ENDBRANCH  25  26
ENDBRANCH   8  20
ENDBRANCH   5   7
ENDBRANCH   4   5
ENDBRANCH   3   4
ENDBRANCH   2   3
ENDBRANCH   1   2
BRANCH   1  30
ATOM     30  C   UNL A   1      33.813  35.324  31.975  1.00  0.00     0.202 C 
BRANCH  30  31
ATOM     31  C   UNL A   1      34.472  34.055  32.521  1.00  0.00     0.261 C 
BRANCH  31  32
ATOM     32  O   UNL A   1      35.802  33.885  32.007  1.00  0.00    -0.460 OA
BRANCH  32  33
ATOM     33  C   UNL A   1      36.789  34.285  32.838  1.00  0.00     0.338 C 
ATOM     34  O   UNL A   1      36.756  35.202  33.649  1.00  0.00    -0.246 OA
BRANCH  33  35
ATOM     35  C   UNL A   1      37.907  33.330  32.768  1.00  0.00     0.060 A 
ATOM     36  C   UNL A   1      39.065  33.620  33.502  1.00  0.00     0.016 A 
ATOM     37  C   UNL A   1      37.845  32.201  31.949  1.00  0.00     0.016 A 
ATOM     38  C   UNL A   1      40.192  32.812  33.376  1.00  0.00     0.010 A 
ATOM     39  C   UNL A   1      38.977  31.397  31.815  1.00  0.00     0.010 A 
ATOM     40  C   UNL A   1      40.165  31.724  32.495  1.00  0.00    -0.014 A 
BRANCH  40  41
ATOM     41  C   UNL A   1      41.418  31.031  32.123  1.00  0.00     0.031 A 
ATOM     42  C   UNL A   1      42.191  31.544  30.941  1.00  0.00     0.074 A 
ATOM     43  C   UNL A   1      41.847  29.956  32.803  1.00  0.00     0.049 A 
ATOM     44  N   UNL A   1      43.232  31.028  30.342  1.00  0.00    -0.248 NA
ATOM     45  C   UNL A   1      41.715  32.806  30.352  1.00  0.00     0.031 C 
ATOM     46  C   UNL A   1      41.226  29.408  34.006  1.00  0.00     0.029 A 
ATOM     47  N   UNL A   1      42.909  29.123  32.558  1.00  0.00    -0.354 N 
ATOM     48  C   UNL A   1      43.522  31.889  29.291  1.00  0.00     0.074 A 
ATOM     49  C   UNL A   1      42.535  32.947  29.321  1.00  0.00     0.031 C 
ATOM     50  C   UNL A   1      41.916  28.321  34.393  1.00  0.00     0.029 A 
ATOM     51  C   UNL A   1      42.993  28.073  33.437  1.00  0.00     0.049 A 
ATOM     52  H   UNL A   1      43.550  29.266  31.824  1.00  0.00     0.167 HD
ATOM     53  C   UNL A   1      44.519  31.805  28.379  1.00  0.00     0.031 A 
ATOM     54  C   UNL A   1      43.828  27.016  33.446  1.00  0.00     0.031 A 
ATOM     55  C   UNL A   1      45.485  30.741  28.343  1.00  0.00     0.049 A 
ATOM     56  C   UNL A   1      44.863  26.883  32.361  1.00  0.00     0.074 A 
ATOM     57  C   UNL A   1      46.539  30.561  27.464  1.00  0.00     0.029 A 
ATOM     58  N   UNL A   1      45.507  29.670  29.223  1.00  0.00    -0.354 N 
ATOM     59  N   UNL A   1      45.129  27.697  31.368  1.00  0.00    -0.248 NA
ATOM     60  C   UNL A   1      45.711  25.683  32.398  1.00  0.00     0.031 C 
ATOM     61  C   UNL A   1      47.164  29.350  27.779  1.00  0.00     0.029 A 
ATOM     62  C   UNL A   1      46.539  28.810  28.893  1.00  0.00     0.049 A 
ATOM     63  H   UNL A   1      44.880  29.541  29.971  1.00  0.00     0.167 HD
ATOM     64  C   UNL A   1      46.200  27.131  30.688  1.00  0.00     0.074 A 
ATOM     65  C   UNL A   1      46.529  25.899  31.376  1.00  0.00     0.031 C 
ATOM     66  C   UNL A   1      46.859  27.595  29.598  1.00  0.00     0.031 A 
BRANCH  53  67
ATOM     67  C   UNL A   1      44.568  32.871  27.321  1.00  0.00    -0.014 A 
ATOM     68  C   UNL A   1      43.955  32.692  26.071  1.00  0.00     0.009 A 
ATOM     69  C   UNL A   1      45.252  34.070  27.577  1.00  0.00     0.009 A 
ATOM     70  C   UNL A   1      44.071  33.671  25.081  1.00  0.00     0.001 A 
ATOM     71  C   UNL A   1      45.338  35.059  26.597  1.00  0.00     0.001 A 
ATOM     72  C   UNL A   1      44.760  34.854  25.345  1.00  0.00     0.000 A 
ENDBRANCH  53  67
BRANCH  54  73
ATOM     73  C   UNL A   1      43.715  25.996  34.519  1.00  0.00    -0.014 A 
ATOM     74  C   UNL A   1      44.432  26.148  35.715  1.00  0.00     0.009 A 
ATOM     75  C   UNL A   1      42.884  24.875  34.362  1.00  0.00     0.009 A 
ATOM     76  C   UNL A   1      44.328  25.191  36.728  1.00  0.00     0.001 A 
ATOM     77  C   UNL A   1      42.763  23.933  35.386  1.00  0.00     0.001 A 
ATOM     78  C   UNL A   1      43.489  24.089  36.565  1.00  0.00     0.000 A 
ENDBRANCH  54  73
BRANCH  66  79
ATOM     79  C   UNL A   1      48.044  26.809  29.114  1.00  0.00    -0.014 A 
ATOM     80  C   UNL A   1      49.324  27.002  29.651  1.00  0.00     0.009 A 
ATOM     81  C   UNL A   1      47.851  25.798  28.156  1.00  0.00     0.009 A 
ATOM     82  C   UNL A   1      50.393  26.209  29.226  1.00  0.00     0.001 A 
ATOM     83  C   UNL A   1      48.914  24.991  27.753  1.00  0.00     0.001 A 
ATOM     84  C   UNL A   1      50.185  25.200  28.284  1.00  0.00     0.000 A 
ENDBRANCH  66  79
ENDBRANCH  40  41
ENDBRANCH  33  35
ENDBRANCH  32  33
ENDBRANCH  31  32
ENDBRANCH  30  31
ENDBRANCH   1  30
TORSDOF 18
ENDMDL
