MODEL 1
REMARK VINA RESULT:     -10.3      0.000      0.000
REMARK SMILES O=C(CC1(CC(=O)OCCOCCOC(=O)c2ccc(-c3c4nc(c(-c5ccccc5)c5ccc([nH]5)c(-c5ccccc5)c5nc(c(-c6ccccc6)c6ccc3[nH]6)C=C5)C=C4)cc2)CCCC1)NNc1ccc([N+](=O)[O-])cc1
REMARK SMILES IDX 9 1 8 2 6 3 7 4 5 5 4 6 65 7 68 8 66 9 67 10 3 11 2 12 1 13
REMARK SMILES IDX 69 14 70 16 71 18 72 19 79 20 73 21 78 22 74 23 75 24 76 25
REMARK SMILES IDX 77 26 10 27 11 28 12 29 13 30 14 31 15 32 16 33 17 34 18 35
REMARK SMILES IDX 64 36 19 37 63 38 20 39 21 40 22 41 57 42 23 43 62 44 56 45
REMARK SMILES IDX 58 46 24 47 61 48 55 49 54 50 25 52 47 53 32 54 46 55 33 56
REMARK SMILES IDX 36 57 45 58 59 59 34 60 35 61 44 63 60 64 37 65 26 66 27 67
REMARK SMILES IDX 31 68 28 69 30 70 29 71 48 72 49 73 53 74 50 75 52 76 51 77
REMARK SMILES IDX 38 78 39 79 43 80 40 81 42 82 41 83
REMARK H PARENT 69 15 70 17 58 51 36 62
REMARK Flexibility Score: inf
ROOT
ATOM      1  C   UNL A   1      32.750  28.223  26.573  1.00  0.00     0.261 C 
ENDROOT
BRANCH   1   2
ATOM      2  O   UNL A   1      32.656  27.560  25.292  1.00  0.00    -0.463 OA
BRANCH   2   3
ATOM      3  C   UNL A   1      33.445  26.485  25.068  1.00  0.00     0.306 C 
ATOM      4  O   UNL A   1      34.414  26.181  25.754  1.00  0.00    -0.252 OA
BRANCH   3   5
ATOM      5  C   UNL A   1      32.987  25.627  23.882  1.00  0.00     0.130 C 
BRANCH   5   6
ATOM      6  C   UNL A   1      32.401  24.210  24.143  1.00  0.00    -0.010 C 
ATOM      7  C   UNL A   1      33.500  23.203  24.597  1.00  0.00     0.008 C 
ATOM      8  C   UNL A   1      31.986  23.499  22.831  1.00  0.00     0.008 C 
ATOM      9  C   UNL A   1      34.255  22.776  23.347  1.00  0.00     0.001 C 
ATOM     10  C   UNL A   1      33.320  23.094  22.186  1.00  0.00     0.001 C 
BRANCH   6  11
ATOM     11  C   UNL A   1      31.394  24.219  25.317  1.00  0.00     0.109 C 
BRANCH  11  12
ATOM     12  C   UNL A   1      30.234  25.169  25.276  1.00  0.00     0.238 C 
ATOM     13  O   UNL A   1      29.916  25.752  26.306  1.00  0.00    -0.273 OA
ATOM     14  N   UNL A   1      29.616  25.375  24.051  1.00  0.00    -0.270 N 
ATOM     15  H   UNL A   1      29.925  24.928  23.231  1.00  0.00     0.191 HD
BRANCH  14  16
ATOM     16  N   UNL A   1      28.526  26.255  24.047  1.00  0.00    -0.299 N 
ATOM     17  H   UNL A   1      27.682  25.978  24.473  1.00  0.00     0.188 HD
BRANCH  16  18
ATOM     18  C   UNL A   1      28.610  27.528  23.446  1.00  0.00     0.055 A 
ATOM     19  C   UNL A   1      27.430  28.300  23.392  1.00  0.00     0.034 A 
ATOM     20  C   UNL A   1      29.782  28.094  22.936  1.00  0.00     0.034 A 
ATOM     21  C   UNL A   1      27.409  29.581  22.829  1.00  0.00     0.088 A 
ATOM     22  C   UNL A   1      29.773  29.368  22.344  1.00  0.00     0.088 A 
ATOM     23  C   UNL A   1      28.588  30.112  22.303  1.00  0.00     0.269 A 
BRANCH  23  24
ATOM     24  N   UNL A   1      28.583  31.458  21.715  1.00  0.00     0.062 N 
ATOM     25  O   UNL A   1      28.148  31.582  20.560  1.00  0.00    -0.258 OA
ATOM     26  O   UNL A   1      29.007  32.393  22.408  1.00  0.00    -0.258 OA
ENDBRANCH  23  24
ENDBRANCH  16  18
ENDBRANCH  14  16
ENDBRANCH  11  12
ENDBRANCH   6  11
ENDBRANCH   5   6
ENDBRANCH   3   5
ENDBRANCH   2   3
ENDBRANCH   1   2
BRANCH   1  27
ATOM     27  C   UNL A   1      32.902  29.739  26.334  1.00  0.00     0.202 C 
BRANCH  27  28
ATOM     28  O   UNL A   1      32.003  30.507  27.135  1.00  0.00    -0.374 OA
BRANCH  28  29
ATOM     29  C   UNL A   1      31.376  31.658  26.538  1.00  0.00     0.202 C 
BRANCH  29  30
ATOM     30  C   UNL A   1      31.870  33.077  26.928  1.00  0.00     0.261 C 
BRANCH  30  31
ATOM     31  O   UNL A   1      33.091  33.069  27.669  1.00  0.00    -0.460 OA
BRANCH  31  32
ATOM     32  C   UNL A   1      33.294  34.194  28.379  1.00  0.00     0.338 C 
ATOM     33  O   UNL A   1      32.532  35.137  28.511  1.00  0.00    -0.246 OA
BRANCH  32  34
ATOM     34  C   UNL A   1      34.491  33.993  29.202  1.00  0.00     0.060 A 
ATOM     35  C   UNL A   1      35.719  34.297  28.606  1.00  0.00     0.016 A 
ATOM     36  C   UNL A   1      34.416  33.509  30.512  1.00  0.00     0.016 A 
ATOM     37  C   UNL A   1      36.893  33.993  29.272  1.00  0.00     0.010 A 
ATOM     38  C   UNL A   1      35.596  33.194  31.179  1.00  0.00     0.010 A 
ATOM     39  C   UNL A   1      36.825  33.363  30.520  1.00  0.00    -0.014 A 
BRANCH  39  40
ATOM     40  C   UNL A   1      38.012  32.616  30.973  1.00  0.00     0.031 A 
ATOM     41  C   UNL A   1      38.717  33.115  32.204  1.00  0.00     0.074 A 
ATOM     42  C   UNL A   1      38.380  31.482  30.361  1.00  0.00     0.049 A 
ATOM     43  N   UNL A   1      39.767  32.629  32.812  1.00  0.00    -0.248 NA
ATOM     44  C   UNL A   1      38.161  34.324  32.841  1.00  0.00     0.031 C 
ATOM     45  C   UNL A   1      37.711  30.885  29.206  1.00  0.00     0.029 A 
ATOM     46  N   UNL A   1      39.409  30.626  30.642  1.00  0.00    -0.354 N 
ATOM     47  C   UNL A   1      40.000  33.478  33.887  1.00  0.00     0.074 A 
ATOM     48  C   UNL A   1      39.008  34.525  33.837  1.00  0.00     0.031 C 
ATOM     49  C   UNL A   1      38.354  29.753  28.874  1.00  0.00     0.029 A 
ATOM     50  C   UNL A   1      39.493  29.571  29.769  1.00  0.00     0.049 A 
ATOM     51  H   UNL A   1      40.029  30.753  31.397  1.00  0.00     0.167 HD
ATOM     52  C   UNL A   1      40.958  33.386  34.837  1.00  0.00     0.031 A 
ATOM     53  C   UNL A   1      40.408  28.587  29.697  1.00  0.00     0.031 A 
ATOM     54  C   UNL A   1      41.941  32.340  34.870  1.00  0.00     0.049 A 
ATOM     55  C   UNL A   1      41.512  28.552  30.720  1.00  0.00     0.074 A 
ATOM     56  C   UNL A   1      42.959  32.140  35.784  1.00  0.00     0.029 A 
ATOM     57  N   UNL A   1      42.028  31.317  33.938  1.00  0.00    -0.354 N 
ATOM     58  N   UNL A   1      41.723  29.354  31.737  1.00  0.00    -0.248 NA
ATOM     59  C   UNL A   1      42.498  27.472  30.587  1.00  0.00     0.031 C 
ATOM     60  C   UNL A   1      43.699  31.029  35.370  1.00  0.00     0.029 A 
ATOM     61  C   UNL A   1      43.101  30.499  34.235  1.00  0.00     0.049 A 
ATOM     62  H   UNL A   1      41.416  31.193  33.176  1.00  0.00     0.167 HD
ATOM     63  C   UNL A   1      42.849  28.860  32.382  1.00  0.00     0.074 A 
ATOM     64  C   UNL A   1      43.264  27.680  31.649  1.00  0.00     0.031 C 
ATOM     65  C   UNL A   1      43.487  29.333  33.483  1.00  0.00     0.031 A 
BRANCH  52  66
ATOM     66  C   UNL A   1      41.013  34.469  35.877  1.00  0.00    -0.014 A 
ATOM     67  C   UNL A   1      41.813  35.611  35.710  1.00  0.00     0.009 A 
ATOM     68  C   UNL A   1      40.234  34.351  37.039  1.00  0.00     0.009 A 
ATOM     69  C   UNL A   1      41.854  36.597  36.700  1.00  0.00     0.001 A 
ATOM     70  C   UNL A   1      40.254  35.351  38.012  1.00  0.00     0.001 A 
ATOM     71  C   UNL A   1      41.070  36.469  37.846  1.00  0.00     0.000 A 
ENDBRANCH  52  66
BRANCH  53  72
ATOM     72  C   UNL A   1      40.334  27.583  28.606  1.00  0.00    -0.014 A 
ATOM     73  C   UNL A   1      40.965  27.807  27.374  1.00  0.00     0.009 A 
ATOM     74  C   UNL A   1      39.620  26.387  28.795  1.00  0.00     0.009 A 
ATOM     75  C   UNL A   1      40.859  26.866  26.345  1.00  0.00     0.001 A 
ATOM     76  C   UNL A   1      39.543  25.437  27.777  1.00  0.00     0.001 A 
ATOM     77  C   UNL A   1      40.153  25.681  26.549  1.00  0.00     0.000 A 
ENDBRANCH  53  72
BRANCH  65  78
ATOM     78  C   UNL A   1      44.671  28.553  33.976  1.00  0.00    -0.014 A 
ATOM     79  C   UNL A   1      45.974  28.862  33.559  1.00  0.00     0.009 A 
ATOM     80  C   UNL A   1      44.478  27.523  34.911  1.00  0.00     0.009 A 
ATOM     81  C   UNL A   1      47.059  28.130  34.043  1.00  0.00     0.001 A 
ATOM     82  C   UNL A   1      45.569  26.816  35.417  1.00  0.00     0.001 A 
ATOM     83  C   UNL A   1      46.856  27.113  34.974  1.00  0.00     0.000 A 
ENDBRANCH  65  78
ENDBRANCH  39  40
ENDBRANCH  32  34
ENDBRANCH  31  32
ENDBRANCH  30  31
ENDBRANCH  29  30
ENDBRANCH  28  29
ENDBRANCH  27  28
ENDBRANCH   1  27
TORSDOF 20
ENDMDL
MODEL 2
REMARK VINA RESULT:     -10.3      1.150      6.003
REMARK SMILES O=C(CC1(CC(=O)OCCOCCOC(=O)c2ccc(-c3c4nc(c(-c5ccccc5)c5ccc([nH]5)c(-c5ccccc5)c5nc(c(-c6ccccc6)c6ccc3[nH]6)C=C5)C=C4)cc2)CCCC1)NNc1ccc([N+](=O)[O-])cc1
REMARK SMILES IDX 9 1 8 2 6 3 7 4 5 5 4 6 65 7 68 8 66 9 67 10 3 11 2 12 1 13
REMARK SMILES IDX 69 14 70 16 71 18 72 19 79 20 73 21 78 22 74 23 75 24 76 25
REMARK SMILES IDX 77 26 10 27 11 28 12 29 13 30 14 31 15 32 16 33 17 34 18 35
REMARK SMILES IDX 64 36 19 37 63 38 20 39 21 40 22 41 57 42 23 43 62 44 56 45
REMARK SMILES IDX 58 46 24 47 61 48 55 49 54 50 25 52 47 53 32 54 46 55 33 56
REMARK SMILES IDX 36 57 45 58 59 59 34 60 35 61 44 63 60 64 37 65 26 66 27 67
REMARK SMILES IDX 31 68 28 69 30 70 29 71 48 72 49 73 53 74 50 75 52 76 51 77
REMARK SMILES IDX 38 78 39 79 43 80 40 81 42 82 41 83
REMARK H PARENT 69 15 70 17 58 51 36 62
REMARK Flexibility Score: inf
ROOT
ATOM      1  C   UNL A   1      32.406  27.856  25.897  1.00  0.00     0.261 C 
ENDROOT
BRANCH   1   2
ATOM      2  O   UNL A   1      31.454  26.771  25.974  1.00  0.00    -0.463 OA
BRANCH   2   3
ATOM      3  C   UNL A   1      31.913  25.536  26.279  1.00  0.00     0.306 C 
ATOM      4  O   UNL A   1      31.224  24.634  26.740  1.00  0.00    -0.252 OA
BRANCH   3   5
ATOM      5  C   UNL A   1      33.397  25.336  25.945  1.00  0.00     0.130 C 
BRANCH   5   6
ATOM      6  C   UNL A   1      33.813  24.214  24.951  1.00  0.00    -0.010 C 
ATOM      7  C   UNL A   1      33.745  22.803  25.609  1.00  0.00     0.008 C 
ATOM      8  C   UNL A   1      35.332  24.237  24.650  1.00  0.00     0.008 C 
ATOM      9  C   UNL A   1      34.991  22.652  26.468  1.00  0.00     0.001 C 
ATOM     10  C   UNL A   1      35.978  23.680  25.927  1.00  0.00     0.001 C 
BRANCH   6  11
ATOM     11  C   UNL A   1      32.835  24.119  23.758  1.00  0.00     0.109 C 
BRANCH  11  12
ATOM     12  C   UNL A   1      32.649  25.313  22.869  1.00  0.00     0.238 C 
ATOM     13  O   UNL A   1      33.566  25.637  22.123  1.00  0.00    -0.273 OA
ATOM     14  N   UNL A   1      31.420  25.955  22.904  1.00  0.00    -0.270 N 
ATOM     15  H   UNL A   1      30.686  25.642  23.480  1.00  0.00     0.191 HD
BRANCH  14  16
ATOM     16  N   UNL A   1      31.282  27.076  22.076  1.00  0.00    -0.299 N 
ATOM     17  H   UNL A   1      31.842  27.150  21.269  1.00  0.00     0.188 HD
BRANCH  16  18
ATOM     18  C   UNL A   1      30.360  28.101  22.372  1.00  0.00     0.055 A 
ATOM     19  C   UNL A   1      30.658  29.398  21.902  1.00  0.00     0.034 A 
ATOM     20  C   UNL A   1      29.158  27.918  23.061  1.00  0.00     0.034 A 
ATOM     21  C   UNL A   1      29.803  30.482  22.131  1.00  0.00     0.088 A 
ATOM     22  C   UNL A   1      28.300  29.000  23.321  1.00  0.00     0.088 A 
ATOM     23  C   UNL A   1      28.620  30.277  22.845  1.00  0.00     0.269 A 
BRANCH  23  24
ATOM     24  N   UNL A   1      27.709  31.403  23.086  1.00  0.00     0.062 N 
ATOM     25  O   UNL A   1      27.828  32.407  22.366  1.00  0.00    -0.258 OA
ATOM     26  O   UNL A   1      26.869  31.284  23.989  1.00  0.00    -0.258 OA
ENDBRANCH  23  24
ENDBRANCH  16  18
ENDBRANCH  14  16
ENDBRANCH  11  12
ENDBRANCH   6  11
ENDBRANCH   5   6
ENDBRANCH   3   5
ENDBRANCH   2   3
ENDBRANCH   1   2
BRANCH   1  27
ATOM     27  C   UNL A   1      31.646  29.160  25.585  1.00  0.00     0.202 C 
BRANCH  27  28
ATOM     28  O   UNL A   1      32.022  30.229  26.454  1.00  0.00    -0.374 OA
BRANCH  28  29
ATOM     29  C   UNL A   1      33.406  30.339  26.837  1.00  0.00     0.202 C 
BRANCH  29  30
ATOM     30  C   UNL A   1      33.825  31.424  27.864  1.00  0.00     0.261 C 
BRANCH  30  31
ATOM     31  O   UNL A   1      33.808  32.748  27.328  1.00  0.00    -0.460 OA
BRANCH  31  32
ATOM     32  C   UNL A   1      33.650  33.702  28.264  1.00  0.00     0.338 C 
ATOM     33  O   UNL A   1      32.654  34.373  28.480  1.00  0.00    -0.246 OA
BRANCH  32  34
ATOM     34  C   UNL A   1      34.796  33.629  29.176  1.00  0.00     0.060 A 
ATOM     35  C   UNL A   1      36.035  34.014  28.657  1.00  0.00     0.016 A 
ATOM     36  C   UNL A   1      34.664  33.182  30.495  1.00  0.00     0.016 A 
ATOM     37  C   UNL A   1      37.177  33.830  29.415  1.00  0.00     0.010 A 
ATOM     38  C   UNL A   1      35.813  32.988  31.255  1.00  0.00     0.010 A 
ATOM     39  C   UNL A   1      37.069  33.238  30.679  1.00  0.00    -0.014 A 
BRANCH  39  40
ATOM     40  C   UNL A   1      38.276  32.608  31.242  1.00  0.00     0.031 A 
ATOM     41  C   UNL A   1      38.784  31.360  30.573  1.00  0.00     0.074 A 
ATOM     42  C   UNL A   1      38.943  33.187  32.250  1.00  0.00     0.049 A 
ATOM     43  N   UNL A   1      39.829  30.631  30.863  1.00  0.00    -0.248 NA
ATOM     44  C   UNL A   1      38.013  30.869  29.416  1.00  0.00     0.031 C 
ATOM     45  C   UNL A   1      38.565  34.436  32.910  1.00  0.00     0.029 A 
ATOM     46  N   UNL A   1      40.091  32.799  32.884  1.00  0.00    -0.354 N 
ATOM     47  C   UNL A   1      39.828  29.595  29.937  1.00  0.00     0.074 A 
ATOM     48  C   UNL A   1      38.670  29.767  29.094  1.00  0.00     0.031 C 
ATOM     49  C   UNL A   1      39.470  34.710  33.865  1.00  0.00     0.029 A 
ATOM     50  C   UNL A   1      40.462  33.640  33.901  1.00  0.00     0.049 A 
ATOM     51  H   UNL A   1      40.601  31.994  32.635  1.00  0.00     0.167 HD
ATOM     52  C   UNL A   1      40.723  28.591  29.800  1.00  0.00     0.031 A 
ATOM     53  C   UNL A   1      41.482  33.534  34.773  1.00  0.00     0.031 A 
ATOM     54  C   UNL A   1      41.869  28.431  30.651  1.00  0.00     0.049 A 
ATOM     55  C   UNL A   1      42.419  32.363  34.650  1.00  0.00     0.074 A 
ATOM     56  C   UNL A   1      42.847  27.455  30.607  1.00  0.00     0.029 A 
ATOM     57  N   UNL A   1      42.185  29.274  31.706  1.00  0.00    -0.354 N 
ATOM     58  N   UNL A   1      42.417  31.391  33.768  1.00  0.00    -0.248 NA
ATOM     59  C   UNL A   1      43.502  32.279  35.638  1.00  0.00     0.031 C 
ATOM     60  C   UNL A   1      43.723  27.674  31.674  1.00  0.00     0.029 A 
ATOM     61  C   UNL A   1      43.326  28.824  32.341  1.00  0.00     0.049 A 
ATOM     62  H   UNL A   1      41.671  30.073  31.963  1.00  0.00     0.167 HD
ATOM     63  C   UNL A   1      43.512  30.595  34.077  1.00  0.00     0.074 A 
ATOM     64  C   UNL A   1      44.163  31.210  35.217  1.00  0.00     0.031 C 
ATOM     65  C   UNL A   1      43.947  29.460  33.475  1.00  0.00     0.031 A 
BRANCH  52  66
ATOM     66  C   UNL A   1      40.464  27.570  28.729  1.00  0.00    -0.014 A 
ATOM     67  C   UNL A   1      40.995  27.706  27.436  1.00  0.00     0.009 A 
ATOM     68  C   UNL A   1      39.686  26.439  29.026  1.00  0.00     0.009 A 
ATOM     69  C   UNL A   1      40.727  26.747  26.456  1.00  0.00     0.001 A 
ATOM     70  C   UNL A   1      39.445  25.468  28.053  1.00  0.00     0.001 A 
ATOM     71  C   UNL A   1      39.958  25.626  26.767  1.00  0.00     0.000 A 
ENDBRANCH  52  66
BRANCH  53  72
ATOM     72  C   UNL A   1      41.645  34.544  35.850  1.00  0.00    -0.014 A 
ATOM     73  C   UNL A   1      42.415  35.698  35.647  1.00  0.00     0.009 A 
ATOM     74  C   UNL A   1      41.030  34.351  37.098  1.00  0.00     0.009 A 
ATOM     75  C   UNL A   1      42.586  36.624  36.680  1.00  0.00     0.001 A 
ATOM     76  C   UNL A   1      41.177  35.291  38.117  1.00  0.00     0.001 A 
ATOM     77  C   UNL A   1      41.964  36.422  37.912  1.00  0.00     0.000 A 
ENDBRANCH  53  72
BRANCH  65  78
ATOM     78  C   UNL A   1      45.201  28.836  34.016  1.00  0.00    -0.014 A 
ATOM     79  C   UNL A   1      45.154  27.844  35.007  1.00  0.00     0.009 A 
ATOM     80  C   UNL A   1      46.445  29.216  33.487  1.00  0.00     0.009 A 
ATOM     81  C   UNL A   1      46.333  27.270  35.483  1.00  0.00     0.001 A 
ATOM     82  C   UNL A   1      47.619  28.616  33.943  1.00  0.00     0.001 A 
ATOM     83  C   UNL A   1      47.563  27.653  34.948  1.00  0.00     0.000 A 
ENDBRANCH  65  78
ENDBRANCH  39  40
ENDBRANCH  32  34
ENDBRANCH  31  32
ENDBRANCH  30  31
ENDBRANCH  29  30
ENDBRANCH  28  29
ENDBRANCH  27  28
ENDBRANCH   1  27
TORSDOF 20
ENDMDL
MODEL 3
REMARK VINA RESULT:     -10.0      5.019      9.097
REMARK SMILES O=C(CC1(CC(=O)OCCOCCOC(=O)c2ccc(-c3c4nc(c(-c5ccccc5)c5ccc([nH]5)c(-c5ccccc5)c5nc(c(-c6ccccc6)c6ccc3[nH]6)C=C5)C=C4)cc2)CCCC1)NNc1ccc([N+](=O)[O-])cc1
REMARK SMILES IDX 9 1 8 2 6 3 7 4 5 5 4 6 65 7 68 8 66 9 67 10 3 11 2 12 1 13
REMARK SMILES IDX 69 14 70 16 71 18 72 19 79 20 73 21 78 22 74 23 75 24 76 25
REMARK SMILES IDX 77 26 10 27 11 28 12 29 13 30 14 31 15 32 16 33 17 34 18 35
REMARK SMILES IDX 64 36 19 37 63 38 20 39 21 40 22 41 57 42 23 43 62 44 56 45
REMARK SMILES IDX 58 46 24 47 61 48 55 49 54 50 25 52 47 53 32 54 46 55 33 56
REMARK SMILES IDX 36 57 45 58 59 59 34 60 35 61 44 63 60 64 37 65 26 66 27 67
REMARK SMILES IDX 31 68 28 69 30 70 29 71 48 72 49 73 53 74 50 75 52 76 51 77
REMARK SMILES IDX 38 78 39 79 43 80 40 81 42 82 41 83
REMARK H PARENT 69 15 70 17 58 51 36 62
REMARK Flexibility Score: inf
ROOT
ATOM      1  C   UNL A   1      35.594  23.611  24.496  1.00  0.00     0.261 C 
ENDROOT
BRANCH   1   2
ATOM      2  O   UNL A   1      35.139  23.856  23.146  1.00  0.00    -0.463 OA
BRANCH   2   3
ATOM      3  C   UNL A   1      34.001  24.567  22.972  1.00  0.00     0.306 C 
ATOM      4  O   UNL A   1      33.792  25.321  22.029  1.00  0.00    -0.252 OA
BRANCH   3   5
ATOM      5  C   UNL A   1      32.947  24.305  24.054  1.00  0.00     0.130 C 
BRANCH   5   6
ATOM      6  C   UNL A   1      31.737  23.381  23.737  1.00  0.00    -0.010 C 
ATOM      7  C   UNL A   1      31.181  22.693  25.020  1.00  0.00     0.008 C 
ATOM      8  C   UNL A   1      32.166  22.100  22.977  1.00  0.00     0.008 C 
ATOM      9  C   UNL A   1      32.116  21.538  25.347  1.00  0.00     0.001 C 
ATOM     10  C   UNL A   1      32.854  21.241  24.048  1.00  0.00     0.001 C 
BRANCH   6  11
ATOM     11  C   UNL A   1      30.534  24.183  23.191  1.00  0.00     0.109 C 
BRANCH  11  12
ATOM     12  C   UNL A   1      30.468  25.660  23.444  1.00  0.00     0.238 C 
ATOM     13  O   UNL A   1      29.917  26.056  24.466  1.00  0.00    -0.273 OA
ATOM     14  N   UNL A   1      31.086  26.498  22.527  1.00  0.00    -0.270 N 
ATOM     15  H   UNL A   1      31.562  26.147  21.741  1.00  0.00     0.191 HD
BRANCH  14  16
ATOM     16  N   UNL A   1      30.994  27.872  22.782  1.00  0.00    -0.299 N 
ATOM     17  H   UNL A   1      30.460  28.439  22.179  1.00  0.00     0.188 HD
BRANCH  16  18
ATOM     18  C   UNL A   1      31.648  28.462  23.884  1.00  0.00     0.055 A 
ATOM     19  C   UNL A   1      33.019  28.178  24.053  1.00  0.00     0.034 A 
ATOM     20  C   UNL A   1      31.045  29.335  24.795  1.00  0.00     0.034 A 
ATOM     21  C   UNL A   1      33.763  28.723  25.106  1.00  0.00     0.088 A 
ATOM     22  C   UNL A   1      31.771  29.871  25.873  1.00  0.00     0.088 A 
ATOM     23  C   UNL A   1      33.131  29.572  26.017  1.00  0.00     0.269 A 
BRANCH  23  24
ATOM     24  N   UNL A   1      33.900  30.157  27.123  1.00  0.00     0.062 N 
ATOM     25  O   UNL A   1      34.536  29.385  27.857  1.00  0.00    -0.258 OA
ATOM     26  O   UNL A   1      33.877  31.389  27.256  1.00  0.00    -0.258 OA
ENDBRANCH  23  24
ENDBRANCH  16  18
ENDBRANCH  14  16
ENDBRANCH  11  12
ENDBRANCH   6  11
ENDBRANCH   5   6
ENDBRANCH   3   5
ENDBRANCH   2   3
ENDBRANCH   1   2
BRANCH   1  27
ATOM     27  C   UNL A   1      36.959  22.897  24.436  1.00  0.00     0.202 C 
BRANCH  27  28
ATOM     28  O   UNL A   1      36.831  21.476  24.488  1.00  0.00    -0.374 OA
BRANCH  28  29
ATOM     29  C   UNL A   1      37.937  20.712  25.004  1.00  0.00     0.202 C 
BRANCH  29  30
ATOM     30  C   UNL A   1      39.019  21.427  25.856  1.00  0.00     0.261 C 
BRANCH  30  31
ATOM     31  O   UNL A   1      39.657  20.566  26.802  1.00  0.00    -0.460 OA
BRANCH  31  32
ATOM     32  C   UNL A   1      40.815  20.046  26.357  1.00  0.00     0.338 C 
ATOM     33  O   UNL A   1      40.975  19.003  25.745  1.00  0.00    -0.246 OA
BRANCH  32  34
ATOM     34  C   UNL A   1      41.850  21.076  26.495  1.00  0.00     0.060 A 
ATOM     35  C   UNL A   1      42.153  21.490  27.795  1.00  0.00     0.016 A 
ATOM     36  C   UNL A   1      42.494  21.630  25.384  1.00  0.00     0.016 A 
ATOM     37  C   UNL A   1      43.010  22.559  27.987  1.00  0.00     0.010 A 
ATOM     38  C   UNL A   1      43.349  22.711  25.575  1.00  0.00     0.010 A 
ATOM     39  C   UNL A   1      43.537  23.219  26.871  1.00  0.00    -0.014 A 
BRANCH  39  40
ATOM     40  C   UNL A   1      44.015  24.600  27.059  1.00  0.00     0.031 A 
ATOM     41  C   UNL A   1      43.025  25.615  27.561  1.00  0.00     0.074 A 
ATOM     42  C   UNL A   1      45.307  24.906  26.879  1.00  0.00     0.049 A 
ATOM     43  N   UNL A   1      43.199  26.883  27.823  1.00  0.00    -0.248 NA
ATOM     44  C   UNL A   1      41.652  25.135  27.807  1.00  0.00     0.031 C 
ATOM     45  C   UNL A   1      46.352  23.970  26.465  1.00  0.00     0.029 A 
ATOM     46  N   UNL A   1      45.959  26.098  27.037  1.00  0.00    -0.354 N 
ATOM     47  C   UNL A   1      41.961  27.348  28.248  1.00  0.00     0.074 A 
ATOM     48  C   UNL A   1      41.036  26.243  28.183  1.00  0.00     0.031 C 
ATOM     49  C   UNL A   1      47.521  24.630  26.399  1.00  0.00     0.029 A 
ATOM     50  C   UNL A   1      47.294  26.033  26.731  1.00  0.00     0.049 A 
ATOM     51  H   UNL A   1      45.514  26.922  27.342  1.00  0.00     0.167 HD
ATOM     52  C   UNL A   1      41.628  28.592  28.663  1.00  0.00     0.031 A 
ATOM     53  C   UNL A   1      48.217  27.013  26.703  1.00  0.00     0.031 A 
ATOM     54  C   UNL A   1      42.559  29.683  28.717  1.00  0.00     0.049 A 
ATOM     55  C   UNL A   1      47.803  28.406  27.093  1.00  0.00     0.074 A 
ATOM     56  C   UNL A   1      42.340  30.986  29.123  1.00  0.00     0.029 A 
ATOM     57  N   UNL A   1      43.893  29.593  28.348  1.00  0.00    -0.354 N 
ATOM     58  N   UNL A   1      46.632  28.838  27.500  1.00  0.00    -0.248 NA
ATOM     59  C   UNL A   1      48.839  29.444  27.026  1.00  0.00     0.031 C 
ATOM     60  C   UNL A   1      43.528  31.701  28.941  1.00  0.00     0.029 A 
ATOM     61  C   UNL A   1      44.503  30.825  28.486  1.00  0.00     0.049 A 
ATOM     62  H   UNL A   1      44.338  28.773  28.033  1.00  0.00     0.167 HD
ATOM     63  C   UNL A   1      46.797  30.191  27.764  1.00  0.00     0.074 A 
ATOM     64  C   UNL A   1      48.186  30.502  27.486  1.00  0.00     0.031 C 
ATOM     65  C   UNL A   1      45.888  31.100  28.198  1.00  0.00     0.031 A 
BRANCH  52  66
ATOM     66  C   UNL A   1      40.194  28.840  29.036  1.00  0.00    -0.014 A 
ATOM     67  C   UNL A   1      39.728  28.644  30.346  1.00  0.00     0.009 A 
ATOM     68  C   UNL A   1      39.295  29.296  28.058  1.00  0.00     0.009 A 
ATOM     69  C   UNL A   1      38.385  28.872  30.661  1.00  0.00     0.001 A 
ATOM     70  C   UNL A   1      37.962  29.550  28.383  1.00  0.00     0.001 A 
ATOM     71  C   UNL A   1      37.506  29.330  29.681  1.00  0.00     0.000 A 
ENDBRANCH  52  66
BRANCH  53  72
ATOM     72  C   UNL A   1      49.603  26.714  26.264  1.00  0.00    -0.014 A 
ATOM     73  C   UNL A   1      50.543  26.173  27.154  1.00  0.00     0.009 A 
ATOM     74  C   UNL A   1      49.996  26.976  24.940  1.00  0.00     0.009 A 
ATOM     75  C   UNL A   1      51.853  25.927  26.734  1.00  0.00     0.001 A 
ATOM     76  C   UNL A   1      51.296  26.700  24.516  1.00  0.00     0.001 A 
ATOM     77  C   UNL A   1      52.227  26.186  25.415  1.00  0.00     0.000 A 
ENDBRANCH  53  72
BRANCH  65  78
ATOM     78  C   UNL A   1      46.378  32.500  28.434  1.00  0.00    -0.014 A 
ATOM     79  C   UNL A   1      46.411  33.445  27.398  1.00  0.00     0.009 A 
ATOM     80  C   UNL A   1      46.766  32.887  29.726  1.00  0.00     0.009 A 
ATOM     81  C   UNL A   1      46.858  34.743  27.646  1.00  0.00     0.001 A 
ATOM     82  C   UNL A   1      47.181  34.195  29.977  1.00  0.00     0.001 A 
ATOM     83  C   UNL A   1      47.237  35.118  28.935  1.00  0.00     0.000 A 
ENDBRANCH  65  78
ENDBRANCH  39  40
ENDBRANCH  32  34
ENDBRANCH  31  32
ENDBRANCH  30  31
ENDBRANCH  29  30
ENDBRANCH  28  29
ENDBRANCH  27  28
ENDBRANCH   1  27
TORSDOF 20
ENDMDL
