MODEL 1
REMARK VINA RESULT:     -12.0      0.000      0.000
REMARK SMILES CS(=O)(=O)c1ccc(C2=NN(c3ccc(C(=O)OCCOCCOC(=O)c4ccc(-c5c6nc(c(-c7ccccc7)c7ccc([nH]7)c(-c7ccccc7)c7nc(c(-c8ccccc8)c8ccc5[nH]8)C=C7)C=C6)cc4)cc3)[C@H](c3cccs3)C2)cc1
REMARK SMILES IDX 20 1 19 2 18 3 16 4 17 5 15 6 12 7 13 8 76 9 14 10 75 11
REMARK SMILES IDX 11 12 9 13 10 14 83 15 77 16 8 17 5 18 6 19 85 20 7 21 84 22
REMARK SMILES IDX 2 23 1 24 3 25 4 26 78 27 79 28 82 29 80 30 81 31 21 32
REMARK SMILES IDX 22 33 23 34 24 35 25 36 26 37 27 38 28 39 74 40 29 41 73 42
REMARK SMILES IDX 30 43 31 44 32 45 67 46 33 47 72 48 66 49 68 50 34 51 71 52
REMARK SMILES IDX 65 53 64 54 35 56 57 57 42 58 56 59 43 60 46 61 55 62 69 63
REMARK SMILES IDX 44 64 45 65 54 67 70 68 47 69 36 70 37 71 41 72 38 73 40 74
REMARK SMILES IDX 39 75 58 76 59 77 63 78 60 79 62 80 61 81 48 82 49 83 53 84
REMARK SMILES IDX 50 85 52 86 51 87
REMARK H PARENT 68 55 46 66
REMARK Flexibility Score: inf
ROOT
ATOM      1  C   UNL A   1      42.364  20.329  26.366  1.00  0.00     0.202 C 
ENDROOT
BRANCH   1   2
ATOM      2  C   UNL A   1      40.851  20.116  26.293  1.00  0.00     0.261 C 
BRANCH   2   3
ATOM      3  O   UNL A   1      40.214  21.235  25.657  1.00  0.00    -0.460 OA
BRANCH   3   4
ATOM      4  C   UNL A   1      39.526  22.059  26.482  1.00  0.00     0.338 C 
ATOM      5  O   UNL A   1      39.932  22.554  27.524  1.00  0.00    -0.246 OA
BRANCH   4   6
ATOM      6  C   UNL A   1      38.212  22.402  25.887  1.00  0.00     0.060 A 
ATOM      7  C   UNL A   1      35.676  23.116  24.905  1.00  0.00     0.060 A 
ATOM      8  C   UNL A   1      36.381  23.985  25.743  1.00  0.00     0.029 A 
ATOM      9  C   UNL A   1      36.295  21.924  24.499  1.00  0.00     0.029 A 
ATOM     10  C   UNL A   1      37.634  23.627  26.242  1.00  0.00     0.018 A 
ATOM     11  C   UNL A   1      37.554  21.562  24.983  1.00  0.00     0.018 A 
BRANCH   7  12
ATOM     12  N   UNL A   1      34.341  23.360  24.560  1.00  0.00    -0.257 N 
ATOM     13  C   UNL A   1      32.729  24.753  24.470  1.00  0.00     0.071 C 
ATOM     14  N   UNL A   1      33.966  24.589  24.114  1.00  0.00    -0.176 NA
ATOM     15  C   UNL A   1      32.139  23.681  25.339  1.00  0.00     0.091 C 
ATOM     16  C   UNL A   1      33.310  22.693  25.377  1.00  0.00     0.154 C 
BRANCH  13  17
ATOM     17  C   UNL A   1      31.924  25.900  24.030  1.00  0.00    -0.002 A 
ATOM     18  C   UNL A   1      30.430  28.129  23.294  1.00  0.00     0.067 A 
ATOM     19  C   UNL A   1      30.724  27.915  24.642  1.00  0.00     0.021 A 
ATOM     20  C   UNL A   1      30.873  27.229  22.315  1.00  0.00     0.021 A 
ATOM     21  C   UNL A   1      31.464  26.789  25.008  1.00  0.00     0.011 A 
ATOM     22  C   UNL A   1      31.635  26.116  22.681  1.00  0.00     0.011 A 
BRANCH  18  23
ATOM     23  S   UNL A   1      29.476  29.530  22.755  1.00  0.00     0.175 S 
ATOM     24  C   UNL A   1      27.772  29.046  22.769  1.00  0.00     0.163 C 
ATOM     25  O   UNL A   1      29.843  29.767  21.371  1.00  0.00    -0.224 OA
ATOM     26  O   UNL A   1      29.655  30.555  23.765  1.00  0.00    -0.224 OA
ENDBRANCH  18  23
ENDBRANCH  13  17
BRANCH  16  27
ATOM     27  C   UNL A   1      33.007  21.268  24.958  1.00  0.00     0.030 A 
ATOM     28  C   UNL A   1      33.250  20.127  25.706  1.00  0.00     0.017 A 
ATOM     29  S   UNL A   1      32.418  20.859  23.400  1.00  0.00    -0.147 S 
ATOM     30  C   UNL A   1      32.975  18.928  24.993  1.00  0.00     0.012 A 
ATOM     31  C   UNL A   1      32.487  19.185  23.733  1.00  0.00     0.065 A 
ENDBRANCH  16  27
ENDBRANCH   7  12
ENDBRANCH   4   6
ENDBRANCH   3   4
ENDBRANCH   2   3
ENDBRANCH   1   2
BRANCH   1  32
ATOM     32  O   UNL A   1      43.104  19.903  25.221  1.00  0.00    -0.374 OA
BRANCH  32  33
ATOM     33  C   UNL A   1      44.260  20.669  24.875  1.00  0.00     0.202 C 
BRANCH  33  34
ATOM     34  C   UNL A   1      44.445  21.983  25.643  1.00  0.00     0.261 C 
BRANCH  34  35
ATOM     35  O   UNL A   1      43.798  23.084  24.979  1.00  0.00    -0.460 OA
BRANCH  35  36
ATOM     36  C   UNL A   1      44.409  24.280  25.136  1.00  0.00     0.338 C 
ATOM     37  O   UNL A   1      45.392  24.697  24.539  1.00  0.00    -0.246 OA
BRANCH  36  38
ATOM     38  C   UNL A   1      43.619  25.136  26.040  1.00  0.00     0.060 A 
ATOM     39  C   UNL A   1      44.062  26.451  26.233  1.00  0.00     0.016 A 
ATOM     40  C   UNL A   1      42.514  24.649  26.742  1.00  0.00     0.016 A 
ATOM     41  C   UNL A   1      43.435  27.268  27.171  1.00  0.00     0.010 A 
ATOM     42  C   UNL A   1      41.890  25.471  27.689  1.00  0.00     0.010 A 
ATOM     43  C   UNL A   1      42.372  26.769  27.933  1.00  0.00    -0.014 A 
BRANCH  43  44
ATOM     44  C   UNL A   1      41.864  27.559  29.081  1.00  0.00     0.031 A 
ATOM     45  C   UNL A   1      42.593  27.492  30.395  1.00  0.00     0.074 A 
ATOM     46  C   UNL A   1      40.791  28.358  28.947  1.00  0.00     0.049 A 
ATOM     47  N   UNL A   1      42.324  28.098  31.524  1.00  0.00    -0.248 NA
ATOM     48  C   UNL A   1      43.783  26.628  30.442  1.00  0.00     0.031 C 
ATOM     49  C   UNL A   1      40.024  28.546  27.716  1.00  0.00     0.029 A 
ATOM     50  N   UNL A   1      40.164  29.164  29.863  1.00  0.00    -0.354 N 
ATOM     51  C   UNL A   1      43.308  27.685  32.415  1.00  0.00     0.074 A 
ATOM     52  C   UNL A   1      44.160  26.756  31.706  1.00  0.00     0.031 C 
ATOM     53  C   UNL A   1      39.025  29.414  27.955  1.00  0.00     0.029 A 
ATOM     54  C   UNL A   1      39.067  29.818  29.360  1.00  0.00     0.049 A 
ATOM     55  H   UNL A   1      40.472  29.264  30.793  1.00  0.00     0.167 HD
ATOM     56  C   UNL A   1      43.491  28.052  33.705  1.00  0.00     0.031 A 
ATOM     57  C   UNL A   1      38.187  30.637  29.967  1.00  0.00     0.031 A 
ATOM     58  C   UNL A   1      42.639  28.966  34.419  1.00  0.00     0.049 A 
ATOM     59  C   UNL A   1      38.368  30.969  31.424  1.00  0.00     0.074 A 
ATOM     60  C   UNL A   1      42.751  29.409  35.726  1.00  0.00     0.029 A 
ATOM     61  N   UNL A   1      41.512  29.570  33.886  1.00  0.00    -0.354 N 
ATOM     62  N   UNL A   1      39.315  30.592  32.248  1.00  0.00    -0.248 NA
ATOM     63  C   UNL A   1      37.357  31.849  32.030  1.00  0.00     0.031 C 
ATOM     64  C   UNL A   1      41.660  30.241  35.999  1.00  0.00     0.029 A 
ATOM     65  C   UNL A   1      40.903  30.362  34.845  1.00  0.00     0.049 A 
ATOM     66  H   UNL A   1      41.191  29.454  32.962  1.00  0.00     0.167 HD
ATOM     67  C   UNL A   1      39.033  31.211  33.460  1.00  0.00     0.074 A 
ATOM     68  C   UNL A   1      37.833  31.997  33.260  1.00  0.00     0.031 C 
ATOM     69  C   UNL A   1      39.708  31.137  34.632  1.00  0.00     0.031 A 
BRANCH  56  70
ATOM     70  C   UNL A   1      44.647  27.433  34.441  1.00  0.00    -0.014 A 
ATOM     71  C   UNL A   1      45.908  28.049  34.467  1.00  0.00     0.009 A 
ATOM     72  C   UNL A   1      44.463  26.231  35.142  1.00  0.00     0.009 A 
ATOM     73  C   UNL A   1      46.971  27.454  35.152  1.00  0.00     0.001 A 
ATOM     74  C   UNL A   1      45.518  25.653  35.847  1.00  0.00     0.001 A 
ATOM     75  C   UNL A   1      46.774  26.260  35.844  1.00  0.00     0.000 A 
ENDBRANCH  56  70
BRANCH  57  76
ATOM     76  C   UNL A   1      37.040  31.194  29.204  1.00  0.00    -0.014 A 
ATOM     77  C   UNL A   1      35.931  30.394  28.893  1.00  0.00     0.009 A 
ATOM     78  C   UNL A   1      37.061  32.527  28.765  1.00  0.00     0.009 A 
ATOM     79  C   UNL A   1      34.877  30.911  28.136  1.00  0.00     0.001 A 
ATOM     80  C   UNL A   1      35.992  33.049  28.033  1.00  0.00     0.001 A 
ATOM     81  C   UNL A   1      34.906  32.238  27.711  1.00  0.00     0.000 A 
ENDBRANCH  57  76
BRANCH  69  82
ATOM     82  C   UNL A   1      39.188  31.957  35.780  1.00  0.00    -0.014 A 
ATOM     83  C   UNL A   1      39.674  33.248  36.036  1.00  0.00     0.009 A 
ATOM     84  C   UNL A   1      38.170  31.439  36.597  1.00  0.00     0.009 A 
ATOM     85  C   UNL A   1      39.175  33.992  37.107  1.00  0.00     0.001 A 
ATOM     86  C   UNL A   1      37.653  32.195  37.650  1.00  0.00     0.001 A 
ATOM     87  C   UNL A   1      38.163  33.466  37.910  1.00  0.00     0.000 A 
ENDBRANCH  69  82
ENDBRANCH  43  44
ENDBRANCH  36  38
ENDBRANCH  35  36
ENDBRANCH  34  35
ENDBRANCH  33  34
ENDBRANCH  32  33
ENDBRANCH   1  32
TORSDOF 18
ENDMDL
MODEL 2
REMARK VINA RESULT:     -11.7      0.753      5.648
REMARK SMILES CS(=O)(=O)c1ccc(C2=NN(c3ccc(C(=O)OCCOCCOC(=O)c4ccc(-c5c6nc(c(-c7ccccc7)c7ccc([nH]7)c(-c7ccccc7)c7nc(c(-c8ccccc8)c8ccc5[nH]8)C=C7)C=C6)cc4)cc3)[C@H](c3cccs3)C2)cc1
REMARK SMILES IDX 20 1 19 2 18 3 16 4 17 5 15 6 12 7 13 8 76 9 14 10 75 11
REMARK SMILES IDX 11 12 9 13 10 14 83 15 77 16 8 17 5 18 6 19 85 20 7 21 84 22
REMARK SMILES IDX 2 23 1 24 3 25 4 26 78 27 79 28 82 29 80 30 81 31 21 32
REMARK SMILES IDX 22 33 23 34 24 35 25 36 26 37 27 38 28 39 74 40 29 41 73 42
REMARK SMILES IDX 30 43 31 44 32 45 67 46 33 47 72 48 66 49 68 50 34 51 71 52
REMARK SMILES IDX 65 53 64 54 35 56 57 57 42 58 56 59 43 60 46 61 55 62 69 63
REMARK SMILES IDX 44 64 45 65 54 67 70 68 47 69 36 70 37 71 41 72 38 73 40 74
REMARK SMILES IDX 39 75 58 76 59 77 63 78 60 79 62 80 61 81 48 82 49 83 53 84
REMARK SMILES IDX 50 85 52 86 51 87
REMARK H PARENT 68 55 46 66
REMARK Flexibility Score: inf
ROOT
ATOM      1  C   UNL A   1      42.446  19.646  26.191  1.00  0.00     0.202 C 
ENDROOT
BRANCH   1   2
ATOM      2  C   UNL A   1      40.917  19.676  26.133  1.00  0.00     0.261 C 
BRANCH   2   3
ATOM      3  O   UNL A   1      40.456  20.933  25.611  1.00  0.00    -0.460 OA
BRANCH   3   4
ATOM      4  C   UNL A   1      39.751  21.698  26.477  1.00  0.00     0.338 C 
ATOM      5  O   UNL A   1      40.142  22.138  27.548  1.00  0.00    -0.246 OA
BRANCH   4   6
ATOM      6  C   UNL A   1      38.436  22.057  25.891  1.00  0.00     0.060 A 
ATOM      7  C   UNL A   1      35.907  22.812  24.925  1.00  0.00     0.060 A 
ATOM      8  C   UNL A   1      36.670  23.705  25.683  1.00  0.00     0.029 A 
ATOM      9  C   UNL A   1      36.463  21.568  24.588  1.00  0.00     0.029 A 
ATOM     10  C   UNL A   1      37.921  23.327  26.175  1.00  0.00     0.018 A 
ATOM     11  C   UNL A   1      37.719  21.186  25.065  1.00  0.00     0.018 A 
BRANCH   7  12
ATOM     12  N   UNL A   1      34.574  23.090  24.597  1.00  0.00    -0.257 N 
ATOM     13  C   UNL A   1      32.981  24.506  24.580  1.00  0.00     0.071 C 
ATOM     14  N   UNL A   1      34.214  24.344  24.212  1.00  0.00    -0.176 NA
ATOM     15  C   UNL A   1      32.378  23.401  25.398  1.00  0.00     0.091 C 
ATOM     16  C   UNL A   1      33.536  22.397  25.384  1.00  0.00     0.154 C 
BRANCH  13  17
ATOM     17  C   UNL A   1      32.190  25.684  24.199  1.00  0.00    -0.002 A 
ATOM     18  C   UNL A   1      30.773  27.941  23.397  1.00  0.00     0.067 A 
ATOM     19  C   UNL A   1      32.147  27.872  23.158  1.00  0.00     0.021 A 
ATOM     20  C   UNL A   1      30.107  26.888  24.042  1.00  0.00     0.021 A 
ATOM     21  C   UNL A   1      32.856  26.744  23.573  1.00  0.00     0.011 A 
ATOM     22  C   UNL A   1      30.816  25.749  24.434  1.00  0.00     0.011 A 
BRANCH  18  23
ATOM     23  S   UNL A   1      29.807  29.355  22.916  1.00  0.00     0.175 S 
ATOM     24  C   UNL A   1      28.108  28.853  22.898  1.00  0.00     0.163 C 
ATOM     25  O   UNL A   1      30.180  29.657  21.546  1.00  0.00    -0.224 OA
ATOM     26  O   UNL A   1      29.970  30.334  23.973  1.00  0.00    -0.224 OA
ENDBRANCH  18  23
ENDBRANCH  13  17
BRANCH  16  27
ATOM     27  C   UNL A   1      33.213  20.998  24.898  1.00  0.00     0.030 A 
ATOM     28  C   UNL A   1      33.604  19.813  25.500  1.00  0.00     0.017 A 
ATOM     29  S   UNL A   1      32.400  20.690  23.420  1.00  0.00    -0.147 S 
ATOM     30  C   UNL A   1      33.256  18.663  24.739  1.00  0.00     0.012 A 
ATOM     31  C   UNL A   1      32.569  18.999  23.595  1.00  0.00     0.065 A 
ENDBRANCH  16  27
ENDBRANCH   7  12
ENDBRANCH   4   6
ENDBRANCH   3   4
ENDBRANCH   2   3
ENDBRANCH   1   2
BRANCH   1  32
ATOM     32  O   UNL A   1      43.117  20.047  24.995  1.00  0.00    -0.374 OA
BRANCH  32  33
ATOM     33  C   UNL A   1      44.017  21.153  25.098  1.00  0.00     0.202 C 
BRANCH  33  34
ATOM     34  C   UNL A   1      43.627  22.240  26.105  1.00  0.00     0.261 C 
BRANCH  34  35
ATOM     35  O   UNL A   1      42.857  23.288  25.487  1.00  0.00    -0.460 OA
BRANCH  35  36
ATOM     36  C   UNL A   1      43.467  24.495  25.450  1.00  0.00     0.338 C 
ATOM     37  O   UNL A   1      44.329  24.869  24.667  1.00  0.00    -0.246 OA
BRANCH  36  38
ATOM     38  C   UNL A   1      42.826  25.414  26.409  1.00  0.00     0.060 A 
ATOM     39  C   UNL A   1      43.408  26.677  26.578  1.00  0.00     0.016 A 
ATOM     40  C   UNL A   1      41.727  25.030  27.180  1.00  0.00     0.016 A 
ATOM     41  C   UNL A   1      42.928  27.541  27.559  1.00  0.00     0.010 A 
ATOM     42  C   UNL A   1      41.250  25.898  28.170  1.00  0.00     0.010 A 
ATOM     43  C   UNL A   1      41.872  27.140  28.387  1.00  0.00    -0.014 A 
BRANCH  43  44
ATOM     44  C   UNL A   1      41.521  27.964  29.570  1.00  0.00     0.031 A 
ATOM     45  C   UNL A   1      40.343  28.896  29.488  1.00  0.00     0.074 A 
ATOM     46  C   UNL A   1      42.217  27.858  30.715  1.00  0.00     0.049 A 
ATOM     47  N   UNL A   1      39.861  29.704  30.398  1.00  0.00    -0.248 NA
ATOM     48  C   UNL A   1      39.610  28.917  28.212  1.00  0.00     0.031 C 
ATOM     49  C   UNL A   1      43.350  26.961  30.937  1.00  0.00     0.029 A 
ATOM     50  N   UNL A   1      42.065  28.513  31.910  1.00  0.00    -0.354 N 
ATOM     51  C   UNL A   1      38.773  30.333  29.804  1.00  0.00     0.074 A 
ATOM     52  C   UNL A   1      38.684  29.835  28.448  1.00  0.00     0.031 C 
ATOM     53  C   UNL A   1      43.794  27.125  32.196  1.00  0.00     0.029 A 
ATOM     54  C   UNL A   1      42.995  28.156  32.855  1.00  0.00     0.049 A 
ATOM     55  H   UNL A   1      41.356  29.177  32.075  1.00  0.00     0.167 HD
ATOM     56  C   UNL A   1      37.919  31.237  30.340  1.00  0.00     0.031 A 
ATOM     57  C   UNL A   1      43.188  28.619  34.105  1.00  0.00     0.031 A 
ATOM     58  C   UNL A   1      38.011  31.745  31.682  1.00  0.00     0.049 A 
ATOM     59  C   UNL A   1      42.272  29.682  34.652  1.00  0.00     0.074 A 
ATOM     60  C   UNL A   1      37.186  32.654  32.320  1.00  0.00     0.029 A 
ATOM     61  N   UNL A   1      38.995  31.391  32.592  1.00  0.00    -0.354 N 
ATOM     62  N   UNL A   1      41.234  30.249  34.088  1.00  0.00    -0.248 NA
ATOM     63  C   UNL A   1      42.555  30.160  36.013  1.00  0.00     0.031 C 
ATOM     64  C   UNL A   1      37.701  32.891  33.599  1.00  0.00     0.029 A 
ATOM     65  C   UNL A   1      38.813  32.084  33.777  1.00  0.00     0.049 A 
ATOM     66  H   UNL A   1      39.717  30.742  32.421  1.00  0.00     0.167 HD
ATOM     67  C   UNL A   1      40.722  31.128  35.035  1.00  0.00     0.074 A 
ATOM     68  C   UNL A   1      41.557  31.010  36.213  1.00  0.00     0.031 C 
ATOM     69  C   UNL A   1      39.654  31.957  34.939  1.00  0.00     0.031 A 
BRANCH  56  70
ATOM     70  C   UNL A   1      36.825  31.762  29.452  1.00  0.00    -0.014 A 
ATOM     71  C   UNL A   1      35.631  31.047  29.267  1.00  0.00     0.009 A 
ATOM     72  C   UNL A   1      36.980  33.003  28.816  1.00  0.00     0.009 A 
ATOM     73  C   UNL A   1      34.628  31.551  28.434  1.00  0.00     0.001 A 
ATOM     74  C   UNL A   1      35.966  33.516  28.005  1.00  0.00     0.001 A 
ATOM     75  C   UNL A   1      34.795  32.784  27.808  1.00  0.00     0.000 A 
ENDBRANCH  56  70
BRANCH  57  76
ATOM     76  C   UNL A   1      44.308  28.093  34.928  1.00  0.00    -0.014 A 
ATOM     77  C   UNL A   1      45.534  28.771  34.985  1.00  0.00     0.009 A 
ATOM     78  C   UNL A   1      44.158  26.896  35.646  1.00  0.00     0.009 A 
ATOM     79  C   UNL A   1      46.597  28.246  35.724  1.00  0.00     0.001 A 
ATOM     80  C   UNL A   1      45.214  26.389  36.407  1.00  0.00     0.001 A 
ATOM     81  C   UNL A   1      46.435  27.060  36.438  1.00  0.00     0.000 A 
ENDBRANCH  57  76
BRANCH  69  82
ATOM     82  C   UNL A   1      39.304  32.773  36.153  1.00  0.00    -0.014 A 
ATOM     83  C   UNL A   1      38.345  32.334  37.078  1.00  0.00     0.009 A 
ATOM     84  C   UNL A   1      39.971  33.986  36.389  1.00  0.00     0.009 A 
ATOM     85  C   UNL A   1      38.036  33.108  38.198  1.00  0.00     0.001 A 
ATOM     86  C   UNL A   1      39.682  34.745  37.524  1.00  0.00     0.001 A 
ATOM     87  C   UNL A   1      38.708  34.310  38.422  1.00  0.00     0.000 A 
ENDBRANCH  69  82
ENDBRANCH  43  44
ENDBRANCH  36  38
ENDBRANCH  35  36
ENDBRANCH  34  35
ENDBRANCH  33  34
ENDBRANCH  32  33
ENDBRANCH   1  32
TORSDOF 18
ENDMDL
MODEL 3
REMARK VINA RESULT:     -11.2      6.353      9.928
REMARK SMILES CS(=O)(=O)c1ccc(C2=NN(c3ccc(C(=O)OCCOCCOC(=O)c4ccc(-c5c6nc(c(-c7ccccc7)c7ccc([nH]7)c(-c7ccccc7)c7nc(c(-c8ccccc8)c8ccc5[nH]8)C=C7)C=C6)cc4)cc3)[C@H](c3cccs3)C2)cc1
REMARK SMILES IDX 20 1 19 2 18 3 16 4 17 5 15 6 12 7 13 8 76 9 14 10 75 11
REMARK SMILES IDX 11 12 9 13 10 14 83 15 77 16 8 17 5 18 6 19 85 20 7 21 84 22
REMARK SMILES IDX 2 23 1 24 3 25 4 26 78 27 79 28 82 29 80 30 81 31 21 32
REMARK SMILES IDX 22 33 23 34 24 35 25 36 26 37 27 38 28 39 74 40 29 41 73 42
REMARK SMILES IDX 30 43 31 44 32 45 67 46 33 47 72 48 66 49 68 50 34 51 71 52
REMARK SMILES IDX 65 53 64 54 35 56 57 57 42 58 56 59 43 60 46 61 55 62 69 63
REMARK SMILES IDX 44 64 45 65 54 67 70 68 47 69 36 70 37 71 41 72 38 73 40 74
REMARK SMILES IDX 39 75 58 76 59 77 63 78 60 79 62 80 61 81 48 82 49 83 53 84
REMARK SMILES IDX 50 85 52 86 51 87
REMARK H PARENT 68 55 46 66
REMARK Flexibility Score: inf
ROOT
ATOM      1  C   UNL A   1      41.010  20.207  26.672  1.00  0.00     0.202 C 
ENDROOT
BRANCH   1   2
ATOM      2  C   UNL A   1      39.572  20.347  26.166  1.00  0.00     0.261 C 
BRANCH   2   3
ATOM      3  O   UNL A   1      39.411  21.577  25.440  1.00  0.00    -0.460 OA
BRANCH   3   4
ATOM      4  C   UNL A   1      38.827  22.586  26.128  1.00  0.00     0.338 C 
ATOM      5  O   UNL A   1      39.321  23.227  27.044  1.00  0.00    -0.246 OA
BRANCH   4   6
ATOM      6  C   UNL A   1      37.508  22.915  25.535  1.00  0.00     0.060 A 
ATOM      7  C   UNL A   1      34.948  23.557  24.565  1.00  0.00     0.060 A 
ATOM      8  C   UNL A   1      35.489  24.254  25.650  1.00  0.00     0.029 A 
ATOM      9  C   UNL A   1      35.741  22.594  23.922  1.00  0.00     0.029 A 
ATOM     10  C   UNL A   1      36.754  23.927  26.141  1.00  0.00     0.018 A 
ATOM     11  C   UNL A   1      37.013  22.269  24.398  1.00  0.00     0.018 A 
BRANCH   7  12
ATOM     12  N   UNL A   1      33.610  23.723  24.187  1.00  0.00    -0.257 N 
ATOM     13  C   UNL A   1      31.884  24.973  24.175  1.00  0.00     0.071 C 
ATOM     14  N   UNL A   1      33.142  24.958  23.863  1.00  0.00    -0.176 NA
ATOM     15  C   UNL A   1      31.361  23.761  24.891  1.00  0.00     0.091 C 
ATOM     16  C   UNL A   1      32.614  22.880  24.875  1.00  0.00     0.154 C 
BRANCH  13  17
ATOM     17  C   UNL A   1      30.995  26.090  23.828  1.00  0.00    -0.002 A 
ATOM     18  C   UNL A   1      29.393  28.246  23.098  1.00  0.00     0.067 A 
ATOM     19  C   UNL A   1      30.779  28.337  22.946  1.00  0.00     0.021 A 
ATOM     20  C   UNL A   1      28.808  27.084  23.621  1.00  0.00     0.021 A 
ATOM     21  C   UNL A   1      31.579  27.259  23.325  1.00  0.00     0.011 A 
ATOM     22  C   UNL A   1      29.610  25.996  23.976  1.00  0.00     0.011 A 
BRANCH  18  23
ATOM     23  S   UNL A   1      28.311  29.587  22.657  1.00  0.00     0.175 S 
ATOM     24  C   UNL A   1      28.865  31.023  23.533  1.00  0.00     0.163 C 
ATOM     25  O   UNL A   1      27.002  29.244  23.179  1.00  0.00    -0.224 OA
ATOM     26  O   UNL A   1      28.518  29.823  21.241  1.00  0.00    -0.224 OA
ENDBRANCH  18  23
ENDBRANCH  13  17
BRANCH  16  27
ATOM     27  C   UNL A   1      32.458  21.492  24.285  1.00  0.00     0.030 A 
ATOM     28  C   UNL A   1      32.643  20.294  24.957  1.00  0.00     0.017 A 
ATOM     29  S   UNL A   1      32.143  21.215  22.623  1.00  0.00    -0.147 S 
ATOM     30  C   UNL A   1      32.547  19.160  24.104  1.00  0.00     0.012 A 
ATOM     31  C   UNL A   1      32.249  19.520  22.810  1.00  0.00     0.065 A 
ENDBRANCH  16  27
ENDBRANCH   7  12
ENDBRANCH   4   6
ENDBRANCH   3   4
ENDBRANCH   2   3
ENDBRANCH   1   2
BRANCH   1  32
ATOM     32  O   UNL A   1      42.020  20.188  25.663  1.00  0.00    -0.374 OA
BRANCH  32  33
ATOM     33  C   UNL A   1      43.085  21.133  25.797  1.00  0.00     0.202 C 
BRANCH  33  34
ATOM     34  C   UNL A   1      42.981  22.093  26.987  1.00  0.00     0.261 C 
BRANCH  34  35
ATOM     35  O   UNL A   1      42.649  23.429  26.566  1.00  0.00    -0.460 OA
BRANCH  35  36
ATOM     36  C   UNL A   1      42.778  24.375  27.524  1.00  0.00     0.338 C 
ATOM     37  O   UNL A   1      42.165  24.454  28.579  1.00  0.00    -0.246 OA
BRANCH  36  38
ATOM     38  C   UNL A   1      43.918  25.258  27.211  1.00  0.00     0.060 A 
ATOM     39  C   UNL A   1      44.647  25.775  28.290  1.00  0.00     0.016 A 
ATOM     40  C   UNL A   1      44.227  25.632  25.902  1.00  0.00     0.016 A 
ATOM     41  C   UNL A   1      45.652  26.713  28.067  1.00  0.00     0.010 A 
ATOM     42  C   UNL A   1      45.233  26.579  25.680  1.00  0.00     0.010 A 
ATOM     43  C   UNL A   1      45.923  27.151  26.764  1.00  0.00    -0.014 A 
BRANCH  43  44
ATOM     44  C   UNL A   1      46.827  28.309  26.558  1.00  0.00     0.031 A 
ATOM     45  C   UNL A   1      46.255  29.700  26.603  1.00  0.00     0.074 A 
ATOM     46  C   UNL A   1      48.146  28.129  26.372  1.00  0.00     0.049 A 
ATOM     47  N   UNL A   1      46.861  30.850  26.450  1.00  0.00    -0.248 NA
ATOM     48  C   UNL A   1      44.810  29.808  26.856  1.00  0.00     0.031 C 
ATOM     49  C   UNL A   1      48.830  26.837  26.353  1.00  0.00     0.029 A 
ATOM     50  N   UNL A   1      49.146  29.044  26.167  1.00  0.00    -0.354 N 
ATOM     51  C   UNL A   1      45.872  31.816  26.583  1.00  0.00     0.074 A 
ATOM     52  C   UNL A   1      44.623  31.118  26.799  1.00  0.00     0.031 C 
ATOM     53  C   UNL A   1      50.142  27.042  26.144  1.00  0.00     0.029 A 
ATOM     54  C   UNL A   1      50.383  28.476  25.988  1.00  0.00     0.049 A 
ATOM     55  H   UNL A   1      48.993  30.017  26.150  1.00  0.00     0.167 HD
ATOM     56  C   UNL A   1      45.991  33.164  26.537  1.00  0.00     0.031 A 
ATOM     57  C   UNL A   1      51.572  29.046  25.713  1.00  0.00     0.031 A 
ATOM     58  C   UNL A   1      47.228  33.863  26.310  1.00  0.00     0.049 A 
ATOM     59  C   UNL A   1      51.665  30.544  25.591  1.00  0.00     0.074 A 
ATOM     60  C   UNL A   1      47.452  35.228  26.258  1.00  0.00     0.029 A 
ATOM     61  N   UNL A   1      48.450  33.248  26.087  1.00  0.00    -0.354 N 
ATOM     62  N   UNL A   1      50.727  31.446  25.743  1.00  0.00    -0.248 NA
ATOM     63  C   UNL A   1      52.988  31.098  25.266  1.00  0.00     0.031 C 
ATOM     64  C   UNL A   1      48.800  35.439  25.952  1.00  0.00     0.029 A 
ATOM     65  C   UNL A   1      49.427  34.206  25.872  1.00  0.00     0.049 A 
ATOM     66  H   UNL A   1      48.601  32.275  26.083  1.00  0.00     0.167 HD
ATOM     67  C   UNL A   1      51.350  32.675  25.562  1.00  0.00     0.074 A 
ATOM     68  C   UNL A   1      52.749  32.402  25.301  1.00  0.00     0.031 C 
ATOM     69  C   UNL A   1      50.814  33.918  25.611  1.00  0.00     0.031 A 
BRANCH  56  70
ATOM     70  C   UNL A   1      44.736  33.974  26.706  1.00  0.00    -0.014 A 
ATOM     71  C   UNL A   1      44.287  34.367  27.977  1.00  0.00     0.009 A 
ATOM     72  C   UNL A   1      44.007  34.373  25.574  1.00  0.00     0.009 A 
ATOM     73  C   UNL A   1      43.114  35.115  28.111  1.00  0.00     0.001 A 
ATOM     74  C   UNL A   1      42.851  35.142  25.710  1.00  0.00     0.001 A 
ATOM     75  C   UNL A   1      42.401  35.505  26.979  1.00  0.00     0.000 A 
ENDBRANCH  56  70
BRANCH  57  76
ATOM     76  C   UNL A   1      52.777  28.198  25.520  1.00  0.00    -0.014 A 
ATOM     77  C   UNL A   1      53.093  27.683  24.255  1.00  0.00     0.009 A 
ATOM     78  C   UNL A   1      53.606  27.884  26.609  1.00  0.00     0.009 A 
ATOM     79  C   UNL A   1      54.202  26.848  24.088  1.00  0.00     0.001 A 
ATOM     80  C   UNL A   1      54.729  27.073  26.434  1.00  0.00     0.001 A 
ATOM     81  C   UNL A   1      55.020  26.548  25.176  1.00  0.00     0.000 A 
ENDBRANCH  57  76
BRANCH  69  82
ATOM     82  C   UNL A   1      51.748  35.081  25.415  1.00  0.00    -0.014 A 
ATOM     83  C   UNL A   1      52.455  35.639  26.491  1.00  0.00     0.009 A 
ATOM     84  C   UNL A   1      51.947  35.600  24.126  1.00  0.00     0.009 A 
ATOM     85  C   UNL A   1      53.318  36.718  26.285  1.00  0.00     0.001 A 
ATOM     86  C   UNL A   1      52.831  36.660  23.918  1.00  0.00     0.001 A 
ATOM     87  C   UNL A   1      53.508  37.224  24.999  1.00  0.00     0.000 A 
ENDBRANCH  69  82
ENDBRANCH  43  44
ENDBRANCH  36  38
ENDBRANCH  35  36
ENDBRANCH  34  35
ENDBRANCH  33  34
ENDBRANCH  32  33
ENDBRANCH   1  32
TORSDOF 18
ENDMDL
