MODEL 1
REMARK VINA RESULT:     -11.4      0.000      0.000
REMARK SMILES O=C(OCCOCCOC(=O)[C@H]1CC=CC[C@@H]1C(=O)N[C@@H]1CCCN(c2ccccc2F)C1=O)c1ccc(-c2c3nc(c(-c4ccccc4)c4ccc([nH]4)c(-c4ccccc4)c4nc(c(-c5ccccc5)c5ccc2[nH]5)C=C4)C=C3)cc1
REMARK SMILES IDX 7 1 6 2 5 3 4 4 3 5 2 6 1 7 35 8 36 9 82 10 37 11 81 12
REMARK SMILES IDX 38 13 39 14 40 15 75 16 41 17 80 18 74 19 76 20 42 21 79 22
REMARK SMILES IDX 73 23 72 24 43 26 65 27 50 28 64 29 51 30 54 31 63 32 77 33
REMARK SMILES IDX 52 34 53 35 62 37 78 38 55 39 44 40 45 41 49 42 46 43 48 44
REMARK SMILES IDX 47 45 66 46 67 47 71 48 68 49 70 50 69 51 56 52 57 53 61 54
REMARK SMILES IDX 58 55 60 56 59 57 8 58 9 59 10 60 11 61 12 62 13 63 17 64
REMARK SMILES IDX 14 65 16 66 15 67 18 68 19 69 20 70 21 72 22 73 33 74 23 75
REMARK SMILES IDX 25 76 34 77 24 78 26 79 27 80 31 81 28 82 30 83 32 84 29 85
REMARK H PARENT 76 25 54 36 20 71
REMARK Flexibility Score: inf
ROOT
ATOM      1  C   UNL A   1      37.856  21.608  25.409  1.00  0.00     0.202 C 
ENDROOT
BRANCH   1   2
ATOM      2  O   UNL A   1      37.466  20.312  24.940  1.00  0.00    -0.374 OA
BRANCH   2   3
ATOM      3  C   UNL A   1      38.474  19.301  25.008  1.00  0.00     0.202 C 
BRANCH   3   4
ATOM      4  C   UNL A   1      39.528  19.596  26.078  1.00  0.00     0.261 C 
BRANCH   4   5
ATOM      5  O   UNL A   1      40.778  18.971  25.749  1.00  0.00    -0.460 OA
BRANCH   5   6
ATOM      6  C   UNL A   1      42.021  19.500  25.813  1.00  0.00     0.338 C 
ATOM      7  O   UNL A   1      42.967  18.798  25.456  1.00  0.00    -0.246 OA
BRANCH   6   8
ATOM      8  C   UNL A   1      42.330  20.902  26.249  1.00  0.00     0.060 A 
ATOM      9  C   UNL A   1      42.645  21.978  25.415  1.00  0.00     0.016 A 
ATOM     10  C   UNL A   1      42.193  21.164  27.625  1.00  0.00     0.016 A 
ATOM     11  C   UNL A   1      42.822  23.262  25.915  1.00  0.00     0.010 A 
ATOM     12  C   UNL A   1      42.363  22.452  28.139  1.00  0.00     0.010 A 
ATOM     13  C   UNL A   1      42.678  23.502  27.277  1.00  0.00    -0.014 A 
BRANCH  13  14
ATOM     14  C   UNL A   1      42.948  24.860  27.770  1.00  0.00     0.031 A 
ATOM     15  C   UNL A   1      44.370  25.274  27.970  1.00  0.00     0.074 A 
ATOM     16  C   UNL A   1      41.927  25.723  27.919  1.00  0.00     0.049 A 
ATOM     17  N   UNL A   1      44.844  26.402  28.421  1.00  0.00    -0.248 NA
ATOM     18  C   UNL A   1      45.399  24.289  27.593  1.00  0.00     0.031 C 
ATOM     19  C   UNL A   1      40.522  25.428  27.623  1.00  0.00     0.029 A 
ATOM     20  N   UNL A   1      41.915  27.026  28.332  1.00  0.00    -0.354 N 
ATOM     21  C   UNL A   1      46.224  26.256  28.404  1.00  0.00     0.074 A 
ATOM     22  C   UNL A   1      46.515  24.938  27.890  1.00  0.00     0.031 C 
ATOM     23  C   UNL A   1      39.787  26.527  27.858  1.00  0.00     0.029 A 
ATOM     24  C   UNL A   1      40.657  27.576  28.375  1.00  0.00     0.049 A 
ATOM     25  H   UNL A   1      42.730  27.523  28.576  1.00  0.00     0.167 HD
ATOM     26  C   UNL A   1      47.158  27.147  28.806  1.00  0.00     0.031 A 
ATOM     27  C   UNL A   1      40.263  28.782  28.823  1.00  0.00     0.031 A 
ATOM     28  C   UNL A   1      46.837  28.441  29.336  1.00  0.00     0.049 A 
ATOM     29  C   UNL A   1      41.317  29.710  29.365  1.00  0.00     0.074 A 
ATOM     30  C   UNL A   1      47.687  29.410  29.832  1.00  0.00     0.029 A 
ATOM     31  N   UNL A   1      45.545  28.941  29.441  1.00  0.00    -0.354 N 
ATOM     32  N   UNL A   1      42.621  29.552  29.389  1.00  0.00    -0.248 NA
ATOM     33  C   UNL A   1      40.849  30.966  29.961  1.00  0.00     0.031 C 
ATOM     34  C   UNL A   1      46.903  30.478  30.286  1.00  0.00     0.029 A 
ATOM     35  C   UNL A   1      45.571  30.192  30.025  1.00  0.00     0.049 A 
ATOM     36  H   UNL A   1      44.732  28.472  29.144  1.00  0.00     0.167 HD
ATOM     37  C   UNL A   1      43.128  30.688  30.000  1.00  0.00     0.074 A 
ATOM     38  C   UNL A   1      41.994  31.541  30.301  1.00  0.00     0.031 C 
ATOM     39  C   UNL A   1      44.412  31.000  30.305  1.00  0.00     0.031 A 
BRANCH  26  40
ATOM     40  C   UNL A   1      48.589  26.702  28.763  1.00  0.00    -0.014 A 
ATOM     41  C   UNL A   1      49.185  26.036  29.845  1.00  0.00     0.009 A 
ATOM     42  C   UNL A   1      49.357  26.973  27.621  1.00  0.00     0.009 A 
ATOM     43  C   UNL A   1      50.534  25.673  29.792  1.00  0.00     0.001 A 
ATOM     44  C   UNL A   1      50.699  26.592  27.563  1.00  0.00     0.001 A 
ATOM     45  C   UNL A   1      51.288  25.950  28.650  1.00  0.00     0.000 A 
ENDBRANCH  26  40
BRANCH  27  46
ATOM     46  C   UNL A   1      38.820  29.143  28.866  1.00  0.00    -0.014 A 
ATOM     47  C   UNL A   1      38.176  29.692  27.747  1.00  0.00     0.009 A 
ATOM     48  C   UNL A   1      38.083  28.973  30.050  1.00  0.00     0.009 A 
ATOM     49  C   UNL A   1      36.837  30.087  27.822  1.00  0.00     0.001 A 
ATOM     50  C   UNL A   1      36.737  29.338  30.114  1.00  0.00     0.001 A 
ATOM     51  C   UNL A   1      36.118  29.907  29.004  1.00  0.00     0.000 A 
ENDBRANCH  27  46
BRANCH  39  52
ATOM     52  C   UNL A   1      44.641  32.315  30.987  1.00  0.00    -0.014 A 
ATOM     53  C   UNL A   1      44.725  32.392  32.385  1.00  0.00     0.009 A 
ATOM     54  C   UNL A   1      44.825  33.475  30.220  1.00  0.00     0.009 A 
ATOM     55  C   UNL A   1      44.965  33.619  33.005  1.00  0.00     0.001 A 
ATOM     56  C   UNL A   1      45.090  34.694  30.842  1.00  0.00     0.001 A 
ATOM     57  C   UNL A   1      45.153  34.765  32.234  1.00  0.00     0.000 A 
ENDBRANCH  39  52
ENDBRANCH  13  14
ENDBRANCH   6   8
ENDBRANCH   5   6
ENDBRANCH   4   5
ENDBRANCH   3   4
ENDBRANCH   2   3
ENDBRANCH   1   2
BRANCH   1  58
ATOM     58  C   UNL A   1      37.068  22.689  24.674  1.00  0.00     0.261 C 
BRANCH  58  59
ATOM     59  O   UNL A   1      36.009  22.056  23.948  1.00  0.00    -0.463 OA
BRANCH  59  60
ATOM     60  C   UNL A   1      34.884  22.807  23.831  1.00  0.00     0.310 C 
ATOM     61  O   UNL A   1      34.816  23.876  23.233  1.00  0.00    -0.252 OA
BRANCH  60  62
ATOM     62  C   UNL A   1      33.674  22.164  24.485  1.00  0.00     0.115 C 
ATOM     63  C   UNL A   1      33.979  21.006  25.446  1.00  0.00     0.043 C 
ATOM     64  C   UNL A   1      32.875  23.310  25.123  1.00  0.00     0.097 C 
ATOM     65  C   UNL A   1      34.405  21.453  26.808  1.00  0.00    -0.030 C 
ATOM     66  C   UNL A   1      33.392  23.714  26.502  1.00  0.00     0.041 C 
ATOM     67  C   UNL A   1      34.143  22.679  27.274  1.00  0.00    -0.030 C 
BRANCH  64  68
ATOM     68  C   UNL A   1      31.382  23.057  25.042  1.00  0.00     0.224 C 
ATOM     69  O   UNL A   1      30.846  22.161  25.697  1.00  0.00    -0.275 OA
ATOM     70  N   UNL A   1      30.595  23.775  24.192  1.00  0.00    -0.344 N 
ATOM     71  H   UNL A   1      29.695  23.392  24.093  1.00  0.00     0.164 HD
BRANCH  70  72
ATOM     72  C   UNL A   1      30.787  24.996  23.389  1.00  0.00     0.172 C 
ATOM     73  C   UNL A   1      31.727  24.929  22.186  1.00  0.00     0.037 C 
ATOM     74  C   UNL A   1      30.847  26.222  24.315  1.00  0.00     0.249 C 
ATOM     75  C   UNL A   1      32.487  26.222  21.938  1.00  0.00     0.025 C 
ATOM     76  N   UNL A   1      31.950  27.065  24.215  1.00  0.00    -0.308 N 
ATOM     77  O   UNL A   1      29.898  26.423  25.081  1.00  0.00    -0.272 OA
ATOM     78  C   UNL A   1      32.998  26.850  23.221  1.00  0.00     0.126 C 
BRANCH  76  79
ATOM     79  C   UNL A   1      32.144  28.093  25.200  1.00  0.00     0.080 A 
ATOM     80  C   UNL A   1      32.959  27.863  26.316  1.00  0.00     0.029 A 
ATOM     81  C   UNL A   1      31.550  29.363  25.074  1.00  0.00     0.146 A 
ATOM     82  C   UNL A   1      33.196  28.880  27.251  1.00  0.00     0.002 A 
ATOM     83  C   UNL A   1      31.777  30.373  26.007  1.00  0.00     0.041 A 
ATOM     84  F   UNL A   1      30.668  29.618  24.096  1.00  0.00    -0.205 F 
ATOM     85  C   UNL A   1      32.611  30.135  27.094  1.00  0.00     0.003 A 
ENDBRANCH  76  79
ENDBRANCH  70  72
ENDBRANCH  64  68
ENDBRANCH  60  62
ENDBRANCH  59  60
ENDBRANCH  58  59
ENDBRANCH   1  58
TORSDOF 17
ENDMDL
MODEL 2
REMARK VINA RESULT:     -11.4      3.537      9.140
REMARK SMILES O=C(OCCOCCOC(=O)[C@H]1CC=CC[C@@H]1C(=O)N[C@@H]1CCCN(c2ccccc2F)C1=O)c1ccc(-c2c3nc(c(-c4ccccc4)c4ccc([nH]4)c(-c4ccccc4)c4nc(c(-c5ccccc5)c5ccc2[nH]5)C=C4)C=C3)cc1
REMARK SMILES IDX 7 1 6 2 5 3 4 4 3 5 2 6 1 7 35 8 36 9 82 10 37 11 81 12
REMARK SMILES IDX 38 13 39 14 40 15 75 16 41 17 80 18 74 19 76 20 42 21 79 22
REMARK SMILES IDX 73 23 72 24 43 26 65 27 50 28 64 29 51 30 54 31 63 32 77 33
REMARK SMILES IDX 52 34 53 35 62 37 78 38 55 39 44 40 45 41 49 42 46 43 48 44
REMARK SMILES IDX 47 45 66 46 67 47 71 48 68 49 70 50 69 51 56 52 57 53 61 54
REMARK SMILES IDX 58 55 60 56 59 57 8 58 9 59 10 60 11 61 12 62 13 63 17 64
REMARK SMILES IDX 14 65 16 66 15 67 18 68 19 69 20 70 21 72 22 73 33 74 23 75
REMARK SMILES IDX 25 76 34 77 24 78 26 79 27 80 31 81 28 82 30 83 32 84 29 85
REMARK H PARENT 76 25 54 36 20 71
REMARK Flexibility Score: inf
ROOT
ATOM      1  C   UNL A   1      32.792  30.384  27.094  1.00  0.00     0.202 C 
ENDROOT
BRANCH   1   2
ATOM      2  O   UNL A   1      31.614  30.969  26.527  1.00  0.00    -0.374 OA
BRANCH   2   3
ATOM      3  C   UNL A   1      31.399  32.348  26.838  1.00  0.00     0.202 C 
BRANCH   3   4
ATOM      4  C   UNL A   1      32.703  33.091  27.141  1.00  0.00     0.261 C 
BRANCH   4   5
ATOM      5  O   UNL A   1      32.462  34.215  28.000  1.00  0.00    -0.460 OA
BRANCH   5   6
ATOM      6  C   UNL A   1      33.184  34.622  29.068  1.00  0.00     0.338 C 
ATOM      7  O   UNL A   1      32.791  35.610  29.690  1.00  0.00    -0.246 OA
BRANCH   6   8
ATOM      8  C   UNL A   1      34.412  33.931  29.582  1.00  0.00     0.060 A 
ATOM      9  C   UNL A   1      34.461  32.985  30.610  1.00  0.00     0.016 A 
ATOM     10  C   UNL A   1      35.607  34.200  28.888  1.00  0.00     0.016 A 
ATOM     11  C   UNL A   1      35.640  32.333  30.946  1.00  0.00     0.010 A 
ATOM     12  C   UNL A   1      36.798  33.546  29.213  1.00  0.00     0.010 A 
ATOM     13  C   UNL A   1      36.810  32.609  30.247  1.00  0.00    -0.014 A 
BRANCH  13  14
ATOM     14  C   UNL A   1      38.049  31.951  30.685  1.00  0.00     0.031 A 
ATOM     15  C   UNL A   1      38.794  32.537  31.841  1.00  0.00     0.074 A 
ATOM     16  C   UNL A   1      38.415  30.788  30.117  1.00  0.00     0.049 A 
ATOM     17  N   UNL A   1      39.917  32.148  32.379  1.00  0.00    -0.248 NA
ATOM     18  C   UNL A   1      38.182  33.710  32.490  1.00  0.00     0.031 C 
ATOM     19  C   UNL A   1      37.668  30.090  29.067  1.00  0.00     0.029 A 
ATOM     20  N   UNL A   1      39.490  29.979  30.358  1.00  0.00    -0.354 N 
ATOM     21  C   UNL A   1      40.158  33.040  33.415  1.00  0.00     0.074 A 
ATOM     22  C   UNL A   1      39.064  33.984  33.439  1.00  0.00     0.031 C 
ATOM     23  C   UNL A   1      38.308  28.949  28.761  1.00  0.00     0.029 A 
ATOM     24  C   UNL A   1      39.533  28.870  29.548  1.00  0.00     0.049 A 
ATOM     25  H   UNL A   1      40.168  30.172  31.046  1.00  0.00     0.167 HD
ATOM     26  C   UNL A   1      41.217  33.071  34.255  1.00  0.00     0.031 A 
ATOM     27  C   UNL A   1      40.486  27.925  29.437  1.00  0.00     0.031 A 
ATOM     28  C   UNL A   1      42.301  32.133  34.190  1.00  0.00     0.049 A 
ATOM     29  C   UNL A   1      41.704  28.049  30.311  1.00  0.00     0.074 A 
ATOM     30  C   UNL A   1      43.459  32.094  34.943  1.00  0.00     0.029 A 
ATOM     31  N   UNL A   1      42.356  31.065  33.303  1.00  0.00    -0.354 N 
ATOM     32  N   UNL A   1      41.952  28.921  31.262  1.00  0.00    -0.248 NA
ATOM     33  C   UNL A   1      42.782  27.080  30.085  1.00  0.00     0.031 C 
ATOM     34  C   UNL A   1      44.238  31.029  34.476  1.00  0.00     0.029 A 
ATOM     35  C   UNL A   1      43.543  30.378  33.467  1.00  0.00     0.049 A 
ATOM     36  H   UNL A   1      41.653  30.833  32.655  1.00  0.00     0.167 HD
ATOM     37  C   UNL A   1      43.212  28.605  31.747  1.00  0.00     0.074 A 
ATOM     38  C   UNL A   1      43.662  27.441  31.009  1.00  0.00     0.031 C 
ATOM     39  C   UNL A   1      43.944  29.225  32.705  1.00  0.00     0.031 A 
BRANCH  26  40
ATOM     40  C   UNL A   1      41.277  34.202  35.237  1.00  0.00    -0.014 A 
ATOM     41  C   UNL A   1      41.885  35.425  34.915  1.00  0.00     0.009 A 
ATOM     42  C   UNL A   1      40.728  34.028  36.516  1.00  0.00     0.009 A 
ATOM     43  C   UNL A   1      41.963  36.444  35.867  1.00  0.00     0.001 A 
ATOM     44  C   UNL A   1      40.791  35.055  37.460  1.00  0.00     0.001 A 
ATOM     45  C   UNL A   1      41.415  36.258  37.137  1.00  0.00     0.000 A 
ENDBRANCH  26  40
BRANCH  27  46
ATOM     46  C   UNL A   1      40.374  26.849  28.415  1.00  0.00    -0.014 A 
ATOM     47  C   UNL A   1      40.937  26.999  27.140  1.00  0.00     0.009 A 
ATOM     48  C   UNL A   1      39.663  25.671  28.704  1.00  0.00     0.009 A 
ATOM     49  C   UNL A   1      40.767  26.006  26.169  1.00  0.00     0.001 A 
ATOM     50  C   UNL A   1      39.522  24.668  27.743  1.00  0.00     0.001 A 
ATOM     51  C   UNL A   1      40.064  24.841  26.472  1.00  0.00     0.000 A 
ENDBRANCH  27  46
BRANCH  39  52
ATOM     52  C   UNL A   1      45.294  28.643  32.999  1.00  0.00    -0.014 A 
ATOM     53  C   UNL A   1      46.437  29.108  32.330  1.00  0.00     0.009 A 
ATOM     54  C   UNL A   1      45.428  27.660  33.991  1.00  0.00     0.009 A 
ATOM     55  C   UNL A   1      47.690  28.576  32.634  1.00  0.00     0.001 A 
ATOM     56  C   UNL A   1      46.686  27.150  34.309  1.00  0.00     0.001 A 
ATOM     57  C   UNL A   1      47.813  27.604  33.626  1.00  0.00     0.000 A 
ENDBRANCH  39  52
ENDBRANCH  13  14
ENDBRANCH   6   8
ENDBRANCH   5   6
ENDBRANCH   4   5
ENDBRANCH   3   4
ENDBRANCH   2   3
ENDBRANCH   1   2
BRANCH   1  58
ATOM     58  C   UNL A   1      32.577  28.890  27.319  1.00  0.00     0.261 C 
BRANCH  58  59
ATOM     59  O   UNL A   1      31.407  28.491  26.595  1.00  0.00    -0.463 OA
BRANCH  59  60
ATOM     60  C   UNL A   1      31.493  27.262  26.026  1.00  0.00     0.310 C 
ATOM     61  O   UNL A   1      31.672  26.216  26.643  1.00  0.00    -0.252 OA
BRANCH  60  62
ATOM     62  C   UNL A   1      31.294  27.292  24.522  1.00  0.00     0.115 C 
ATOM     63  C   UNL A   1      31.454  28.669  23.861  1.00  0.00     0.043 C 
ATOM     64  C   UNL A   1      32.224  26.213  23.946  1.00  0.00     0.097 C 
ATOM     65  C   UNL A   1      32.878  29.059  23.623  1.00  0.00    -0.030 C 
ATOM     66  C   UNL A   1      33.662  26.693  23.756  1.00  0.00     0.041 C 
ATOM     67  C   UNL A   1      33.869  28.162  23.585  1.00  0.00    -0.030 C 
BRANCH  64  68
ATOM     68  C   UNL A   1      31.605  25.532  22.741  1.00  0.00     0.224 C 
ATOM     69  O   UNL A   1      31.406  26.145  21.690  1.00  0.00    -0.275 OA
ATOM     70  N   UNL A   1      31.193  24.236  22.805  1.00  0.00    -0.344 N 
ATOM     71  H   UNL A   1      30.642  23.974  22.034  1.00  0.00     0.164 HD
BRANCH  70  72
ATOM     72  C   UNL A   1      31.385  23.136  23.767  1.00  0.00     0.172 C 
ATOM     73  C   UNL A   1      30.653  23.210  25.106  1.00  0.00     0.037 C 
ATOM     74  C   UNL A   1      32.853  22.677  23.744  1.00  0.00     0.249 C 
ATOM     75  C   UNL A   1      31.437  22.609  26.261  1.00  0.00     0.025 C 
ATOM     76  N   UNL A   1      33.550  22.652  24.950  1.00  0.00    -0.308 N 
ATOM     77  O   UNL A   1      33.337  22.320  22.665  1.00  0.00    -0.272 OA
ATOM     78  C   UNL A   1      32.908  22.981  26.219  1.00  0.00     0.126 C 
BRANCH  76  79
ATOM     79  C   UNL A   1      34.970  22.435  24.939  1.00  0.00     0.080 A 
ATOM     80  C   UNL A   1      35.854  23.522  24.911  1.00  0.00     0.029 A 
ATOM     81  C   UNL A   1      35.524  21.142  24.977  1.00  0.00     0.146 A 
ATOM     82  C   UNL A   1      37.240  23.318  24.957  1.00  0.00     0.002 A 
ATOM     83  C   UNL A   1      36.901  20.936  25.014  1.00  0.00     0.041 A 
ATOM     84  F   UNL A   1      34.743  20.055  24.888  1.00  0.00    -0.205 F 
ATOM     85  C   UNL A   1      37.763  22.027  25.013  1.00  0.00     0.003 A 
ENDBRANCH  76  79
ENDBRANCH  70  72
ENDBRANCH  64  68
ENDBRANCH  60  62
ENDBRANCH  59  60
ENDBRANCH  58  59
ENDBRANCH   1  58
TORSDOF 17
ENDMDL
MODEL 3
REMARK VINA RESULT:     -11.1      3.895      9.028
REMARK SMILES O=C(OCCOCCOC(=O)[C@H]1CC=CC[C@@H]1C(=O)N[C@@H]1CCCN(c2ccccc2F)C1=O)c1ccc(-c2c3nc(c(-c4ccccc4)c4ccc([nH]4)c(-c4ccccc4)c4nc(c(-c5ccccc5)c5ccc2[nH]5)C=C4)C=C3)cc1
REMARK SMILES IDX 7 1 6 2 5 3 4 4 3 5 2 6 1 7 35 8 36 9 82 10 37 11 81 12
REMARK SMILES IDX 38 13 39 14 40 15 75 16 41 17 80 18 74 19 76 20 42 21 79 22
REMARK SMILES IDX 73 23 72 24 43 26 65 27 50 28 64 29 51 30 54 31 63 32 77 33
REMARK SMILES IDX 52 34 53 35 62 37 78 38 55 39 44 40 45 41 49 42 46 43 48 44
REMARK SMILES IDX 47 45 66 46 67 47 71 48 68 49 70 50 69 51 56 52 57 53 61 54
REMARK SMILES IDX 58 55 60 56 59 57 8 58 9 59 10 60 11 61 12 62 13 63 17 64
REMARK SMILES IDX 14 65 16 66 15 67 18 68 19 69 20 70 21 72 22 73 33 74 23 75
REMARK SMILES IDX 25 76 34 77 24 78 26 79 27 80 31 81 28 82 30 83 32 84 29 85
REMARK H PARENT 76 25 54 36 20 71
REMARK Flexibility Score: inf
ROOT
ATOM      1  C   UNL A   1      33.806  29.616  27.320  1.00  0.00     0.202 C 
ENDROOT
BRANCH   1   2
ATOM      2  O   UNL A   1      32.818  30.637  27.143  1.00  0.00    -0.374 OA
BRANCH   2   3
ATOM      3  C   UNL A   1      33.293  31.982  27.251  1.00  0.00     0.202 C 
BRANCH   3   4
ATOM      4  C   UNL A   1      32.153  33.001  27.327  1.00  0.00     0.261 C 
BRANCH   4   5
ATOM      5  O   UNL A   1      32.642  34.284  27.746  1.00  0.00    -0.460 OA
BRANCH   5   6
ATOM      6  C   UNL A   1      33.147  34.633  28.952  1.00  0.00     0.338 C 
ATOM      7  O   UNL A   1      32.542  35.481  29.607  1.00  0.00    -0.246 OA
BRANCH   6   8
ATOM      8  C   UNL A   1      34.372  34.028  29.572  1.00  0.00     0.060 A 
ATOM      9  C   UNL A   1      34.405  33.174  30.677  1.00  0.00     0.016 A 
ATOM     10  C   UNL A   1      35.587  34.280  28.907  1.00  0.00     0.016 A 
ATOM     11  C   UNL A   1      35.587  32.592  31.115  1.00  0.00     0.010 A 
ATOM     12  C   UNL A   1      36.782  33.695  29.334  1.00  0.00     0.010 A 
ATOM     13  C   UNL A   1      36.778  32.848  30.443  1.00  0.00    -0.014 A 
BRANCH  13  14
ATOM     14  C   UNL A   1      38.015  32.271  30.986  1.00  0.00     0.031 A 
ATOM     15  C   UNL A   1      38.588  31.063  30.318  1.00  0.00     0.074 A 
ATOM     16  C   UNL A   1      38.655  32.903  31.986  1.00  0.00     0.049 A 
ATOM     17  N   UNL A   1      39.646  30.369  30.637  1.00  0.00    -0.248 NA
ATOM     18  C   UNL A   1      37.883  30.581  29.117  1.00  0.00     0.031 C 
ATOM     19  C   UNL A   1      38.221  34.158  32.607  1.00  0.00     0.029 A 
ATOM     20  N   UNL A   1      39.815  32.591  32.640  1.00  0.00    -0.354 N 
ATOM     21  C   UNL A   1      39.722  29.357  29.691  1.00  0.00     0.074 A 
ATOM     22  C   UNL A   1      38.613  29.528  28.781  1.00  0.00     0.031 C 
ATOM     23  C   UNL A   1      39.113  34.512  33.546  1.00  0.00     0.029 A 
ATOM     24  C   UNL A   1      40.141  33.482  33.633  1.00  0.00     0.049 A 
ATOM     25  H   UNL A   1      40.364  31.804  32.418  1.00  0.00     0.167 HD
ATOM     26  C   UNL A   1      40.633  28.361  29.611  1.00  0.00     0.031 A 
ATOM     27  C   UNL A   1      41.140  33.435  34.533  1.00  0.00     0.031 A 
ATOM     28  C   UNL A   1      41.710  28.203  30.546  1.00  0.00     0.049 A 
ATOM     29  C   UNL A   1      42.074  32.256  34.486  1.00  0.00     0.074 A 
ATOM     30  C   UNL A   1      42.662  27.204  30.610  1.00  0.00     0.029 A 
ATOM     31  N   UNL A   1      41.968  29.078  31.593  1.00  0.00    -0.354 N 
ATOM     32  N   UNL A   1      42.118  31.273  33.616  1.00  0.00    -0.248 NA
ATOM     33  C   UNL A   1      43.078  32.164  35.552  1.00  0.00     0.031 C 
ATOM     34  C   UNL A   1      43.468  27.450  31.729  1.00  0.00     0.029 A 
ATOM     35  C   UNL A   1      43.046  28.627  32.329  1.00  0.00     0.049 A 
ATOM     36  H   UNL A   1      41.459  29.899  31.782  1.00  0.00     0.167 HD
ATOM     37  C   UNL A   1      43.153  30.447  34.028  1.00  0.00     0.074 A 
ATOM     38  C   UNL A   1      43.731  31.063  35.208  1.00  0.00     0.031 C 
ATOM     39  C   UNL A   1      43.582  29.277  33.497  1.00  0.00     0.031 A 
BRANCH  26  40
ATOM     40  C   UNL A   1      40.435  27.338  28.534  1.00  0.00    -0.014 A 
ATOM     41  C   UNL A   1      39.653  26.192  28.742  1.00  0.00     0.009 A 
ATOM     42  C   UNL A   1      41.061  27.521  27.292  1.00  0.00     0.009 A 
ATOM     43  C   UNL A   1      39.523  25.235  27.732  1.00  0.00     0.001 A 
ATOM     44  C   UNL A   1      40.914  26.573  26.278  1.00  0.00     0.001 A 
ATOM     45  C   UNL A   1      40.153  25.428  26.502  1.00  0.00     0.000 A 
ENDBRANCH  26  40
BRANCH  27  46
ATOM     46  C   UNL A   1      41.256  34.470  35.596  1.00  0.00    -0.014 A 
ATOM     47  C   UNL A   1      42.073  35.597  35.425  1.00  0.00     0.009 A 
ATOM     48  C   UNL A   1      40.570  34.314  36.812  1.00  0.00     0.009 A 
ATOM     49  C   UNL A   1      42.223  36.527  36.459  1.00  0.00     0.001 A 
ATOM     50  C   UNL A   1      40.696  35.261  37.831  1.00  0.00     0.001 A 
ATOM     51  C   UNL A   1      41.532  36.361  37.658  1.00  0.00     0.000 A 
ENDBRANCH  27  46
BRANCH  39  52
ATOM     52  C   UNL A   1      44.730  28.606  34.189  1.00  0.00    -0.014 A 
ATOM     53  C   UNL A   1      46.055  28.943  33.873  1.00  0.00     0.009 A 
ATOM     54  C   UNL A   1      44.481  27.667  35.202  1.00  0.00     0.009 A 
ATOM     55  C   UNL A   1      47.112  28.330  34.545  1.00  0.00     0.001 A 
ATOM     56  C   UNL A   1      45.541  27.075  35.887  1.00  0.00     0.001 A 
ATOM     57  C   UNL A   1      46.854  27.402  35.553  1.00  0.00     0.000 A 
ENDBRANCH  39  52
ENDBRANCH  13  14
ENDBRANCH   6   8
ENDBRANCH   5   6
ENDBRANCH   4   5
ENDBRANCH   3   4
ENDBRANCH   2   3
ENDBRANCH   1   2
BRANCH   1  58
ATOM     58  C   UNL A   1      33.152  28.239  27.252  1.00  0.00     0.261 C 
BRANCH  58  59
ATOM     59  O   UNL A   1      31.885  28.376  26.598  1.00  0.00    -0.463 OA
BRANCH  59  60
ATOM     60  C   UNL A   1      31.403  27.225  26.065  1.00  0.00     0.310 C 
ATOM     61  O   UNL A   1      31.089  26.231  26.712  1.00  0.00    -0.252 OA
BRANCH  60  62
ATOM     62  C   UNL A   1      31.239  27.296  24.557  1.00  0.00     0.115 C 
ATOM     63  C   UNL A   1      31.341  28.701  23.947  1.00  0.00     0.043 C 
ATOM     64  C   UNL A   1      32.238  26.288  23.970  1.00  0.00     0.097 C 
ATOM     65  C   UNL A   1      32.748  29.172  23.757  1.00  0.00    -0.030 C 
ATOM     66  C   UNL A   1      33.652  26.847  23.833  1.00  0.00     0.041 C 
ATOM     67  C   UNL A   1      33.786  28.330  23.715  1.00  0.00    -0.030 C 
BRANCH  64  68
ATOM     68  C   UNL A   1      31.684  25.617  22.728  1.00  0.00     0.224 C 
ATOM     69  O   UNL A   1      31.518  26.244  21.680  1.00  0.00    -0.275 OA
ATOM     70  N   UNL A   1      31.296  24.311  22.752  1.00  0.00    -0.344 N 
ATOM     71  H   UNL A   1      30.783  24.054  21.953  1.00  0.00     0.164 HD
BRANCH  70  72
ATOM     72  C   UNL A   1      31.468  23.198  23.702  1.00  0.00     0.172 C 
ATOM     73  C   UNL A   1      30.652  23.217  24.994  1.00  0.00     0.037 C 
ATOM     74  C   UNL A   1      32.951  22.793  23.762  1.00  0.00     0.249 C 
ATOM     75  C   UNL A   1      31.386  22.619  26.183  1.00  0.00     0.025 C 
ATOM     76  N   UNL A   1      33.572  22.766  25.007  1.00  0.00    -0.308 N 
ATOM     77  O   UNL A   1      33.514  22.477  22.708  1.00  0.00    -0.272 OA
ATOM     78  C   UNL A   1      32.842  23.044  26.241  1.00  0.00     0.126 C 
BRANCH  76  79
ATOM     79  C   UNL A   1      34.998  22.600  25.081  1.00  0.00     0.080 A 
ATOM     80  C   UNL A   1      35.837  23.715  25.209  1.00  0.00     0.029 A 
ATOM     81  C   UNL A   1      35.599  21.328  25.051  1.00  0.00     0.146 A 
ATOM     82  C   UNL A   1      37.223  23.556  25.337  1.00  0.00     0.002 A 
ATOM     83  C   UNL A   1      36.978  21.168  25.169  1.00  0.00     0.041 A 
ATOM     84  F   UNL A   1      34.871  20.227  24.815  1.00  0.00    -0.205 F 
ATOM     85  C   UNL A   1      37.793  22.284  25.323  1.00  0.00     0.003 A 
ENDBRANCH  76  79
ENDBRANCH  70  72
ENDBRANCH  64  68
ENDBRANCH  60  62
ENDBRANCH  59  60
ENDBRANCH  58  59
ENDBRANCH   1  58
TORSDOF 17
ENDMDL
