MODEL 1
REMARK VINA RESULT:      -9.1      0.000      0.000
REMARK SMILES O=C(CN1C(=O)/C(=C\c2cccs2)SC1=S)Nc1ccccc1C(=O)OCCOCCOC(=O)c1ccc(-c2c3nc(c(-c4ccccc4)c4ccc([nH]4)c(-c4ccccc4)c4nc(c(-c5ccccc5)c5ccc2[nH]5)C=C4)C=C3)cc1
REMARK SMILES IDX 28 1 27 2 26 3 24 4 25 5 23 6 18 7 19 8 20 9 22 10 21 11
REMARK SMILES IDX 17 12 1 13 2 14 3 16 4 17 5 18 15 19 6 20 7 21 14 22 16 23
REMARK SMILES IDX 8 24 9 25 10 26 13 27 11 28 12 29 29 30 30 31 31 32 32 33
REMARK SMILES IDX 33 34 34 35 35 36 36 37 82 38 37 39 81 40 38 41 39 42 40 43
REMARK SMILES IDX 75 44 41 45 80 46 74 47 76 48 42 49 79 50 73 51 72 52 43 54
REMARK SMILES IDX 65 55 50 56 64 57 51 58 54 59 63 60 77 61 52 62 53 63 62 65
REMARK SMILES IDX 78 66 55 67 44 68 45 69 49 70 46 71 48 72 47 73 66 74 67 75
REMARK SMILES IDX 71 76 68 77 70 78 69 79 56 80 57 81 61 82 58 83 60 84 59 85
REMARK H PARENT 17 15 76 53 54 64
REMARK Flexibility Score: inf
ROOT
ATOM      1  C   UNL A   1      46.067  22.766  24.599  1.00  0.00     0.202 C 
ENDROOT
BRANCH   1   2
ATOM      2  C   UNL A   1      46.497  24.031  25.346  1.00  0.00     0.261 C 
BRANCH   2   3
ATOM      3  O   UNL A   1      45.657  25.144  25.000  1.00  0.00    -0.460 OA
BRANCH   3   4
ATOM      4  C   UNL A   1      45.685  26.184  25.877  1.00  0.00     0.340 C 
ATOM      5  O   UNL A   1      46.646  26.543  26.541  1.00  0.00    -0.246 OA
BRANCH   4   6
ATOM      6  C   UNL A   1      44.447  26.997  25.751  1.00  0.00     0.083 A 
ATOM      7  C   UNL A   1      44.225  28.271  26.313  1.00  0.00     0.055 A 
ATOM      8  C   UNL A   1      42.930  28.816  26.241  1.00  0.00     0.027 A 
ATOM      9  C   UNL A   1      41.895  28.146  25.577  1.00  0.00     0.002 A 
ATOM     10  C   UNL A   1      43.392  26.330  25.095  1.00  0.00     0.018 A 
ATOM     11  C   UNL A   1      42.126  26.904  25.001  1.00  0.00     0.001 A 
BRANCH   7  12
ATOM     12  N   UNL A   1      45.196  29.082  26.957  1.00  0.00    -0.324 N 
ATOM     13  O   UNL A   1      46.403  29.739  25.102  1.00  0.00    -0.273 OA
ATOM     14  C   UNL A   1      46.271  29.673  26.321  1.00  0.00     0.244 C 
ATOM     15  H   UNL A   1      45.097  29.234  27.925  1.00  0.00     0.170 HD
BRANCH  14  16
ATOM     16  C   UNL A   1      47.318  30.284  27.247  1.00  0.00     0.227 C 
BRANCH  16  17
ATOM     17  N   UNL A   1      47.651  31.661  26.885  1.00  0.00    -0.283 N 
ATOM     18  C   UNL A   1      46.625  32.562  26.663  1.00  0.00     0.266 C 
ATOM     19  C   UNL A   1      48.936  32.160  26.820  1.00  0.00     0.148 C 
ATOM     20  O   UNL A   1      45.445  32.264  26.559  1.00  0.00    -0.268 OA
ATOM     21  C   UNL A   1      47.177  33.938  26.510  1.00  0.00     0.081 C 
ATOM     22  S   UNL A   1      48.886  33.837  26.291  1.00  0.00    -0.054 SA
ATOM     23  S   UNL A   1      50.372  31.398  27.174  1.00  0.00    -0.052 S 
ATOM     24  C   UNL A   1      46.546  35.116  26.604  1.00  0.00     0.040 C 
BRANCH  24  25
ATOM     25  C   UNL A   1      45.203  35.259  27.038  1.00  0.00     0.028 A 
ATOM     26  C   UNL A   1      44.054  35.356  26.271  1.00  0.00     0.020 A 
ATOM     27  S   UNL A   1      44.819  35.202  28.710  1.00  0.00    -0.144 S 
ATOM     28  C   UNL A   1      42.865  35.385  27.054  1.00  0.00     0.012 A 
ATOM     29  C   UNL A   1      43.140  35.317  28.401  1.00  0.00     0.065 A 
ENDBRANCH  24  25
ENDBRANCH  16  17
ENDBRANCH  14  16
ENDBRANCH   7  12
ENDBRANCH   4   6
ENDBRANCH   3   4
ENDBRANCH   2   3
ENDBRANCH   1   2
BRANCH   1  30
ATOM     30  O   UNL A   1      45.616  21.675  25.399  1.00  0.00    -0.374 OA
BRANCH  30  31
ATOM     31  C   UNL A   1      45.934  20.354  24.965  1.00  0.00     0.202 C 
BRANCH  31  32
ATOM     32  C   UNL A   1      44.816  19.307  25.049  1.00  0.00     0.261 C 
BRANCH  32  33
ATOM     33  O   UNL A   1      43.529  19.791  24.620  1.00  0.00    -0.460 OA
BRANCH  33  34
ATOM     34  C   UNL A   1      42.550  19.677  25.548  1.00  0.00     0.338 C 
ATOM     35  O   UNL A   1      41.948  18.663  25.877  1.00  0.00    -0.246 OA
BRANCH  34  36
ATOM     36  C   UNL A   1      42.346  20.955  26.250  1.00  0.00     0.060 A 
ATOM     37  C   UNL A   1      42.478  22.138  25.512  1.00  0.00     0.016 A 
ATOM     38  C   UNL A   1      42.169  20.997  27.634  1.00  0.00     0.016 A 
ATOM     39  C   UNL A   1      42.484  23.369  26.164  1.00  0.00     0.010 A 
ATOM     40  C   UNL A   1      42.182  22.235  28.287  1.00  0.00     0.010 A 
ATOM     41  C   UNL A   1      42.378  23.422  27.561  1.00  0.00    -0.014 A 
BRANCH  41  42
ATOM     42  C   UNL A   1      42.593  24.708  28.264  1.00  0.00     0.031 A 
ATOM     43  C   UNL A   1      43.940  25.007  28.866  1.00  0.00     0.074 A 
ATOM     44  C   UNL A   1      41.605  25.616  28.346  1.00  0.00     0.049 A 
ATOM     45  N   UNL A   1      44.332  26.065  29.532  1.00  0.00    -0.248 NA
ATOM     46  C   UNL A   1      44.981  23.981  28.696  1.00  0.00     0.031 C 
ATOM     47  C   UNL A   1      40.269  25.466  27.769  1.00  0.00     0.029 A 
ATOM     48  N   UNL A   1      41.576  26.846  28.953  1.00  0.00    -0.354 N 
ATOM     49  C   UNL A   1      45.664  25.834  29.857  1.00  0.00     0.074 A 
ATOM     50  C   UNL A   1      46.002  24.523  29.345  1.00  0.00     0.031 C 
ATOM     51  C   UNL A   1      39.548  26.563  28.056  1.00  0.00     0.029 A 
ATOM     52  C   UNL A   1      40.362  27.477  28.856  1.00  0.00     0.049 A 
ATOM     53  H   UNL A   1      42.353  27.237  29.414  1.00  0.00     0.167 HD
ATOM     54  C   UNL A   1      46.530  26.641  30.515  1.00  0.00     0.031 A 
ATOM     55  C   UNL A   1      39.950  28.654  29.365  1.00  0.00     0.031 A 
ATOM     56  C   UNL A   1      46.199  27.942  31.031  1.00  0.00     0.049 A 
ATOM     57  C   UNL A   1      40.911  29.501  30.155  1.00  0.00     0.074 A 
ATOM     58  C   UNL A   1      47.016  28.840  31.697  1.00  0.00     0.029 A 
ATOM     59  N   UNL A   1      44.947  28.529  30.946  1.00  0.00    -0.354 N 
ATOM     60  N   UNL A   1      42.172  29.280  30.433  1.00  0.00    -0.248 NA
ATOM     61  C   UNL A   1      40.389  30.766  30.693  1.00  0.00     0.031 C 
ATOM     62  C   UNL A   1      46.244  29.948  32.060  1.00  0.00     0.029 A 
ATOM     63  C   UNL A   1      44.960  29.762  31.574  1.00  0.00     0.049 A 
ATOM     64  H   UNL A   1      44.163  28.128  30.504  1.00  0.00     0.167 HD
ATOM     65  C   UNL A   1      42.602  30.388  31.154  1.00  0.00     0.074 A 
ATOM     66  C   UNL A   1      41.470  31.284  31.260  1.00  0.00     0.031 C 
ATOM     67  C   UNL A   1      43.825  30.642  31.678  1.00  0.00     0.031 A 
BRANCH  54  68
ATOM     68  C   UNL A   1      47.921  26.121  30.746  1.00  0.00    -0.014 A 
ATOM     69  C   UNL A   1      48.902  26.191  29.745  1.00  0.00     0.009 A 
ATOM     70  C   UNL A   1      48.266  25.594  32.000  1.00  0.00     0.009 A 
ATOM     71  C   UNL A   1      50.193  25.714  29.986  1.00  0.00     0.001 A 
ATOM     72  C   UNL A   1      49.564  25.142  32.246  1.00  0.00     0.001 A 
ATOM     73  C   UNL A   1      50.523  25.194  31.238  1.00  0.00     0.000 A 
ENDBRANCH  54  68
BRANCH  55  74
ATOM     74  C   UNL A   1      38.548  29.097  29.159  1.00  0.00    -0.014 A 
ATOM     75  C   UNL A   1      38.153  29.686  27.949  1.00  0.00     0.009 A 
ATOM     76  C   UNL A   1      37.600  28.945  30.184  1.00  0.00     0.009 A 
ATOM     77  C   UNL A   1      36.841  30.134  27.777  1.00  0.00     0.001 A 
ATOM     78  C   UNL A   1      36.284  29.368  29.999  1.00  0.00     0.001 A 
ATOM     79  C   UNL A   1      35.907  29.970  28.800  1.00  0.00     0.000 A 
ENDBRANCH  55  74
BRANCH  67  80
ATOM     80  C   UNL A   1      44.012  31.951  32.393  1.00  0.00    -0.014 A 
ATOM     81  C   UNL A   1      43.809  32.060  33.777  1.00  0.00     0.009 A 
ATOM     82  C   UNL A   1      44.435  33.081  31.676  1.00  0.00     0.009 A 
ATOM     83  C   UNL A   1      43.996  33.283  34.423  1.00  0.00     0.001 A 
ATOM     84  C   UNL A   1      44.648  34.296  32.330  1.00  0.00     0.001 A 
ATOM     85  C   UNL A   1      44.419  34.399  33.701  1.00  0.00     0.000 A 
ENDBRANCH  67  80
ENDBRANCH  41  42
ENDBRANCH  34  36
ENDBRANCH  33  34
ENDBRANCH  32  33
ENDBRANCH  31  32
ENDBRANCH  30  31
ENDBRANCH   1  30
TORSDOF 18
ENDMDL
MODEL 2
REMARK VINA RESULT:      -8.3      4.855      9.610
REMARK SMILES O=C(CN1C(=O)/C(=C\c2cccs2)SC1=S)Nc1ccccc1C(=O)OCCOCCOC(=O)c1ccc(-c2c3nc(c(-c4ccccc4)c4ccc([nH]4)c(-c4ccccc4)c4nc(c(-c5ccccc5)c5ccc2[nH]5)C=C4)C=C3)cc1
REMARK SMILES IDX 28 1 27 2 26 3 24 4 25 5 23 6 18 7 19 8 20 9 22 10 21 11
REMARK SMILES IDX 17 12 1 13 2 14 3 16 4 17 5 18 15 19 6 20 7 21 14 22 16 23
REMARK SMILES IDX 8 24 9 25 10 26 13 27 11 28 12 29 29 30 30 31 31 32 32 33
REMARK SMILES IDX 33 34 34 35 35 36 36 37 82 38 37 39 81 40 38 41 39 42 40 43
REMARK SMILES IDX 75 44 41 45 80 46 74 47 76 48 42 49 79 50 73 51 72 52 43 54
REMARK SMILES IDX 65 55 50 56 64 57 51 58 54 59 63 60 77 61 52 62 53 63 62 65
REMARK SMILES IDX 78 66 55 67 44 68 45 69 49 70 46 71 48 72 47 73 66 74 67 75
REMARK SMILES IDX 71 76 68 77 70 78 69 79 56 80 57 81 61 82 58 83 60 84 59 85
REMARK H PARENT 17 15 76 53 54 64
REMARK Flexibility Score: inf
ROOT
ATOM      1  C   UNL A   1      42.218  18.965  26.378  1.00  0.00     0.202 C 
ENDROOT
BRANCH   1   2
ATOM      2  C   UNL A   1      40.724  19.284  26.473  1.00  0.00     0.261 C 
BRANCH   2   3
ATOM      3  O   UNL A   1      40.292  20.066  25.348  1.00  0.00    -0.460 OA
BRANCH   3   4
ATOM      4  C   UNL A   1      38.989  20.457  25.381  1.00  0.00     0.340 C 
ATOM      5  O   UNL A   1      38.017  19.745  25.180  1.00  0.00    -0.246 OA
BRANCH   4   6
ATOM      6  C   UNL A   1      38.878  21.831  25.936  1.00  0.00     0.083 A 
ATOM      7  C   UNL A   1      37.799  22.720  25.752  1.00  0.00     0.055 A 
ATOM      8  C   UNL A   1      37.942  24.045  26.203  1.00  0.00     0.027 A 
ATOM      9  C   UNL A   1      39.098  24.465  26.872  1.00  0.00     0.002 A 
ATOM     10  C   UNL A   1      40.040  22.272  26.604  1.00  0.00     0.018 A 
ATOM     11  C   UNL A   1      40.147  23.578  27.076  1.00  0.00     0.001 A 
BRANCH   7  12
ATOM     12  N   UNL A   1      36.553  22.410  25.147  1.00  0.00    -0.324 N 
ATOM     13  O   UNL A   1      36.991  23.174  23.012  1.00  0.00    -0.273 OA
ATOM     14  C   UNL A   1      36.204  22.750  23.854  1.00  0.00     0.244 C 
ATOM     15  H   UNL A   1      35.891  21.919  25.686  1.00  0.00     0.170 HD
BRANCH  14  16
ATOM     16  C   UNL A   1      34.734  22.543  23.503  1.00  0.00     0.227 C 
BRANCH  16  17
ATOM     17  N   UNL A   1      33.839  22.915  24.598  1.00  0.00    -0.283 N 
ATOM     18  C   UNL A   1      33.879  24.209  25.085  1.00  0.00     0.266 C 
ATOM     19  C   UNL A   1      32.886  22.079  25.143  1.00  0.00     0.148 C 
ATOM     20  O   UNL A   1      34.736  25.034  24.805  1.00  0.00    -0.268 OA
ATOM     21  C   UNL A   1      32.760  24.429  26.045  1.00  0.00     0.081 C 
ATOM     22  S   UNL A   1      32.076  22.903  26.470  1.00  0.00    -0.054 SA
ATOM     23  S   UNL A   1      32.471  20.532  24.692  1.00  0.00    -0.052 S 
ATOM     24  C   UNL A   1      32.243  25.583  26.488  1.00  0.00     0.040 C 
BRANCH  24  25
ATOM     25  C   UNL A   1      32.597  26.856  25.972  1.00  0.00     0.028 A 
ATOM     26  C   UNL A   1      33.464  27.794  26.508  1.00  0.00     0.020 A 
ATOM     27  S   UNL A   1      32.028  27.359  24.434  1.00  0.00    -0.144 S 
ATOM     28  C   UNL A   1      33.657  28.920  25.658  1.00  0.00     0.012 A 
ATOM     29  C   UNL A   1      32.924  28.815  24.499  1.00  0.00     0.065 A 
ENDBRANCH  24  25
ENDBRANCH  16  17
ENDBRANCH  14  16
ENDBRANCH   7  12
ENDBRANCH   4   6
ENDBRANCH   3   4
ENDBRANCH   2   3
ENDBRANCH   1   2
BRANCH   1  30
ATOM     30  O   UNL A   1      42.838  19.185  25.113  1.00  0.00    -0.374 OA
BRANCH  30  31
ATOM     31  C   UNL A   1      44.213  18.831  24.974  1.00  0.00     0.202 C 
BRANCH  31  32
ATOM     32  C   UNL A   1      45.197  19.971  24.682  1.00  0.00     0.261 C 
BRANCH  32  33
ATOM     33  O   UNL A   1      44.915  21.185  25.403  1.00  0.00    -0.460 OA
BRANCH  33  34
ATOM     34  C   UNL A   1      44.522  22.221  24.624  1.00  0.00     0.338 C 
ATOM     35  O   UNL A   1      44.377  22.227  23.409  1.00  0.00    -0.246 OA
BRANCH  34  36
ATOM     36  C   UNL A   1      44.153  23.382  25.450  1.00  0.00     0.060 A 
ATOM     37  C   UNL A   1      43.731  24.545  24.795  1.00  0.00     0.016 A 
ATOM     38  C   UNL A   1      44.351  23.377  26.832  1.00  0.00     0.016 A 
ATOM     39  C   UNL A   1      43.554  25.725  25.514  1.00  0.00     0.010 A 
ATOM     40  C   UNL A   1      44.180  24.565  27.551  1.00  0.00     0.010 A 
ATOM     41  C   UNL A   1      43.818  25.752  26.891  1.00  0.00    -0.014 A 
BRANCH  41  42
ATOM     42  C   UNL A   1      43.831  27.048  27.610  1.00  0.00     0.031 A 
ATOM     43  C   UNL A   1      42.528  27.704  27.980  1.00  0.00     0.074 A 
ATOM     44  C   UNL A   1      44.995  27.626  27.953  1.00  0.00     0.049 A 
ATOM     45  N   UNL A   1      42.320  28.840  28.596  1.00  0.00    -0.248 NA
ATOM     46  C   UNL A   1      41.299  26.986  27.606  1.00  0.00     0.031 C 
ATOM     47  C   UNL A   1      46.323  27.073  27.691  1.00  0.00     0.029 A 
ATOM     48  N   UNL A   1      45.242  28.812  28.597  1.00  0.00    -0.354 N 
ATOM     49  C   UNL A   1      40.939  28.973  28.688  1.00  0.00     0.074 A 
ATOM     50  C   UNL A   1      40.360  27.818  28.034  1.00  0.00     0.031 C 
ATOM     51  C   UNL A   1      47.249  27.925  28.167  1.00  0.00     0.029 A 
ATOM     52  C   UNL A   1      46.578  29.090  28.741  1.00  0.00     0.049 A 
ATOM     53  H   UNL A   1      44.529  29.406  28.923  1.00  0.00     0.167 HD
ATOM     54  C   UNL A   1      40.217  29.961  29.269  1.00  0.00     0.031 A 
ATOM     55  C   UNL A   1      47.190  30.168  29.266  1.00  0.00     0.031 A 
ATOM     56  C   UNL A   1      40.786  31.113  29.915  1.00  0.00     0.049 A 
ATOM     57  C   UNL A   1      46.365  31.287  29.842  1.00  0.00     0.074 A 
ATOM     58  C   UNL A   1      40.133  32.157  30.548  1.00  0.00     0.029 A 
ATOM     59  N   UNL A   1      42.142  31.376  30.006  1.00  0.00    -0.354 N 
ATOM     60  N   UNL A   1      45.062  31.386  29.942  1.00  0.00    -0.248 NA
ATOM     61  C   UNL A   1      47.100  32.440  30.385  1.00  0.00     0.031 C 
ATOM     62  C   UNL A   1      41.094  33.079  30.975  1.00  0.00     0.029 A 
ATOM     63  C   UNL A   1      42.347  32.582  30.655  1.00  0.00     0.049 A 
ATOM     64  H   UNL A   1      42.857  30.792  29.660  1.00  0.00     0.167 HD
ATOM     65  C   UNL A   1      44.822  32.596  30.582  1.00  0.00     0.074 A 
ATOM     66  C   UNL A   1      46.114  33.190  30.857  1.00  0.00     0.031 C 
ATOM     67  C   UNL A   1      43.638  33.164  30.916  1.00  0.00     0.031 A 
BRANCH  54  68
ATOM     68  C   UNL A   1      38.719  29.855  29.202  1.00  0.00    -0.014 A 
ATOM     69  C   UNL A   1      37.966  29.444  30.313  1.00  0.00     0.009 A 
ATOM     70  C   UNL A   1      38.050  30.213  28.022  1.00  0.00     0.009 A 
ATOM     71  C   UNL A   1      36.574  29.366  30.232  1.00  0.00     0.001 A 
ATOM     72  C   UNL A   1      36.657  30.158  27.952  1.00  0.00     0.001 A 
ATOM     73  C   UNL A   1      35.920  29.727  29.053  1.00  0.00     0.000 A 
ENDBRANCH  54  68
BRANCH  55  74
ATOM     74  C   UNL A   1      48.672  30.253  29.257  1.00  0.00    -0.014 A 
ATOM     75  C   UNL A   1      49.351  30.836  28.177  1.00  0.00     0.009 A 
ATOM     76  C   UNL A   1      49.417  29.732  30.328  1.00  0.00     0.009 A 
ATOM     77  C   UNL A   1      50.747  30.877  28.159  1.00  0.00     0.001 A 
ATOM     78  C   UNL A   1      50.811  29.801  30.321  1.00  0.00     0.001 A 
ATOM     79  C   UNL A   1      51.475  30.364  29.233  1.00  0.00     0.000 A 
ENDBRANCH  55  74
BRANCH  67  80
ATOM     80  C   UNL A   1      43.683  34.482  31.638  1.00  0.00    -0.014 A 
ATOM     81  C   UNL A   1      43.642  34.546  33.039  1.00  0.00     0.009 A 
ATOM     82  C   UNL A   1      43.807  35.673  30.905  1.00  0.00     0.009 A 
ATOM     83  C   UNL A   1      43.693  35.780  33.690  1.00  0.00     0.001 A 
ATOM     84  C   UNL A   1      43.885  36.903  31.559  1.00  0.00     0.001 A 
ATOM     85  C   UNL A   1      43.818  36.957  32.951  1.00  0.00     0.000 A 
ENDBRANCH  67  80
ENDBRANCH  41  42
ENDBRANCH  34  36
ENDBRANCH  33  34
ENDBRANCH  32  33
ENDBRANCH  31  32
ENDBRANCH  30  31
ENDBRANCH   1  30
TORSDOF 18
ENDMDL
MODEL 3
REMARK VINA RESULT:      -8.2      1.697      2.269
REMARK SMILES O=C(CN1C(=O)/C(=C\c2cccs2)SC1=S)Nc1ccccc1C(=O)OCCOCCOC(=O)c1ccc(-c2c3nc(c(-c4ccccc4)c4ccc([nH]4)c(-c4ccccc4)c4nc(c(-c5ccccc5)c5ccc2[nH]5)C=C4)C=C3)cc1
REMARK SMILES IDX 28 1 27 2 26 3 24 4 25 5 23 6 18 7 19 8 20 9 22 10 21 11
REMARK SMILES IDX 17 12 1 13 2 14 3 16 4 17 5 18 15 19 6 20 7 21 14 22 16 23
REMARK SMILES IDX 8 24 9 25 10 26 13 27 11 28 12 29 29 30 30 31 31 32 32 33
REMARK SMILES IDX 33 34 34 35 35 36 36 37 82 38 37 39 81 40 38 41 39 42 40 43
REMARK SMILES IDX 75 44 41 45 80 46 74 47 76 48 42 49 79 50 73 51 72 52 43 54
REMARK SMILES IDX 65 55 50 56 64 57 51 58 54 59 63 60 77 61 52 62 53 63 62 65
REMARK SMILES IDX 78 66 55 67 44 68 45 69 49 70 46 71 48 72 47 73 66 74 67 75
REMARK SMILES IDX 71 76 68 77 70 78 69 79 56 80 57 81 61 82 58 83 60 84 59 85
REMARK H PARENT 17 15 76 53 54 64
REMARK Flexibility Score: inf
ROOT
ATOM      1  C   UNL A   1      45.984  22.014  24.123  1.00  0.00     0.202 C 
ENDROOT
BRANCH   1   2
ATOM      2  C   UNL A   1      46.689  23.342  24.403  1.00  0.00     0.261 C 
BRANCH   2   3
ATOM      3  O   UNL A   1      45.745  24.358  24.778  1.00  0.00    -0.460 OA
BRANCH   3   4
ATOM      4  C   UNL A   1      46.204  25.273  25.674  1.00  0.00     0.340 C 
ATOM      5  O   UNL A   1      47.326  25.311  26.156  1.00  0.00    -0.246 OA
BRANCH   4   6
ATOM      6  C   UNL A   1      45.229  26.385  25.820  1.00  0.00     0.083 A 
ATOM      7  C   UNL A   1      45.375  27.520  26.644  1.00  0.00     0.055 A 
ATOM      8  C   UNL A   1      44.274  28.383  26.793  1.00  0.00     0.027 A 
ATOM      9  C   UNL A   1      43.079  28.164  26.098  1.00  0.00     0.002 A 
ATOM     10  C   UNL A   1      44.015  26.172  25.134  1.00  0.00     0.018 A 
ATOM     11  C   UNL A   1      42.949  27.060  25.265  1.00  0.00     0.001 A 
BRANCH   7  12
ATOM     12  N   UNL A   1      46.546  27.893  27.354  1.00  0.00    -0.324 N 
ATOM     13  O   UNL A   1      47.422  29.397  25.837  1.00  0.00    -0.273 OA
ATOM     14  C   UNL A   1      47.533  28.724  26.858  1.00  0.00     0.244 C 
ATOM     15  H   UNL A   1      46.664  27.534  28.264  1.00  0.00     0.170 HD
BRANCH  14  16
ATOM     16  C   UNL A   1      48.811  28.781  27.689  1.00  0.00     0.227 C 
BRANCH  16  17
ATOM     17  N   UNL A   1      49.386  30.125  27.740  1.00  0.00    -0.283 N 
ATOM     18  C   UNL A   1      48.908  31.023  28.678  1.00  0.00     0.266 C 
ATOM     19  C   UNL A   1      50.441  30.551  26.960  1.00  0.00     0.148 C 
ATOM     20  O   UNL A   1      47.906  30.854  29.358  1.00  0.00    -0.268 OA
ATOM     21  C   UNL A   1      49.759  32.247  28.695  1.00  0.00     0.081 C 
ATOM     22  S   UNL A   1      50.772  32.245  27.299  1.00  0.00    -0.054 SA
ATOM     23  S   UNL A   1      51.339  29.689  25.855  1.00  0.00    -0.052 S 
ATOM     24  C   UNL A   1      49.855  33.194  29.637  1.00  0.00     0.040 C 
BRANCH  24  25
ATOM     25  C   UNL A   1      49.240  33.106  30.912  1.00  0.00     0.028 A 
ATOM     26  C   UNL A   1      49.685  32.438  32.040  1.00  0.00     0.020 A 
ATOM     27  S   UNL A   1      47.812  33.996  31.253  1.00  0.00    -0.144 S 
ATOM     28  C   UNL A   1      48.856  32.656  33.178  1.00  0.00     0.012 A 
ATOM     29  C   UNL A   1      47.794  33.479  32.883  1.00  0.00     0.065 A 
ENDBRANCH  24  25
ENDBRANCH  16  17
ENDBRANCH  14  16
ENDBRANCH   7  12
ENDBRANCH   4   6
ENDBRANCH   3   4
ENDBRANCH   2   3
ENDBRANCH   1   2
BRANCH   1  30
ATOM     30  O   UNL A   1      45.865  21.110  25.220  1.00  0.00    -0.374 OA
BRANCH  30  31
ATOM     31  C   UNL A   1      45.905  19.712  24.940  1.00  0.00     0.202 C 
BRANCH  31  32
ATOM     32  C   UNL A   1      44.558  19.003  24.750  1.00  0.00     0.261 C 
BRANCH  32  33
ATOM     33  O   UNL A   1      43.431  19.898  24.682  1.00  0.00    -0.460 OA
BRANCH  33  34
ATOM     34  C   UNL A   1      42.547  19.764  25.698  1.00  0.00     0.338 C 
ATOM     35  O   UNL A   1      42.050  18.729  26.123  1.00  0.00    -0.246 OA
BRANCH  34  36
ATOM     36  C   UNL A   1      42.315  21.058  26.360  1.00  0.00     0.060 A 
ATOM     37  C   UNL A   1      42.589  22.225  25.635  1.00  0.00     0.016 A 
ATOM     38  C   UNL A   1      41.970  21.126  27.711  1.00  0.00     0.016 A 
ATOM     39  C   UNL A   1      42.569  23.463  26.273  1.00  0.00     0.010 A 
ATOM     40  C   UNL A   1      41.958  22.370  28.352  1.00  0.00     0.010 A 
ATOM     41  C   UNL A   1      42.294  23.538  27.646  1.00  0.00    -0.014 A 
BRANCH  41  42
ATOM     42  C   UNL A   1      42.478  24.823  28.361  1.00  0.00     0.031 A 
ATOM     43  C   UNL A   1      43.794  25.117  29.031  1.00  0.00     0.074 A 
ATOM     44  C   UNL A   1      41.490  25.734  28.394  1.00  0.00     0.049 A 
ATOM     45  N   UNL A   1      44.154  26.172  29.717  1.00  0.00    -0.248 NA
ATOM     46  C   UNL A   1      44.838  24.088  28.913  1.00  0.00     0.031 C 
ATOM     47  C   UNL A   1      40.185  25.589  27.750  1.00  0.00     0.029 A 
ATOM     48  N   UNL A   1      41.434  26.964  29.000  1.00  0.00    -0.354 N 
ATOM     49  C   UNL A   1      45.467  25.936  30.109  1.00  0.00     0.074 A 
ATOM     50  C   UNL A   1      45.827  24.625  29.613  1.00  0.00     0.031 C 
ATOM     51  C   UNL A   1      39.453  26.689  28.001  1.00  0.00     0.029 A 
ATOM     52  C   UNL A   1      40.229  27.599  28.842  1.00  0.00     0.049 A 
ATOM     53  H   UNL A   1      42.188  27.352  29.500  1.00  0.00     0.167 HD
ATOM     54  C   UNL A   1      46.302  26.739  30.812  1.00  0.00     0.031 A 
ATOM     55  C   UNL A   1      39.796  28.777  29.331  1.00  0.00     0.031 A 
ATOM     56  C   UNL A   1      45.949  28.041  31.312  1.00  0.00     0.049 A 
ATOM     57  C   UNL A   1      40.718  29.620  30.170  1.00  0.00     0.074 A 
ATOM     58  C   UNL A   1      46.735  28.936  32.019  1.00  0.00     0.029 A 
ATOM     59  N   UNL A   1      44.706  28.633  31.164  1.00  0.00    -0.354 N 
ATOM     60  N   UNL A   1      41.963  29.394  30.511  1.00  0.00    -0.248 NA
ATOM     61  C   UNL A   1      40.173  30.886  30.683  1.00  0.00     0.031 C 
ATOM     62  C   UNL A   1      45.949  30.046  32.344  1.00  0.00     0.029 A 
ATOM     63  C   UNL A   1      44.691  29.865  31.794  1.00  0.00     0.049 A 
ATOM     64  H   UNL A   1      43.944  28.235  30.682  1.00  0.00     0.167 HD
ATOM     65  C   UNL A   1      42.359  30.499  31.254  1.00  0.00     0.074 A 
ATOM     66  C   UNL A   1      41.226  31.400  31.305  1.00  0.00     0.031 C 
ATOM     67  C   UNL A   1      43.555  30.749  31.841  1.00  0.00     0.031 A 
BRANCH  54  68
ATOM     68  C   UNL A   1      47.678  26.215  31.112  1.00  0.00    -0.014 A 
ATOM     69  C   UNL A   1      48.729  26.355  30.193  1.00  0.00     0.009 A 
ATOM     70  C   UNL A   1      47.935  25.611  32.353  1.00  0.00     0.009 A 
ATOM     71  C   UNL A   1      50.003  25.871  30.500  1.00  0.00     0.001 A 
ATOM     72  C   UNL A   1      49.215  25.151  32.666  1.00  0.00     0.001 A 
ATOM     73  C   UNL A   1      50.246  25.275  31.737  1.00  0.00     0.000 A 
ENDBRANCH  54  68
BRANCH  55  74
ATOM     74  C   UNL A   1      38.408  29.225  29.055  1.00  0.00    -0.014 A 
ATOM     75  C   UNL A   1      37.412  29.126  30.038  1.00  0.00     0.009 A 
ATOM     76  C   UNL A   1      38.070  29.742  27.793  1.00  0.00     0.009 A 
ATOM     77  C   UNL A   1      36.101  29.515  29.756  1.00  0.00     0.001 A 
ATOM     78  C   UNL A   1      36.765  30.157  27.524  1.00  0.00     0.001 A 
ATOM     79  C   UNL A   1      35.780  30.034  28.502  1.00  0.00     0.000 A 
ENDBRANCH  55  74
BRANCH  67  80
ATOM     80  C   UNL A   1      43.710  32.057  32.566  1.00  0.00    -0.014 A 
ATOM     81  C   UNL A   1      44.115  33.218  31.892  1.00  0.00     0.009 A 
ATOM     82  C   UNL A   1      43.407  32.134  33.934  1.00  0.00     0.009 A 
ATOM     83  C   UNL A   1      44.245  34.425  32.582  1.00  0.00     0.001 A 
ATOM     84  C   UNL A   1      43.511  33.347  34.616  1.00  0.00     0.001 A 
ATOM     85  C   UNL A   1      43.939  34.490  33.942  1.00  0.00     0.000 A 
ENDBRANCH  67  80
ENDBRANCH  41  42
ENDBRANCH  34  36
ENDBRANCH  33  34
ENDBRANCH  32  33
ENDBRANCH  31  32
ENDBRANCH  30  31
ENDBRANCH   1  30
TORSDOF 18
ENDMDL
