MODEL 1
REMARK VINA RESULT:     -10.3      0.000      0.000
REMARK SMILES CC(=O)Nc1cccc(NC(=O)N[C@H](C(=O)OCCOCCOC(=O)c2ccc(-c3c4nc(c(-c5ccccc5)c5ccc([nH]5)c(-c5ccccc5)c5nc(c(-c6ccccc6)c6ccc3[nH]6)C=C5)C=C4)cc2)C(C)C)c1
REMARK SMILES IDX 19 1 18 2 17 3 15 4 16 5 14 6 13 7 10 8 11 9 12 11 9 13 5 14
REMARK SMILES IDX 6 15 77 16 7 17 8 18 4 19 1 20 2 21 3 22 74 24 75 25 76 26
REMARK SMILES IDX 20 27 21 28 22 29 23 30 24 31 25 32 26 33 27 34 73 35 28 36
REMARK SMILES IDX 72 37 29 38 30 39 31 40 66 41 32 42 71 43 65 44 67 45 33 46
REMARK SMILES IDX 70 47 64 48 63 49 34 51 56 52 41 53 55 54 42 55 45 56 54 57
REMARK SMILES IDX 68 58 43 59 44 60 53 62 69 63 46 64 35 65 36 66 40 67 37 68
REMARK SMILES IDX 39 69 38 70 57 71 58 72 62 73 59 74 61 75 60 76 47 77 48 78
REMARK SMILES IDX 52 79 49 80 51 81 50 82
REMARK H PARENT 10 10 13 12 4 23 67 50 45 61
REMARK Flexibility Score: inf
ROOT
ATOM      1  C   UNL A   1      36.959  23.190  25.386  1.00  0.00     0.202 C 
ENDROOT
BRANCH   1   2
ATOM      2  C   UNL A   1      35.457  23.059  25.174  1.00  0.00     0.261 C 
BRANCH   2   3
ATOM      3  O   UNL A   1      34.786  24.336  25.085  1.00  0.00    -0.462 OA
BRANCH   3   4
ATOM      4  C   UNL A   1      33.685  24.384  24.263  1.00  0.00     0.329 C 
ATOM      5  O   UNL A   1      33.025  23.395  23.975  1.00  0.00    -0.250 OA
BRANCH   4   6
ATOM      6  C   UNL A   1      33.327  25.842  23.868  1.00  0.00     0.196 C 
BRANCH   6   7
ATOM      7  N   UNL A   1      33.809  26.840  24.854  1.00  0.00    -0.324 N 
ATOM      8  N   UNL A   1      31.981  28.168  25.632  1.00  0.00    -0.308 N 
ATOM      9  C   UNL A   1      33.277  27.795  25.634  1.00  0.00     0.319 C 
ATOM     10  H   UNL A   1      31.665  28.476  26.511  1.00  0.00     0.171 HD
ATOM     11  O   UNL A   1      34.016  28.275  26.500  1.00  0.00    -0.248 OA
ATOM     12  H   UNL A   1      34.786  26.790  24.967  1.00  0.00     0.166 HD
BRANCH   8  13
ATOM     13  C   UNL A   1      30.993  28.209  24.643  1.00  0.00     0.044 A 
ATOM     14  C   UNL A   1      29.730  29.483  23.022  1.00  0.00     0.043 A 
ATOM     15  C   UNL A   1      28.815  28.441  22.893  1.00  0.00     0.026 A 
ATOM     16  C   UNL A   1      30.798  29.384  23.924  1.00  0.00     0.052 A 
ATOM     17  C   UNL A   1      29.097  27.225  23.499  1.00  0.00     0.004 A 
ATOM     18  C   UNL A   1      30.223  27.109  24.314  1.00  0.00     0.026 A 
BRANCH  14  19
ATOM     19  N   UNL A   1      29.563  30.607  22.209  1.00  0.00    -0.326 N 
ATOM     20  C   UNL A   1      27.670  31.512  23.532  1.00  0.00     0.114 C 
ATOM     21  C   UNL A   1      28.578  31.554  22.323  1.00  0.00     0.221 C 
ATOM     22  O   UNL A   1      28.501  32.459  21.494  1.00  0.00    -0.275 OA
ATOM     23  H   UNL A   1      30.216  30.730  21.483  1.00  0.00     0.169 HD
ENDBRANCH  14  19
ENDBRANCH   8  13
ENDBRANCH   6   7
BRANCH   6  24
ATOM     24  C   UNL A   1      33.529  26.282  22.388  1.00  0.00     0.017 C 
ATOM     25  C   UNL A   1      32.368  25.953  21.446  1.00  0.00     0.010 C 
ATOM     26  C   UNL A   1      33.810  27.790  22.302  1.00  0.00     0.010 C 
ENDBRANCH   6  24
ENDBRANCH   4   6
ENDBRANCH   3   4
ENDBRANCH   2   3
ENDBRANCH   1   2
BRANCH   1  27
ATOM     27  O   UNL A   1      37.778  22.219  24.742  1.00  0.00    -0.374 OA
BRANCH  27  28
ATOM     28  C   UNL A   1      37.416  20.851  24.888  1.00  0.00     0.202 C 
BRANCH  28  29
ATOM     29  C   UNL A   1      38.548  19.862  25.196  1.00  0.00     0.261 C 
BRANCH  29  30
ATOM     30  O   UNL A   1      39.330  20.198  26.354  1.00  0.00    -0.460 OA
BRANCH  30  31
ATOM     31  C   UNL A   1      40.647  19.910  26.221  1.00  0.00     0.338 C 
ATOM     32  O   UNL A   1      41.134  18.898  25.731  1.00  0.00    -0.246 OA
BRANCH  31  33
ATOM     33  C   UNL A   1      41.496  21.038  26.646  1.00  0.00     0.060 A 
ATOM     34  C   UNL A   1      41.638  21.249  28.023  1.00  0.00     0.016 A 
ATOM     35  C   UNL A   1      42.002  21.965  25.731  1.00  0.00     0.016 A 
ATOM     36  C   UNL A   1      42.199  22.432  28.492  1.00  0.00     0.010 A 
ATOM     37  C   UNL A   1      42.562  23.158  26.205  1.00  0.00     0.010 A 
ATOM     38  C   UNL A   1      42.604  23.421  27.586  1.00  0.00    -0.014 A 
BRANCH  38  39
ATOM     39  C   UNL A   1      42.859  24.789  28.102  1.00  0.00     0.031 A 
ATOM     40  C   UNL A   1      44.286  25.231  28.308  1.00  0.00     0.074 A 
ATOM     41  C   UNL A   1      41.853  25.658  28.294  1.00  0.00     0.049 A 
ATOM     42  N   UNL A   1      44.749  26.407  28.654  1.00  0.00    -0.248 NA
ATOM     43  C   UNL A   1      45.328  24.215  28.090  1.00  0.00     0.031 C 
ATOM     44  C   UNL A   1      40.434  25.369  28.093  1.00  0.00     0.029 A 
ATOM     45  N   UNL A   1      41.880  26.973  28.686  1.00  0.00    -0.354 N 
ATOM     46  C   UNL A   1      46.132  26.269  28.693  1.00  0.00     0.074 A 
ATOM     47  C   UNL A   1      46.431  24.891  28.371  1.00  0.00     0.031 C 
ATOM     48  C   UNL A   1      39.724  26.480  28.356  1.00  0.00     0.029 A 
ATOM     49  C   UNL A   1      40.637  27.550  28.757  1.00  0.00     0.049 A 
ATOM     50  H   UNL A   1      42.711  27.457  28.896  1.00  0.00     0.167 HD
ATOM     51  C   UNL A   1      47.073  27.207  28.959  1.00  0.00     0.031 A 
ATOM     52  C   UNL A   1      40.276  28.800  29.104  1.00  0.00     0.031 A 
ATOM     53  C   UNL A   1      46.785  28.574  29.292  1.00  0.00     0.049 A 
ATOM     54  C   UNL A   1      41.336  29.811  29.448  1.00  0.00     0.074 A 
ATOM     55  C   UNL A   1      47.670  29.600  29.573  1.00  0.00     0.029 A 
ATOM     56  N   UNL A   1      45.509  29.105  29.397  1.00  0.00    -0.354 N 
ATOM     57  N   UNL A   1      42.640  29.676  29.449  1.00  0.00    -0.248 NA
ATOM     58  C   UNL A   1      40.871  31.154  29.823  1.00  0.00     0.031 C 
ATOM     59  C   UNL A   1      46.927  30.743  29.893  1.00  0.00     0.029 A 
ATOM     60  C   UNL A   1      45.582  30.441  29.759  1.00  0.00     0.049 A 
ATOM     61  H   UNL A   1      44.674  28.608  29.238  1.00  0.00     0.167 HD
ATOM     62  C   UNL A   1      43.151  30.920  29.796  1.00  0.00     0.074 A 
ATOM     63  C   UNL A   1      42.016  31.802  29.982  1.00  0.00     0.031 C 
ATOM     64  C   UNL A   1      44.443  31.302  29.945  1.00  0.00     0.031 A 
BRANCH  51  65
ATOM     65  C   UNL A   1      48.509  26.764  28.930  1.00  0.00    -0.014 A 
ATOM     66  C   UNL A   1      49.146  26.280  30.084  1.00  0.00     0.009 A 
ATOM     67  C   UNL A   1      49.231  26.817  27.727  1.00  0.00     0.009 A 
ATOM     68  C   UNL A   1      50.487  25.891  30.041  1.00  0.00     0.001 A 
ATOM     69  C   UNL A   1      50.563  26.403  27.681  1.00  0.00     0.001 A 
ATOM     70  C   UNL A   1      51.193  25.951  28.839  1.00  0.00     0.000 A 
ENDBRANCH  51  65
BRANCH  52  71
ATOM     71  C   UNL A   1      38.839  29.174  29.142  1.00  0.00    -0.014 A 
ATOM     72  C   UNL A   1      38.085  29.014  30.316  1.00  0.00     0.009 A 
ATOM     73  C   UNL A   1      38.208  29.676  27.993  1.00  0.00     0.009 A 
ATOM     74  C   UNL A   1      36.723  29.327  30.329  1.00  0.00     0.001 A 
ATOM     75  C   UNL A   1      36.853  30.013  28.018  1.00  0.00     0.001 A 
ATOM     76  C   UNL A   1      36.111  29.830  29.182  1.00  0.00     0.000 A 
ENDBRANCH  52  71
BRANCH  64  77
ATOM     77  C   UNL A   1      44.696  32.742  30.295  1.00  0.00    -0.014 A 
ATOM     78  C   UNL A   1      44.804  33.160  31.631  1.00  0.00     0.009 A 
ATOM     79  C   UNL A   1      44.851  33.689  29.271  1.00  0.00     0.009 A 
ATOM     80  C   UNL A   1      45.019  34.508  31.933  1.00  0.00     0.001 A 
ATOM     81  C   UNL A   1      45.093  35.029  29.575  1.00  0.00     0.001 A 
ATOM     82  C   UNL A   1      45.165  35.439  30.906  1.00  0.00     0.000 A 
ENDBRANCH  64  77
ENDBRANCH  38  39
ENDBRANCH  31  33
ENDBRANCH  30  31
ENDBRANCH  29  30
ENDBRANCH  28  29
ENDBRANCH  27  28
ENDBRANCH   1  27
TORSDOF 18
ENDMDL
MODEL 2
REMARK VINA RESULT:     -10.2      1.537      2.374
REMARK SMILES CC(=O)Nc1cccc(NC(=O)N[C@H](C(=O)OCCOCCOC(=O)c2ccc(-c3c4nc(c(-c5ccccc5)c5ccc([nH]5)c(-c5ccccc5)c5nc(c(-c6ccccc6)c6ccc3[nH]6)C=C5)C=C4)cc2)C(C)C)c1
REMARK SMILES IDX 19 1 18 2 17 3 15 4 16 5 14 6 13 7 10 8 11 9 12 11 9 13 5 14
REMARK SMILES IDX 6 15 77 16 7 17 8 18 4 19 1 20 2 21 3 22 74 24 75 25 76 26
REMARK SMILES IDX 20 27 21 28 22 29 23 30 24 31 25 32 26 33 27 34 73 35 28 36
REMARK SMILES IDX 72 37 29 38 30 39 31 40 66 41 32 42 71 43 65 44 67 45 33 46
REMARK SMILES IDX 70 47 64 48 63 49 34 51 56 52 41 53 55 54 42 55 45 56 54 57
REMARK SMILES IDX 68 58 43 59 44 60 53 62 69 63 46 64 35 65 36 66 40 67 37 68
REMARK SMILES IDX 39 69 38 70 57 71 58 72 62 73 59 74 61 75 60 76 47 77 48 78
REMARK SMILES IDX 52 79 49 80 51 81 50 82
REMARK H PARENT 10 10 13 12 4 23 67 50 45 61
REMARK Flexibility Score: inf
ROOT
ATOM      1  C   UNL A   1      35.559  21.803  26.271  1.00  0.00     0.202 C 
ENDROOT
BRANCH   1   2
ATOM      2  C   UNL A   1      34.241  22.504  25.970  1.00  0.00     0.261 C 
BRANCH   2   3
ATOM      3  O   UNL A   1      34.395  23.650  25.105  1.00  0.00    -0.462 OA
BRANCH   3   4
ATOM      4  C   UNL A   1      34.052  23.464  23.787  1.00  0.00     0.329 C 
ATOM      5  O   UNL A   1      34.512  22.560  23.101  1.00  0.00    -0.250 OA
BRANCH   4   6
ATOM      6  C   UNL A   1      32.936  24.446  23.339  1.00  0.00     0.196 C 
BRANCH   6   7
ATOM      7  N   UNL A   1      32.847  24.579  21.864  1.00  0.00    -0.324 N 
ATOM      8  N   UNL A   1      32.600  26.879  21.266  1.00  0.00    -0.308 N 
ATOM      9  C   UNL A   1      32.745  25.572  20.966  1.00  0.00     0.319 C 
ATOM     10  H   UNL A   1      33.012  27.477  20.602  1.00  0.00     0.171 HD
ATOM     11  O   UNL A   1      32.921  25.266  19.782  1.00  0.00    -0.248 OA
ATOM     12  H   UNL A   1      32.866  23.699  21.423  1.00  0.00     0.166 HD
BRANCH   8  13
ATOM     13  C   UNL A   1      31.988  27.563  22.322  1.00  0.00     0.044 A 
ATOM     14  C   UNL A   1      32.186  28.985  24.266  1.00  0.00     0.043 A 
ATOM     15  C   UNL A   1      30.877  28.687  24.636  1.00  0.00     0.026 A 
ATOM     16  C   UNL A   1      32.756  28.395  23.129  1.00  0.00     0.052 A 
ATOM     17  C   UNL A   1      30.076  27.979  23.752  1.00  0.00     0.004 A 
ATOM     18  C   UNL A   1      30.630  27.483  22.572  1.00  0.00     0.026 A 
BRANCH  14  19
ATOM     19  N   UNL A   1      32.894  29.905  25.043  1.00  0.00    -0.326 N 
ATOM     20  C   UNL A   1      33.523  28.241  26.772  1.00  0.00     0.114 C 
ATOM     21  C   UNL A   1      33.473  29.664  26.262  1.00  0.00     0.221 C 
ATOM     22  O   UNL A   1      34.008  30.584  26.879  1.00  0.00    -0.275 OA
ATOM     23  H   UNL A   1      32.987  30.814  24.679  1.00  0.00     0.169 HD
ENDBRANCH  14  19
ENDBRANCH   8  13
ENDBRANCH   6   7
BRANCH   6  24
ATOM     24  C   UNL A   1      31.550  24.365  24.042  1.00  0.00     0.017 C 
ATOM     25  C   UNL A   1      31.038  22.949  24.315  1.00  0.00     0.010 C 
ATOM     26  C   UNL A   1      31.569  25.138  25.371  1.00  0.00     0.010 C 
ENDBRANCH   6  24
ENDBRANCH   4   6
ENDBRANCH   3   4
ENDBRANCH   2   3
ENDBRANCH   1   2
BRANCH   1  27
ATOM     27  O   UNL A   1      36.015  20.865  25.302  1.00  0.00    -0.374 OA
BRANCH  27  28
ATOM     28  C   UNL A   1      37.311  21.065  24.752  1.00  0.00     0.202 C 
BRANCH  28  29
ATOM     29  C   UNL A   1      38.367  19.993  25.055  1.00  0.00     0.261 C 
BRANCH  29  30
ATOM     30  O   UNL A   1      39.131  20.235  26.249  1.00  0.00    -0.460 OA
BRANCH  30  31
ATOM     31  C   UNL A   1      40.434  19.881  26.139  1.00  0.00     0.338 C 
ATOM     32  O   UNL A   1      40.879  18.841  25.667  1.00  0.00    -0.246 OA
BRANCH  31  33
ATOM     33  C   UNL A   1      41.331  20.971  26.566  1.00  0.00     0.060 A 
ATOM     34  C   UNL A   1      41.438  21.210  27.942  1.00  0.00     0.016 A 
ATOM     35  C   UNL A   1      41.920  21.844  25.647  1.00  0.00     0.016 A 
ATOM     36  C   UNL A   1      42.049  22.372  28.401  1.00  0.00     0.010 A 
ATOM     37  C   UNL A   1      42.531  23.016  26.112  1.00  0.00     0.010 A 
ATOM     38  C   UNL A   1      42.540  23.313  27.486  1.00  0.00    -0.014 A 
BRANCH  38  39
ATOM     39  C   UNL A   1      42.855  24.677  27.977  1.00  0.00     0.031 A 
ATOM     40  C   UNL A   1      44.300  25.096  28.078  1.00  0.00     0.074 A 
ATOM     41  C   UNL A   1      41.880  25.564  28.238  1.00  0.00     0.049 A 
ATOM     42  N   UNL A   1      44.807  26.264  28.385  1.00  0.00    -0.248 NA
ATOM     43  C   UNL A   1      45.306  24.061  27.789  1.00  0.00     0.031 C 
ATOM     44  C   UNL A   1      40.446  25.299  28.141  1.00  0.00     0.029 A 
ATOM     45  N   UNL A   1      41.957  26.879  28.622  1.00  0.00    -0.354 N 
ATOM     46  C   UNL A   1      46.186  26.103  28.325  1.00  0.00     0.074 A 
ATOM     47  C   UNL A   1      46.437  24.719  27.988  1.00  0.00     0.031 C 
ATOM     48  C   UNL A   1      39.775  26.423  28.450  1.00  0.00     0.029 A 
ATOM     49  C   UNL A   1      40.732  27.478  28.780  1.00  0.00     0.049 A 
ATOM     50  H   UNL A   1      42.809  27.349  28.770  1.00  0.00     0.167 HD
ATOM     51  C   UNL A   1      47.160  27.025  28.519  1.00  0.00     0.031 A 
ATOM     52  C   UNL A   1      40.419  28.735  29.148  1.00  0.00     0.031 A 
ATOM     53  C   UNL A   1      46.919  28.398  28.867  1.00  0.00     0.049 A 
ATOM     54  C   UNL A   1      41.518  29.728  29.410  1.00  0.00     0.074 A 
ATOM     55  C   UNL A   1      47.839  29.410  29.078  1.00  0.00     0.029 A 
ATOM     56  N   UNL A   1      45.663  28.951  29.061  1.00  0.00    -0.354 N 
ATOM     57  N   UNL A   1      42.816  29.571  29.317  1.00  0.00    -0.248 NA
ATOM     58  C   UNL A   1      41.104  31.080  29.813  1.00  0.00     0.031 C 
ATOM     59  C   UNL A   1      47.141  30.566  29.447  1.00  0.00     0.029 A 
ATOM     60  C   UNL A   1      45.785  30.286  29.411  1.00  0.00     0.049 A 
ATOM     61  H   UNL A   1      44.811  28.468  28.965  1.00  0.00     0.167 HD
ATOM     62  C   UNL A   1      43.371  30.807  29.622  1.00  0.00     0.074 A 
ATOM     63  C   UNL A   1      42.268  31.708  29.886  1.00  0.00     0.031 C 
ATOM     64  C   UNL A   1      44.677  31.168  29.676  1.00  0.00     0.031 A 
BRANCH  51  65
ATOM     65  C   UNL A   1      48.582  26.558  28.388  1.00  0.00    -0.014 A 
ATOM     66  C   UNL A   1      49.259  26.617  27.159  1.00  0.00     0.009 A 
ATOM     67  C   UNL A   1      49.261  26.066  29.514  1.00  0.00     0.009 A 
ATOM     68  C   UNL A   1      50.575  26.160  27.054  1.00  0.00     0.001 A 
ATOM     69  C   UNL A   1      50.584  25.634  29.412  1.00  0.00     0.001 A 
ATOM     70  C   UNL A   1      51.236  25.672  28.181  1.00  0.00     0.000 A 
ENDBRANCH  51  65
BRANCH  52  71
ATOM     71  C   UNL A   1      38.994  29.133  29.288  1.00  0.00    -0.014 A 
ATOM     72  C   UNL A   1      38.322  28.980  30.510  1.00  0.00     0.009 A 
ATOM     73  C   UNL A   1      38.293  29.652  28.187  1.00  0.00     0.009 A 
ATOM     74  C   UNL A   1      36.970  29.317  30.620  1.00  0.00     0.001 A 
ATOM     75  C   UNL A   1      36.950  30.012  28.308  1.00  0.00     0.001 A 
ATOM     76  C   UNL A   1      36.288  29.836  29.521  1.00  0.00     0.000 A 
ENDBRANCH  52  71
BRANCH  64  77
ATOM     77  C   UNL A   1      44.979  32.604  30.001  1.00  0.00    -0.014 A 
ATOM     78  C   UNL A   1      45.188  33.024  31.324  1.00  0.00     0.009 A 
ATOM     79  C   UNL A   1      45.077  33.545  28.964  1.00  0.00     0.009 A 
ATOM     80  C   UNL A   1      45.446  34.369  31.605  1.00  0.00     0.001 A 
ATOM     81  C   UNL A   1      45.364  34.882  29.245  1.00  0.00     0.001 A 
ATOM     82  C   UNL A   1      45.536  35.294  30.566  1.00  0.00     0.000 A 
ENDBRANCH  64  77
ENDBRANCH  38  39
ENDBRANCH  31  33
ENDBRANCH  30  31
ENDBRANCH  29  30
ENDBRANCH  28  29
ENDBRANCH  27  28
ENDBRANCH   1  27
TORSDOF 18
ENDMDL
MODEL 3
REMARK VINA RESULT:     -10.1      2.588      8.230
REMARK SMILES CC(=O)Nc1cccc(NC(=O)N[C@H](C(=O)OCCOCCOC(=O)c2ccc(-c3c4nc(c(-c5ccccc5)c5ccc([nH]5)c(-c5ccccc5)c5nc(c(-c6ccccc6)c6ccc3[nH]6)C=C5)C=C4)cc2)C(C)C)c1
REMARK SMILES IDX 19 1 18 2 17 3 15 4 16 5 14 6 13 7 10 8 11 9 12 11 9 13 5 14
REMARK SMILES IDX 6 15 77 16 7 17 8 18 4 19 1 20 2 21 3 22 74 24 75 25 76 26
REMARK SMILES IDX 20 27 21 28 22 29 23 30 24 31 25 32 26 33 27 34 73 35 28 36
REMARK SMILES IDX 72 37 29 38 30 39 31 40 66 41 32 42 71 43 65 44 67 45 33 46
REMARK SMILES IDX 70 47 64 48 63 49 34 51 56 52 41 53 55 54 42 55 45 56 54 57
REMARK SMILES IDX 68 58 43 59 44 60 53 62 69 63 46 64 35 65 36 66 40 67 37 68
REMARK SMILES IDX 39 69 38 70 57 71 58 72 62 73 59 74 61 75 60 76 47 77 48 78
REMARK SMILES IDX 52 79 49 80 51 81 50 82
REMARK H PARENT 10 10 13 12 4 23 67 50 45 61
REMARK Flexibility Score: inf
ROOT
ATOM      1  C   UNL A   1      34.279  29.107  26.993  1.00  0.00     0.202 C 
ENDROOT
BRANCH   1   2
ATOM      2  C   UNL A   1      34.076  27.758  26.318  1.00  0.00     0.261 C 
BRANCH   2   3
ATOM      3  O   UNL A   1      32.735  27.575  25.813  1.00  0.00    -0.462 OA
BRANCH   3   4
ATOM      4  C   UNL A   1      31.916  26.757  26.554  1.00  0.00     0.329 C 
ATOM      5  O   UNL A   1      31.391  27.112  27.601  1.00  0.00    -0.250 OA
BRANCH   4   6
ATOM      6  C   UNL A   1      31.651  25.406  25.836  1.00  0.00     0.196 C 
BRANCH   6   7
ATOM      7  N   UNL A   1      30.529  24.645  26.440  1.00  0.00    -0.324 N 
ATOM      8  N   UNL A   1      31.239  22.426  26.967  1.00  0.00    -0.308 N 
ATOM      9  C   UNL A   1      30.330  23.421  26.955  1.00  0.00     0.319 C 
ATOM     10  H   UNL A   1      31.151  21.829  27.745  1.00  0.00     0.171 HD
ATOM     11  O   UNL A   1      29.272  23.247  27.570  1.00  0.00    -0.248 OA
ATOM     12  H   UNL A   1      29.706  25.184  26.469  1.00  0.00     0.166 HD
BRANCH   8  13
ATOM     13  C   UNL A   1      32.281  22.062  26.107  1.00  0.00     0.044 A 
ATOM     14  C   UNL A   1      34.650  21.987  25.633  1.00  0.00     0.043 A 
ATOM     15  C   UNL A   1      34.389  21.661  24.304  1.00  0.00     0.026 A 
ATOM     16  C   UNL A   1      33.598  22.224  26.527  1.00  0.00     0.052 A 
ATOM     17  C   UNL A   1      33.087  21.359  23.933  1.00  0.00     0.004 A 
ATOM     18  C   UNL A   1      32.058  21.501  24.864  1.00  0.00     0.026 A 
BRANCH  14  19
ATOM     19  N   UNL A   1      35.984  22.040  26.046  1.00  0.00    -0.326 N 
ATOM     20  C   UNL A   1      36.230  24.461  25.565  1.00  0.00     0.114 C 
ATOM     21  C   UNL A   1      36.816  23.126  25.968  1.00  0.00     0.221 C 
ATOM     22  O   UNL A   1      37.996  23.019  26.301  1.00  0.00    -0.275 OA
ATOM     23  H   UNL A   1      36.362  21.217  26.429  1.00  0.00     0.169 HD
ENDBRANCH  14  19
ENDBRANCH   8  13
ENDBRANCH   6   7
BRANCH   6  24
ATOM     24  C   UNL A   1      31.656  25.379  24.280  1.00  0.00     0.017 C 
ATOM     25  C   UNL A   1      32.976  24.946  23.640  1.00  0.00     0.010 C 
ATOM     26  C   UNL A   1      30.538  24.467  23.748  1.00  0.00     0.010 C 
ENDBRANCH   6  24
ENDBRANCH   4   6
ENDBRANCH   3   4
ENDBRANCH   2   3
ENDBRANCH   1   2
BRANCH   1  27
ATOM     27  O   UNL A   1      33.249  30.073  26.806  1.00  0.00    -0.374 OA
BRANCH  27  28
ATOM     28  C   UNL A   1      33.539  31.420  27.157  1.00  0.00     0.202 C 
BRANCH  28  29
ATOM     29  C   UNL A   1      34.053  31.672  28.580  1.00  0.00     0.261 C 
BRANCH  29  30
ATOM     30  O   UNL A   1      35.482  31.794  28.681  1.00  0.00    -0.460 OA
BRANCH  30  31
ATOM     31  C   UNL A   1      35.996  31.232  29.801  1.00  0.00     0.338 C 
ATOM     32  O   UNL A   1      35.594  31.377  30.950  1.00  0.00    -0.246 OA
BRANCH  31  33
ATOM     33  C   UNL A   1      37.083  30.287  29.486  1.00  0.00     0.060 A 
ATOM     34  C   UNL A   1      37.781  29.731  30.565  1.00  0.00     0.016 A 
ATOM     35  C   UNL A   1      37.521  30.079  28.175  1.00  0.00     0.016 A 
ATOM     36  C   UNL A   1      38.972  29.047  30.346  1.00  0.00     0.010 A 
ATOM     37  C   UNL A   1      38.724  29.393  27.957  1.00  0.00     0.010 A 
ATOM     38  C   UNL A   1      39.483  28.932  29.046  1.00  0.00    -0.014 A 
BRANCH  38  39
ATOM     39  C   UNL A   1      40.900  28.524  28.879  1.00  0.00     0.031 A 
ATOM     40  C   UNL A   1      41.202  27.102  28.477  1.00  0.00     0.074 A 
ATOM     41  C   UNL A   1      41.898  29.417  28.986  1.00  0.00     0.049 A 
ATOM     42  N   UNL A   1      42.352  26.550  28.180  1.00  0.00    -0.248 NA
ATOM     43  C   UNL A   1      40.055  26.183  28.396  1.00  0.00     0.031 C 
ATOM     44  C   UNL A   1      41.738  30.829  29.329  1.00  0.00     0.029 A 
ATOM     45  N   UNL A   1      43.249  29.265  28.797  1.00  0.00    -0.354 N 
ATOM     46  C   UNL A   1      42.065  25.225  27.875  1.00  0.00     0.074 A 
ATOM     47  C   UNL A   1      40.641  25.046  28.059  1.00  0.00     0.031 C 
ATOM     48  C   UNL A   1      42.946  31.418  29.318  1.00  0.00     0.029 A 
ATOM     49  C   UNL A   1      43.963  30.422  28.982  1.00  0.00     0.049 A 
ATOM     50  H   UNL A   1      43.666  28.407  28.552  1.00  0.00     0.167 HD
ATOM     51  C   UNL A   1      42.906  24.243  27.467  1.00  0.00     0.031 A 
ATOM     52  C   UNL A   1      45.286  30.651  28.890  1.00  0.00     0.031 A 
ATOM     53  C   UNL A   1      44.322  24.409  27.295  1.00  0.00     0.049 A 
ATOM     54  C   UNL A   1      46.208  29.533  28.486  1.00  0.00     0.074 A 
ATOM     55  C   UNL A   1      45.257  23.476  26.879  1.00  0.00     0.029 A 
ATOM     56  N   UNL A   1      45.012  25.586  27.537  1.00  0.00    -0.354 N 
ATOM     57  N   UNL A   1      45.919  28.294  28.170  1.00  0.00    -0.248 NA
ATOM     58  C   UNL A   1      47.641  29.853  28.410  1.00  0.00     0.031 C 
ATOM     59  C   UNL A   1      46.520  24.078  26.914  1.00  0.00     0.029 A 
ATOM     60  C   UNL A   1      46.363  25.399  27.300  1.00  0.00     0.049 A 
ATOM     61  H   UNL A   1      44.601  26.431  27.833  1.00  0.00     0.167 HD
ATOM     62  C   UNL A   1      47.126  27.696  27.832  1.00  0.00     0.074 A 
ATOM     63  C   UNL A   1      48.149  28.714  27.965  1.00  0.00     0.031 C 
ATOM     64  C   UNL A   1      47.369  26.421  27.443  1.00  0.00     0.031 A 
BRANCH  51  65
ATOM     65  C   UNL A   1      42.306  22.889  27.210  1.00  0.00    -0.014 A 
ATOM     66  C   UNL A   1      41.815  22.538  25.942  1.00  0.00     0.009 A 
ATOM     67  C   UNL A   1      42.245  21.946  28.247  1.00  0.00     0.009 A 
ATOM     68  C   UNL A   1      41.245  21.281  25.728  1.00  0.00     0.001 A 
ATOM     69  C   UNL A   1      41.697  20.681  28.024  1.00  0.00     0.001 A 
ATOM     70  C   UNL A   1      41.189  20.354  26.768  1.00  0.00     0.000 A 
ENDBRANCH  51  65
BRANCH  52  71
ATOM     71  C   UNL A   1      45.826  32.004  29.183  1.00  0.00    -0.014 A 
ATOM     72  C   UNL A   1      46.154  32.888  28.142  1.00  0.00     0.009 A 
ATOM     73  C   UNL A   1      46.035  32.411  30.510  1.00  0.00     0.009 A 
ATOM     74  C   UNL A   1      46.702  34.141  28.427  1.00  0.00     0.001 A 
ATOM     75  C   UNL A   1      46.558  33.674  30.790  1.00  0.00     0.001 A 
ATOM     76  C   UNL A   1      46.899  34.535  29.749  1.00  0.00     0.000 A 
ENDBRANCH  52  71
BRANCH  64  77
ATOM     77  C   UNL A   1      48.789  26.066  27.103  1.00  0.00    -0.014 A 
ATOM     78  C   UNL A   1      49.313  26.297  25.821  1.00  0.00     0.009 A 
ATOM     79  C   UNL A   1      49.621  25.511  28.088  1.00  0.00     0.009 A 
ATOM     80  C   UNL A   1      50.630  25.939  25.522  1.00  0.00     0.001 A 
ATOM     81  C   UNL A   1      50.945  25.180  27.794  1.00  0.00     0.001 A 
ATOM     82  C   UNL A   1      51.444  25.384  26.508  1.00  0.00     0.000 A 
ENDBRANCH  64  77
ENDBRANCH  38  39
ENDBRANCH  31  33
ENDBRANCH  30  31
ENDBRANCH  29  30
ENDBRANCH  28  29
ENDBRANCH  27  28
ENDBRANCH   1  27
TORSDOF 18
ENDMDL
