MODEL 1
REMARK VINA RESULT:      -9.7      0.000      0.000
REMARK SMILES O=C(C[C@H](c1ccsc1)n1cccc1)OCCOCCOC(=O)c1ccc(-c2c3nc(c(-c4ccccc4)c4ccc([nH]4)c(-c4ccccc4)c4nc(c(-c5ccccc5)c5ccc2[nH]5)C=C4)C=C3)cc1
REMARK SMILES IDX 18 1 17 2 16 3 15 4 2 5 1 6 3 7 4 8 10 9 11 10 14 11 12 12
REMARK SMILES IDX 13 13 5 14 6 15 9 16 7 17 8 18 19 19 20 20 21 21 22 22 23 23
REMARK SMILES IDX 24 24 25 25 71 26 26 27 70 28 27 29 28 30 29 31 64 32 30 33
REMARK SMILES IDX 69 34 63 35 65 36 31 37 68 38 62 39 61 40 32 42 54 43 39 44
REMARK SMILES IDX 53 45 40 46 43 47 52 48 66 49 41 50 42 51 51 53 67 54 44 55
REMARK SMILES IDX 33 56 34 57 38 58 35 59 37 60 36 61 55 62 56 63 60 64 57 65
REMARK SMILES IDX 59 66 58 67 45 68 46 69 50 70 47 71 49 72 48 73
REMARK H PARENT 65 41 43 52
REMARK Flexibility Score: inf
ROOT
ATOM      1  O   UNL A   1      37.371  23.459  25.244  1.00  0.00    -0.374 OA
ENDROOT
BRANCH   1   2
ATOM      2  C   UNL A   1      36.280  23.964  26.014  1.00  0.00     0.202 C 
BRANCH   2   3
ATOM      3  C   UNL A   1      35.115  24.471  25.185  1.00  0.00     0.261 C 
BRANCH   3   4
ATOM      4  O   UNL A   1      35.213  24.084  23.803  1.00  0.00    -0.463 OA
BRANCH   4   5
ATOM      5  C   UNL A   1      34.494  23.112  23.204  1.00  0.00     0.308 C 
ATOM      6  O   UNL A   1      33.963  23.337  22.118  1.00  0.00    -0.252 OA
BRANCH   5   7
ATOM      7  C   UNL A   1      34.255  21.809  23.910  1.00  0.00     0.153 C 
BRANCH   7   8
ATOM      8  C   UNL A   1      32.790  21.415  24.044  1.00  0.00     0.128 C 
BRANCH   8   9
ATOM      9  N   UNL A   1      32.604  19.961  24.223  1.00  0.00    -0.346 N 
ATOM     10  C   UNL A   1      32.354  19.077  23.195  1.00  0.00     0.086 A 
ATOM     11  C   UNL A   1      32.806  19.236  25.375  1.00  0.00     0.086 A 
ATOM     12  C   UNL A   1      32.412  17.795  23.696  1.00  0.00     0.019 A 
ATOM     13  C   UNL A   1      32.697  17.896  25.076  1.00  0.00     0.019 A 
ENDBRANCH   8   9
BRANCH   8  14
ATOM     14  C   UNL A   1      32.136  22.218  25.135  1.00  0.00    -0.014 A 
ATOM     15  C   UNL A   1      32.640  22.389  26.468  1.00  0.00     0.017 A 
ATOM     16  C   UNL A   1      31.018  23.008  24.928  1.00  0.00     0.070 A 
ATOM     17  C   UNL A   1      31.917  23.311  27.189  1.00  0.00     0.065 A 
ATOM     18  S   UNL A   1      30.607  23.943  26.295  1.00  0.00    -0.152 S 
ENDBRANCH   8  14
ENDBRANCH   7   8
ENDBRANCH   5   7
ENDBRANCH   4   5
ENDBRANCH   3   4
ENDBRANCH   2   3
ENDBRANCH   1   2
BRANCH   1  19
ATOM     19  C   UNL A   1      38.493  22.943  25.973  1.00  0.00     0.202 C 
BRANCH  19  20
ATOM     20  C   UNL A   1      38.726  21.461  25.781  1.00  0.00     0.261 C 
BRANCH  20  21
ATOM     21  O   UNL A   1      39.652  21.036  26.760  1.00  0.00    -0.460 OA
BRANCH  21  22
ATOM     22  C   UNL A   1      40.617  20.223  26.306  1.00  0.00     0.338 C 
ATOM     23  O   UNL A   1      40.497  19.103  25.811  1.00  0.00    -0.246 OA
BRANCH  22  24
ATOM     24  C   UNL A   1      41.901  20.854  26.590  1.00  0.00     0.060 A 
ATOM     25  C   UNL A   1      42.107  21.166  27.932  1.00  0.00     0.016 A 
ATOM     26  C   UNL A   1      42.520  21.541  25.535  1.00  0.00     0.016 A 
ATOM     27  C   UNL A   1      42.642  22.394  28.208  1.00  0.00     0.010 A 
ATOM     28  C   UNL A   1      42.975  22.800  25.801  1.00  0.00     0.010 A 
ATOM     29  C   UNL A   1      42.965  23.229  27.130  1.00  0.00    -0.014 A 
BRANCH  29  30
ATOM     30  C   UNL A   1      43.428  24.568  27.441  1.00  0.00     0.031 A 
ATOM     31  C   UNL A   1      42.251  25.507  27.571  1.00  0.00     0.074 A 
ATOM     32  C   UNL A   1      44.782  24.725  27.481  1.00  0.00     0.049 A 
ATOM     33  N   UNL A   1      42.215  26.789  27.425  1.00  0.00    -0.248 NA
ATOM     34  C   UNL A   1      40.894  24.943  27.834  1.00  0.00     0.031 C 
ATOM     35  C   UNL A   1      45.769  23.631  27.316  1.00  0.00     0.029 A 
ATOM     36  N   UNL A   1      45.600  25.814  27.646  1.00  0.00    -0.354 N 
ATOM     37  C   UNL A   1      40.911  27.196  27.734  1.00  0.00     0.074 A 
ATOM     38  C   UNL A   1      40.115  26.018  27.877  1.00  0.00     0.031 C 
ATOM     39  C   UNL A   1      47.026  24.122  27.315  1.00  0.00     0.029 A 
ATOM     40  C   UNL A   1      46.980  25.559  27.496  1.00  0.00     0.049 A 
ATOM     41  H   UNL A   1      45.248  26.710  27.855  1.00  0.00     0.167 HD
ATOM     42  C   UNL A   1      40.581  28.488  27.983  1.00  0.00     0.031 A 
ATOM     43  C   UNL A   1      48.012  26.452  27.475  1.00  0.00     0.031 A 
ATOM     44  C   UNL A   1      41.677  29.359  27.723  1.00  0.00     0.049 A 
ATOM     45  C   UNL A   1      47.426  27.770  27.773  1.00  0.00     0.074 A 
ATOM     46  C   UNL A   1      42.284  29.754  26.557  1.00  0.00     0.029 A 
ATOM     47  N   UNL A   1      42.528  29.618  28.771  1.00  0.00    -0.354 N 
ATOM     48  N   UNL A   1      46.980  28.140  28.934  1.00  0.00    -0.248 NA
ATOM     49  C   UNL A   1      47.244  28.734  26.681  1.00  0.00     0.031 C 
ATOM     50  C   UNL A   1      43.655  29.850  26.892  1.00  0.00     0.029 A 
ATOM     51  C   UNL A   1      43.807  29.624  28.263  1.00  0.00     0.049 A 
ATOM     52  H   UNL A   1      42.270  29.769  29.710  1.00  0.00     0.167 HD
ATOM     53  C   UNL A   1      46.137  29.178  28.618  1.00  0.00     0.074 A 
ATOM     54  C   UNL A   1      46.572  29.680  27.334  1.00  0.00     0.031 C 
ATOM     55  C   UNL A   1      44.883  29.209  29.139  1.00  0.00     0.031 A 
BRANCH  42  56
ATOM     56  C   UNL A   1      39.359  29.012  28.656  1.00  0.00    -0.014 A 
ATOM     57  C   UNL A   1      39.180  28.703  30.017  1.00  0.00     0.009 A 
ATOM     58  C   UNL A   1      38.268  29.551  27.959  1.00  0.00     0.009 A 
ATOM     59  C   UNL A   1      37.941  28.854  30.640  1.00  0.00     0.001 A 
ATOM     60  C   UNL A   1      37.035  29.737  28.592  1.00  0.00     0.001 A 
ATOM     61  C   UNL A   1      36.865  29.362  29.922  1.00  0.00     0.000 A 
ENDBRANCH  42  56
BRANCH  43  62
ATOM     62  C   UNL A   1      49.483  26.427  27.169  1.00  0.00    -0.014 A 
ATOM     63  C   UNL A   1      50.517  26.543  28.102  1.00  0.00     0.009 A 
ATOM     64  C   UNL A   1      49.892  26.201  25.826  1.00  0.00     0.009 A 
ATOM     65  C   UNL A   1      51.865  26.368  27.727  1.00  0.00     0.001 A 
ATOM     66  C   UNL A   1      51.221  25.988  25.454  1.00  0.00     0.001 A 
ATOM     67  C   UNL A   1      52.213  26.062  26.413  1.00  0.00     0.000 A 
ENDBRANCH  43  62
BRANCH  55  68
ATOM     68  C   UNL A   1      44.699  28.365  30.393  1.00  0.00    -0.014 A 
ATOM     69  C   UNL A   1      44.178  27.065  30.312  1.00  0.00     0.009 A 
ATOM     70  C   UNL A   1      44.908  28.890  31.681  1.00  0.00     0.009 A 
ATOM     71  C   UNL A   1      43.856  26.339  31.467  1.00  0.00     0.001 A 
ATOM     72  C   UNL A   1      44.593  28.168  32.839  1.00  0.00     0.001 A 
ATOM     73  C   UNL A   1      44.059  26.889  32.731  1.00  0.00     0.000 A 
ENDBRANCH  55  68
ENDBRANCH  29  30
ENDBRANCH  22  24
ENDBRANCH  21  22
ENDBRANCH  20  21
ENDBRANCH  19  20
ENDBRANCH   1  19
TORSDOF 17
ENDMDL
MODEL 2
REMARK VINA RESULT:      -9.7      1.229      2.157
REMARK SMILES O=C(C[C@H](c1ccsc1)n1cccc1)OCCOCCOC(=O)c1ccc(-c2c3nc(c(-c4ccccc4)c4ccc([nH]4)c(-c4ccccc4)c4nc(c(-c5ccccc5)c5ccc2[nH]5)C=C4)C=C3)cc1
REMARK SMILES IDX 18 1 17 2 16 3 15 4 2 5 1 6 3 7 4 8 10 9 11 10 14 11 12 12
REMARK SMILES IDX 13 13 5 14 6 15 9 16 7 17 8 18 19 19 20 20 21 21 22 22 23 23
REMARK SMILES IDX 24 24 25 25 71 26 26 27 70 28 27 29 28 30 29 31 64 32 30 33
REMARK SMILES IDX 69 34 63 35 65 36 31 37 68 38 62 39 61 40 32 42 54 43 39 44
REMARK SMILES IDX 53 45 40 46 43 47 52 48 66 49 41 50 42 51 51 53 67 54 44 55
REMARK SMILES IDX 33 56 34 57 38 58 35 59 37 60 36 61 55 62 56 63 60 64 57 65
REMARK SMILES IDX 59 66 58 67 45 68 46 69 50 70 47 71 49 72 48 73
REMARK H PARENT 65 41 43 52
REMARK Flexibility Score: inf
ROOT
ATOM      1  O   UNL A   1      36.927  23.270  24.569  1.00  0.00    -0.374 OA
ENDROOT
BRANCH   1   2
ATOM      2  C   UNL A   1      35.647  23.869  24.774  1.00  0.00     0.202 C 
BRANCH   2   3
ATOM      3  C   UNL A   1      34.836  24.054  23.505  1.00  0.00     0.261 C 
BRANCH   3   4
ATOM      4  O   UNL A   1      33.518  23.486  23.606  1.00  0.00    -0.463 OA
BRANCH   4   5
ATOM      5  C   UNL A   1      33.059  22.428  22.906  1.00  0.00     0.308 C 
ATOM      6  O   UNL A   1      32.901  22.532  21.692  1.00  0.00    -0.252 OA
BRANCH   5   7
ATOM      7  C   UNL A   1      32.642  21.177  23.621  1.00  0.00     0.153 C 
BRANCH   7   8
ATOM      8  C   UNL A   1      33.599  20.716  24.712  1.00  0.00     0.128 C 
BRANCH   8   9
ATOM      9  N   UNL A   1      33.344  21.374  26.010  1.00  0.00    -0.346 N 
ATOM     10  C   UNL A   1      34.273  21.481  27.023  1.00  0.00     0.086 A 
ATOM     11  C   UNL A   1      32.238  22.114  26.360  1.00  0.00     0.086 A 
ATOM     12  C   UNL A   1      33.759  22.299  28.005  1.00  0.00     0.019 A 
ATOM     13  C   UNL A   1      32.470  22.698  27.587  1.00  0.00     0.019 A 
ENDBRANCH   8   9
BRANCH   8  14
ATOM     14  C   UNL A   1      33.581  19.215  24.815  1.00  0.00    -0.014 A 
ATOM     15  C   UNL A   1      32.520  18.423  25.367  1.00  0.00     0.017 A 
ATOM     16  C   UNL A   1      34.554  18.407  24.251  1.00  0.00     0.070 A 
ATOM     17  C   UNL A   1      32.711  17.076  25.172  1.00  0.00     0.065 A 
ATOM     18  S   UNL A   1      34.181  16.745  24.368  1.00  0.00    -0.152 S 
ENDBRANCH   8  14
ENDBRANCH   7   8
ENDBRANCH   5   7
ENDBRANCH   4   5
ENDBRANCH   3   4
ENDBRANCH   2   3
ENDBRANCH   1   2
BRANCH   1  19
ATOM     19  C   UNL A   1      37.547  22.662  25.710  1.00  0.00     0.202 C 
BRANCH  19  20
ATOM     20  C   UNL A   1      38.292  21.383  25.400  1.00  0.00     0.261 C 
BRANCH  20  21
ATOM     21  O   UNL A   1      39.251  21.180  26.418  1.00  0.00    -0.460 OA
BRANCH  21  22
ATOM     22  C   UNL A   1      40.181  20.257  26.140  1.00  0.00     0.338 C 
ATOM     23  O   UNL A   1      40.014  19.107  25.733  1.00  0.00    -0.246 OA
BRANCH  22  24
ATOM     24  C   UNL A   1      41.481  20.811  26.499  1.00  0.00     0.060 A 
ATOM     25  C   UNL A   1      41.609  21.155  27.843  1.00  0.00     0.016 A 
ATOM     26  C   UNL A   1      42.220  21.418  25.473  1.00  0.00     0.016 A 
ATOM     27  C   UNL A   1      42.206  22.354  28.121  1.00  0.00     0.010 A 
ATOM     28  C   UNL A   1      42.740  22.653  25.734  1.00  0.00     0.010 A 
ATOM     29  C   UNL A   1      42.662  23.128  27.046  1.00  0.00    -0.014 A 
BRANCH  29  30
ATOM     30  C   UNL A   1      43.192  24.444  27.350  1.00  0.00     0.031 A 
ATOM     31  C   UNL A   1      42.062  25.435  27.503  1.00  0.00     0.074 A 
ATOM     32  C   UNL A   1      44.552  24.538  27.366  1.00  0.00     0.049 A 
ATOM     33  N   UNL A   1      42.083  26.718  27.359  1.00  0.00    -0.248 NA
ATOM     34  C   UNL A   1      40.686  24.933  27.789  1.00  0.00     0.031 C 
ATOM     35  C   UNL A   1      45.485  23.400  27.182  1.00  0.00     0.029 A 
ATOM     36  N   UNL A   1      45.422  25.588  27.518  1.00  0.00    -0.354 N 
ATOM     37  C   UNL A   1      40.804  27.184  27.692  1.00  0.00     0.074 A 
ATOM     38  C   UNL A   1      39.958  26.044  27.848  1.00  0.00     0.031 C 
ATOM     39  C   UNL A   1      46.763  23.833  27.159  1.00  0.00     0.029 A 
ATOM     40  C   UNL A   1      46.787  25.270  27.343  1.00  0.00     0.049 A 
ATOM     41  H   UNL A   1      45.116  26.499  27.735  1.00  0.00     0.167 HD
ATOM     42  C   UNL A   1      40.539  28.489  27.949  1.00  0.00     0.031 A 
ATOM     43  C   UNL A   1      47.858  26.115  27.306  1.00  0.00     0.031 A 
ATOM     44  C   UNL A   1      41.669  29.309  27.671  1.00  0.00     0.049 A 
ATOM     45  C   UNL A   1      47.338  27.458  27.615  1.00  0.00     0.074 A 
ATOM     46  C   UNL A   1      42.273  29.679  26.495  1.00  0.00     0.029 A 
ATOM     47  N   UNL A   1      42.549  29.526  28.704  1.00  0.00    -0.354 N 
ATOM     48  N   UNL A   1      46.931  27.845  28.785  1.00  0.00    -0.248 NA
ATOM     49  C   UNL A   1      47.181  28.431  26.528  1.00  0.00     0.031 C 
ATOM     50  C   UNL A   1      43.652  29.711  26.805  1.00  0.00     0.029 A 
ATOM     51  C   UNL A   1      43.818  29.475  28.173  1.00  0.00     0.049 A 
ATOM     52  H   UNL A   1      42.315  29.688  29.647  1.00  0.00     0.167 HD
ATOM     53  C   UNL A   1      46.130  28.921  28.486  1.00  0.00     0.074 A 
ATOM     54  C   UNL A   1      46.566  29.406  27.195  1.00  0.00     0.031 C 
ATOM     55  C   UNL A   1      44.889  29.009  29.028  1.00  0.00     0.031 A 
BRANCH  42  56
ATOM     56  C   UNL A   1      39.354  29.067  28.644  1.00  0.00    -0.014 A 
ATOM     57  C   UNL A   1      39.204  28.792  30.016  1.00  0.00     0.009 A 
ATOM     58  C   UNL A   1      38.262  29.628  27.967  1.00  0.00     0.009 A 
ATOM     59  C   UNL A   1      37.989  28.997  30.670  1.00  0.00     0.001 A 
ATOM     60  C   UNL A   1      37.055  29.868  28.630  1.00  0.00     0.001 A 
ATOM     61  C   UNL A   1      36.910  29.526  29.971  1.00  0.00     0.000 A 
ENDBRANCH  42  56
BRANCH  43  62
ATOM     62  C   UNL A   1      49.321  26.023  26.973  1.00  0.00    -0.014 A 
ATOM     63  C   UNL A   1      49.867  25.963  25.688  1.00  0.00     0.009 A 
ATOM     64  C   UNL A   1      50.261  26.064  28.038  1.00  0.00     0.009 A 
ATOM     65  C   UNL A   1      51.261  26.019  25.482  1.00  0.00     0.001 A 
ATOM     66  C   UNL A   1      51.641  26.159  27.840  1.00  0.00     0.001 A 
ATOM     67  C   UNL A   1      52.143  26.146  26.553  1.00  0.00     0.000 A 
ENDBRANCH  43  62
BRANCH  55  68
ATOM     68  C   UNL A   1      44.689  28.172  30.285  1.00  0.00    -0.014 A 
ATOM     69  C   UNL A   1      44.125  26.889  30.208  1.00  0.00     0.009 A 
ATOM     70  C   UNL A   1      44.925  28.689  31.570  1.00  0.00     0.009 A 
ATOM     71  C   UNL A   1      43.791  26.173  31.367  1.00  0.00     0.001 A 
ATOM     72  C   UNL A   1      44.597  27.978  32.731  1.00  0.00     0.001 A 
ATOM     73  C   UNL A   1      44.022  26.718  32.628  1.00  0.00     0.000 A 
ENDBRANCH  55  68
ENDBRANCH  29  30
ENDBRANCH  22  24
ENDBRANCH  21  22
ENDBRANCH  20  21
ENDBRANCH  19  20
ENDBRANCH   1  19
TORSDOF 17
ENDMDL
MODEL 3
REMARK VINA RESULT:      -9.3      1.751      2.849
REMARK SMILES O=C(C[C@H](c1ccsc1)n1cccc1)OCCOCCOC(=O)c1ccc(-c2c3nc(c(-c4ccccc4)c4ccc([nH]4)c(-c4ccccc4)c4nc(c(-c5ccccc5)c5ccc2[nH]5)C=C4)C=C3)cc1
REMARK SMILES IDX 18 1 17 2 16 3 15 4 2 5 1 6 3 7 4 8 10 9 11 10 14 11 12 12
REMARK SMILES IDX 13 13 5 14 6 15 9 16 7 17 8 18 19 19 20 20 21 21 22 22 23 23
REMARK SMILES IDX 24 24 25 25 71 26 26 27 70 28 27 29 28 30 29 31 64 32 30 33
REMARK SMILES IDX 69 34 63 35 65 36 31 37 68 38 62 39 61 40 32 42 54 43 39 44
REMARK SMILES IDX 53 45 40 46 43 47 52 48 66 49 41 50 42 51 51 53 67 54 44 55
REMARK SMILES IDX 33 56 34 57 38 58 35 59 37 60 36 61 55 62 56 63 60 64 57 65
REMARK SMILES IDX 59 66 58 67 45 68 46 69 50 70 47 71 49 72 48 73
REMARK H PARENT 65 41 43 52
REMARK Flexibility Score: inf
ROOT
ATOM      1  O   UNL A   1      38.390  22.599  26.139  1.00  0.00    -0.374 OA
ENDROOT
BRANCH   1   2
ATOM      2  C   UNL A   1      37.553  23.695  25.771  1.00  0.00     0.202 C 
BRANCH   2   3
ATOM      3  C   UNL A   1      36.142  23.298  25.379  1.00  0.00     0.261 C 
BRANCH   3   4
ATOM      4  O   UNL A   1      35.329  22.962  26.517  1.00  0.00    -0.463 OA
BRANCH   4   5
ATOM      5  C   UNL A   1      34.071  23.394  26.743  1.00  0.00     0.308 C 
ATOM      6  O   UNL A   1      33.294  22.684  27.377  1.00  0.00    -0.252 OA
BRANCH   5   7
ATOM      7  C   UNL A   1      33.596  24.679  26.129  1.00  0.00     0.153 C 
BRANCH   7   8
ATOM      8  C   UNL A   1      32.251  24.589  25.421  1.00  0.00     0.128 C 
BRANCH   8   9
ATOM      9  N   UNL A   1      31.644  25.915  25.180  1.00  0.00    -0.346 N 
ATOM     10  C   UNL A   1      32.159  27.103  25.651  1.00  0.00     0.086 A 
ATOM     11  C   UNL A   1      30.595  26.203  24.336  1.00  0.00     0.086 A 
ATOM     12  C   UNL A   1      31.445  28.141  25.094  1.00  0.00     0.019 A 
ATOM     13  C   UNL A   1      30.454  27.572  24.264  1.00  0.00     0.019 A 
ENDBRANCH   8   9
BRANCH   8  14
ATOM     14  C   UNL A   1      32.382  23.778  24.162  1.00  0.00    -0.014 A 
ATOM     15  C   UNL A   1      33.264  24.064  23.066  1.00  0.00     0.017 A 
ATOM     16  C   UNL A   1      31.748  22.561  23.975  1.00  0.00     0.070 A 
ATOM     17  C   UNL A   1      33.287  23.055  22.131  1.00  0.00     0.065 A 
ATOM     18  S   UNL A   1      32.222  21.783  22.533  1.00  0.00    -0.152 S 
ENDBRANCH   8  14
ENDBRANCH   7   8
ENDBRANCH   5   7
ENDBRANCH   4   5
ENDBRANCH   3   4
ENDBRANCH   2   3
ENDBRANCH   1   2
BRANCH   1  19
ATOM     19  C   UNL A   1      38.503  21.525  25.196  1.00  0.00     0.202 C 
BRANCH  19  20
ATOM     20  C   UNL A   1      38.889  20.199  25.812  1.00  0.00     0.261 C 
BRANCH  20  21
ATOM     21  O   UNL A   1      40.043  20.407  26.601  1.00  0.00    -0.460 OA
BRANCH  21  22
ATOM     22  C   UNL A   1      41.121  19.711  26.215  1.00  0.00     0.338 C 
ATOM     23  O   UNL A   1      41.163  18.586  25.716  1.00  0.00    -0.246 OA
BRANCH  22  24
ATOM     24  C   UNL A   1      42.304  20.483  26.580  1.00  0.00     0.060 A 
ATOM     25  C   UNL A   1      42.332  20.902  27.908  1.00  0.00     0.016 A 
ATOM     26  C   UNL A   1      42.970  21.155  25.544  1.00  0.00     0.016 A 
ATOM     27  C   UNL A   1      42.719  22.193  28.141  1.00  0.00     0.010 A 
ATOM     28  C   UNL A   1      43.277  22.468  25.757  1.00  0.00     0.010 A 
ATOM     29  C   UNL A   1      43.082  22.982  27.042  1.00  0.00    -0.014 A 
BRANCH  29  30
ATOM     30  C   UNL A   1      43.385  24.378  27.294  1.00  0.00     0.031 A 
ATOM     31  C   UNL A   1      42.107  25.153  27.520  1.00  0.00     0.074 A 
ATOM     32  C   UNL A   1      44.703  24.715  27.211  1.00  0.00     0.049 A 
ATOM     33  N   UNL A   1      41.885  26.415  27.362  1.00  0.00    -0.248 NA
ATOM     34  C   UNL A   1      40.867  24.418  27.909  1.00  0.00     0.031 C 
ATOM     35  C   UNL A   1      45.812  23.760  26.971  1.00  0.00     0.029 A 
ATOM     36  N   UNL A   1      45.377  25.908  27.290  1.00  0.00    -0.354 N 
ATOM     37  C   UNL A   1      40.570  26.650  27.782  1.00  0.00     0.074 A 
ATOM     38  C   UNL A   1      39.957  25.381  28.010  1.00  0.00     0.031 C 
ATOM     39  C   UNL A   1      46.985  24.414  26.852  1.00  0.00     0.029 A 
ATOM     40  C   UNL A   1      46.761  25.837  27.020  1.00  0.00     0.049 A 
ATOM     41  H   UNL A   1      44.927  26.753  27.520  1.00  0.00     0.167 HD
ATOM     42  C   UNL A   1      40.091  27.892  28.045  1.00  0.00     0.031 A 
ATOM     43  C   UNL A   1      47.657  26.859  26.897  1.00  0.00     0.031 A 
ATOM     44  C   UNL A   1      41.032  28.896  27.678  1.00  0.00     0.049 A 
ATOM     45  C   UNL A   1      46.925  28.093  27.231  1.00  0.00     0.074 A 
ATOM     46  C   UNL A   1      41.476  29.342  26.458  1.00  0.00     0.029 A 
ATOM     47  N   UNL A   1      41.928  29.290  28.643  1.00  0.00    -0.354 N 
ATOM     48  N   UNL A   1      46.537  28.427  28.423  1.00  0.00    -0.248 NA
ATOM     49  C   UNL A   1      46.520  28.998  26.149  1.00  0.00     0.031 C 
ATOM     50  C   UNL A   1      42.845  29.628  26.668  1.00  0.00     0.029 A 
ATOM     51  C   UNL A   1      43.145  29.457  28.022  1.00  0.00     0.049 A 
ATOM     52  H   UNL A   1      41.735  29.428  29.599  1.00  0.00     0.167 HD
ATOM     53  C   UNL A   1      45.536  29.335  28.173  1.00  0.00     0.074 A 
ATOM     54  C   UNL A   1      45.786  29.861  26.849  1.00  0.00     0.031 C 
ATOM     55  C   UNL A   1      44.339  29.210  28.803  1.00  0.00     0.031 A 
BRANCH  42  56
ATOM     56  C   UNL A   1      38.873  28.263  28.819  1.00  0.00    -0.014 A 
ATOM     57  C   UNL A   1      37.933  29.104  28.194  1.00  0.00     0.009 A 
ATOM     58  C   UNL A   1      38.743  28.050  30.199  1.00  0.00     0.009 A 
ATOM     59  C   UNL A   1      36.949  29.766  28.928  1.00  0.00     0.001 A 
ATOM     60  C   UNL A   1      37.736  28.686  30.930  1.00  0.00     0.001 A 
ATOM     61  C   UNL A   1      36.858  29.564  30.301  1.00  0.00     0.000 A 
ENDBRANCH  42  56
BRANCH  43  62
ATOM     62  C   UNL A   1      49.085  27.024  26.460  1.00  0.00    -0.014 A 
ATOM     63  C   UNL A   1      50.162  27.352  27.288  1.00  0.00     0.009 A 
ATOM     64  C   UNL A   1      49.412  26.766  25.101  1.00  0.00     0.009 A 
ATOM     65  C   UNL A   1      51.486  27.346  26.802  1.00  0.00     0.001 A 
ATOM     66  C   UNL A   1      50.723  26.721  24.623  1.00  0.00     0.001 A 
ATOM     67  C   UNL A   1      51.768  27.003  25.482  1.00  0.00     0.000 A 
ENDBRANCH  43  62
BRANCH  55  68
ATOM     68  C   UNL A   1      44.382  28.379  30.078  1.00  0.00    -0.014 A 
ATOM     69  C   UNL A   1      44.015  27.025  30.063  1.00  0.00     0.009 A 
ATOM     70  C   UNL A   1      44.651  28.952  31.333  1.00  0.00     0.009 A 
ATOM     71  C   UNL A   1      43.898  26.291  31.252  1.00  0.00     0.001 A 
ATOM     72  C   UNL A   1      44.540  28.224  32.524  1.00  0.00     0.001 A 
ATOM     73  C   UNL A   1      44.156  26.890  32.483  1.00  0.00     0.000 A 
ENDBRANCH  55  68
ENDBRANCH  29  30
ENDBRANCH  22  24
ENDBRANCH  21  22
ENDBRANCH  20  21
ENDBRANCH  19  20
ENDBRANCH   1  19
TORSDOF 17
ENDMDL
