MODEL 1
REMARK VINA RESULT:     -10.1      0.000      0.000
REMARK SMILES CCC(CC)(NC(=O)Nc1cc(Cl)cc(Cl)c1)C(=O)OCCOCCOC(=O)c1ccc(-c2c3nc(c(-c4ccccc4)c4ccc([nH]4)c(-c4ccccc4)c4nc(c(-c5ccccc5)c5ccc2[nH]5)C=C4)C=C3)cc1
REMARK SMILES IDX 23 1 22 2 21 3 20 4 18 5 19 6 3 7 2 8 1 9 4 10 5 11 6 12
REMARK SMILES IDX 7 13 8 15 9 16 10 18 11 19 17 20 12 21 15 22 13 23 14 24
REMARK SMILES IDX 16 25 24 26 25 27 26 28 27 29 28 30 29 31 30 32 76 33 31 34
REMARK SMILES IDX 75 35 32 36 33 37 34 38 69 39 35 40 74 41 68 42 70 43 36 44
REMARK SMILES IDX 73 45 67 46 66 47 37 49 59 50 44 51 58 52 45 53 48 54 57 55
REMARK SMILES IDX 71 56 46 57 47 58 56 60 72 61 49 62 38 63 39 64 43 65 40 66
REMARK SMILES IDX 42 67 41 68 60 69 61 70 65 71 62 72 64 73 63 74 50 75 51 76
REMARK SMILES IDX 55 77 52 78 54 79 53 80
REMARK H PARENT 6 14 9 17 70 48 48 59
REMARK Flexibility Score: inf
ROOT
ATOM      1  O   UNL A   1      32.606  29.504  24.833  1.00  0.00    -0.374 OA
ENDROOT
BRANCH   1   2
ATOM      2  C   UNL A   1      33.366  28.356  24.476  1.00  0.00     0.202 C 
BRANCH   2   3
ATOM      3  C   UNL A   1      33.783  27.364  25.645  1.00  0.00     0.261 C 
BRANCH   3   4
ATOM      4  O   UNL A   1      33.121  26.066  25.618  1.00  0.00    -0.461 OA
BRANCH   4   5
ATOM      5  C   UNL A   1      31.844  25.823  26.128  1.00  0.00     0.331 C 
ATOM      6  O   UNL A   1      31.456  26.307  27.188  1.00  0.00    -0.249 OA
BRANCH   5   7
ATOM      7  C   UNL A   1      30.896  24.888  25.141  1.00  0.00     0.139 C 
BRANCH   7   8
ATOM      8  C   UNL A   1      31.097  23.533  24.336  1.00  0.00     0.037 C 
ATOM      9  C   UNL A   1      31.329  23.404  22.856  1.00  0.00     0.007 C 
ENDBRANCH   7   8
BRANCH   7  10
ATOM     10  C   UNL A   1      30.343  25.939  24.128  1.00  0.00     0.037 C 
ATOM     11  C   UNL A   1      28.868  26.323  24.183  1.00  0.00     0.007 C 
ENDBRANCH   7  10
BRANCH   7  12
ATOM     12  N   UNL A   1      30.003  24.423  26.168  1.00  0.00    -0.322 N 
ATOM     13  C   UNL A   1      30.257  23.325  26.921  1.00  0.00     0.320 C 
ATOM     14  H   UNL A   1      29.170  24.923  26.330  1.00  0.00     0.166 HD
ATOM     15  O   UNL A   1      29.394  23.042  27.757  1.00  0.00    -0.248 OA
ATOM     16  N   UNL A   1      31.337  22.488  26.775  1.00  0.00    -0.308 N 
ATOM     17  H   UNL A   1      31.074  21.637  27.193  1.00  0.00     0.171 HD
BRANCH  16  18
ATOM     18  C   UNL A   1      32.695  22.283  26.283  1.00  0.00     0.045 A 
ATOM     19  C   UNL A   1      33.862  23.050  26.407  1.00  0.00     0.046 A 
ATOM     20  C   UNL A   1      32.913  21.035  25.683  1.00  0.00     0.046 A 
ATOM     21  C   UNL A   1      35.126  22.661  25.923  1.00  0.00     0.044 A 
ATOM     22  C   UNL A   1      34.174  20.632  25.201  1.00  0.00     0.044 A 
ATOM     23  Cl  UNL A   1      36.489  23.701  26.142  1.00  0.00    -0.084 Cl
ATOM     24  C   UNL A   1      35.286  21.451  25.296  1.00  0.00     0.041 A 
ATOM     25  Cl  UNL A   1      34.348  19.073  24.498  1.00  0.00    -0.084 Cl
ENDBRANCH  16  18
ENDBRANCH   7  12
ENDBRANCH   5   7
ENDBRANCH   4   5
ENDBRANCH   3   4
ENDBRANCH   2   3
ENDBRANCH   1   2
BRANCH   1  26
ATOM     26  C   UNL A   1      32.059  29.659  26.151  1.00  0.00     0.202 C 
BRANCH  26  27
ATOM     27  C   UNL A   1      32.133  31.098  26.709  1.00  0.00     0.261 C 
BRANCH  27  28
ATOM     28  O   UNL A   1      33.335  31.293  27.446  1.00  0.00    -0.460 OA
BRANCH  28  29
ATOM     29  C   UNL A   1      33.499  32.579  27.811  1.00  0.00     0.338 C 
ATOM     30  O   UNL A   1      32.680  33.485  27.711  1.00  0.00    -0.246 OA
BRANCH  29  31
ATOM     31  C   UNL A   1      34.693  32.653  28.660  1.00  0.00     0.060 A 
ATOM     32  C   UNL A   1      35.864  33.111  28.044  1.00  0.00     0.016 A 
ATOM     33  C   UNL A   1      34.653  32.377  30.032  1.00  0.00     0.016 A 
ATOM     34  C   UNL A   1      37.041  33.148  28.767  1.00  0.00     0.010 A 
ATOM     35  C   UNL A   1      35.839  32.407  30.759  1.00  0.00     0.010 A 
ATOM     36  C   UNL A   1      37.041  32.699  30.092  1.00  0.00    -0.014 A 
BRANCH  36  37
ATOM     37  C   UNL A   1      38.319  32.176  30.609  1.00  0.00     0.031 A 
ATOM     38  C   UNL A   1      38.823  30.894  30.001  1.00  0.00     0.074 A 
ATOM     39  C   UNL A   1      39.065  32.888  31.463  1.00  0.00     0.049 A 
ATOM     40  N   UNL A   1      39.971  30.293  30.166  1.00  0.00    -0.248 NA
ATOM     41  C   UNL A   1      37.914  30.204  29.067  1.00  0.00     0.031 C 
ATOM     42  C   UNL A   1      38.699  34.178  32.044  1.00  0.00     0.029 A 
ATOM     43  N   UNL A   1      40.312  32.628  31.963  1.00  0.00    -0.354 N 
ATOM     44  C   UNL A   1      39.916  29.162  29.362  1.00  0.00     0.074 A 
ATOM     45  C   UNL A   1      38.616  29.133  28.739  1.00  0.00     0.031 C 
ATOM     46  C   UNL A   1      39.715  34.608  32.813  1.00  0.00     0.029 A 
ATOM     47  C   UNL A   1      40.783  33.611  32.793  1.00  0.00     0.049 A 
ATOM     48  H   UNL A   1      40.821  31.813  31.746  1.00  0.00     0.167 HD
ATOM     49  C   UNL A   1      40.872  28.231  29.148  1.00  0.00     0.031 A 
ATOM     50  C   UNL A   1      41.951  33.685  33.457  1.00  0.00     0.031 A 
ATOM     51  C   UNL A   1      42.158  28.255  29.784  1.00  0.00     0.049 A 
ATOM     52  C   UNL A   1      42.959  32.580  33.282  1.00  0.00     0.074 A 
ATOM     53  C   UNL A   1      43.205  27.364  29.645  1.00  0.00     0.029 A 
ATOM     54  N   UNL A   1      42.562  29.220  30.693  1.00  0.00    -0.354 N 
ATOM     55  N   UNL A   1      42.911  31.526  32.501  1.00  0.00    -0.248 NA
ATOM     56  C   UNL A   1      44.192  32.686  34.074  1.00  0.00     0.031 C 
ATOM     57  C   UNL A   1      44.218  27.751  30.528  1.00  0.00     0.029 A 
ATOM     58  C   UNL A   1      43.832  28.927  31.154  1.00  0.00     0.049 A 
ATOM     59  H   UNL A   1      42.026  29.998  30.969  1.00  0.00     0.167 HD
ATOM     60  C   UNL A   1      44.122  30.866  32.678  1.00  0.00     0.074 A 
ATOM     61  C   UNL A   1      44.885  31.648  33.630  1.00  0.00     0.031 C 
ATOM     62  C   UNL A   1      44.569  29.721  32.103  1.00  0.00     0.031 A 
BRANCH  49  63
ATOM     63  C   UNL A   1      40.525  27.084  28.240  1.00  0.00    -0.014 A 
ATOM     64  C   UNL A   1      41.018  27.004  26.927  1.00  0.00     0.009 A 
ATOM     65  C   UNL A   1      39.680  26.067  28.711  1.00  0.00     0.009 A 
ATOM     66  C   UNL A   1      40.639  25.950  26.093  1.00  0.00     0.001 A 
ATOM     67  C   UNL A   1      39.331  24.997  27.887  1.00  0.00     0.001 A 
ATOM     68  C   UNL A   1      39.801  24.944  26.576  1.00  0.00     0.000 A 
ENDBRANCH  49  63
BRANCH  50  69
ATOM     69  C   UNL A   1      42.231  34.838  34.351  1.00  0.00    -0.014 A 
ATOM     70  C   UNL A   1      42.824  36.007  33.852  1.00  0.00     0.009 A 
ATOM     71  C   UNL A   1      41.931  34.762  35.720  1.00  0.00     0.009 A 
ATOM     72  C   UNL A   1      43.144  37.060  34.711  1.00  0.00     0.001 A 
ATOM     73  C   UNL A   1      42.222  35.829  36.572  1.00  0.00     0.001 A 
ATOM     74  C   UNL A   1      42.840  36.972  36.069  1.00  0.00     0.000 A 
ENDBRANCH  50  69
BRANCH  62  75
ATOM     75  C   UNL A   1      45.963  29.276  32.451  1.00  0.00    -0.014 A 
ATOM     76  C   UNL A   1      47.072  29.658  31.684  1.00  0.00     0.009 A 
ATOM     77  C   UNL A   1      46.167  28.486  33.595  1.00  0.00     0.009 A 
ATOM     78  C   UNL A   1      48.352  29.219  32.028  1.00  0.00     0.001 A 
ATOM     79  C   UNL A   1      47.450  28.081  33.959  1.00  0.00     0.001 A 
ATOM     80  C   UNL A   1      48.541  28.436  33.166  1.00  0.00     0.000 A 
ENDBRANCH  62  75
ENDBRANCH  36  37
ENDBRANCH  29  31
ENDBRANCH  28  29
ENDBRANCH  27  28
ENDBRANCH  26  27
ENDBRANCH   1  26
TORSDOF 18
ENDMDL
MODEL 2
REMARK VINA RESULT:     -10.0      0.709      5.927
REMARK SMILES CCC(CC)(NC(=O)Nc1cc(Cl)cc(Cl)c1)C(=O)OCCOCCOC(=O)c1ccc(-c2c3nc(c(-c4ccccc4)c4ccc([nH]4)c(-c4ccccc4)c4nc(c(-c5ccccc5)c5ccc2[nH]5)C=C4)C=C3)cc1
REMARK SMILES IDX 23 1 22 2 21 3 20 4 18 5 19 6 3 7 2 8 1 9 4 10 5 11 6 12
REMARK SMILES IDX 7 13 8 15 9 16 10 18 11 19 17 20 12 21 15 22 13 23 14 24
REMARK SMILES IDX 16 25 24 26 25 27 26 28 27 29 28 30 29 31 30 32 76 33 31 34
REMARK SMILES IDX 75 35 32 36 33 37 34 38 69 39 35 40 74 41 68 42 70 43 36 44
REMARK SMILES IDX 73 45 67 46 66 47 37 49 59 50 44 51 58 52 45 53 48 54 57 55
REMARK SMILES IDX 71 56 46 57 47 58 56 60 72 61 49 62 38 63 39 64 43 65 40 66
REMARK SMILES IDX 42 67 41 68 60 69 61 70 65 71 62 72 64 73 63 74 50 75 51 76
REMARK SMILES IDX 55 77 52 78 54 79 53 80
REMARK H PARENT 6 14 9 17 70 48 48 59
REMARK Flexibility Score: inf
ROOT
ATOM      1  O   UNL A   1      31.726  29.738  25.403  1.00  0.00    -0.374 OA
ENDROOT
BRANCH   1   2
ATOM      2  C   UNL A   1      32.726  28.770  25.692  1.00  0.00     0.202 C 
BRANCH   2   3
ATOM      3  C   UNL A   1      32.981  27.636  24.608  1.00  0.00     0.261 C 
BRANCH   3   4
ATOM      4  O   UNL A   1      32.887  26.271  25.110  1.00  0.00    -0.461 OA
BRANCH   4   5
ATOM      5  C   UNL A   1      31.786  25.759  25.799  1.00  0.00     0.331 C 
ATOM      6  O   UNL A   1      31.527  26.081  26.956  1.00  0.00    -0.249 OA
BRANCH   5   7
ATOM      7  C   UNL A   1      30.840  24.745  24.892  1.00  0.00     0.139 C 
BRANCH   7   8
ATOM      8  C   UNL A   1      31.055  23.349  24.166  1.00  0.00     0.037 C 
ATOM      9  C   UNL A   1      31.817  23.119  22.890  1.00  0.00     0.007 C 
ENDBRANCH   7   8
BRANCH   7  10
ATOM     10  C   UNL A   1      30.242  25.720  23.829  1.00  0.00     0.037 C 
ATOM     11  C   UNL A   1      28.889  26.374  24.096  1.00  0.00     0.007 C 
ENDBRANCH   7  10
BRANCH   7  12
ATOM     12  N   UNL A   1      29.979  24.324  25.965  1.00  0.00    -0.322 N 
ATOM     13  C   UNL A   1      30.299  23.312  26.808  1.00  0.00     0.320 C 
ATOM     14  H   UNL A   1      29.121  24.790  26.091  1.00  0.00     0.166 HD
ATOM     15  O   UNL A   1      29.457  23.057  27.675  1.00  0.00    -0.248 OA
ATOM     16  N   UNL A   1      31.422  22.526  26.725  1.00  0.00    -0.308 N 
ATOM     17  H   UNL A   1      31.210  21.702  27.219  1.00  0.00     0.171 HD
BRANCH  16  18
ATOM     18  C   UNL A   1      32.788  22.355  26.239  1.00  0.00     0.045 A 
ATOM     19  C   UNL A   1      33.919  23.179  26.312  1.00  0.00     0.046 A 
ATOM     20  C   UNL A   1      33.060  21.084  25.713  1.00  0.00     0.046 A 
ATOM     21  C   UNL A   1      35.198  22.820  25.846  1.00  0.00     0.044 A 
ATOM     22  C   UNL A   1      34.337  20.711  25.248  1.00  0.00     0.044 A 
ATOM     23  Cl  UNL A   1      36.514  23.931  25.996  1.00  0.00    -0.084 Cl
ATOM     24  C   UNL A   1      35.412  21.583  25.290  1.00  0.00     0.041 A 
ATOM     25  Cl  UNL A   1      34.580  19.123  24.637  1.00  0.00    -0.084 Cl
ENDBRANCH  16  18
ENDBRANCH   7  12
ENDBRANCH   5   7
ENDBRANCH   4   5
ENDBRANCH   3   4
ENDBRANCH   2   3
ENDBRANCH   1   2
BRANCH   1  26
ATOM     26  C   UNL A   1      31.546  30.898  26.230  1.00  0.00     0.202 C 
BRANCH  26  27
ATOM     27  C   UNL A   1      32.672  31.130  27.261  1.00  0.00     0.261 C 
BRANCH  27  28
ATOM     28  O   UNL A   1      33.460  32.260  26.903  1.00  0.00    -0.460 OA
BRANCH  28  29
ATOM     29  C   UNL A   1      33.449  33.206  27.861  1.00  0.00     0.338 C 
ATOM     30  O   UNL A   1      32.490  33.875  28.227  1.00  0.00    -0.246 OA
BRANCH  29  31
ATOM     31  C   UNL A   1      34.689  33.074  28.633  1.00  0.00     0.060 A 
ATOM     32  C   UNL A   1      35.847  33.588  28.038  1.00  0.00     0.016 A 
ATOM     33  C   UNL A   1      34.709  32.553  29.932  1.00  0.00     0.016 A 
ATOM     34  C   UNL A   1      37.063  33.444  28.680  1.00  0.00     0.010 A 
ATOM     35  C   UNL A   1      35.933  32.401  30.578  1.00  0.00     0.010 A 
ATOM     36  C   UNL A   1      37.110  32.760  29.900  1.00  0.00    -0.014 A 
BRANCH  36  37
ATOM     37  C   UNL A   1      38.385  32.099  30.233  1.00  0.00     0.031 A 
ATOM     38  C   UNL A   1      39.191  32.703  31.352  1.00  0.00     0.074 A 
ATOM     39  C   UNL A   1      38.730  30.933  29.672  1.00  0.00     0.049 A 
ATOM     40  N   UNL A   1      40.268  32.250  31.937  1.00  0.00    -0.248 NA
ATOM     41  C   UNL A   1      38.708  33.986  31.897  1.00  0.00     0.031 C 
ATOM     42  C   UNL A   1      37.973  30.229  28.638  1.00  0.00     0.029 A 
ATOM     43  N   UNL A   1      39.801  30.121  29.926  1.00  0.00    -0.354 N 
ATOM     44  C   UNL A   1      40.585  33.191  32.910  1.00  0.00     0.074 A 
ATOM     45  C   UNL A   1      39.618  34.257  32.816  1.00  0.00     0.031 C 
ATOM     46  C   UNL A   1      38.601  29.073  28.357  1.00  0.00     0.029 A 
ATOM     47  C   UNL A   1      39.809  28.976  29.174  1.00  0.00     0.049 A 
ATOM     48  H   UNL A   1      40.498  30.340  30.587  1.00  0.00     0.167 HD
ATOM     49  C   UNL A   1      41.588  33.165  33.814  1.00  0.00     0.031 A 
ATOM     50  C   UNL A   1      40.700  27.968  29.158  1.00  0.00     0.031 A 
ATOM     51  C   UNL A   1      42.558  32.110  33.892  1.00  0.00     0.049 A 
ATOM     52  C   UNL A   1      41.870  28.014  30.106  1.00  0.00     0.074 A 
ATOM     53  C   UNL A   1      43.620  31.979  34.766  1.00  0.00     0.029 A 
ATOM     54  N   UNL A   1      42.587  31.011  33.048  1.00  0.00    -0.354 N 
ATOM     55  N   UNL A   1      42.149  28.893  31.039  1.00  0.00    -0.248 NA
ATOM     56  C   UNL A   1      42.839  26.915  30.004  1.00  0.00     0.031 C 
ATOM     57  C   UNL A   1      44.336  30.833  34.402  1.00  0.00     0.029 A 
ATOM     58  C   UNL A   1      43.671  30.212  33.356  1.00  0.00     0.049 A 
ATOM     59  H   UNL A   1      41.932  30.826  32.336  1.00  0.00     0.167 HD
ATOM     60  C   UNL A   1      43.304  28.433  31.662  1.00  0.00     0.074 A 
ATOM     61  C   UNL A   1      43.661  27.191  31.006  1.00  0.00     0.031 C 
ATOM     62  C   UNL A   1      44.005  28.981  32.686  1.00  0.00     0.031 A 
BRANCH  49  63
ATOM     63  C   UNL A   1      41.714  34.345  34.737  1.00  0.00    -0.014 A 
ATOM     64  C   UNL A   1      41.062  34.383  35.981  1.00  0.00     0.009 A 
ATOM     65  C   UNL A   1      42.496  35.442  34.347  1.00  0.00     0.009 A 
ATOM     66  C   UNL A   1      41.160  35.513  36.796  1.00  0.00     0.001 A 
ATOM     67  C   UNL A   1      42.620  36.556  35.178  1.00  0.00     0.001 A 
ATOM     68  C   UNL A   1      41.944  36.596  36.395  1.00  0.00     0.000 A 
ENDBRANCH  49  63
BRANCH  50  69
ATOM     69  C   UNL A   1      40.530  26.835  28.211  1.00  0.00    -0.014 A 
ATOM     70  C   UNL A   1      41.055  26.899  26.912  1.00  0.00     0.009 A 
ATOM     71  C   UNL A   1      39.812  25.692  28.597  1.00  0.00     0.009 A 
ATOM     72  C   UNL A   1      40.832  25.857  26.008  1.00  0.00     0.001 A 
ATOM     73  C   UNL A   1      39.619  24.639  27.702  1.00  0.00     0.001 A 
ATOM     74  C   UNL A   1      40.118  24.727  26.405  1.00  0.00     0.000 A 
ENDBRANCH  50  69
BRANCH  62  75
ATOM     75  C   UNL A   1      45.197  28.214  33.191  1.00  0.00    -0.014 A 
ATOM     76  C   UNL A   1      46.487  28.444  32.692  1.00  0.00     0.009 A 
ATOM     77  C   UNL A   1      45.022  27.267  34.215  1.00  0.00     0.009 A 
ATOM     78  C   UNL A   1      47.571  27.708  33.174  1.00  0.00     0.001 A 
ATOM     79  C   UNL A   1      46.113  26.562  34.722  1.00  0.00     0.001 A 
ATOM     80  C   UNL A   1      47.384  26.773  34.191  1.00  0.00     0.000 A 
ENDBRANCH  62  75
ENDBRANCH  36  37
ENDBRANCH  29  31
ENDBRANCH  28  29
ENDBRANCH  27  28
ENDBRANCH  26  27
ENDBRANCH   1  26
TORSDOF 18
ENDMDL
MODEL 3
REMARK VINA RESULT:     -10.0      3.803      8.302
REMARK SMILES CCC(CC)(NC(=O)Nc1cc(Cl)cc(Cl)c1)C(=O)OCCOCCOC(=O)c1ccc(-c2c3nc(c(-c4ccccc4)c4ccc([nH]4)c(-c4ccccc4)c4nc(c(-c5ccccc5)c5ccc2[nH]5)C=C4)C=C3)cc1
REMARK SMILES IDX 23 1 22 2 21 3 20 4 18 5 19 6 3 7 2 8 1 9 4 10 5 11 6 12
REMARK SMILES IDX 7 13 8 15 9 16 10 18 11 19 17 20 12 21 15 22 13 23 14 24
REMARK SMILES IDX 16 25 24 26 25 27 26 28 27 29 28 30 29 31 30 32 76 33 31 34
REMARK SMILES IDX 75 35 32 36 33 37 34 38 69 39 35 40 74 41 68 42 70 43 36 44
REMARK SMILES IDX 73 45 67 46 66 47 37 49 59 50 44 51 58 52 45 53 48 54 57 55
REMARK SMILES IDX 71 56 46 57 47 58 56 60 72 61 49 62 38 63 39 64 43 65 40 66
REMARK SMILES IDX 42 67 41 68 60 69 61 70 65 71 62 72 64 73 63 74 50 75 51 76
REMARK SMILES IDX 55 77 52 78 54 79 53 80
REMARK H PARENT 6 14 9 17 70 48 48 59
REMARK Flexibility Score: inf
ROOT
ATOM      1  O   UNL A   1      37.153  22.030  25.162  1.00  0.00    -0.374 OA
ENDROOT
BRANCH   1   2
ATOM      2  C   UNL A   1      36.162  22.580  26.020  1.00  0.00     0.202 C 
BRANCH   2   3
ATOM      3  C   UNL A   1      34.986  21.618  26.489  1.00  0.00     0.261 C 
BRANCH   3   4
ATOM      4  O   UNL A   1      33.646  22.062  26.126  1.00  0.00    -0.461 OA
BRANCH   4   5
ATOM      5  C   UNL A   1      33.240  22.357  24.824  1.00  0.00     0.331 C 
ATOM      6  O   UNL A   1      33.620  21.708  23.853  1.00  0.00    -0.249 OA
BRANCH   5   7
ATOM      7  C   UNL A   1      32.155  23.607  24.727  1.00  0.00     0.139 C 
BRANCH   7   8
ATOM      8  C   UNL A   1      31.119  24.121  23.639  1.00  0.00     0.037 C 
ATOM      9  C   UNL A   1      31.409  25.083  22.519  1.00  0.00     0.007 C 
ENDBRANCH   7   8
BRANCH   7  10
ATOM     10  C   UNL A   1      33.034  24.833  25.131  1.00  0.00     0.037 C 
ATOM     11  C   UNL A   1      34.331  25.101  24.374  1.00  0.00     0.007 C 
ENDBRANCH   7  10
BRANCH   7  12
ATOM     12  N   UNL A   1      31.235  23.099  25.709  1.00  0.00    -0.322 N 
ATOM     13  C   UNL A   1      30.552  23.902  26.560  1.00  0.00     0.320 C 
ATOM     14  H   UNL A   1      31.097  22.125  25.766  1.00  0.00     0.166 HD
ATOM     15  O   UNL A   1      29.805  23.322  27.355  1.00  0.00    -0.248 OA
ATOM     16  N   UNL A   1      30.681  25.267  26.650  1.00  0.00    -0.308 N 
ATOM     17  H   UNL A   1      30.349  25.509  27.544  1.00  0.00     0.171 HD
BRANCH  16  18
ATOM     18  C   UNL A   1      31.086  26.522  26.025  1.00  0.00     0.045 A 
ATOM     19  C   UNL A   1      30.543  27.257  24.962  1.00  0.00     0.046 A 
ATOM     20  C   UNL A   1      32.133  27.184  26.680  1.00  0.00     0.046 A 
ATOM     21  C   UNL A   1      31.027  28.507  24.529  1.00  0.00     0.044 A 
ATOM     22  C   UNL A   1      32.623  28.437  26.259  1.00  0.00     0.044 A 
ATOM     23  Cl  UNL A   1      30.265  29.314  23.204  1.00  0.00    -0.084 Cl
ATOM     24  C   UNL A   1      32.088  29.099  25.166  1.00  0.00     0.041 A 
ATOM     25  Cl  UNL A   1      33.899  29.182  27.138  1.00  0.00    -0.084 Cl
ENDBRANCH  16  18
ENDBRANCH   7  12
ENDBRANCH   5   7
ENDBRANCH   4   5
ENDBRANCH   3   4
ENDBRANCH   2   3
ENDBRANCH   1   2
BRANCH   1  26
ATOM     26  C   UNL A   1      37.119  20.651  24.765  1.00  0.00     0.202 C 
BRANCH  26  27
ATOM     27  C   UNL A   1      38.442  19.887  24.990  1.00  0.00     0.261 C 
BRANCH  27  28
ATOM     28  O   UNL A   1      39.179  20.459  26.066  1.00  0.00    -0.460 OA
BRANCH  28  29
ATOM     29  C   UNL A   1      40.429  19.962  26.141  1.00  0.00     0.338 C 
ATOM     30  O   UNL A   1      40.820  18.882  25.715  1.00  0.00    -0.246 OA
BRANCH  29  31
ATOM     31  C   UNL A   1      41.325  21.061  26.515  1.00  0.00     0.060 A 
ATOM     32  C   UNL A   1      41.607  21.194  27.879  1.00  0.00     0.016 A 
ATOM     33  C   UNL A   1      41.944  21.877  25.561  1.00  0.00     0.016 A 
ATOM     34  C   UNL A   1      42.395  22.244  28.311  1.00  0.00     0.010 A 
ATOM     35  C   UNL A   1      42.731  22.940  25.994  1.00  0.00     0.010 A 
ATOM     36  C   UNL A   1      42.868  23.169  27.373  1.00  0.00    -0.014 A 
BRANCH  36  37
ATOM     37  C   UNL A   1      43.140  24.529  27.873  1.00  0.00     0.031 A 
ATOM     38  C   UNL A   1      44.574  24.986  27.855  1.00  0.00     0.074 A 
ATOM     39  C   UNL A   1      42.142  25.368  28.182  1.00  0.00     0.049 A 
ATOM     40  N   UNL A   1      45.072  26.168  28.102  1.00  0.00    -0.248 NA
ATOM     41  C   UNL A   1      45.584  23.975  27.491  1.00  0.00     0.031 C 
ATOM     42  C   UNL A   1      40.717  25.043  28.153  1.00  0.00     0.029 A 
ATOM     43  N   UNL A   1      42.187  26.685  28.551  1.00  0.00    -0.354 N 
ATOM     44  C   UNL A   1      46.444  26.037  27.926  1.00  0.00     0.074 A 
ATOM     45  C   UNL A   1      46.710  24.659  27.591  1.00  0.00     0.031 C 
ATOM     46  C   UNL A   1      40.017  26.146  28.475  1.00  0.00     0.029 A 
ATOM     47  C   UNL A   1      40.949  27.237  28.755  1.00  0.00     0.049 A 
ATOM     48  H   UNL A   1      43.027  27.186  28.659  1.00  0.00     0.167 HD
ATOM     49  C   UNL A   1      47.402  26.985  28.023  1.00  0.00     0.031 A 
ATOM     50  C   UNL A   1      40.620  28.487  29.127  1.00  0.00     0.031 A 
ATOM     51  C   UNL A   1      47.134  28.349  28.375  1.00  0.00     0.049 A 
ATOM     52  C   UNL A   1      41.717  29.499  29.329  1.00  0.00     0.074 A 
ATOM     53  C   UNL A   1      48.026  29.397  28.505  1.00  0.00     0.029 A 
ATOM     54  N   UNL A   1      45.874  28.848  28.667  1.00  0.00    -0.354 N 
ATOM     55  N   UNL A   1      43.009  29.375  29.137  1.00  0.00    -0.248 NA
ATOM     56  C   UNL A   1      41.301  30.832  29.788  1.00  0.00     0.031 C 
ATOM     57  C   UNL A   1      47.312  30.515  28.948  1.00  0.00     0.029 A 
ATOM     58  C   UNL A   1      45.967  30.183  29.013  1.00  0.00     0.049 A 
ATOM     59  H   UNL A   1      45.038  28.330  28.631  1.00  0.00     0.167 HD
ATOM     60  C   UNL A   1      43.556  30.624  29.413  1.00  0.00     0.074 A 
ATOM     61  C   UNL A   1      42.452  31.490  29.772  1.00  0.00     0.031 C 
ATOM     62  C   UNL A   1      44.852  31.022  29.368  1.00  0.00     0.031 A 
BRANCH  49  63
ATOM     63  C   UNL A   1      48.825  26.549  27.808  1.00  0.00    -0.014 A 
ATOM     64  C   UNL A   1      49.412  26.542  26.531  1.00  0.00     0.009 A 
ATOM     65  C   UNL A   1      49.589  26.132  28.908  1.00  0.00     0.009 A 
ATOM     66  C   UNL A   1      50.721  26.087  26.357  1.00  0.00     0.001 A 
ATOM     67  C   UNL A   1      50.908  25.711  28.736  1.00  0.00     0.001 A 
ATOM     68  C   UNL A   1      51.469  25.678  27.462  1.00  0.00     0.000 A 
ENDBRANCH  49  63
BRANCH  50  69
ATOM     69  C   UNL A   1      39.195  28.854  29.337  1.00  0.00    -0.014 A 
ATOM     70  C   UNL A   1      38.442  29.432  28.305  1.00  0.00     0.009 A 
ATOM     71  C   UNL A   1      38.589  28.652  30.587  1.00  0.00     0.009 A 
ATOM     72  C   UNL A   1      37.124  29.834  28.531  1.00  0.00     0.001 A 
ATOM     73  C   UNL A   1      37.261  29.025  30.801  1.00  0.00     0.001 A 
ATOM     74  C   UNL A   1      36.534  29.626  29.777  1.00  0.00     0.000 A 
ENDBRANCH  50  69
BRANCH  62  75
ATOM     75  C   UNL A   1      45.136  32.469  29.668  1.00  0.00    -0.014 A 
ATOM     76  C   UNL A   1      45.136  33.444  28.661  1.00  0.00     0.009 A 
ATOM     77  C   UNL A   1      45.373  32.862  30.996  1.00  0.00     0.009 A 
ATOM     78  C   UNL A   1      45.415  34.777  28.970  1.00  0.00     0.001 A 
ATOM     79  C   UNL A   1      45.612  34.200  31.308  1.00  0.00     0.001 A 
ATOM     80  C   UNL A   1      45.647  35.154  30.292  1.00  0.00     0.000 A 
ENDBRANCH  62  75
ENDBRANCH  36  37
ENDBRANCH  29  31
ENDBRANCH  28  29
ENDBRANCH  27  28
ENDBRANCH  26  27
ENDBRANCH   1  26
TORSDOF 18
ENDMDL
