MODEL 1
REMARK VINA RESULT:     -10.4      0.000      0.000
REMARK SMILES CC(=O)c1cc2c(cc1NC(=O)/C=C/C(=O)OCCOCCOC(=O)c1ccc(-c3c4nc(c(-c5ccccc5)c5ccc([nH]5)c(-c5ccccc5)c5nc(c(-c6ccccc6)c6ccc3[nH]6)C=C5)C=C4)cc1)OCO2
REMARK SMILES IDX 19 1 18 2 17 3 15 4 16 5 14 6 13 7 11 8 10 9 12 11 9 12 4 13
REMARK SMILES IDX 5 14 6 15 8 16 7 17 76 18 74 19 75 20 2 21 1 22 3 23 20 24
REMARK SMILES IDX 21 25 22 26 23 27 24 28 25 29 26 30 27 31 73 32 28 33 72 34
REMARK SMILES IDX 29 35 30 36 31 37 66 38 32 39 71 40 65 41 67 42 33 43 70 44
REMARK SMILES IDX 64 45 63 46 34 48 56 49 41 50 55 51 42 52 45 53 54 54 68 55
REMARK SMILES IDX 43 56 44 57 53 59 69 60 46 61 35 62 36 63 40 64 37 65 39 66
REMARK SMILES IDX 38 67 57 68 58 69 62 70 59 71 61 72 60 73 47 74 48 75 52 76
REMARK SMILES IDX 49 77 51 78 50 79
REMARK H PARENT 10 10 67 47 45 58
REMARK Flexibility Score: inf
ROOT
ATOM      1  C   UNL A   1      34.076  33.427  28.441  1.00  0.00     0.202 C 
ENDROOT
BRANCH   1   2
ATOM      2  C   UNL A   1      34.293  31.956  28.069  1.00  0.00     0.261 C 
BRANCH   2   3
ATOM      3  O   UNL A   1      33.198  31.437  27.287  1.00  0.00    -0.460 OA
BRANCH   3   4
ATOM      4  C   UNL A   1      33.233  30.099  27.070  1.00  0.00     0.331 C 
ATOM      5  O   UNL A   1      34.057  29.319  27.524  1.00  0.00    -0.247 OA
BRANCH   4   6
ATOM      6  C   UNL A   1      32.074  29.617  26.295  1.00  0.00     0.099 C 
ATOM      7  C   UNL A   1      32.050  29.430  24.967  1.00  0.00     0.079 C 
BRANCH   7   8
ATOM      8  C   UNL A   1      30.783  29.073  24.287  1.00  0.00     0.248 C 
ATOM      9  N   UNL A   1      30.452  27.765  24.034  1.00  0.00    -0.322 N 
ATOM     10  H   UNL A   1      29.655  27.666  23.465  1.00  0.00     0.170 HD
ATOM     11  O   UNL A   1      30.034  29.984  23.943  1.00  0.00    -0.270 OA
BRANCH   9  12
ATOM     12  C   UNL A   1      31.025  26.528  24.425  1.00  0.00     0.056 A 
ATOM     13  C   UNL A   1      32.063  25.938  23.653  1.00  0.00     0.045 A 
ATOM     14  C   UNL A   1      32.793  24.835  24.136  1.00  0.00     0.064 A 
ATOM     15  C   UNL A   1      32.425  24.305  25.351  1.00  0.00     0.166 A 
ATOM     16  C   UNL A   1      30.600  25.848  25.564  1.00  0.00     0.077 A 
ATOM     17  C   UNL A   1      31.336  24.780  26.027  1.00  0.00     0.167 A 
ATOM     18  O   UNL A   1      33.027  23.277  26.002  1.00  0.00    -0.454 OA
ATOM     19  O   UNL A   1      31.098  24.103  27.179  1.00  0.00    -0.454 OA
ATOM     20  C   UNL A   1      32.236  23.218  27.212  1.00  0.00     0.468 C 
BRANCH  13  21
ATOM     21  C   UNL A   1      32.357  26.441  22.288  1.00  0.00     0.162 C 
ATOM     22  C   UNL A   1      33.596  27.285  22.113  1.00  0.00     0.093 C 
ATOM     23  O   UNL A   1      31.668  26.076  21.340  1.00  0.00    -0.294 OA
ENDBRANCH  13  21
ENDBRANCH   9  12
ENDBRANCH   7   8
ENDBRANCH   4   6
ENDBRANCH   3   4
ENDBRANCH   2   3
ENDBRANCH   1   2
BRANCH   1  24
ATOM     24  O   UNL A   1      33.586  33.687  29.758  1.00  0.00    -0.374 OA
BRANCH  24  25
ATOM     25  C   UNL A   1      34.545  34.103  30.725  1.00  0.00     0.202 C 
BRANCH  25  26
ATOM     26  C   UNL A   1      34.379  33.557  32.148  1.00  0.00     0.261 C 
BRANCH  26  27
ATOM     27  O   UNL A   1      34.921  32.236  32.287  1.00  0.00    -0.460 OA
BRANCH  27  28
ATOM     28  C   UNL A   1      36.093  32.180  32.962  1.00  0.00     0.338 C 
ATOM     29  O   UNL A   1      36.314  32.551  34.106  1.00  0.00    -0.246 OA
BRANCH  28  30
ATOM     30  C   UNL A   1      37.077  31.422  32.174  1.00  0.00     0.060 A 
ATOM     31  C   UNL A   1      38.122  30.802  32.870  1.00  0.00     0.016 A 
ATOM     32  C   UNL A   1      37.010  31.362  30.781  1.00  0.00     0.016 A 
ATOM     33  C   UNL A   1      39.131  30.150  32.170  1.00  0.00     0.010 A 
ATOM     34  C   UNL A   1      38.032  30.719  30.079  1.00  0.00     0.010 A 
ATOM     35  C   UNL A   1      39.111  30.138  30.770  1.00  0.00    -0.014 A 
BRANCH  35  36
ATOM     36  C   UNL A   1      40.297  29.651  30.030  1.00  0.00     0.031 A 
ATOM     37  C   UNL A   1      41.454  30.587  29.820  1.00  0.00     0.074 A 
ATOM     38  C   UNL A   1      40.350  28.387  29.576  1.00  0.00     0.049 A 
ATOM     39  N   UNL A   1      42.583  30.379  29.191  1.00  0.00    -0.248 NA
ATOM     40  C   UNL A   1      41.324  31.935  30.397  1.00  0.00     0.031 C 
ATOM     41  C   UNL A   1      39.309  27.376  29.759  1.00  0.00     0.029 A 
ATOM     42  N   UNL A   1      41.328  27.741  28.865  1.00  0.00    -0.354 N 
ATOM     43  C   UNL A   1      43.288  31.572  29.284  1.00  0.00     0.074 A 
ATOM     44  C   UNL A   1      42.455  32.506  30.011  1.00  0.00     0.031 C 
ATOM     45  C   UNL A   1      39.705  26.234  29.170  1.00  0.00     0.029 A 
ATOM     46  C   UNL A   1      41.007  26.445  28.543  1.00  0.00     0.049 A 
ATOM     47  H   UNL A   1      42.178  28.166  28.608  1.00  0.00     0.167 HD
ATOM     48  C   UNL A   1      44.521  31.864  28.806  1.00  0.00     0.031 A 
ATOM     49  C   UNL A   1      41.684  25.541  27.810  1.00  0.00     0.031 A 
ATOM     50  C   UNL A   1      45.345  30.938  28.078  1.00  0.00     0.049 A 
ATOM     51  C   UNL A   1      43.021  25.918  27.227  1.00  0.00     0.074 A 
ATOM     52  C   UNL A   1      46.622  31.128  27.580  1.00  0.00     0.029 A 
ATOM     53  N   UNL A   1      44.968  29.649  27.737  1.00  0.00    -0.354 N 
ATOM     54  N   UNL A   1      43.696  27.035  27.356  1.00  0.00    -0.248 NA
ATOM     55  C   UNL A   1      43.691  24.903  26.401  1.00  0.00     0.031 C 
ATOM     56  C   UNL A   1      46.995  29.971  26.886  1.00  0.00     0.029 A 
ATOM     57  C   UNL A   1      45.974  29.043  27.006  1.00  0.00     0.049 A 
ATOM     58  H   UNL A   1      44.112  29.227  27.981  1.00  0.00     0.167 HD
ATOM     59  C   UNL A   1      44.881  26.845  26.657  1.00  0.00     0.074 A 
ATOM     60  C   UNL A   1      44.838  25.502  26.117  1.00  0.00     0.031 C 
ATOM     61  C   UNL A   1      45.916  27.703  26.482  1.00  0.00     0.031 A 
BRANCH  48  62
ATOM     62  C   UNL A   1      45.037  33.258  29.021  1.00  0.00    -0.014 A 
ATOM     63  C   UNL A   1      45.759  33.602  30.176  1.00  0.00     0.009 A 
ATOM     64  C   UNL A   1      44.831  34.233  28.033  1.00  0.00     0.009 A 
ATOM     65  C   UNL A   1      46.240  34.902  30.346  1.00  0.00     0.001 A 
ATOM     66  C   UNL A   1      45.334  35.524  28.195  1.00  0.00     0.001 A 
ATOM     67  C   UNL A   1      46.032  35.860  29.353  1.00  0.00     0.000 A 
ENDBRANCH  48  62
BRANCH  49  68
ATOM     68  C   UNL A   1      41.111  24.192  27.563  1.00  0.00    -0.014 A 
ATOM     69  C   UNL A   1      41.644  23.062  28.203  1.00  0.00     0.009 A 
ATOM     70  C   UNL A   1      40.052  24.024  26.658  1.00  0.00     0.009 A 
ATOM     71  C   UNL A   1      41.148  21.788  27.916  1.00  0.00     0.001 A 
ATOM     72  C   UNL A   1      39.539  22.752  26.396  1.00  0.00     0.001 A 
ATOM     73  C   UNL A   1      40.095  21.634  27.016  1.00  0.00     0.000 A 
ENDBRANCH  49  68
BRANCH  61  74
ATOM     74  C   UNL A   1      47.104  27.200  25.712  1.00  0.00    -0.014 A 
ATOM     75  C   UNL A   1      47.231  27.424  24.332  1.00  0.00     0.009 A 
ATOM     76  C   UNL A   1      48.133  26.525  26.389  1.00  0.00     0.009 A 
ATOM     77  C   UNL A   1      48.348  26.952  23.640  1.00  0.00     0.001 A 
ATOM     78  C   UNL A   1      49.262  26.081  25.701  1.00  0.00     0.001 A 
ATOM     79  C   UNL A   1      49.364  26.285  24.326  1.00  0.00     0.000 A 
ENDBRANCH  61  74
ENDBRANCH  35  36
ENDBRANCH  28  30
ENDBRANCH  27  28
ENDBRANCH  26  27
ENDBRANCH  25  26
ENDBRANCH  24  25
ENDBRANCH   1  24
TORSDOF 17
ENDMDL
MODEL 2
REMARK VINA RESULT:     -10.4      4.335      9.883
REMARK SMILES CC(=O)c1cc2c(cc1NC(=O)/C=C/C(=O)OCCOCCOC(=O)c1ccc(-c3c4nc(c(-c5ccccc5)c5ccc([nH]5)c(-c5ccccc5)c5nc(c(-c6ccccc6)c6ccc3[nH]6)C=C5)C=C4)cc1)OCO2
REMARK SMILES IDX 19 1 18 2 17 3 15 4 16 5 14 6 13 7 11 8 10 9 12 11 9 12 4 13
REMARK SMILES IDX 5 14 6 15 8 16 7 17 76 18 74 19 75 20 2 21 1 22 3 23 20 24
REMARK SMILES IDX 21 25 22 26 23 27 24 28 25 29 26 30 27 31 73 32 28 33 72 34
REMARK SMILES IDX 29 35 30 36 31 37 66 38 32 39 71 40 65 41 67 42 33 43 70 44
REMARK SMILES IDX 64 45 63 46 34 48 56 49 41 50 55 51 42 52 45 53 54 54 68 55
REMARK SMILES IDX 43 56 44 57 53 59 69 60 46 61 35 62 36 63 40 64 37 65 39 66
REMARK SMILES IDX 38 67 57 68 58 69 62 70 59 71 61 72 60 73 47 74 48 75 52 76
REMARK SMILES IDX 49 77 51 78 50 79
REMARK H PARENT 10 10 67 47 45 58
REMARK Flexibility Score: inf
ROOT
ATOM      1  C   UNL A   1      41.490  20.642  26.339  1.00  0.00     0.202 C 
ENDROOT
BRANCH   1   2
ATOM      2  C   UNL A   1      40.201  21.440  26.570  1.00  0.00     0.261 C 
BRANCH   2   3
ATOM      3  O   UNL A   1      39.231  21.198  25.532  1.00  0.00    -0.460 OA
BRANCH   3   4
ATOM      4  C   UNL A   1      38.067  21.880  25.665  1.00  0.00     0.331 C 
ATOM      5  O   UNL A   1      37.951  23.032  26.055  1.00  0.00    -0.247 OA
BRANCH   4   6
ATOM      6  C   UNL A   1      36.901  21.121  25.172  1.00  0.00     0.099 C 
ATOM      7  C   UNL A   1      35.670  21.618  24.988  1.00  0.00     0.079 C 
BRANCH   7   8
ATOM      8  C   UNL A   1      34.550  20.722  24.617  1.00  0.00     0.248 C 
ATOM      9  N   UNL A   1      33.363  21.220  24.144  1.00  0.00    -0.322 N 
ATOM     10  H   UNL A   1      32.658  20.537  24.058  1.00  0.00     0.170 HD
ATOM     11  O   UNL A   1      34.709  19.510  24.753  1.00  0.00    -0.270 OA
BRANCH   9  12
ATOM     12  C   UNL A   1      32.943  22.517  23.755  1.00  0.00     0.056 A 
ATOM     13  C   UNL A   1      32.169  23.320  24.638  1.00  0.00     0.045 A 
ATOM     14  C   UNL A   1      31.932  24.681  24.366  1.00  0.00     0.064 A 
ATOM     15  C   UNL A   1      32.417  25.193  23.186  1.00  0.00     0.166 A 
ATOM     16  C   UNL A   1      33.265  23.052  22.510  1.00  0.00     0.077 A 
ATOM     17  C   UNL A   1      33.037  24.389  22.270  1.00  0.00     0.167 A 
ATOM     18  O   UNL A   1      32.331  26.481  22.764  1.00  0.00    -0.454 OA
ATOM     19  O   UNL A   1      33.402  25.058  21.147  1.00  0.00    -0.454 OA
ATOM     20  C   UNL A   1      33.047  26.408  21.510  1.00  0.00     0.468 C 
BRANCH  13  21
ATOM     21  C   UNL A   1      31.542  22.717  25.841  1.00  0.00     0.162 C 
ATOM     22  C   UNL A   1      31.696  23.457  27.146  1.00  0.00     0.093 C 
ATOM     23  O   UNL A   1      30.838  21.718  25.727  1.00  0.00    -0.294 OA
ENDBRANCH  13  21
ENDBRANCH   9  12
ENDBRANCH   7   8
ENDBRANCH   4   6
ENDBRANCH   3   4
ENDBRANCH   2   3
ENDBRANCH   1   2
BRANCH   1  24
ATOM     24  O   UNL A   1      42.462  21.236  25.477  1.00  0.00    -0.374 OA
BRANCH  24  25
ATOM     25  C   UNL A   1      43.744  20.617  25.438  1.00  0.00     0.202 C 
BRANCH  25  26
ATOM     26  C   UNL A   1      44.965  21.543  25.461  1.00  0.00     0.261 C 
BRANCH  26  27
ATOM     27  O   UNL A   1      44.761  22.686  26.303  1.00  0.00    -0.460 OA
BRANCH  27  28
ATOM     28  C   UNL A   1      44.494  23.832  25.635  1.00  0.00     0.338 C 
ATOM     29  O   UNL A   1      44.711  24.078  24.456  1.00  0.00    -0.246 OA
BRANCH  28  30
ATOM     30  C   UNL A   1      43.713  24.732  26.497  1.00  0.00     0.060 A 
ATOM     31  C   UNL A   1      44.098  26.078  26.543  1.00  0.00     0.016 A 
ATOM     32  C   UNL A   1      42.661  24.262  27.285  1.00  0.00     0.016 A 
ATOM     33  C   UNL A   1      43.455  26.955  27.410  1.00  0.00     0.010 A 
ATOM     34  C   UNL A   1      42.025  25.140  28.165  1.00  0.00     0.010 A 
ATOM     35  C   UNL A   1      42.442  26.481  28.253  1.00  0.00    -0.014 A 
BRANCH  35  36
ATOM     36  C   UNL A   1      41.924  27.355  29.330  1.00  0.00     0.031 A 
ATOM     37  C   UNL A   1      42.637  27.372  30.654  1.00  0.00     0.074 A 
ATOM     38  C   UNL A   1      40.853  28.139  29.122  1.00  0.00     0.049 A 
ATOM     39  N   UNL A   1      42.353  28.046  31.738  1.00  0.00    -0.248 NA
ATOM     40  C   UNL A   1      43.830  26.516  30.770  1.00  0.00     0.031 C 
ATOM     41  C   UNL A   1      40.108  28.242  27.868  1.00  0.00     0.029 A 
ATOM     42  N   UNL A   1      40.207  29.000  29.970  1.00  0.00    -0.354 N 
ATOM     43  C   UNL A   1      43.320  27.686  32.668  1.00  0.00     0.074 A 
ATOM     44  C   UNL A   1      44.188  26.720  32.029  1.00  0.00     0.031 C 
ATOM     45  C   UNL A   1      39.102  29.117  28.031  1.00  0.00     0.029 A 
ATOM     46  C   UNL A   1      39.112  29.609  29.406  1.00  0.00     0.049 A 
ATOM     47  H   UNL A   1      40.498  29.166  30.896  1.00  0.00     0.167 HD
ATOM     48  C   UNL A   1      43.472  28.122  33.940  1.00  0.00     0.031 A 
ATOM     49  C   UNL A   1      38.214  30.452  29.948  1.00  0.00     0.031 A 
ATOM     50  C   UNL A   1      42.606  29.077  34.576  1.00  0.00     0.049 A 
ATOM     51  C   UNL A   1      38.366  30.863  31.389  1.00  0.00     0.074 A 
ATOM     52  C   UNL A   1      42.696  29.606  35.852  1.00  0.00     0.029 A 
ATOM     53  N   UNL A   1      41.486  29.638  33.985  1.00  0.00    -0.354 N 
ATOM     54  N   UNL A   1      39.307  30.547  32.246  1.00  0.00    -0.248 NA
ATOM     55  C   UNL A   1      37.330  31.751  31.936  1.00  0.00     0.031 C 
ATOM     56  C   UNL A   1      41.594  30.446  36.052  1.00  0.00     0.029 A 
ATOM     57  C   UNL A   1      40.855  30.483  34.881  1.00  0.00     0.049 A 
ATOM     58  H   UNL A   1      41.184  29.463  33.064  1.00  0.00     0.167 HD
ATOM     59  C   UNL A   1      38.996  31.224  33.418  1.00  0.00     0.074 A 
ATOM     60  C   UNL A   1      37.785  31.976  33.159  1.00  0.00     0.031 C 
ATOM     61  C   UNL A   1      39.654  31.228  34.603  1.00  0.00     0.031 A 
BRANCH  48  62
ATOM     62  C   UNL A   1      44.598  27.537  34.745  1.00  0.00    -0.014 A 
ATOM     63  C   UNL A   1      44.422  26.374  35.512  1.00  0.00     0.009 A 
ATOM     64  C   UNL A   1      45.865  28.138  34.703  1.00  0.00     0.009 A 
ATOM     65  C   UNL A   1      45.488  25.842  36.240  1.00  0.00     0.001 A 
ATOM     66  C   UNL A   1      46.935  27.589  35.411  1.00  0.00     0.001 A 
ATOM     67  C   UNL A   1      46.744  26.447  36.185  1.00  0.00     0.000 A 
ENDBRANCH  48  62
BRANCH  49  68
ATOM     68  C   UNL A   1      37.075  30.959  29.139  1.00  0.00    -0.014 A 
ATOM     69  C   UNL A   1      37.027  32.303  28.737  1.00  0.00     0.009 A 
ATOM     70  C   UNL A   1      36.012  30.110  28.796  1.00  0.00     0.009 A 
ATOM     71  C   UNL A   1      35.922  32.792  28.036  1.00  0.00     0.001 A 
ATOM     72  C   UNL A   1      34.923  30.595  28.069  1.00  0.00     0.001 A 
ATOM     73  C   UNL A   1      34.873  31.938  27.701  1.00  0.00     0.000 A 
ENDBRANCH  49  68
BRANCH  61  74
ATOM     74  C   UNL A   1      39.106  32.106  35.693  1.00  0.00    -0.014 A 
ATOM     75  C   UNL A   1      39.449  33.463  35.782  1.00  0.00     0.009 A 
ATOM     76  C   UNL A   1      38.199  31.570  36.622  1.00  0.00     0.009 A 
ATOM     77  C   UNL A   1      38.921  34.259  36.801  1.00  0.00     0.001 A 
ATOM     78  C   UNL A   1      37.650  32.374  37.621  1.00  0.00     0.001 A 
ATOM     79  C   UNL A   1      38.019  33.715  37.716  1.00  0.00     0.000 A 
ENDBRANCH  61  74
ENDBRANCH  35  36
ENDBRANCH  28  30
ENDBRANCH  27  28
ENDBRANCH  26  27
ENDBRANCH  25  26
ENDBRANCH  24  25
ENDBRANCH   1  24
TORSDOF 17
ENDMDL
MODEL 3
REMARK VINA RESULT:     -10.3      4.673     10.152
REMARK SMILES CC(=O)c1cc2c(cc1NC(=O)/C=C/C(=O)OCCOCCOC(=O)c1ccc(-c3c4nc(c(-c5ccccc5)c5ccc([nH]5)c(-c5ccccc5)c5nc(c(-c6ccccc6)c6ccc3[nH]6)C=C5)C=C4)cc1)OCO2
REMARK SMILES IDX 19 1 18 2 17 3 15 4 16 5 14 6 13 7 11 8 10 9 12 11 9 12 4 13
REMARK SMILES IDX 5 14 6 15 8 16 7 17 76 18 74 19 75 20 2 21 1 22 3 23 20 24
REMARK SMILES IDX 21 25 22 26 23 27 24 28 25 29 26 30 27 31 73 32 28 33 72 34
REMARK SMILES IDX 29 35 30 36 31 37 66 38 32 39 71 40 65 41 67 42 33 43 70 44
REMARK SMILES IDX 64 45 63 46 34 48 56 49 41 50 55 51 42 52 45 53 54 54 68 55
REMARK SMILES IDX 43 56 44 57 53 59 69 60 46 61 35 62 36 63 40 64 37 65 39 66
REMARK SMILES IDX 38 67 57 68 58 69 62 70 59 71 61 72 60 73 47 74 48 75 52 76
REMARK SMILES IDX 49 77 51 78 50 79
REMARK H PARENT 10 10 67 47 45 58
REMARK Flexibility Score: inf
ROOT
ATOM      1  C   UNL A   1      42.793  19.192  25.769  1.00  0.00     0.202 C 
ENDROOT
BRANCH   1   2
ATOM      2  C   UNL A   1      41.443  19.288  26.488  1.00  0.00     0.261 C 
BRANCH   2   3
ATOM      3  O   UNL A   1      40.582  20.270  25.877  1.00  0.00    -0.460 OA
BRANCH   3   4
ATOM      4  C   UNL A   1      40.091  21.208  26.724  1.00  0.00     0.331 C 
ATOM      5  O   UNL A   1      40.442  21.383  27.881  1.00  0.00    -0.247 OA
BRANCH   4   6
ATOM      6  C   UNL A   1      39.130  22.117  26.072  1.00  0.00     0.099 C 
ATOM      7  C   UNL A   1      37.824  21.870  25.891  1.00  0.00     0.079 C 
BRANCH   7   8
ATOM      8  C   UNL A   1      36.990  22.804  25.100  1.00  0.00     0.248 C 
ATOM      9  N   UNL A   1      35.724  22.464  24.696  1.00  0.00    -0.322 N 
ATOM     10  H   UNL A   1      35.324  23.112  24.071  1.00  0.00     0.170 HD
ATOM     11  O   UNL A   1      37.467  23.898  24.804  1.00  0.00    -0.270 OA
BRANCH   9  12
ATOM     12  C   UNL A   1      34.873  21.369  24.994  1.00  0.00     0.056 A 
ATOM     13  C   UNL A   1      33.619  21.583  25.629  1.00  0.00     0.045 A 
ATOM     14  C   UNL A   1      32.669  20.549  25.733  1.00  0.00     0.064 A 
ATOM     15  C   UNL A   1      33.019  19.307  25.258  1.00  0.00     0.166 A 
ATOM     16  C   UNL A   1      35.225  20.058  24.682  1.00  0.00     0.077 A 
ATOM     17  C   UNL A   1      34.276  19.064  24.778  1.00  0.00     0.167 A 
ATOM     18  O   UNL A   1      32.234  18.200  25.227  1.00  0.00    -0.454 OA
ATOM     19  O   UNL A   1      34.452  17.772  24.403  1.00  0.00    -0.454 OA
ATOM     20  C   UNL A   1      33.122  17.251  24.591  1.00  0.00     0.468 C 
BRANCH  13  21
ATOM     21  C   UNL A   1      33.311  22.895  26.253  1.00  0.00     0.162 C 
ATOM     22  C   UNL A   1      31.892  23.396  26.147  1.00  0.00     0.093 C 
ATOM     23  O   UNL A   1      34.166  23.471  26.918  1.00  0.00    -0.294 OA
ENDBRANCH  13  21
ENDBRANCH   9  12
ENDBRANCH   7   8
ENDBRANCH   4   6
ENDBRANCH   3   4
ENDBRANCH   2   3
ENDBRANCH   1   2
BRANCH   1  24
ATOM     24  O   UNL A   1      43.302  20.402  25.203  1.00  0.00    -0.374 OA
BRANCH  24  25
ATOM     25  C   UNL A   1      44.682  20.412  24.851  1.00  0.00     0.202 C 
BRANCH  25  26
ATOM     26  C   UNL A   1      45.539  21.545  25.427  1.00  0.00     0.261 C 
BRANCH  26  27
ATOM     27  O   UNL A   1      44.757  22.487  26.174  1.00  0.00    -0.460 OA
BRANCH  27  28
ATOM     28  C   UNL A   1      44.580  23.680  25.559  1.00  0.00     0.338 C 
ATOM     29  O   UNL A   1      44.875  23.978  24.410  1.00  0.00    -0.246 OA
BRANCH  28  30
ATOM     30  C   UNL A   1      43.792  24.567  26.428  1.00  0.00     0.060 A 
ATOM     31  C   UNL A   1      44.144  25.923  26.455  1.00  0.00     0.016 A 
ATOM     32  C   UNL A   1      42.765  24.077  27.237  1.00  0.00     0.016 A 
ATOM     33  C   UNL A   1      43.494  26.790  27.327  1.00  0.00     0.010 A 
ATOM     34  C   UNL A   1      42.124  24.948  28.121  1.00  0.00     0.010 A 
ATOM     35  C   UNL A   1      42.508  26.299  28.191  1.00  0.00    -0.014 A 
BRANCH  35  36
ATOM     36  C   UNL A   1      41.988  27.169  29.270  1.00  0.00     0.031 A 
ATOM     37  C   UNL A   1      42.729  27.224  30.576  1.00  0.00     0.074 A 
ATOM     38  C   UNL A   1      40.888  27.917  29.077  1.00  0.00     0.049 A 
ATOM     39  N   UNL A   1      42.448  27.901  31.660  1.00  0.00    -0.248 NA
ATOM     40  C   UNL A   1      43.950  26.407  30.675  1.00  0.00     0.031 C 
ATOM     41  C   UNL A   1      40.113  27.982  27.839  1.00  0.00     0.029 A 
ATOM     42  N   UNL A   1      40.234  28.768  29.930  1.00  0.00    -0.354 N 
ATOM     43  C   UNL A   1      43.446  27.582  32.571  1.00  0.00     0.074 A 
ATOM     44  C   UNL A   1      44.329  26.636  31.924  1.00  0.00     0.031 C 
ATOM     45  C   UNL A   1      39.083  28.828  28.015  1.00  0.00     0.029 A 
ATOM     46  C   UNL A   1      39.109  29.335  29.385  1.00  0.00     0.049 A 
ATOM     47  H   UNL A   1      40.541  28.954  30.847  1.00  0.00     0.167 HD
ATOM     48  C   UNL A   1      43.613  28.038  33.835  1.00  0.00     0.031 A 
ATOM     49  C   UNL A   1      38.197  30.157  29.937  1.00  0.00     0.031 A 
ATOM     50  C   UNL A   1      42.732  28.973  34.480  1.00  0.00     0.049 A 
ATOM     51  C   UNL A   1      38.368  30.589  31.370  1.00  0.00     0.074 A 
ATOM     52  C   UNL A   1      42.833  29.519  35.747  1.00  0.00     0.029 A 
ATOM     53  N   UNL A   1      41.582  29.492  33.908  1.00  0.00    -0.354 N 
ATOM     54  N   UNL A   1      39.338  30.313  32.209  1.00  0.00    -0.248 NA
ATOM     55  C   UNL A   1      37.317  31.451  31.930  1.00  0.00     0.031 C 
ATOM     56  C   UNL A   1      41.711  30.327  35.963  1.00  0.00     0.029 A 
ATOM     57  C   UNL A   1      40.945  30.328  34.808  1.00  0.00     0.049 A 
ATOM     58  H   UNL A   1      41.265  29.297  32.996  1.00  0.00     0.167 HD
ATOM     59  C   UNL A   1      39.032  30.994  33.380  1.00  0.00     0.074 A 
ATOM     60  C   UNL A   1      37.793  31.704  33.140  1.00  0.00     0.031 C 
ATOM     61  C   UNL A   1      39.716  31.032  34.550  1.00  0.00     0.031 A 
BRANCH  48  62
ATOM     62  C   UNL A   1      44.774  27.497  34.620  1.00  0.00    -0.014 A 
ATOM     63  C   UNL A   1      46.020  28.145  34.626  1.00  0.00     0.009 A 
ATOM     64  C   UNL A   1      44.606  26.342  35.399  1.00  0.00     0.009 A 
ATOM     65  C   UNL A   1      47.080  27.629  35.375  1.00  0.00     0.001 A 
ATOM     66  C   UNL A   1      45.659  25.844  36.167  1.00  0.00     0.001 A 
ATOM     67  C   UNL A   1      46.897  26.483  36.149  1.00  0.00     0.000 A 
ENDBRANCH  48  62
BRANCH  49  68
ATOM     68  C   UNL A   1      37.026  30.619  29.149  1.00  0.00    -0.014 A 
ATOM     69  C   UNL A   1      35.993  29.729  28.815  1.00  0.00     0.009 A 
ATOM     70  C   UNL A   1      36.952  31.944  28.693  1.00  0.00     0.009 A 
ATOM     71  C   UNL A   1      34.928  30.149  28.016  1.00  0.00     0.001 A 
ATOM     72  C   UNL A   1      35.871  32.369  27.918  1.00  0.00     0.001 A 
ATOM     73  C   UNL A   1      34.866  31.469  27.570  1.00  0.00     0.000 A 
ENDBRANCH  49  68
BRANCH  61  74
ATOM     74  C   UNL A   1      39.165  31.904  35.642  1.00  0.00    -0.014 A 
ATOM     75  C   UNL A   1      38.207  31.425  36.549  1.00  0.00     0.009 A 
ATOM     76  C   UNL A   1      39.644  33.216  35.788  1.00  0.00     0.009 A 
ATOM     77  C   UNL A   1      37.716  32.253  37.559  1.00  0.00     0.001 A 
ATOM     78  C   UNL A   1      39.173  34.032  36.817  1.00  0.00     0.001 A 
ATOM     79  C   UNL A   1      38.202  33.554  37.695  1.00  0.00     0.000 A 
ENDBRANCH  61  74
ENDBRANCH  35  36
ENDBRANCH  28  30
ENDBRANCH  27  28
ENDBRANCH  26  27
ENDBRANCH  25  26
ENDBRANCH  24  25
ENDBRANCH   1  24
TORSDOF 17
ENDMDL
