MODEL 1
REMARK VINA RESULT:      -9.7      0.000      0.000
REMARK SMILES O=C(CC[C@]12C[C@H]3C[C@H](C[C@H](C3)C1)C2)OCCOCCOC(=O)c1ccc(-c2c3nc(c(-c4ccccc4)c4ccc([nH]4)c(-c4ccccc4)c4nc(c(-c5ccccc5)c5ccc2[nH]5)C=C4)C=C3)cc1
REMARK SMILES IDX 18 1 17 2 16 3 15 4 2 5 1 6 3 7 4 8 5 9 6 10 13 11 14 12
REMARK SMILES IDX 7 13 11 14 9 15 8 16 12 17 10 18 19 19 20 20 21 21 22 22
REMARK SMILES IDX 23 23 24 24 25 25 71 26 26 27 70 28 27 29 28 30 29 31 64 32
REMARK SMILES IDX 30 33 69 34 63 35 65 36 31 37 68 38 62 39 61 40 32 42 54 43
REMARK SMILES IDX 39 44 53 45 40 46 43 47 52 48 66 49 41 50 42 51 51 53 67 54
REMARK SMILES IDX 44 55 33 56 34 57 38 58 35 59 37 60 36 61 55 62 56 63 60 64
REMARK SMILES IDX 57 65 59 66 58 67 45 68 46 69 50 70 47 71 49 72 48 73
REMARK H PARENT 65 41 43 52
REMARK Flexibility Score: inf
ROOT
ATOM      1  O   UNL A   1      31.759  28.977  25.177  1.00  0.00    -0.374 OA
ENDROOT
BRANCH   1   2
ATOM      2  C   UNL A   1      31.781  28.450  23.856  1.00  0.00     0.202 C 
BRANCH   2   3
ATOM      3  C   UNL A   1      31.351  26.990  23.707  1.00  0.00     0.261 C 
BRANCH   3   4
ATOM      4  O   UNL A   1      31.569  26.488  22.378  1.00  0.00    -0.463 OA
BRANCH   4   5
ATOM      5  C   UNL A   1      32.711  25.800  22.138  1.00  0.00     0.305 C 
ATOM      6  O   UNL A   1      33.564  26.192  21.354  1.00  0.00    -0.252 OA
BRANCH   5   7
ATOM      7  C   UNL A   1      32.699  24.423  22.778  1.00  0.00     0.123 C 
BRANCH   7   8
ATOM      8  C   UNL A   1      33.956  23.573  22.463  1.00  0.00     0.019 C 
BRANCH   8   9
ATOM      9  C   UNL A   1      34.876  23.146  23.659  1.00  0.00    -0.028 C 
ATOM     10  C   UNL A   1      34.985  24.256  24.731  1.00  0.00     0.010 C 
ATOM     11  C   UNL A   1      36.312  22.790  23.187  1.00  0.00     0.010 C 
ATOM     12  C   UNL A   1      34.326  21.908  24.350  1.00  0.00     0.010 C 
ATOM     13  C   UNL A   1      35.834  23.773  25.931  1.00  0.00    -0.010 C 
ATOM     14  C   UNL A   1      37.175  22.302  24.375  1.00  0.00    -0.010 C 
ATOM     15  C   UNL A   1      35.145  21.402  25.526  1.00  0.00    -0.010 C 
ATOM     16  C   UNL A   1      35.198  22.523  26.565  1.00  0.00     0.007 C 
ATOM     17  C   UNL A   1      37.246  23.409  25.442  1.00  0.00     0.007 C 
ATOM     18  C   UNL A   1      36.542  21.053  25.010  1.00  0.00     0.007 C 
ENDBRANCH   8   9
ENDBRANCH   7   8
ENDBRANCH   5   7
ENDBRANCH   4   5
ENDBRANCH   3   4
ENDBRANCH   2   3
ENDBRANCH   1   2
BRANCH   1  19
ATOM     19  C   UNL A   1      31.887  28.005  26.208  1.00  0.00     0.202 C 
BRANCH  19  20
ATOM     20  C   UNL A   1      33.246  28.015  26.922  1.00  0.00     0.261 C 
BRANCH  20  21
ATOM     21  O   UNL A   1      34.122  29.063  26.463  1.00  0.00    -0.460 OA
BRANCH  21  22
ATOM     22  C   UNL A   1      34.342  30.060  27.374  1.00  0.00     0.338 C 
ATOM     23  O   UNL A   1      33.534  30.870  27.769  1.00  0.00    -0.246 OA
BRANCH  22  24
ATOM     24  C   UNL A   1      35.695  29.911  27.986  1.00  0.00     0.060 A 
ATOM     25  C   UNL A   1      36.808  30.175  27.174  1.00  0.00     0.016 A 
ATOM     26  C   UNL A   1      35.887  29.541  29.321  1.00  0.00     0.016 A 
ATOM     27  C   UNL A   1      38.105  29.979  27.658  1.00  0.00     0.010 A 
ATOM     28  C   UNL A   1      37.188  29.339  29.807  1.00  0.00     0.010 A 
ATOM     29  C   UNL A   1      38.301  29.500  28.961  1.00  0.00    -0.014 A 
BRANCH  29  30
ATOM     30  C   UNL A   1      39.620  28.918  29.333  1.00  0.00     0.031 A 
ATOM     31  C   UNL A   1      40.515  29.725  30.243  1.00  0.00     0.074 A 
ATOM     32  C   UNL A   1      40.013  27.694  28.934  1.00  0.00     0.049 A 
ATOM     33  N   UNL A   1      41.699  29.435  30.723  1.00  0.00    -0.248 NA
ATOM     34  C   UNL A   1      40.000  31.038  30.667  1.00  0.00     0.031 C 
ATOM     35  C   UNL A   1      39.243  26.784  28.090  1.00  0.00     0.029 A 
ATOM     36  N   UNL A   1      41.177  27.009  29.194  1.00  0.00    -0.354 N 
ATOM     37  C   UNL A   1      42.061  30.522  31.511  1.00  0.00     0.074 A 
ATOM     38  C   UNL A   1      40.998  31.497  31.405  1.00  0.00     0.031 C 
ATOM     39  C   UNL A   1      39.961  25.662  27.892  1.00  0.00     0.029 A 
ATOM     40  C   UNL A   1      41.247  25.782  28.579  1.00  0.00     0.049 A 
ATOM     41  H   UNL A   1      41.894  27.365  29.768  1.00  0.00     0.167 HD
ATOM     42  C   UNL A   1      43.167  30.695  32.272  1.00  0.00     0.031 A 
ATOM     43  C   UNL A   1      42.240  24.868  28.561  1.00  0.00     0.031 A 
ATOM     44  C   UNL A   1      44.247  29.751  32.364  1.00  0.00     0.049 A 
ATOM     45  C   UNL A   1      43.504  25.122  29.346  1.00  0.00     0.074 A 
ATOM     46  C   UNL A   1      45.416  29.846  33.100  1.00  0.00     0.029 A 
ATOM     47  N   UNL A   1      44.294  28.542  31.692  1.00  0.00    -0.354 N 
ATOM     48  N   UNL A   1      43.819  26.142  30.107  1.00  0.00    -0.248 NA
ATOM     49  C   UNL A   1      44.544  24.082  29.279  1.00  0.00     0.031 C 
ATOM     50  C   UNL A   1      46.196  28.718  32.827  1.00  0.00     0.029 A 
ATOM     51  C   UNL A   1      45.482  27.889  31.977  1.00  0.00     0.049 A 
ATOM     52  H   UNL A   1      43.588  28.197  31.099  1.00  0.00     0.167 HD
ATOM     53  C   UNL A   1      45.076  25.854  30.631  1.00  0.00     0.074 A 
ATOM     54  C   UNL A   1      45.452  24.552  30.121  1.00  0.00     0.031 C 
ATOM     55  C   UNL A   1      45.851  26.598  31.458  1.00  0.00     0.031 A 
BRANCH  42  56
ATOM     56  C   UNL A   1      43.269  31.978  33.051  1.00  0.00    -0.014 A 
ATOM     57  C   UNL A   1      42.797  32.065  34.370  1.00  0.00     0.009 A 
ATOM     58  C   UNL A   1      43.865  33.106  32.467  1.00  0.00     0.009 A 
ATOM     59  C   UNL A   1      42.890  33.266  35.078  1.00  0.00     0.001 A 
ATOM     60  C   UNL A   1      43.984  34.296  33.186  1.00  0.00     0.001 A 
ATOM     61  C   UNL A   1      43.488  34.378  34.487  1.00  0.00     0.000 A 
ENDBRANCH  42  56
BRANCH  43  62
ATOM     62  C   UNL A   1      42.104  23.625  27.752  1.00  0.00    -0.014 A 
ATOM     63  C   UNL A   1      42.523  23.584  26.412  1.00  0.00     0.009 A 
ATOM     64  C   UNL A   1      41.496  22.486  28.304  1.00  0.00     0.009 A 
ATOM     65  C   UNL A   1      42.304  22.441  25.636  1.00  0.00     0.001 A 
ATOM     66  C   UNL A   1      41.311  21.335  27.536  1.00  0.00     0.001 A 
ATOM     67  C   UNL A   1      41.702  21.318  26.199  1.00  0.00     0.000 A 
ENDBRANCH  43  62
BRANCH  55  68
ATOM     68  C   UNL A   1      47.167  26.008  31.890  1.00  0.00    -0.014 A 
ATOM     69  C   UNL A   1      47.294  25.300  33.096  1.00  0.00     0.009 A 
ATOM     70  C   UNL A   1      48.297  26.148  31.068  1.00  0.00     0.009 A 
ATOM     71  C   UNL A   1      48.534  24.792  33.492  1.00  0.00     0.001 A 
ATOM     72  C   UNL A   1      49.526  25.609  31.449  1.00  0.00     0.001 A 
ATOM     73  C   UNL A   1      49.648  24.944  32.668  1.00  0.00     0.000 A 
ENDBRANCH  55  68
ENDBRANCH  29  30
ENDBRANCH  22  24
ENDBRANCH  21  22
ENDBRANCH  20  21
ENDBRANCH  19  20
ENDBRANCH   1  19
TORSDOF 16
ENDMDL
MODEL 2
REMARK VINA RESULT:      -9.6      3.503      6.908
REMARK SMILES O=C(CC[C@]12C[C@H]3C[C@H](C[C@H](C3)C1)C2)OCCOCCOC(=O)c1ccc(-c2c3nc(c(-c4ccccc4)c4ccc([nH]4)c(-c4ccccc4)c4nc(c(-c5ccccc5)c5ccc2[nH]5)C=C4)C=C3)cc1
REMARK SMILES IDX 18 1 17 2 16 3 15 4 2 5 1 6 3 7 4 8 5 9 6 10 13 11 14 12
REMARK SMILES IDX 7 13 11 14 9 15 8 16 12 17 10 18 19 19 20 20 21 21 22 22
REMARK SMILES IDX 23 23 24 24 25 25 71 26 26 27 70 28 27 29 28 30 29 31 64 32
REMARK SMILES IDX 30 33 69 34 63 35 65 36 31 37 68 38 62 39 61 40 32 42 54 43
REMARK SMILES IDX 39 44 53 45 40 46 43 47 52 48 66 49 41 50 42 51 51 53 67 54
REMARK SMILES IDX 44 55 33 56 34 57 38 58 35 59 37 60 36 61 55 62 56 63 60 64
REMARK SMILES IDX 57 65 59 66 58 67 45 68 46 69 50 70 47 71 49 72 48 73
REMARK H PARENT 65 41 43 52
REMARK Flexibility Score: inf
ROOT
ATOM      1  O   UNL A   1      32.773  35.001  29.650  1.00  0.00    -0.374 OA
ENDROOT
BRANCH   1   2
ATOM      2  C   UNL A   1      32.535  36.217  30.348  1.00  0.00     0.202 C 
BRANCH   2   3
ATOM      3  C   UNL A   1      32.932  36.234  31.825  1.00  0.00     0.261 C 
BRANCH   3   4
ATOM      4  O   UNL A   1      33.152  34.915  32.349  1.00  0.00    -0.463 OA
BRANCH   4   5
ATOM      5  C   UNL A   1      34.400  34.600  32.775  1.00  0.00     0.305 C 
ATOM      6  O   UNL A   1      35.270  35.442  32.944  1.00  0.00    -0.252 OA
BRANCH   5   7
ATOM      7  C   UNL A   1      34.636  33.101  32.806  1.00  0.00     0.123 C 
BRANCH   7   8
ATOM      8  C   UNL A   1      35.999  32.666  32.213  1.00  0.00     0.019 C 
BRANCH   8   9
ATOM      9  C   UNL A   1      37.153  32.297  33.210  1.00  0.00    -0.028 C 
ATOM     10  C   UNL A   1      37.415  30.773  33.254  1.00  0.00     0.010 C 
ATOM     11  C   UNL A   1      36.846  32.776  34.654  1.00  0.00     0.010 C 
ATOM     12  C   UNL A   1      38.457  32.964  32.799  1.00  0.00     0.010 C 
ATOM     13  C   UNL A   1      38.609  30.452  34.185  1.00  0.00    -0.010 C 
ATOM     14  C   UNL A   1      38.031  32.464  35.599  1.00  0.00    -0.010 C 
ATOM     15  C   UNL A   1      39.646  32.677  33.701  1.00  0.00    -0.010 C 
ATOM     16  C   UNL A   1      39.878  31.166  33.688  1.00  0.00     0.007 C 
ATOM     17  C   UNL A   1      38.294  30.948  35.606  1.00  0.00     0.007 C 
ATOM     18  C   UNL A   1      39.302  33.176  35.105  1.00  0.00     0.007 C 
ENDBRANCH   8   9
ENDBRANCH   7   8
ENDBRANCH   5   7
ENDBRANCH   4   5
ENDBRANCH   3   4
ENDBRANCH   2   3
ENDBRANCH   1   2
BRANCH   1  19
ATOM     19  C   UNL A   1      34.068  34.888  29.074  1.00  0.00     0.202 C 
BRANCH  19  20
ATOM     20  C   UNL A   1      34.276  33.626  28.226  1.00  0.00     0.261 C 
BRANCH  20  21
ATOM     21  O   UNL A   1      34.899  32.547  28.951  1.00  0.00    -0.460 OA
BRANCH  21  22
ATOM     22  C   UNL A   1      34.626  31.300  28.461  1.00  0.00     0.338 C 
ATOM     23  O   UNL A   1      33.599  30.939  27.933  1.00  0.00    -0.246 OA
BRANCH  22  24
ATOM     24  C   UNL A   1      35.857  30.454  28.488  1.00  0.00     0.060 A 
ATOM     25  C   UNL A   1      36.221  29.876  29.713  1.00  0.00     0.016 A 
ATOM     26  C   UNL A   1      36.633  30.211  27.351  1.00  0.00     0.016 A 
ATOM     27  C   UNL A   1      37.403  29.138  29.827  1.00  0.00     0.010 A 
ATOM     28  C   UNL A   1      37.822  29.475  27.466  1.00  0.00     0.010 A 
ATOM     29  C   UNL A   1      38.243  28.985  28.717  1.00  0.00    -0.014 A 
BRANCH  29  30
ATOM     30  C   UNL A   1      39.656  28.564  28.923  1.00  0.00     0.031 A 
ATOM     31  C   UNL A   1      40.594  29.544  29.587  1.00  0.00     0.074 A 
ATOM     32  C   UNL A   1      40.105  27.339  28.591  1.00  0.00     0.049 A 
ATOM     33  N   UNL A   1      41.861  29.413  29.892  1.00  0.00    -0.248 NA
ATOM     34  C   UNL A   1      40.020  30.849  29.955  1.00  0.00     0.031 C 
ATOM     35  C   UNL A   1      39.312  26.275  27.982  1.00  0.00     0.029 A 
ATOM     36  N   UNL A   1      41.360  26.790  28.723  1.00  0.00    -0.354 N 
ATOM     37  C   UNL A   1      42.228  30.610  30.495  1.00  0.00     0.074 A 
ATOM     38  C   UNL A   1      41.068  31.473  30.468  1.00  0.00     0.031 C 
ATOM     39  C   UNL A   1      40.101  25.203  27.783  1.00  0.00     0.029 A 
ATOM     40  C   UNL A   1      41.459  25.510  28.232  1.00  0.00     0.049 A 
ATOM     41  H   UNL A   1      42.116  27.269  29.132  1.00  0.00     0.167 HD
ATOM     42  C   UNL A   1      43.415  30.964  31.042  1.00  0.00     0.031 A 
ATOM     43  C   UNL A   1      42.524  24.687  28.143  1.00  0.00     0.031 A 
ATOM     44  C   UNL A   1      44.587  30.132  31.050  1.00  0.00     0.049 A 
ATOM     45  C   UNL A   1      43.862  25.137  28.680  1.00  0.00     0.074 A 
ATOM     46  C   UNL A   1      45.839  30.409  31.569  1.00  0.00     0.029 A 
ATOM     47  N   UNL A   1      44.653  28.860  30.505  1.00  0.00    -0.354 N 
ATOM     48  N   UNL A   1      44.186  26.261  29.271  1.00  0.00    -0.248 NA
ATOM     49  C   UNL A   1      44.980  24.188  28.548  1.00  0.00     0.031 C 
ATOM     50  C   UNL A   1      46.679  29.327  31.288  1.00  0.00     0.029 A 
ATOM     51  C   UNL A   1      45.931  28.348  30.655  1.00  0.00     0.049 A 
ATOM     52  H   UNL A   1      43.902  28.390  30.074  1.00  0.00     0.167 HD
ATOM     53  C   UNL A   1      45.532  26.143  29.607  1.00  0.00     0.074 A 
ATOM     54  C   UNL A   1      45.955  24.827  29.177  1.00  0.00     0.031 C 
ATOM     55  C   UNL A   1      46.345  27.041  30.215  1.00  0.00     0.031 A 
BRANCH  42  56
ATOM     56  C   UNL A   1      43.505  32.332  31.659  1.00  0.00    -0.014 A 
ATOM     57  C   UNL A   1      43.788  33.464  30.878  1.00  0.00     0.009 A 
ATOM     58  C   UNL A   1      43.280  32.496  33.035  1.00  0.00     0.009 A 
ATOM     59  C   UNL A   1      43.878  34.728  31.467  1.00  0.00     0.001 A 
ATOM     60  C   UNL A   1      43.340  33.764  33.616  1.00  0.00     0.001 A 
ATOM     61  C   UNL A   1      43.648  34.876  32.834  1.00  0.00     0.000 A 
ENDBRANCH  42  56
BRANCH  43  62
ATOM     62  C   UNL A   1      42.393  23.352  27.498  1.00  0.00    -0.014 A 
ATOM     63  C   UNL A   1      42.700  23.171  26.140  1.00  0.00     0.009 A 
ATOM     64  C   UNL A   1      41.900  22.259  28.230  1.00  0.00     0.009 A 
ATOM     65  C   UNL A   1      42.483  21.935  25.522  1.00  0.00     0.001 A 
ATOM     66  C   UNL A   1      41.716  21.017  27.618  1.00  0.00     0.001 A 
ATOM     67  C   UNL A   1      41.996  20.860  26.262  1.00  0.00     0.000 A 
ENDBRANCH  43  62
BRANCH  55  68
ATOM     68  C   UNL A   1      47.765  26.619  30.482  1.00  0.00    -0.014 A 
ATOM     69  C   UNL A   1      48.791  26.866  29.556  1.00  0.00     0.009 A 
ATOM     70  C   UNL A   1      48.085  25.977  31.689  1.00  0.00     0.009 A 
ATOM     71  C   UNL A   1      50.096  26.434  29.811  1.00  0.00     0.001 A 
ATOM     72  C   UNL A   1      49.396  25.577  31.957  1.00  0.00     0.001 A 
ATOM     73  C   UNL A   1      50.397  25.793  31.012  1.00  0.00     0.000 A 
ENDBRANCH  55  68
ENDBRANCH  29  30
ENDBRANCH  22  24
ENDBRANCH  21  22
ENDBRANCH  20  21
ENDBRANCH  19  20
ENDBRANCH   1  19
TORSDOF 16
ENDMDL
MODEL 3
REMARK VINA RESULT:      -9.6      3.491      8.204
REMARK SMILES O=C(CC[C@]12C[C@H]3C[C@H](C[C@H](C3)C1)C2)OCCOCCOC(=O)c1ccc(-c2c3nc(c(-c4ccccc4)c4ccc([nH]4)c(-c4ccccc4)c4nc(c(-c5ccccc5)c5ccc2[nH]5)C=C4)C=C3)cc1
REMARK SMILES IDX 18 1 17 2 16 3 15 4 2 5 1 6 3 7 4 8 5 9 6 10 13 11 14 12
REMARK SMILES IDX 7 13 11 14 9 15 8 16 12 17 10 18 19 19 20 20 21 21 22 22
REMARK SMILES IDX 23 23 24 24 25 25 71 26 26 27 70 28 27 29 28 30 29 31 64 32
REMARK SMILES IDX 30 33 69 34 63 35 65 36 31 37 68 38 62 39 61 40 32 42 54 43
REMARK SMILES IDX 39 44 53 45 40 46 43 47 52 48 66 49 41 50 42 51 51 53 67 54
REMARK SMILES IDX 44 55 33 56 34 57 38 58 35 59 37 60 36 61 55 62 56 63 60 64
REMARK SMILES IDX 57 65 59 66 58 67 45 68 46 69 50 70 47 71 49 72 48 73
REMARK H PARENT 65 41 43 52
REMARK Flexibility Score: inf
ROOT
ATOM      1  O   UNL A   1      41.460  20.953  25.768  1.00  0.00    -0.374 OA
ENDROOT
BRANCH   1   2
ATOM      2  C   UNL A   1      40.531  21.312  26.783  1.00  0.00     0.202 C 
BRANCH   2   3
ATOM      3  C   UNL A   1      39.297  22.090  26.322  1.00  0.00     0.261 C 
BRANCH   3   4
ATOM      4  O   UNL A   1      38.487  21.340  25.403  1.00  0.00    -0.463 OA
BRANCH   4   5
ATOM      5  C   UNL A   1      37.181  21.680  25.283  1.00  0.00     0.305 C 
ATOM      6  O   UNL A   1      36.271  20.907  25.550  1.00  0.00    -0.252 OA
BRANCH   5   7
ATOM      7  C   UNL A   1      36.996  23.021  24.596  1.00  0.00     0.123 C 
BRANCH   7   8
ATOM      8  C   UNL A   1      35.776  23.075  23.642  1.00  0.00     0.019 C 
BRANCH   8   9
ATOM      9  C   UNL A   1      34.450  23.721  24.176  1.00  0.00    -0.028 C 
ATOM     10  C   UNL A   1      34.691  24.578  25.441  1.00  0.00     0.010 C 
ATOM     11  C   UNL A   1      33.380  22.649  24.517  1.00  0.00     0.010 C 
ATOM     12  C   UNL A   1      33.833  24.634  23.127  1.00  0.00     0.010 C 
ATOM     13  C   UNL A   1      33.381  25.262  25.895  1.00  0.00    -0.010 C 
ATOM     14  C   UNL A   1      32.060  23.317  24.971  1.00  0.00    -0.010 C 
ATOM     15  C   UNL A   1      32.536  25.312  23.539  1.00  0.00    -0.010 C 
ATOM     16  C   UNL A   1      32.836  26.165  24.773  1.00  0.00     0.007 C 
ATOM     17  C   UNL A   1      32.327  24.187  26.212  1.00  0.00     0.007 C 
ATOM     18  C   UNL A   1      31.513  24.219  23.852  1.00  0.00     0.007 C 
ENDBRANCH   8   9
ENDBRANCH   7   8
ENDBRANCH   5   7
ENDBRANCH   4   5
ENDBRANCH   3   4
ENDBRANCH   2   3
ENDBRANCH   1   2
BRANCH   1  19
ATOM     19  C   UNL A   1      42.826  21.029  26.157  1.00  0.00     0.202 C 
BRANCH  19  20
ATOM     20  C   UNL A   1      43.739  21.712  25.130  1.00  0.00     0.261 C 
BRANCH  20  21
ATOM     21  O   UNL A   1      43.170  22.913  24.571  1.00  0.00    -0.460 OA
BRANCH  21  22
ATOM     22  C   UNL A   1      43.896  24.049  24.806  1.00  0.00     0.338 C 
ATOM     23  O   UNL A   1      44.955  24.348  24.303  1.00  0.00    -0.246 OA
BRANCH  22  24
ATOM     24  C   UNL A   1      43.109  24.998  25.649  1.00  0.00     0.060 A 
ATOM     25  C   UNL A   1      43.606  26.302  25.794  1.00  0.00     0.016 A 
ATOM     26  C   UNL A   1      41.909  24.643  26.272  1.00  0.00     0.016 A 
ATOM     27  C   UNL A   1      42.963  27.219  26.632  1.00  0.00     0.010 A 
ATOM     28  C   UNL A   1      41.266  25.560  27.117  1.00  0.00     0.010 A 
ATOM     29  C   UNL A   1      41.822  26.832  27.347  1.00  0.00    -0.014 A 
BRANCH  29  30
ATOM     30  C   UNL A   1      41.384  27.645  28.515  1.00  0.00     0.031 A 
ATOM     31  C   UNL A   1      42.165  27.509  29.801  1.00  0.00     0.074 A 
ATOM     32  C   UNL A   1      40.363  28.520  28.450  1.00  0.00     0.049 A 
ATOM     33  N   UNL A   1      41.995  28.115  30.950  1.00  0.00    -0.248 NA
ATOM     34  C   UNL A   1      43.290  26.560  29.783  1.00  0.00     0.031 C 
ATOM     35  C   UNL A   1      39.543  28.789  27.272  1.00  0.00     0.029 A 
ATOM     36  N   UNL A   1      39.842  29.348  29.418  1.00  0.00    -0.354 N 
ATOM     37  C   UNL A   1      42.996  27.629  31.782  1.00  0.00     0.074 A 
ATOM     38  C   UNL A   1      43.736  26.643  31.027  1.00  0.00     0.031 C 
ATOM     39  C   UNL A   1      38.615  29.711  27.588  1.00  0.00     0.029 A 
ATOM     40  C   UNL A   1      38.762  30.083  28.995  1.00  0.00     0.049 A 
ATOM     41  H   UNL A   1      40.210  29.407  30.329  1.00  0.00     0.167 HD
ATOM     42  C   UNL A   1      43.293  27.977  33.057  1.00  0.00     0.031 A 
ATOM     43  C   UNL A   1      37.974  30.947  29.669  1.00  0.00     0.031 A 
ATOM     44  C   UNL A   1      42.550  28.931  33.833  1.00  0.00     0.049 A 
ATOM     45  C   UNL A   1      38.269  31.254  31.118  1.00  0.00     0.074 A 
ATOM     46  C   UNL A   1      42.768  29.340  35.138  1.00  0.00     0.029 A 
ATOM     47  N   UNL A   1      41.439  29.621  33.378  1.00  0.00    -0.354 N 
ATOM     48  N   UNL A   1      39.236  30.806  31.882  1.00  0.00    -0.248 NA
ATOM     49  C   UNL A   1      37.368  32.204  31.789  1.00  0.00     0.031 C 
ATOM     50  C   UNL A   1      41.753  30.235  35.491  1.00  0.00     0.029 A 
ATOM     51  C   UNL A   1      40.945  30.436  34.383  1.00  0.00     0.049 A 
ATOM     52  H   UNL A   1      41.056  29.543  32.474  1.00  0.00     0.167 HD
ATOM     53  C   UNL A   1      39.076  31.440  33.111  1.00  0.00     0.074 A 
ATOM     54  C   UNL A   1      37.936  32.323  32.980  1.00  0.00     0.031 C 
ATOM     55  C   UNL A   1      39.805  31.304  34.246  1.00  0.00     0.031 A 
BRANCH  42  56
ATOM     56  C   UNL A   1      44.470  27.294  33.697  1.00  0.00    -0.014 A 
ATOM     57  C   UNL A   1      44.307  26.119  34.448  1.00  0.00     0.009 A 
ATOM     58  C   UNL A   1      45.761  27.818  33.529  1.00  0.00     0.009 A 
ATOM     59  C   UNL A   1      45.408  25.501  35.046  1.00  0.00     0.001 A 
ATOM     60  C   UNL A   1      46.864  27.182  34.101  1.00  0.00     0.001 A 
ATOM     61  C   UNL A   1      46.685  26.030  34.867  1.00  0.00     0.000 A 
ENDBRANCH  42  56
BRANCH  43  62
ATOM     62  C   UNL A   1      36.803  31.577  29.000  1.00  0.00    -0.014 A 
ATOM     63  C   UNL A   1      36.830  32.926  28.611  1.00  0.00     0.009 A 
ATOM     64  C   UNL A   1      35.622  30.842  28.801  1.00  0.00     0.009 A 
ATOM     65  C   UNL A   1      35.692  33.532  28.069  1.00  0.00     0.001 A 
ATOM     66  C   UNL A   1      34.498  31.441  28.229  1.00  0.00     0.001 A 
ATOM     67  C   UNL A   1      34.529  32.788  27.876  1.00  0.00     0.000 A 
ENDBRANCH  43  62
BRANCH  55  68
ATOM     68  C   UNL A   1      39.413  32.154  35.426  1.00  0.00    -0.014 A 
ATOM     69  C   UNL A   1      39.880  33.470  35.571  1.00  0.00     0.009 A 
ATOM     70  C   UNL A   1      38.547  31.634  36.401  1.00  0.00     0.009 A 
ATOM     71  C   UNL A   1      39.530  34.227  36.692  1.00  0.00     0.001 A 
ATOM     72  C   UNL A   1      38.170  32.404  37.503  1.00  0.00     0.001 A 
ATOM     73  C   UNL A   1      38.673  33.695  37.655  1.00  0.00     0.000 A 
ENDBRANCH  55  68
ENDBRANCH  29  30
ENDBRANCH  22  24
ENDBRANCH  21  22
ENDBRANCH  20  21
ENDBRANCH  19  20
ENDBRANCH   1  19
TORSDOF 16
ENDMDL
