MODEL 1
REMARK VINA RESULT:     -10.5      0.000      0.000
REMARK SMILES O=C(OCCOCCOC(=O)[C@H]1C[C@@H](O)CN1C(=O)c1cc(F)c(F)cc1Cl)c1ccc(-c2c3nc(c(-c4ccccc4)c4ccc([nH]4)c(-c4ccccc4)c4nc(c(-c5ccccc5)c5ccc2[nH]5)C=C4)C=C3)cc1
REMARK SMILES IDX 6 1 5 2 4 3 3 4 2 5 1 6 29 7 30 8 76 9 31 10 75 11 32 12
REMARK SMILES IDX 33 13 34 14 69 15 35 16 74 17 68 18 70 19 36 20 73 21 67 22
REMARK SMILES IDX 66 23 37 25 59 26 44 27 58 28 45 29 48 30 57 31 71 32 46 33
REMARK SMILES IDX 47 34 56 36 72 37 49 38 38 39 39 40 43 41 40 42 42 43 41 44
REMARK SMILES IDX 60 45 61 46 65 47 62 48 64 49 63 50 50 51 51 52 55 53 52 54
REMARK SMILES IDX 54 55 53 56 7 57 8 58 9 59 10 60 11 61 12 62 13 63 17 64
REMARK SMILES IDX 14 65 16 66 18 67 19 68 20 69 21 70 27 71 22 72 26 73 28 74
REMARK SMILES IDX 23 75 24 76 25 77 15 78
REMARK H PARENT 70 24 48 35 15 79
REMARK Flexibility Score: inf
ROOT
ATOM      1  O   UNL A   1      33.274  30.529  27.484  1.00  0.00    -0.374 OA
ENDROOT
BRANCH   1   2
ATOM      2  C   UNL A   1      32.208  31.001  26.657  1.00  0.00     0.202 C 
BRANCH   2   3
ATOM      3  C   UNL A   1      31.435  32.233  27.143  1.00  0.00     0.261 C 
BRANCH   3   4
ATOM      4  O   UNL A   1      32.204  33.438  27.091  1.00  0.00    -0.460 OA
BRANCH   4   5
ATOM      5  C   UNL A   1      32.855  34.059  28.104  1.00  0.00     0.338 C 
ATOM      6  O   UNL A   1      32.401  35.133  28.496  1.00  0.00    -0.246 OA
BRANCH   5   7
ATOM      7  C   UNL A   1      34.148  33.584  28.709  1.00  0.00     0.060 A 
ATOM      8  C   UNL A   1      35.325  33.945  28.025  1.00  0.00     0.016 A 
ATOM      9  C   UNL A   1      34.286  32.745  29.817  1.00  0.00     0.016 A 
ATOM     10  C   UNL A   1      36.570  33.429  28.398  1.00  0.00     0.010 A 
ATOM     11  C   UNL A   1      35.502  32.176  30.158  1.00  0.00     0.010 A 
ATOM     12  C   UNL A   1      36.647  32.519  29.452  1.00  0.00    -0.014 A 
BRANCH  12  13
ATOM     13  C   UNL A   1      37.914  32.020  29.992  1.00  0.00     0.031 A 
ATOM     14  C   UNL A   1      38.476  30.714  29.534  1.00  0.00     0.074 A 
ATOM     15  C   UNL A   1      38.398  32.680  31.059  1.00  0.00     0.049 A 
ATOM     16  N   UNL A   1      39.540  30.094  29.968  1.00  0.00    -0.248 NA
ATOM     17  C   UNL A   1      37.748  29.996  28.472  1.00  0.00     0.031 C 
ATOM     18  C   UNL A   1      37.797  33.894  31.626  1.00  0.00     0.029 A 
ATOM     19  N   UNL A   1      39.445  32.403  31.889  1.00  0.00    -0.354 N 
ATOM     20  C   UNL A   1      39.629  28.931  29.217  1.00  0.00     0.074 A 
ATOM     21  C   UNL A   1      38.487  28.901  28.332  1.00  0.00     0.031 C 
ATOM     22  C   UNL A   1      38.469  34.237  32.732  1.00  0.00     0.029 A 
ATOM     23  C   UNL A   1      39.538  33.270  32.950  1.00  0.00     0.049 A 
ATOM     24  H   UNL A   1      40.069  31.658  31.742  1.00  0.00     0.167 HD
ATOM     25  C   UNL A   1      40.603  27.996  29.271  1.00  0.00     0.031 A 
ATOM     26  C   UNL A   1      40.391  33.276  33.988  1.00  0.00     0.031 A 
ATOM     27  C   UNL A   1      41.700  28.059  30.201  1.00  0.00     0.049 A 
ATOM     28  C   UNL A   1      41.475  32.241  34.007  1.00  0.00     0.074 A 
ATOM     29  C   UNL A   1      42.799  27.225  30.288  1.00  0.00     0.029 A 
ATOM     30  N   UNL A   1      41.824  29.000  31.213  1.00  0.00    -0.354 N 
ATOM     31  N   UNL A   1      41.655  31.234  33.186  1.00  0.00    -0.248 NA
ATOM     32  C   UNL A   1      42.494  32.355  35.055  1.00  0.00     0.031 C 
ATOM     33  C   UNL A   1      43.546  27.613  31.399  1.00  0.00     0.029 A 
ATOM     34  C   UNL A   1      42.964  28.744  31.953  1.00  0.00     0.049 A 
ATOM     35  H   UNL A   1      41.194  29.739  31.381  1.00  0.00     0.167 HD
ATOM     36  C   UNL A   1      42.820  30.609  33.598  1.00  0.00     0.074 A 
ATOM     37  C   UNL A   1      43.312  31.359  34.737  1.00  0.00     0.031 C 
ATOM     38  C   UNL A   1      43.427  29.515  33.079  1.00  0.00     0.031 A 
BRANCH  25  39
ATOM     39  C   UNL A   1      40.584  26.850  28.295  1.00  0.00    -0.014 A 
ATOM     40  C   UNL A   1      41.140  27.006  27.014  1.00  0.00     0.009 A 
ATOM     41  C   UNL A   1      39.844  25.690  28.574  1.00  0.00     0.009 A 
ATOM     42  C   UNL A   1      40.919  26.048  26.022  1.00  0.00     0.001 A 
ATOM     43  C   UNL A   1      39.647  24.721  27.586  1.00  0.00     0.001 A 
ATOM     44  C   UNL A   1      40.168  24.909  26.308  1.00  0.00     0.000 A 
ENDBRANCH  25  39
BRANCH  26  45
ATOM     45  C   UNL A   1      40.266  34.343  35.014  1.00  0.00    -0.014 A 
ATOM     46  C   UNL A   1      40.991  35.540  34.888  1.00  0.00     0.009 A 
ATOM     47  C   UNL A   1      39.523  34.122  36.181  1.00  0.00     0.009 A 
ATOM     48  C   UNL A   1      40.997  36.480  35.923  1.00  0.00     0.001 A 
ATOM     49  C   UNL A   1      39.504  35.078  37.201  1.00  0.00     0.001 A 
ATOM     50  C   UNL A   1      40.250  36.249  37.077  1.00  0.00     0.000 A 
ENDBRANCH  26  45
BRANCH  38  51
ATOM     51  C   UNL A   1      44.700  29.047  33.723  1.00  0.00    -0.014 A 
ATOM     52  C   UNL A   1      45.935  29.474  33.206  1.00  0.00     0.009 A 
ATOM     53  C   UNL A   1      44.677  28.059  34.716  1.00  0.00     0.009 A 
ATOM     54  C   UNL A   1      47.122  28.891  33.645  1.00  0.00     0.001 A 
ATOM     55  C   UNL A   1      45.870  27.501  35.177  1.00  0.00     0.001 A 
ATOM     56  C   UNL A   1      47.089  27.904  34.629  1.00  0.00     0.000 A 
ENDBRANCH  38  51
ENDBRANCH  12  13
ENDBRANCH   5   7
ENDBRANCH   4   5
ENDBRANCH   3   4
ENDBRANCH   2   3
ENDBRANCH   1   2
BRANCH   1  57
ATOM     57  C   UNL A   1      34.199  29.602  26.905  1.00  0.00     0.202 C 
BRANCH  57  58
ATOM     58  C   UNL A   1      33.649  28.175  26.894  1.00  0.00     0.261 C 
BRANCH  58  59
ATOM     59  O   UNL A   1      33.912  27.601  25.605  1.00  0.00    -0.462 OA
BRANCH  59  60
ATOM     60  C   UNL A   1      32.807  27.500  24.813  1.00  0.00     0.329 C 
ATOM     61  O   UNL A   1      32.413  28.376  24.053  1.00  0.00    -0.250 OA
BRANCH  60  62
ATOM     62  C   UNL A   1      32.131  26.135  24.990  1.00  0.00     0.198 C 
ATOM     63  C   UNL A   1      30.650  26.170  25.405  1.00  0.00     0.071 C 
ATOM     64  N   UNL A   1      32.154  25.453  23.712  1.00  0.00    -0.322 N 
ATOM     65  C   UNL A   1      29.872  25.984  24.111  1.00  0.00     0.136 C 
ATOM     66  C   UNL A   1      30.804  25.152  23.236  1.00  0.00     0.152 C 
BRANCH  64  67
ATOM     67  C   UNL A   1      33.364  25.036  23.202  1.00  0.00     0.256 C 
ATOM     68  O   UNL A   1      33.820  25.443  22.133  1.00  0.00    -0.269 OA
BRANCH  67  69
ATOM     69  C   UNL A   1      34.097  23.994  23.924  1.00  0.00     0.061 A 
ATOM     70  C   UNL A   1      35.087  24.400  24.829  1.00  0.00     0.057 A 
ATOM     71  C   UNL A   1      33.796  22.637  23.755  1.00  0.00     0.056 A 
ATOM     72  C   UNL A   1      35.841  23.441  25.482  1.00  0.00     0.159 A 
ATOM     73  C   UNL A   1      34.542  21.682  24.447  1.00  0.00     0.063 A 
ATOM     74  Cl  UNL A   1      32.567  22.072  22.683  1.00  0.00    -0.083 Cl
ATOM     75  F   UNL A   1      36.839  23.829  26.286  1.00  0.00    -0.204 F 
ATOM     76  C   UNL A   1      35.574  22.092  25.288  1.00  0.00     0.160 A 
ATOM     77  F   UNL A   1      36.318  21.167  25.906  1.00  0.00    -0.204 F 
ENDBRANCH  67  69
ENDBRANCH  64  67
BRANCH  65  78
ATOM     78  O   UNL A   1      29.582  27.244  23.510  1.00  0.00    -0.391 OA
ATOM     79  H   UNL A   1      28.784  27.164  22.963  1.00  0.00     0.211 HD
ENDBRANCH  65  78
ENDBRANCH  60  62
ENDBRANCH  59  60
ENDBRANCH  58  59
ENDBRANCH  57  58
ENDBRANCH   1  57
TORSDOF 17
ENDMDL
MODEL 2
REMARK VINA RESULT:     -10.2      1.519      1.978
REMARK SMILES O=C(OCCOCCOC(=O)[C@H]1C[C@@H](O)CN1C(=O)c1cc(F)c(F)cc1Cl)c1ccc(-c2c3nc(c(-c4ccccc4)c4ccc([nH]4)c(-c4ccccc4)c4nc(c(-c5ccccc5)c5ccc2[nH]5)C=C4)C=C3)cc1
REMARK SMILES IDX 6 1 5 2 4 3 3 4 2 5 1 6 29 7 30 8 76 9 31 10 75 11 32 12
REMARK SMILES IDX 33 13 34 14 69 15 35 16 74 17 68 18 70 19 36 20 73 21 67 22
REMARK SMILES IDX 66 23 37 25 59 26 44 27 58 28 45 29 48 30 57 31 71 32 46 33
REMARK SMILES IDX 47 34 56 36 72 37 49 38 38 39 39 40 43 41 40 42 42 43 41 44
REMARK SMILES IDX 60 45 61 46 65 47 62 48 64 49 63 50 50 51 51 52 55 53 52 54
REMARK SMILES IDX 54 55 53 56 7 57 8 58 9 59 10 60 11 61 12 62 13 63 17 64
REMARK SMILES IDX 14 65 16 66 18 67 19 68 20 69 21 70 27 71 22 72 26 73 28 74
REMARK SMILES IDX 23 75 24 76 25 77 15 78
REMARK H PARENT 70 24 48 35 15 79
REMARK Flexibility Score: inf
ROOT
ATOM      1  O   UNL A   1      33.859  30.408  27.687  1.00  0.00    -0.374 OA
ENDROOT
BRANCH   1   2
ATOM      2  C   UNL A   1      32.551  30.776  27.245  1.00  0.00     0.202 C 
BRANCH   2   3
ATOM      3  C   UNL A   1      32.391  32.154  26.593  1.00  0.00     0.261 C 
BRANCH   3   4
ATOM      4  O   UNL A   1      32.057  33.184  27.528  1.00  0.00    -0.460 OA
BRANCH   4   5
ATOM      5  C   UNL A   1      32.897  33.948  28.266  1.00  0.00     0.338 C 
ATOM      6  O   UNL A   1      32.609  35.136  28.406  1.00  0.00    -0.246 OA
BRANCH   5   7
ATOM      7  C   UNL A   1      34.208  33.476  28.835  1.00  0.00     0.060 A 
ATOM      8  C   UNL A   1      35.349  33.703  28.042  1.00  0.00     0.016 A 
ATOM      9  C   UNL A   1      34.386  32.752  30.016  1.00  0.00     0.016 A 
ATOM     10  C   UNL A   1      36.593  33.168  28.389  1.00  0.00     0.010 A 
ATOM     11  C   UNL A   1      35.596  32.162  30.339  1.00  0.00     0.010 A 
ATOM     12  C   UNL A   1      36.703  32.370  29.528  1.00  0.00    -0.014 A 
BRANCH  12  13
ATOM     13  C   UNL A   1      37.983  31.868  30.037  1.00  0.00     0.031 A 
ATOM     14  C   UNL A   1      38.535  30.567  29.556  1.00  0.00     0.074 A 
ATOM     15  C   UNL A   1      38.488  32.520  31.099  1.00  0.00     0.049 A 
ATOM     16  N   UNL A   1      39.609  29.945  29.962  1.00  0.00    -0.248 NA
ATOM     17  C   UNL A   1      37.786  29.858  28.503  1.00  0.00     0.031 C 
ATOM     18  C   UNL A   1      37.898  33.728  31.690  1.00  0.00     0.029 A 
ATOM     19  N   UNL A   1      39.552  32.237  31.905  1.00  0.00    -0.354 N 
ATOM     20  C   UNL A   1      39.684  28.788  29.199  1.00  0.00     0.074 A 
ATOM     21  C   UNL A   1      38.523  28.765  28.338  1.00  0.00     0.031 C 
ATOM     22  C   UNL A   1      38.593  34.062  32.784  1.00  0.00     0.029 A 
ATOM     23  C   UNL A   1      39.666  33.095  32.971  1.00  0.00     0.049 A 
ATOM     24  H   UNL A   1      40.174  31.493  31.738  1.00  0.00     0.167 HD
ATOM     25  C   UNL A   1      40.659  27.854  29.224  1.00  0.00     0.031 A 
ATOM     26  C   UNL A   1      40.542  33.092  33.991  1.00  0.00     0.031 A 
ATOM     27  C   UNL A   1      41.776  27.910  30.131  1.00  0.00     0.049 A 
ATOM     28  C   UNL A   1      41.627  32.058  33.978  1.00  0.00     0.074 A 
ATOM     29  C   UNL A   1      42.876  27.076  30.187  1.00  0.00     0.029 A 
ATOM     30  N   UNL A   1      41.920  28.843  31.149  1.00  0.00    -0.354 N 
ATOM     31  N   UNL A   1      41.790  31.058  33.144  1.00  0.00    -0.248 NA
ATOM     32  C   UNL A   1      42.668  32.164  35.005  1.00  0.00     0.031 C 
ATOM     33  C   UNL A   1      43.647  27.456  31.286  1.00  0.00     0.029 A 
ATOM     34  C   UNL A   1      43.075  28.581  31.862  1.00  0.00     0.049 A 
ATOM     35  H   UNL A   1      41.293  29.579  31.336  1.00  0.00     0.167 HD
ATOM     36  C   UNL A   1      42.965  30.432  33.526  1.00  0.00     0.074 A 
ATOM     37  C   UNL A   1      43.480  31.172  34.661  1.00  0.00     0.031 C 
ATOM     38  C   UNL A   1      43.562  29.343  32.985  1.00  0.00     0.031 A 
BRANCH  25  39
ATOM     39  C   UNL A   1      40.620  26.717  28.239  1.00  0.00    -0.014 A 
ATOM     40  C   UNL A   1      41.176  26.875  26.957  1.00  0.00     0.009 A 
ATOM     41  C   UNL A   1      39.864  25.566  28.509  1.00  0.00     0.009 A 
ATOM     42  C   UNL A   1      40.938  25.929  25.958  1.00  0.00     0.001 A 
ATOM     43  C   UNL A   1      39.649  24.608  27.514  1.00  0.00     0.001 A 
ATOM     44  C   UNL A   1      40.170  24.799  26.236  1.00  0.00     0.000 A 
ENDBRANCH  25  39
BRANCH  26  45
ATOM     45  C   UNL A   1      40.437  34.149  35.028  1.00  0.00    -0.014 A 
ATOM     46  C   UNL A   1      39.661  33.940  36.182  1.00  0.00     0.009 A 
ATOM     47  C   UNL A   1      41.005  35.413  34.816  1.00  0.00     0.009 A 
ATOM     48  C   UNL A   1      39.434  34.983  37.084  1.00  0.00     0.001 A 
ATOM     49  C   UNL A   1      40.803  36.445  35.737  1.00  0.00     0.001 A 
ATOM     50  C   UNL A   1      40.009  36.233  36.862  1.00  0.00     0.000 A 
ENDBRANCH  26  45
BRANCH  38  51
ATOM     51  C   UNL A   1      44.848  28.871  33.598  1.00  0.00    -0.014 A 
ATOM     52  C   UNL A   1      44.812  27.992  34.693  1.00  0.00     0.009 A 
ATOM     53  C   UNL A   1      46.073  29.427  33.205  1.00  0.00     0.009 A 
ATOM     54  C   UNL A   1      45.974  27.709  35.409  1.00  0.00     0.001 A 
ATOM     55  C   UNL A   1      47.240  29.116  33.904  1.00  0.00     0.001 A 
ATOM     56  C   UNL A   1      47.186  28.272  35.015  1.00  0.00     0.000 A 
ENDBRANCH  38  51
ENDBRANCH  12  13
ENDBRANCH   5   7
ENDBRANCH   4   5
ENDBRANCH   3   4
ENDBRANCH   2   3
ENDBRANCH   1   2
BRANCH   1  57
ATOM     57  C   UNL A   1      34.461  29.257  27.085  1.00  0.00     0.202 C 
BRANCH  57  58
ATOM     58  C   UNL A   1      33.426  28.354  26.413  1.00  0.00     0.261 C 
BRANCH  58  59
ATOM     59  O   UNL A   1      33.946  27.942  25.141  1.00  0.00    -0.462 OA
BRANCH  59  60
ATOM     60  C   UNL A   1      33.215  28.384  24.079  1.00  0.00     0.329 C 
ATOM     61  O   UNL A   1      33.682  28.957  23.102  1.00  0.00    -0.250 OA
BRANCH  60  62
ATOM     62  C   UNL A   1      31.729  28.054  24.263  1.00  0.00     0.198 C 
ATOM     63  C   UNL A   1      30.766  29.253  24.219  1.00  0.00     0.071 C 
ATOM     64  N   UNL A   1      31.320  27.194  23.171  1.00  0.00    -0.322 N 
ATOM     65  C   UNL A   1      30.216  29.265  22.800  1.00  0.00     0.136 C 
ATOM     66  C   UNL A   1      30.252  27.801  22.377  1.00  0.00     0.152 C 
BRANCH  64  67
ATOM     67  C   UNL A   1      31.825  25.914  23.107  1.00  0.00     0.256 C 
ATOM     68  O   UNL A   1      32.169  25.377  22.054  1.00  0.00    -0.269 OA
BRANCH  67  69
ATOM     69  C   UNL A   1      31.870  25.126  24.341  1.00  0.00     0.061 A 
ATOM     70  C   UNL A   1      30.658  24.881  25.002  1.00  0.00     0.057 A 
ATOM     71  C   UNL A   1      33.070  24.594  24.828  1.00  0.00     0.056 A 
ATOM     72  C   UNL A   1      30.670  24.193  26.203  1.00  0.00     0.159 A 
ATOM     73  C   UNL A   1      33.062  23.874  26.022  1.00  0.00     0.063 A 
ATOM     74  Cl  UNL A   1      34.590  24.831  24.044  1.00  0.00    -0.083 Cl
ATOM     75  F   UNL A   1      29.523  24.027  26.873  1.00  0.00    -0.204 F 
ATOM     76  C   UNL A   1      31.864  23.697  26.712  1.00  0.00     0.160 A 
ATOM     77  F   UNL A   1      31.874  23.050  27.883  1.00  0.00    -0.204 F 
ENDBRANCH  67  69
ENDBRANCH  64  67
BRANCH  65  78
ATOM     78  O   UNL A   1      31.027  30.073  21.950  1.00  0.00    -0.391 OA
ATOM     79  H   UNL A   1      31.960  29.843  22.080  1.00  0.00     0.211 HD
ENDBRANCH  65  78
ENDBRANCH  60  62
ENDBRANCH  59  60
ENDBRANCH  58  59
ENDBRANCH  57  58
ENDBRANCH   1  57
TORSDOF 17
ENDMDL
MODEL 3
REMARK VINA RESULT:     -10.2      4.350      9.128
REMARK SMILES O=C(OCCOCCOC(=O)[C@H]1C[C@@H](O)CN1C(=O)c1cc(F)c(F)cc1Cl)c1ccc(-c2c3nc(c(-c4ccccc4)c4ccc([nH]4)c(-c4ccccc4)c4nc(c(-c5ccccc5)c5ccc2[nH]5)C=C4)C=C3)cc1
REMARK SMILES IDX 6 1 5 2 4 3 3 4 2 5 1 6 29 7 30 8 76 9 31 10 75 11 32 12
REMARK SMILES IDX 33 13 34 14 69 15 35 16 74 17 68 18 70 19 36 20 73 21 67 22
REMARK SMILES IDX 66 23 37 25 59 26 44 27 58 28 45 29 48 30 57 31 71 32 46 33
REMARK SMILES IDX 47 34 56 36 72 37 49 38 38 39 39 40 43 41 40 42 42 43 41 44
REMARK SMILES IDX 60 45 61 46 65 47 62 48 64 49 63 50 50 51 51 52 55 53 52 54
REMARK SMILES IDX 54 55 53 56 7 57 8 58 9 59 10 60 11 61 12 62 13 63 17 64
REMARK SMILES IDX 14 65 16 66 18 67 19 68 20 69 21 70 27 71 22 72 26 73 28 74
REMARK SMILES IDX 23 75 24 76 25 77 15 78
REMARK H PARENT 70 24 48 35 15 79
REMARK Flexibility Score: inf
ROOT
ATOM      1  O   UNL A   1      38.729  22.290  26.299  1.00  0.00    -0.374 OA
ENDROOT
BRANCH   1   2
ATOM      2  C   UNL A   1      38.490  21.239  25.362  1.00  0.00     0.202 C 
BRANCH   2   3
ATOM      3  C   UNL A   1      38.827  19.811  25.806  1.00  0.00     0.261 C 
BRANCH   3   4
ATOM      4  O   UNL A   1      40.101  19.360  25.337  1.00  0.00    -0.460 OA
BRANCH   4   5
ATOM      5  C   UNL A   1      41.319  19.576  25.888  1.00  0.00     0.338 C 
ATOM      6  O   UNL A   1      42.039  18.596  26.077  1.00  0.00    -0.246 OA
BRANCH   5   7
ATOM      7  C   UNL A   1      41.812  20.909  26.382  1.00  0.00     0.060 A 
ATOM      8  C   UNL A   1      41.771  21.111  27.774  1.00  0.00     0.016 A 
ATOM      9  C   UNL A   1      42.207  21.991  25.592  1.00  0.00     0.016 A 
ATOM     10  C   UNL A   1      42.049  22.361  28.336  1.00  0.00     0.010 A 
ATOM     11  C   UNL A   1      42.422  23.250  26.128  1.00  0.00     0.010 A 
ATOM     12  C   UNL A   1      42.346  23.437  27.501  1.00  0.00    -0.014 A 
BRANCH  12  13
ATOM     13  C   UNL A   1      42.768  24.749  28.000  1.00  0.00     0.031 A 
ATOM     14  C   UNL A   1      41.767  25.831  28.237  1.00  0.00     0.074 A 
ATOM     15  C   UNL A   1      44.094  24.976  28.004  1.00  0.00     0.049 A 
ATOM     16  N   UNL A   1      41.983  27.068  28.599  1.00  0.00    -0.248 NA
ATOM     17  C   UNL A   1      40.346  25.502  28.025  1.00  0.00     0.031 C 
ATOM     18  C   UNL A   1      45.108  23.978  27.644  1.00  0.00     0.029 A 
ATOM     19  N   UNL A   1      44.810  26.111  28.249  1.00  0.00    -0.354 N 
ATOM     20  C   UNL A   1      40.729  27.657  28.686  1.00  0.00     0.074 A 
ATOM     21  C   UNL A   1      39.757  26.662  28.294  1.00  0.00     0.031 C 
ATOM     22  C   UNL A   1      46.316  24.557  27.663  1.00  0.00     0.029 A 
ATOM     23  C   UNL A   1      46.157  25.959  28.029  1.00  0.00     0.049 A 
ATOM     24  H   UNL A   1      44.403  26.954  28.554  1.00  0.00     0.167 HD
ATOM     25  C   UNL A   1      40.444  28.917  29.081  1.00  0.00     0.031 A 
ATOM     26  C   UNL A   1      47.153  26.859  28.109  1.00  0.00     0.031 A 
ATOM     27  C   UNL A   1      41.459  29.879  29.426  1.00  0.00     0.049 A 
ATOM     28  C   UNL A   1      46.809  28.242  28.573  1.00  0.00     0.074 A 
ATOM     29  C   UNL A   1      41.293  31.154  29.932  1.00  0.00     0.029 A 
ATOM     30  N   UNL A   1      42.824  29.674  29.281  1.00  0.00    -0.354 N 
ATOM     31  N   UNL A   1      45.623  28.747  28.821  1.00  0.00    -0.248 NA
ATOM     32  C   UNL A   1      47.921  29.167  28.810  1.00  0.00     0.031 C 
ATOM     33  C   UNL A   1      42.552  31.748  30.021  1.00  0.00     0.029 A 
ATOM     34  C   UNL A   1      43.510  30.814  29.655  1.00  0.00     0.049 A 
ATOM     35  H   UNL A   1      43.241  28.841  28.959  1.00  0.00     0.167 HD
ATOM     36  C   UNL A   1      45.846  30.038  29.271  1.00  0.00     0.074 A 
ATOM     37  C   UNL A   1      47.283  30.235  29.271  1.00  0.00     0.031 C 
ATOM     38  C   UNL A   1      44.943  30.974  29.648  1.00  0.00     0.031 A 
BRANCH  25  39
ATOM     39  C   UNL A   1      39.008  29.343  29.216  1.00  0.00    -0.014 A 
ATOM     40  C   UNL A   1      38.299  29.069  30.399  1.00  0.00     0.009 A 
ATOM     41  C   UNL A   1      38.304  29.835  28.106  1.00  0.00     0.009 A 
ATOM     42  C   UNL A   1      36.913  29.237  30.452  1.00  0.00     0.001 A 
ATOM     43  C   UNL A   1      36.920  30.026  28.171  1.00  0.00     0.001 A 
ATOM     44  C   UNL A   1      36.225  29.710  29.336  1.00  0.00     0.000 A 
ENDBRANCH  25  39
BRANCH  26  45
ATOM     45  C   UNL A   1      48.540  26.422  27.809  1.00  0.00    -0.014 A 
ATOM     46  C   UNL A   1      49.035  26.477  26.495  1.00  0.00     0.009 A 
ATOM     47  C   UNL A   1      49.330  25.834  28.806  1.00  0.00     0.009 A 
ATOM     48  C   UNL A   1      50.280  25.926  26.181  1.00  0.00     0.001 A 
ATOM     49  C   UNL A   1      50.590  25.312  28.495  1.00  0.00     0.001 A 
ATOM     50  C   UNL A   1      51.058  25.347  27.182  1.00  0.00     0.000 A 
ENDBRANCH  26  45
BRANCH  38  51
ATOM     51  C   UNL A   1      45.462  32.307  30.104  1.00  0.00    -0.014 A 
ATOM     52  C   UNL A   1      45.727  33.308  29.155  1.00  0.00     0.009 A 
ATOM     53  C   UNL A   1      45.848  32.505  31.437  1.00  0.00     0.009 A 
ATOM     54  C   UNL A   1      46.404  34.468  29.525  1.00  0.00     0.001 A 
ATOM     55  C   UNL A   1      46.497  33.683  31.810  1.00  0.00     0.001 A 
ATOM     56  C   UNL A   1      46.790  34.654  30.852  1.00  0.00     0.000 A 
ENDBRANCH  38  51
ENDBRANCH  12  13
ENDBRANCH   5   7
ENDBRANCH   4   5
ENDBRANCH   3   4
ENDBRANCH   2   3
ENDBRANCH   1   2
BRANCH   1  57
ATOM     57  C   UNL A   1      37.986  23.503  26.137  1.00  0.00     0.202 C 
BRANCH  57  58
ATOM     58  C   UNL A   1      36.947  23.393  25.021  1.00  0.00     0.261 C 
BRANCH  58  59
ATOM     59  O   UNL A   1      35.746  24.047  25.457  1.00  0.00    -0.462 OA
BRANCH  59  60
ATOM     60  C   UNL A   1      34.639  23.253  25.409  1.00  0.00     0.329 C 
ATOM     61  O   UNL A   1      34.479  22.242  26.083  1.00  0.00    -0.250 OA
BRANCH  60  62
ATOM     62  C   UNL A   1      33.615  23.803  24.410  1.00  0.00     0.198 C 
ATOM     63  C   UNL A   1      33.437  22.989  23.116  1.00  0.00     0.071 C 
ATOM     64  N   UNL A   1      32.314  23.794  25.049  1.00  0.00    -0.322 N 
ATOM     65  C   UNL A   1      32.205  22.131  23.356  1.00  0.00     0.136 C 
ATOM     66  C   UNL A   1      31.362  22.955  24.323  1.00  0.00     0.152 C 
BRANCH  64  67
ATOM     67  C   UNL A   1      32.084  24.655  26.100  1.00  0.00     0.256 C 
ATOM     68  O   UNL A   1      31.727  24.275  27.215  1.00  0.00    -0.269 OA
BRANCH  67  69
ATOM     69  C   UNL A   1      32.181  26.095  25.848  1.00  0.00     0.061 A 
ATOM     70  C   UNL A   1      33.391  26.731  26.160  1.00  0.00     0.057 A 
ATOM     71  C   UNL A   1      31.123  26.811  25.276  1.00  0.00     0.056 A 
ATOM     72  C   UNL A   1      33.497  28.101  25.993  1.00  0.00     0.159 A 
ATOM     73  C   UNL A   1      31.256  28.187  25.083  1.00  0.00     0.063 A 
ATOM     74  Cl  UNL A   1      29.620  26.082  24.840  1.00  0.00    -0.083 Cl
ATOM     75  F   UNL A   1      34.624  28.719  26.365  1.00  0.00    -0.204 F 
ATOM     76  C   UNL A   1      32.435  28.824  25.464  1.00  0.00     0.160 A 
ATOM     77  F   UNL A   1      32.534  30.151  25.324  1.00  0.00    -0.204 F 
ENDBRANCH  67  69
ENDBRANCH  64  67
BRANCH  65  78
ATOM     78  O   UNL A   1      32.567  20.874  23.922  1.00  0.00    -0.391 OA
ATOM     79  H   UNL A   1      33.229  21.011  24.618  1.00  0.00     0.211 HD
ENDBRANCH  65  78
ENDBRANCH  60  62
ENDBRANCH  59  60
ENDBRANCH  58  59
ENDBRANCH  57  58
ENDBRANCH   1  57
TORSDOF 17
ENDMDL
