MODEL 1
REMARK VINA RESULT:     -10.7      0.000      0.000
REMARK SMILES C[C@](C(=O)OCCOCCOC(=O)c1ccc(-c2c3nc(c(-c4ccccc4)c4ccc([nH]4)c(-c4ccccc4)c4nc(c(-c5ccccc5)c5ccc2[nH]5)C=C4)C=C3)cc1)(c1cc(F)cc(F)c1)[NH+]1CCCC1
REMARK SMILES IDX 9 1 8 2 7 3 6 4 5 5 3 6 4 7 2 8 1 9 62 10 63 11 69 12 64 13
REMARK SMILES IDX 67 14 65 15 66 16 68 17 70 18 71 19 74 20 72 22 73 23 10 24
REMARK SMILES IDX 11 25 12 26 13 27 14 28 15 29 61 30 16 31 60 32 17 33 18 34
REMARK SMILES IDX 19 35 54 36 20 37 59 38 53 39 55 40 21 41 58 42 52 43 51 44
REMARK SMILES IDX 22 46 44 47 29 48 43 49 30 50 33 51 42 52 56 53 31 54 32 55
REMARK SMILES IDX 41 57 57 58 34 59 23 60 24 61 28 62 25 63 27 64 26 65 45 66
REMARK SMILES IDX 46 67 50 68 47 69 49 70 48 71 35 72 36 73 40 74 37 75 39 76
REMARK SMILES IDX 38 77
REMARK H PARENT 70 21 55 45 33 56
REMARK Flexibility Score: inf
ROOT
ATOM      1  C   UNL A   1      35.895  20.954  25.060  1.00  0.00     0.202 C 
ENDROOT
BRANCH   1   2
ATOM      2  O   UNL A   1      35.495  21.587  26.276  1.00  0.00    -0.374 OA
BRANCH   2   3
ATOM      3  C   UNL A   1      34.913  22.885  26.181  1.00  0.00     0.202 C 
BRANCH   3   4
ATOM      4  C   UNL A   1      33.386  22.943  26.237  1.00  0.00     0.261 C 
BRANCH   4   5
ATOM      5  O   UNL A   1      32.849  24.052  25.493  1.00  0.00    -0.458 OA
BRANCH   5   6
ATOM      6  C   UNL A   1      32.178  24.992  26.230  1.00  0.00     0.372 C 
ATOM      7  O   UNL A   1      31.404  24.703  27.139  1.00  0.00    -0.244 OA
BRANCH   6   8
ATOM      8  C   UNL A   1      32.470  26.461  25.755  1.00  0.00     0.218 C 
ATOM      9  C   UNL A   1      33.873  26.374  25.081  1.00  0.00     0.098 C 
BRANCH   8  10
ATOM     10  C   UNL A   1      31.398  26.946  24.737  1.00  0.00     0.029 A 
ATOM     11  C   UNL A   1      31.646  27.981  23.810  1.00  0.00     0.050 A 
ATOM     12  C   UNL A   1      30.103  26.390  24.717  1.00  0.00     0.050 A 
ATOM     13  C   UNL A   1      30.642  28.457  22.963  1.00  0.00     0.126 A 
ATOM     14  C   UNL A   1      29.107  26.900  23.880  1.00  0.00     0.126 A 
ATOM     15  F   UNL A   1      30.924  29.451  22.110  1.00  0.00    -0.207 F 
ATOM     16  C   UNL A   1      29.363  27.935  22.998  1.00  0.00     0.078 A 
ATOM     17  F   UNL A   1      27.871  26.388  23.941  1.00  0.00    -0.207 F 
ENDBRANCH   8  10
BRANCH   8  18
ATOM     18  N   UNL A   1      32.749  27.391  26.893  1.00  0.00    -0.317 N 
ATOM     19  C   UNL A   1      31.670  28.118  27.545  1.00  0.00     0.263 C 
ATOM     20  C   UNL A   1      33.896  28.292  26.860  1.00  0.00     0.263 C 
ATOM     21  H   UNL A   1      32.984  26.570  27.450  1.00  0.00     0.349 HD
ATOM     22  C   UNL A   1      31.808  29.529  27.012  1.00  0.00     0.067 C 
ATOM     23  C   UNL A   1      33.306  29.701  26.795  1.00  0.00     0.067 C 
ENDBRANCH   8  18
ENDBRANCH   6   8
ENDBRANCH   5   6
ENDBRANCH   4   5
ENDBRANCH   3   4
ENDBRANCH   2   3
ENDBRANCH   1   2
BRANCH   1  24
ATOM     24  C   UNL A   1      37.347  20.468  25.007  1.00  0.00     0.261 C 
BRANCH  24  25
ATOM     25  O   UNL A   1      38.283  21.552  25.164  1.00  0.00    -0.460 OA
BRANCH  25  26
ATOM     26  C   UNL A   1      39.307  21.304  26.014  1.00  0.00     0.338 C 
ATOM     27  O   UNL A   1      39.966  20.277  26.100  1.00  0.00    -0.246 OA
BRANCH  26  28
ATOM     28  C   UNL A   1      39.672  22.522  26.760  1.00  0.00     0.060 A 
ATOM     29  C   UNL A   1      38.957  23.691  26.477  1.00  0.00     0.016 A 
ATOM     30  C   UNL A   1      40.772  22.557  27.619  1.00  0.00     0.016 A 
ATOM     31  C   UNL A   1      39.381  24.913  26.995  1.00  0.00     0.010 A 
ATOM     32  C   UNL A   1      41.199  23.785  28.139  1.00  0.00     0.010 A 
ATOM     33  C   UNL A   1      40.534  24.974  27.788  1.00  0.00    -0.014 A 
BRANCH  33  34
ATOM     34  C   UNL A   1      41.132  26.299  28.090  1.00  0.00     0.031 A 
ATOM     35  C   UNL A   1      42.472  26.645  27.498  1.00  0.00     0.074 A 
ATOM     36  C   UNL A   1      40.470  27.208  28.826  1.00  0.00     0.049 A 
ATOM     37  N   UNL A   1      43.159  27.755  27.595  1.00  0.00    -0.248 NA
ATOM     38  C   UNL A   1      43.122  25.605  26.683  1.00  0.00     0.031 C 
ATOM     39  C   UNL A   1      39.147  27.018  29.418  1.00  0.00     0.029 A 
ATOM     40  N   UNL A   1      40.825  28.481  29.192  1.00  0.00    -0.354 N 
ATOM     41  C   UNL A   1      44.319  27.548  26.858  1.00  0.00     0.074 A 
ATOM     42  C   UNL A   1      44.257  26.198  26.342  1.00  0.00     0.031 C 
ATOM     43  C   UNL A   1      38.799  28.140  30.072  1.00  0.00     0.029 A 
ATOM     44  C   UNL A   1      39.883  29.115  29.964  1.00  0.00     0.049 A 
ATOM     45  H   UNL A   1      41.674  28.902  28.926  1.00  0.00     0.167 HD
ATOM     46  C   UNL A   1      45.341  28.403  26.621  1.00  0.00     0.031 A 
ATOM     47  C   UNL A   1      39.898  30.338  30.528  1.00  0.00     0.031 A 
ATOM     48  C   UNL A   1      45.416  29.744  27.135  1.00  0.00     0.049 A 
ATOM     49  C   UNL A   1      41.083  31.242  30.316  1.00  0.00     0.074 A 
ATOM     50  C   UNL A   1      46.405  30.692  26.932  1.00  0.00     0.029 A 
ATOM     51  N   UNL A   1      44.468  30.325  27.960  1.00  0.00    -0.354 N 
ATOM     52  N   UNL A   1      42.156  31.043  29.592  1.00  0.00    -0.248 NA
ATOM     53  C   UNL A   1      41.051  32.546  30.998  1.00  0.00     0.031 C 
ATOM     54  C   UNL A   1      46.078  31.830  27.676  1.00  0.00     0.029 A 
ATOM     55  C   UNL A   1      44.862  31.607  28.301  1.00  0.00     0.049 A 
ATOM     56  H   UNL A   1      43.636  29.891  28.261  1.00  0.00     0.167 HD
ATOM     57  C   UNL A   1      42.914  32.201  29.709  1.00  0.00     0.074 A 
ATOM     58  C   UNL A   1      42.172  33.104  30.565  1.00  0.00     0.031 C 
ATOM     59  C   UNL A   1      44.116  32.494  29.154  1.00  0.00     0.031 A 
BRANCH  46  60
ATOM     60  C   UNL A   1      46.484  27.899  25.788  1.00  0.00    -0.014 A 
ATOM     61  C   UNL A   1      46.458  27.992  24.387  1.00  0.00     0.009 A 
ATOM     62  C   UNL A   1      47.616  27.357  26.416  1.00  0.00     0.009 A 
ATOM     63  C   UNL A   1      47.535  27.523  23.631  1.00  0.00     0.001 A 
ATOM     64  C   UNL A   1      48.700  26.912  25.658  1.00  0.00     0.001 A 
ATOM     65  C   UNL A   1      48.656  26.989  24.267  1.00  0.00     0.000 A 
ENDBRANCH  46  60
BRANCH  47  66
ATOM     66  C   UNL A   1      38.756  30.784  31.368  1.00  0.00    -0.014 A 
ATOM     67  C   UNL A   1      37.657  31.437  30.792  1.00  0.00     0.009 A 
ATOM     68  C   UNL A   1      38.776  30.579  32.756  1.00  0.00     0.009 A 
ATOM     69  C   UNL A   1      36.610  31.897  31.594  1.00  0.00     0.001 A 
ATOM     70  C   UNL A   1      37.716  31.019  33.551  1.00  0.00     0.001 A 
ATOM     71  C   UNL A   1      36.639  31.685  32.971  1.00  0.00     0.000 A 
ENDBRANCH  47  66
BRANCH  59  72
ATOM     72  C   UNL A   1      44.690  33.854  29.429  1.00  0.00    -0.014 A 
ATOM     73  C   UNL A   1      45.562  34.070  30.507  1.00  0.00     0.009 A 
ATOM     74  C   UNL A   1      44.387  34.924  28.572  1.00  0.00     0.009 A 
ATOM     75  C   UNL A   1      46.098  35.339  30.737  1.00  0.00     0.001 A 
ATOM     76  C   UNL A   1      44.943  36.185  28.791  1.00  0.00     0.001 A 
ATOM     77  C   UNL A   1      45.792  36.393  29.877  1.00  0.00     0.000 A 
ENDBRANCH  59  72
ENDBRANCH  33  34
ENDBRANCH  26  28
ENDBRANCH  25  26
ENDBRANCH  24  25
ENDBRANCH   1  24
TORSDOF 16
ENDMDL
MODEL 2
REMARK VINA RESULT:     -10.4      0.580      6.083
REMARK SMILES C[C@](C(=O)OCCOCCOC(=O)c1ccc(-c2c3nc(c(-c4ccccc4)c4ccc([nH]4)c(-c4ccccc4)c4nc(c(-c5ccccc5)c5ccc2[nH]5)C=C4)C=C3)cc1)(c1cc(F)cc(F)c1)[NH+]1CCCC1
REMARK SMILES IDX 9 1 8 2 7 3 6 4 5 5 3 6 4 7 2 8 1 9 62 10 63 11 69 12 64 13
REMARK SMILES IDX 67 14 65 15 66 16 68 17 70 18 71 19 74 20 72 22 73 23 10 24
REMARK SMILES IDX 11 25 12 26 13 27 14 28 15 29 61 30 16 31 60 32 17 33 18 34
REMARK SMILES IDX 19 35 54 36 20 37 59 38 53 39 55 40 21 41 58 42 52 43 51 44
REMARK SMILES IDX 22 46 44 47 29 48 43 49 30 50 33 51 42 52 56 53 31 54 32 55
REMARK SMILES IDX 41 57 57 58 34 59 23 60 24 61 28 62 25 63 27 64 26 65 45 66
REMARK SMILES IDX 46 67 50 68 47 69 49 70 48 71 35 72 36 73 40 74 37 75 39 76
REMARK SMILES IDX 38 77
REMARK H PARENT 70 21 55 45 33 56
REMARK Flexibility Score: inf
ROOT
ATOM      1  C   UNL A   1      35.296  20.801  24.788  1.00  0.00     0.202 C 
ENDROOT
BRANCH   1   2
ATOM      2  O   UNL A   1      34.979  22.076  25.346  1.00  0.00    -0.374 OA
BRANCH   2   3
ATOM      3  C   UNL A   1      34.006  22.115  26.386  1.00  0.00     0.202 C 
BRANCH   3   4
ATOM      4  C   UNL A   1      32.673  22.776  26.034  1.00  0.00     0.261 C 
BRANCH   4   5
ATOM      5  O   UNL A   1      32.834  24.132  25.575  1.00  0.00    -0.458 OA
BRANCH   5   6
ATOM      6  C   UNL A   1      32.146  25.083  26.282  1.00  0.00     0.372 C 
ATOM      7  O   UNL A   1      31.346  24.808  27.173  1.00  0.00    -0.244 OA
BRANCH   6   8
ATOM      8  C   UNL A   1      32.457  26.545  25.797  1.00  0.00     0.218 C 
ATOM      9  C   UNL A   1      33.833  26.425  25.074  1.00  0.00     0.098 C 
BRANCH   8  10
ATOM     10  C   UNL A   1      31.362  27.057  24.818  1.00  0.00     0.029 A 
ATOM     11  C   UNL A   1      30.058  26.516  24.789  1.00  0.00     0.050 A 
ATOM     12  C   UNL A   1      31.634  28.075  23.881  1.00  0.00     0.050 A 
ATOM     13  C   UNL A   1      29.116  26.935  23.846  1.00  0.00     0.126 A 
ATOM     14  C   UNL A   1      30.685  28.458  22.929  1.00  0.00     0.126 A 
ATOM     15  F   UNL A   1      27.896  26.380  23.850  1.00  0.00    -0.207 F 
ATOM     16  C   UNL A   1      29.422  27.895  22.900  1.00  0.00     0.078 A 
ATOM     17  F   UNL A   1      31.008  29.381  22.015  1.00  0.00    -0.207 F 
ENDBRANCH   8  10
BRANCH   8  18
ATOM     18  N   UNL A   1      32.799  27.467  26.924  1.00  0.00    -0.317 N 
ATOM     19  C   UNL A   1      31.759  28.200  27.631  1.00  0.00     0.263 C 
ATOM     20  C   UNL A   1      33.951  28.357  26.840  1.00  0.00     0.263 C 
ATOM     21  H   UNL A   1      33.053  26.641  27.466  1.00  0.00     0.349 HD
ATOM     22  C   UNL A   1      31.883  29.612  27.098  1.00  0.00     0.067 C 
ATOM     23  C   UNL A   1      33.371  29.772  26.810  1.00  0.00     0.067 C 
ENDBRANCH   8  18
ENDBRANCH   6   8
ENDBRANCH   5   6
ENDBRANCH   4   5
ENDBRANCH   3   4
ENDBRANCH   2   3
ENDBRANCH   1   2
BRANCH   1  24
ATOM     24  C   UNL A   1      36.732  20.314  25.009  1.00  0.00     0.261 C 
BRANCH  24  25
ATOM     25  O   UNL A   1      37.661  21.410  25.119  1.00  0.00    -0.460 OA
BRANCH  25  26
ATOM     26  C   UNL A   1      38.788  21.135  25.815  1.00  0.00     0.338 C 
ATOM     27  O   UNL A   1      39.419  20.086  25.820  1.00  0.00    -0.246 OA
BRANCH  26  28
ATOM     28  C   UNL A   1      39.298  22.347  26.481  1.00  0.00     0.060 A 
ATOM     29  C   UNL A   1      38.695  23.566  26.153  1.00  0.00     0.016 A 
ATOM     30  C   UNL A   1      40.424  22.315  27.308  1.00  0.00     0.016 A 
ATOM     31  C   UNL A   1      39.257  24.764  26.591  1.00  0.00     0.010 A 
ATOM     32  C   UNL A   1      40.988  23.519  27.746  1.00  0.00     0.010 A 
ATOM     33  C   UNL A   1      40.436  24.749  27.348  1.00  0.00    -0.014 A 
BRANCH  33  34
ATOM     34  C   UNL A   1      41.173  26.020  27.559  1.00  0.00     0.031 A 
ATOM     35  C   UNL A   1      40.573  27.070  28.456  1.00  0.00     0.074 A 
ATOM     36  C   UNL A   1      42.386  26.217  27.015  1.00  0.00     0.049 A 
ATOM     37  N   UNL A   1      41.059  28.232  28.813  1.00  0.00    -0.248 NA
ATOM     38  C   UNL A   1      39.252  26.768  29.033  1.00  0.00     0.031 C 
ATOM     39  C   UNL A   1      43.100  25.265  26.167  1.00  0.00     0.029 A 
ATOM     40  N   UNL A   1      43.235  27.291  27.108  1.00  0.00    -0.354 N 
ATOM     41  C   UNL A   1      40.107  28.799  29.651  1.00  0.00     0.074 A 
ATOM     42  C   UNL A   1      39.003  27.868  29.730  1.00  0.00     0.031 C 
ATOM     43  C   UNL A   1      44.285  25.796  25.820  1.00  0.00     0.029 A 
ATOM     44  C   UNL A   1      44.401  27.134  26.400  1.00  0.00     0.049 A 
ATOM     45  H   UNL A   1      43.029  28.098  27.633  1.00  0.00     0.167 HD
ATOM     46  C   UNL A   1      40.148  29.982  30.307  1.00  0.00     0.031 A 
ATOM     47  C   UNL A   1      45.439  27.975  26.231  1.00  0.00     0.031 A 
ATOM     48  C   UNL A   1      41.237  30.918  30.231  1.00  0.00     0.049 A 
ATOM     49  C   UNL A   1      45.424  29.321  26.907  1.00  0.00     0.074 A 
ATOM     50  C   UNL A   1      41.374  32.136  30.875  1.00  0.00     0.029 A 
ATOM     51  N   UNL A   1      42.371  30.744  29.456  1.00  0.00    -0.354 N 
ATOM     52  N   UNL A   1      44.532  29.828  27.721  1.00  0.00    -0.248 NA
ATOM     53  C   UNL A   1      46.569  30.206  26.642  1.00  0.00     0.031 C 
ATOM     54  C   UNL A   1      42.571  32.721  30.451  1.00  0.00     0.029 A 
ATOM     55  C   UNL A   1      43.201  31.845  29.581  1.00  0.00     0.049 A 
ATOM     56  H   UNL A   1      42.560  29.955  28.898  1.00  0.00     0.167 HD
ATOM     57  C   UNL A   1      45.017  31.078  28.085  1.00  0.00     0.074 A 
ATOM     58  C   UNL A   1      46.289  31.247  27.413  1.00  0.00     0.031 C 
ATOM     59  C   UNL A   1      44.461  32.002  28.907  1.00  0.00     0.031 A 
BRANCH  46  60
ATOM     60  C   UNL A   1      38.957  30.348  31.146  1.00  0.00    -0.014 A 
ATOM     61  C   UNL A   1      38.945  30.115  32.531  1.00  0.00     0.009 A 
ATOM     62  C   UNL A   1      37.848  30.966  30.548  1.00  0.00     0.009 A 
ATOM     63  C   UNL A   1      37.831  30.469  33.294  1.00  0.00     0.001 A 
ATOM     64  C   UNL A   1      36.746  31.339  31.319  1.00  0.00     0.001 A 
ATOM     65  C   UNL A   1      36.736  31.085  32.689  1.00  0.00     0.000 A 
ENDBRANCH  46  60
BRANCH  47  66
ATOM     66  C   UNL A   1      46.583  27.582  25.369  1.00  0.00    -0.014 A 
ATOM     67  C   UNL A   1      47.637  26.815  25.886  1.00  0.00     0.009 A 
ATOM     68  C   UNL A   1      46.635  27.997  24.029  1.00  0.00     0.009 A 
ATOM     69  C   UNL A   1      48.733  26.491  25.083  1.00  0.00     0.001 A 
ATOM     70  C   UNL A   1      47.721  27.650  23.223  1.00  0.00     0.001 A 
ATOM     71  C   UNL A   1      48.772  26.905  23.752  1.00  0.00     0.000 A 
ENDBRANCH  47  66
BRANCH  59  72
ATOM     72  C   UNL A   1      45.238  33.265  29.149  1.00  0.00    -0.014 A 
ATOM     73  C   UNL A   1      45.036  34.405  28.356  1.00  0.00     0.009 A 
ATOM     74  C   UNL A   1      46.151  33.327  30.213  1.00  0.00     0.009 A 
ATOM     75  C   UNL A   1      45.756  35.575  28.607  1.00  0.00     0.001 A 
ATOM     76  C   UNL A   1      46.851  34.505  30.476  1.00  0.00     0.001 A 
ATOM     77  C   UNL A   1      46.659  35.625  29.668  1.00  0.00     0.000 A 
ENDBRANCH  59  72
ENDBRANCH  33  34
ENDBRANCH  26  28
ENDBRANCH  25  26
ENDBRANCH  24  25
ENDBRANCH   1  24
TORSDOF 16
ENDMDL
MODEL 3
REMARK VINA RESULT:     -10.4      1.280      2.214
REMARK SMILES C[C@](C(=O)OCCOCCOC(=O)c1ccc(-c2c3nc(c(-c4ccccc4)c4ccc([nH]4)c(-c4ccccc4)c4nc(c(-c5ccccc5)c5ccc2[nH]5)C=C4)C=C3)cc1)(c1cc(F)cc(F)c1)[NH+]1CCCC1
REMARK SMILES IDX 9 1 8 2 7 3 6 4 5 5 3 6 4 7 2 8 1 9 62 10 63 11 69 12 64 13
REMARK SMILES IDX 67 14 65 15 66 16 68 17 70 18 71 19 74 20 72 22 73 23 10 24
REMARK SMILES IDX 11 25 12 26 13 27 14 28 15 29 61 30 16 31 60 32 17 33 18 34
REMARK SMILES IDX 19 35 54 36 20 37 59 38 53 39 55 40 21 41 58 42 52 43 51 44
REMARK SMILES IDX 22 46 44 47 29 48 43 49 30 50 33 51 42 52 56 53 31 54 32 55
REMARK SMILES IDX 41 57 57 58 34 59 23 60 24 61 28 62 25 63 27 64 26 65 45 66
REMARK SMILES IDX 46 67 50 68 47 69 49 70 48 71 35 72 36 73 40 74 37 75 39 76
REMARK SMILES IDX 38 77
REMARK H PARENT 70 21 55 45 33 56
REMARK Flexibility Score: inf
ROOT
ATOM      1  C   UNL A   1      35.467  21.213  24.677  1.00  0.00     0.202 C 
ENDROOT
BRANCH   1   2
ATOM      2  O   UNL A   1      34.839  21.970  25.712  1.00  0.00    -0.374 OA
BRANCH   2   3
ATOM      3  C   UNL A   1      33.655  21.433  26.294  1.00  0.00     0.202 C 
BRANCH   3   4
ATOM      4  C   UNL A   1      32.470  22.392  26.415  1.00  0.00     0.261 C 
BRANCH   4   5
ATOM      5  O   UNL A   1      32.814  23.741  26.045  1.00  0.00    -0.458 OA
BRANCH   5   6
ATOM      6  C   UNL A   1      31.818  24.669  26.196  1.00  0.00     0.372 C 
ATOM      7  O   UNL A   1      31.031  24.661  27.139  1.00  0.00    -0.244 OA
BRANCH   6   8
ATOM      8  C   UNL A   1      31.767  25.705  25.014  1.00  0.00     0.218 C 
ATOM      9  C   UNL A   1      30.285  25.666  24.534  1.00  0.00     0.098 C 
BRANCH   8  10
ATOM     10  C   UNL A   1      32.153  27.131  25.500  1.00  0.00     0.029 A 
ATOM     11  C   UNL A   1      33.208  27.363  26.409  1.00  0.00     0.050 A 
ATOM     12  C   UNL A   1      31.438  28.269  25.075  1.00  0.00     0.050 A 
ATOM     13  C   UNL A   1      33.483  28.644  26.895  1.00  0.00     0.126 A 
ATOM     14  C   UNL A   1      31.713  29.536  25.595  1.00  0.00     0.126 A 
ATOM     15  F   UNL A   1      34.487  28.810  27.768  1.00  0.00    -0.207 F 
ATOM     16  C   UNL A   1      32.733  29.737  26.507  1.00  0.00     0.078 A 
ATOM     17  F   UNL A   1      30.964  30.579  25.215  1.00  0.00    -0.207 F 
ENDBRANCH   8  10
BRANCH   8  18
ATOM     18  N   UNL A   1      32.484  25.221  23.793  1.00  0.00    -0.317 N 
ATOM     19  C   UNL A   1      33.734  25.835  23.369  1.00  0.00     0.263 C 
ATOM     20  C   UNL A   1      31.750  24.890  22.577  1.00  0.00     0.263 C 
ATOM     21  H   UNL A   1      32.688  24.363  24.305  1.00  0.00     0.349 HD
ATOM     22  C   UNL A   1      33.335  26.693  22.187  1.00  0.00     0.067 C 
ATOM     23  C   UNL A   1      32.184  25.929  21.543  1.00  0.00     0.067 C 
ENDBRANCH   8  18
ENDBRANCH   6   8
ENDBRANCH   5   6
ENDBRANCH   4   5
ENDBRANCH   3   4
ENDBRANCH   2   3
ENDBRANCH   1   2
BRANCH   1  24
ATOM     24  C   UNL A   1      36.816  20.581  25.037  1.00  0.00     0.261 C 
BRANCH  24  25
ATOM     25  O   UNL A   1      37.887  21.545  25.005  1.00  0.00    -0.460 OA
BRANCH  25  26
ATOM     26  C   UNL A   1      38.942  21.252  25.799  1.00  0.00     0.338 C 
ATOM     27  O   UNL A   1      39.586  20.212  25.823  1.00  0.00    -0.246 OA
BRANCH  26  28
ATOM     28  C   UNL A   1      39.362  22.439  26.567  1.00  0.00     0.060 A 
ATOM     29  C   UNL A   1      38.706  23.645  26.299  1.00  0.00     0.016 A 
ATOM     30  C   UNL A   1      40.457  22.406  27.432  1.00  0.00     0.016 A 
ATOM     31  C   UNL A   1      39.186  24.836  26.839  1.00  0.00     0.010 A 
ATOM     32  C   UNL A   1      40.940  23.604  27.974  1.00  0.00     0.010 A 
ATOM     33  C   UNL A   1      40.336  24.829  27.639  1.00  0.00    -0.014 A 
BRANCH  33  34
ATOM     34  C   UNL A   1      40.996  26.118  27.966  1.00  0.00     0.031 A 
ATOM     35  C   UNL A   1      42.342  26.421  27.363  1.00  0.00     0.074 A 
ATOM     36  C   UNL A   1      40.385  27.035  28.735  1.00  0.00     0.049 A 
ATOM     37  N   UNL A   1      43.079  27.497  27.477  1.00  0.00    -0.248 NA
ATOM     38  C   UNL A   1      42.934  25.375  26.511  1.00  0.00     0.031 C 
ATOM     39  C   UNL A   1      39.064  26.888  29.342  1.00  0.00     0.029 A 
ATOM     40  N   UNL A   1      40.802  28.282  29.128  1.00  0.00    -0.354 N 
ATOM     41  C   UNL A   1      44.218  27.258  26.718  1.00  0.00     0.074 A 
ATOM     42  C   UNL A   1      44.089  25.926  26.169  1.00  0.00     0.031 C 
ATOM     43  C   UNL A   1      38.775  28.007  30.029  1.00  0.00     0.029 A 
ATOM     44  C   UNL A   1      39.900  28.936  29.930  1.00  0.00     0.049 A 
ATOM     45  H   UNL A   1      41.664  28.672  28.860  1.00  0.00     0.167 HD
ATOM     46  C   UNL A   1      45.273  28.074  26.488  1.00  0.00     0.031 A 
ATOM     47  C   UNL A   1      39.976  30.142  30.525  1.00  0.00     0.031 A 
ATOM     48  C   UNL A   1      45.414  29.397  27.034  1.00  0.00     0.049 A 
ATOM     49  C   UNL A   1      41.197  30.998  30.318  1.00  0.00     0.074 A 
ATOM     50  C   UNL A   1      46.441  30.305  26.840  1.00  0.00     0.029 A 
ATOM     51  N   UNL A   1      44.504  29.996  27.888  1.00  0.00    -0.354 N 
ATOM     52  N   UNL A   1      42.250  30.771  29.572  1.00  0.00    -0.248 NA
ATOM     53  C   UNL A   1      41.232  32.284  31.033  1.00  0.00     0.031 C 
ATOM     54  C   UNL A   1      46.175  31.436  27.618  1.00  0.00     0.029 A 
ATOM     55  C   UNL A   1      44.959  31.250  28.256  1.00  0.00     0.049 A 
ATOM     56  H   UNL A   1      43.659  29.591  28.190  1.00  0.00     0.167 HD
ATOM     57  C   UNL A   1      43.060  31.892  29.708  1.00  0.00     0.074 A 
ATOM     58  C   UNL A   1      42.370  32.804  30.598  1.00  0.00     0.031 C 
ATOM     59  C   UNL A   1      44.265  32.146  29.142  1.00  0.00     0.031 A 
BRANCH  46  60
ATOM     60  C   UNL A   1      46.381  27.542  25.625  1.00  0.00    -0.014 A 
ATOM     61  C   UNL A   1      46.493  27.913  24.275  1.00  0.00     0.009 A 
ATOM     62  C   UNL A   1      47.345  26.687  26.179  1.00  0.00     0.009 A 
ATOM     63  C   UNL A   1      47.535  27.413  23.492  1.00  0.00     0.001 A 
ATOM     64  C   UNL A   1      48.399  26.208  25.399  1.00  0.00     0.001 A 
ATOM     65  C   UNL A   1      48.489  26.566  24.055  1.00  0.00     0.000 A 
ENDBRANCH  46  60
BRANCH  47  66
ATOM     66  C   UNL A   1      38.867  30.615  31.393  1.00  0.00    -0.014 A 
ATOM     67  C   UNL A   1      37.811  31.367  30.858  1.00  0.00     0.009 A 
ATOM     68  C   UNL A   1      38.877  30.337  32.769  1.00  0.00     0.009 A 
ATOM     69  C   UNL A   1      36.797  31.850  31.688  1.00  0.00     0.001 A 
ATOM     70  C   UNL A   1      37.849  30.801  33.591  1.00  0.00     0.001 A 
ATOM     71  C   UNL A   1      36.815  31.564  33.053  1.00  0.00     0.000 A 
ENDBRANCH  47  66
BRANCH  59  72
ATOM     72  C   UNL A   1      44.903  33.473  29.444  1.00  0.00    -0.014 A 
ATOM     73  C   UNL A   1      44.628  34.605  28.662  1.00  0.00     0.009 A 
ATOM     74  C   UNL A   1      45.755  33.599  30.552  1.00  0.00     0.009 A 
ATOM     75  C   UNL A   1      45.219  35.833  28.969  1.00  0.00     0.001 A 
ATOM     76  C   UNL A   1      46.325  34.832  30.870  1.00  0.00     0.001 A 
ATOM     77  C   UNL A   1      46.062  35.946  30.074  1.00  0.00     0.000 A 
ENDBRANCH  59  72
ENDBRANCH  33  34
ENDBRANCH  26  28
ENDBRANCH  25  26
ENDBRANCH  24  25
ENDBRANCH   1  24
TORSDOF 16
ENDMDL
