MODEL 1
REMARK VINA RESULT:     -10.9      0.000      0.000
REMARK SMILES CC(=O)O[C@H]1[C@H](O)C(C)=C(CC[C@@H](C)CC(=O)OCCOCCOC(=O)c2ccc(-c3c4nc(c(-c5ccccc5)c5ccc([nH]5)c(-c5ccccc5)c5nc(c(-c6ccccc6)c6ccc3[nH]6)C=C5)C=C4)cc2)[C@@]2(C)CCCC(C)(C)[C@H]12
REMARK SMILES IDX 19 1 18 2 16 3 17 4 15 5 13 6 14 7 12 8 11 9 10 10 5 11 6 12
REMARK SMILES IDX 83 13 8 14 75 15 80 16 9 17 77 18 76 19 79 20 81 21 82 22
REMARK SMILES IDX 78 23 4 24 2 25 1 26 3 27 7 28 20 30 21 31 22 32 23 33 24 34
REMARK SMILES IDX 25 35 26 36 27 37 28 38 74 39 29 40 73 41 30 42 31 43 32 44
REMARK SMILES IDX 67 45 33 46 72 47 66 48 68 49 34 50 71 51 65 52 64 53 35 55
REMARK SMILES IDX 57 56 42 57 56 58 43 59 46 60 55 61 69 62 44 63 45 64 54 66
REMARK SMILES IDX 70 67 47 68 36 69 37 70 41 71 38 72 40 73 39 74 58 75 59 76
REMARK SMILES IDX 63 77 60 78 62 79 61 80 48 81 49 82 53 83 50 84 52 85 51 86
REMARK H PARENT 7 29 68 54 46 65
REMARK Flexibility Score: inf
ROOT
ATOM      1  C   UNL A   1      40.843  20.241  26.283  1.00  0.00     0.261 C 
ENDROOT
BRANCH   1   2
ATOM      2  O   UNL A   1      40.623  21.646  26.079  1.00  0.00    -0.463 OA
BRANCH   2   3
ATOM      3  C   UNL A   1      39.329  22.063  26.104  1.00  0.00     0.306 C 
ATOM      4  O   UNL A   1      38.906  23.045  26.699  1.00  0.00    -0.252 OA
BRANCH   3   5
ATOM      5  C   UNL A   1      38.443  21.078  25.386  1.00  0.00     0.126 C 
BRANCH   5   6
ATOM      6  C   UNL A   1      36.962  21.466  25.195  1.00  0.00    -0.003 C 
ATOM      7  C   UNL A   1      36.199  20.145  25.001  1.00  0.00     0.008 C 
BRANCH   6   8
ATOM      8  C   UNL A   1      36.736  22.503  24.052  1.00  0.00     0.008 C 
BRANCH   8   9
ATOM      9  C   UNL A   1      35.494  23.427  24.125  1.00  0.00     0.032 C 
BRANCH   9  10
ATOM     10  C   UNL A   1      34.099  22.983  24.617  1.00  0.00    -0.062 C 
ATOM     11  C   UNL A   1      32.293  24.083  22.749  1.00  0.00     0.213 C 
ATOM     12  C   UNL A   1      32.864  22.643  22.594  1.00  0.00     0.181 C 
ATOM     13  C   UNL A   1      32.492  24.819  24.158  1.00  0.00     0.049 C 
ATOM     14  C   UNL A   1      33.300  22.111  23.935  1.00  0.00    -0.042 C 
ATOM     15  C   UNL A   1      33.296  24.132  25.333  1.00  0.00    -0.004 C 
ATOM     16  C   UNL A   1      31.464  25.930  24.614  1.00  0.00    -0.028 C 
ATOM     17  C   UNL A   1      32.176  21.307  24.573  1.00  0.00     0.042 C 
ATOM     18  C   UNL A   1      34.136  25.304  25.990  1.00  0.00     0.011 C 
ATOM     19  C   UNL A   1      32.522  23.518  26.527  1.00  0.00     0.016 C 
ATOM     20  C   UNL A   1      32.391  27.094  25.064  1.00  0.00     0.007 C 
ATOM     21  C   UNL A   1      30.511  25.589  25.784  1.00  0.00     0.011 C 
ATOM     22  C   UNL A   1      30.539  26.402  23.478  1.00  0.00     0.011 C 
ATOM     23  C   UNL A   1      33.414  26.673  26.147  1.00  0.00     0.001 C 
BRANCH  11  24
ATOM     24  O   UNL A   1      33.145  24.876  21.834  1.00  0.00    -0.459 OA
BRANCH  24  25
ATOM     25  C   UNL A   1      32.659  25.956  21.187  1.00  0.00     0.303 C 
ATOM     26  C   UNL A   1      33.430  27.174  21.618  1.00  0.00     0.139 C 
ATOM     27  O   UNL A   1      31.711  25.951  20.420  1.00  0.00    -0.253 OA
ENDBRANCH  24  25
ENDBRANCH  11  24
BRANCH  12  28
ATOM     28  O   UNL A   1      31.942  21.743  21.976  1.00  0.00    -0.385 OA
ATOM     29  H   UNL A   1      31.158  21.646  22.538  1.00  0.00     0.211 HD
ENDBRANCH  12  28
ENDBRANCH   9  10
ENDBRANCH   8   9
ENDBRANCH   6   8
ENDBRANCH   5   6
ENDBRANCH   3   5
ENDBRANCH   2   3
ENDBRANCH   1   2
BRANCH   1  30
ATOM     30  C   UNL A   1      42.322  19.868  26.234  1.00  0.00     0.202 C 
BRANCH  30  31
ATOM     31  O   UNL A   1      43.005  20.408  25.107  1.00  0.00    -0.374 OA
BRANCH  31  32
ATOM     32  C   UNL A   1      44.435  20.363  25.153  1.00  0.00     0.202 C 
BRANCH  32  33
ATOM     33  C   UNL A   1      45.071  21.724  24.885  1.00  0.00     0.261 C 
BRANCH  33  34
ATOM     34  O   UNL A   1      44.119  22.757  25.206  1.00  0.00    -0.460 OA
BRANCH  34  35
ATOM     35  C   UNL A   1      44.601  24.009  25.188  1.00  0.00     0.338 C 
ATOM     36  O   UNL A   1      45.480  24.466  24.458  1.00  0.00    -0.246 OA
BRANCH  35  37
ATOM     37  C   UNL A   1      43.779  24.838  26.077  1.00  0.00     0.060 A 
ATOM     38  C   UNL A   1      44.105  26.193  26.204  1.00  0.00     0.016 A 
ATOM     39  C   UNL A   1      42.761  24.278  26.849  1.00  0.00     0.016 A 
ATOM     40  C   UNL A   1      43.444  26.981  27.147  1.00  0.00     0.010 A 
ATOM     41  C   UNL A   1      42.091  25.073  27.787  1.00  0.00     0.010 A 
ATOM     42  C   UNL A   1      42.456  26.418  27.969  1.00  0.00    -0.014 A 
BRANCH  42  43
ATOM     43  C   UNL A   1      41.909  27.205  29.105  1.00  0.00     0.031 A 
ATOM     44  C   UNL A   1      42.635  27.200  30.425  1.00  0.00     0.074 A 
ATOM     45  C   UNL A   1      40.798  27.950  28.957  1.00  0.00     0.049 A 
ATOM     46  N   UNL A   1      42.342  27.830  31.535  1.00  0.00    -0.248 NA
ATOM     47  C   UNL A   1      43.856  26.381  30.503  1.00  0.00     0.031 C 
ATOM     48  C   UNL A   1      40.020  28.074  27.726  1.00  0.00     0.029 A 
ATOM     49  N   UNL A   1      40.137  28.750  29.856  1.00  0.00    -0.354 N 
ATOM     50  C   UNL A   1      43.339  27.486  32.438  1.00  0.00     0.074 A 
ATOM     51  C   UNL A   1      44.225  26.565  31.762  1.00  0.00     0.031 C 
ATOM     52  C   UNL A   1      38.988  28.907  27.946  1.00  0.00     0.029 A 
ATOM     53  C   UNL A   1      39.016  29.351  29.338  1.00  0.00     0.049 A 
ATOM     54  H   UNL A   1      40.438  28.881  30.784  1.00  0.00     0.167 HD
ATOM     55  C   UNL A   1      43.512  27.907  33.715  1.00  0.00     0.031 A 
ATOM     56  C   UNL A   1      38.108  30.157  29.922  1.00  0.00     0.031 A 
ATOM     57  C   UNL A   1      42.629  28.811  34.402  1.00  0.00     0.049 A 
ATOM     58  C   UNL A   1      38.276  30.542  31.368  1.00  0.00     0.074 A 
ATOM     59  C   UNL A   1      42.729  29.301  35.692  1.00  0.00     0.029 A 
ATOM     60  N   UNL A   1      41.477  29.354  33.856  1.00  0.00    -0.354 N 
ATOM     61  N   UNL A   1      39.241  30.233  32.199  1.00  0.00    -0.248 NA
ATOM     62  C   UNL A   1      37.229  31.395  31.952  1.00  0.00     0.031 C 
ATOM     63  C   UNL A   1      41.610  30.102  35.945  1.00  0.00     0.029 A 
ATOM     64  C   UNL A   1      40.843  30.153  34.792  1.00  0.00     0.049 A 
ATOM     65  H   UNL A   1      41.157  29.195  32.938  1.00  0.00     0.167 HD
ATOM     66  C   UNL A   1      38.934  30.877  33.393  1.00  0.00     0.074 A 
ATOM     67  C   UNL A   1      37.700  31.602  33.175  1.00  0.00     0.031 C 
ATOM     68  C   UNL A   1      39.617  30.871  34.563  1.00  0.00     0.031 A 
BRANCH  55  69
ATOM     69  C   UNL A   1      44.699  27.370  34.465  1.00  0.00    -0.014 A 
ATOM     70  C   UNL A   1      45.942  28.022  34.422  1.00  0.00     0.009 A 
ATOM     71  C   UNL A   1      44.562  26.220  35.260  1.00  0.00     0.009 A 
ATOM     72  C   UNL A   1      47.030  27.516  35.136  1.00  0.00     0.001 A 
ATOM     73  C   UNL A   1      45.645  25.732  35.992  1.00  0.00     0.001 A 
ATOM     74  C   UNL A   1      46.879  26.374  35.924  1.00  0.00     0.000 A 
ENDBRANCH  55  69
BRANCH  56  75
ATOM     75  C   UNL A   1      36.943  30.654  29.144  1.00  0.00    -0.014 A 
ATOM     76  C   UNL A   1      35.906  29.784  28.774  1.00  0.00     0.009 A 
ATOM     77  C   UNL A   1      36.874  31.999  28.749  1.00  0.00     0.009 A 
ATOM     78  C   UNL A   1      34.836  30.246  28.003  1.00  0.00     0.001 A 
ATOM     79  C   UNL A   1      35.790  32.464  28.002  1.00  0.00     0.001 A 
ATOM     80  C   UNL A   1      34.777  31.586  27.622  1.00  0.00     0.000 A 
ENDBRANCH  56  75
BRANCH  68  81
ATOM     81  C   UNL A   1      39.068  31.701  35.689  1.00  0.00    -0.014 A 
ATOM     82  C   UNL A   1      39.381  33.063  35.811  1.00  0.00     0.009 A 
ATOM     83  C   UNL A   1      38.183  31.121  36.612  1.00  0.00     0.009 A 
ATOM     84  C   UNL A   1      38.841  33.821  36.853  1.00  0.00     0.001 A 
ATOM     85  C   UNL A   1      37.624  31.886  37.637  1.00  0.00     0.001 A 
ATOM     86  C   UNL A   1      37.960  33.233  37.761  1.00  0.00     0.000 A 
ENDBRANCH  68  81
ENDBRANCH  42  43
ENDBRANCH  35  37
ENDBRANCH  34  35
ENDBRANCH  33  34
ENDBRANCH  32  33
ENDBRANCH  31  32
ENDBRANCH  30  31
ENDBRANCH   1  30
TORSDOF 21
ENDMDL
MODEL 2
REMARK VINA RESULT:     -10.9      4.485     10.102
REMARK SMILES CC(=O)O[C@H]1[C@H](O)C(C)=C(CC[C@@H](C)CC(=O)OCCOCCOC(=O)c2ccc(-c3c4nc(c(-c5ccccc5)c5ccc([nH]5)c(-c5ccccc5)c5nc(c(-c6ccccc6)c6ccc3[nH]6)C=C5)C=C4)cc2)[C@@]2(C)CCCC(C)(C)[C@H]12
REMARK SMILES IDX 19 1 18 2 16 3 17 4 15 5 13 6 14 7 12 8 11 9 10 10 5 11 6 12
REMARK SMILES IDX 83 13 8 14 75 15 80 16 9 17 77 18 76 19 79 20 81 21 82 22
REMARK SMILES IDX 78 23 4 24 2 25 1 26 3 27 7 28 20 30 21 31 22 32 23 33 24 34
REMARK SMILES IDX 25 35 26 36 27 37 28 38 74 39 29 40 73 41 30 42 31 43 32 44
REMARK SMILES IDX 67 45 33 46 72 47 66 48 68 49 34 50 71 51 65 52 64 53 35 55
REMARK SMILES IDX 57 56 42 57 56 58 43 59 46 60 55 61 69 62 44 63 45 64 54 66
REMARK SMILES IDX 70 67 47 68 36 69 37 70 41 71 38 72 40 73 39 74 58 75 59 76
REMARK SMILES IDX 63 77 60 78 62 79 61 80 48 81 49 82 53 83 50 84 52 85 51 86
REMARK H PARENT 7 29 68 54 46 65
REMARK Flexibility Score: inf
ROOT
ATOM      1  C   UNL A   1      34.512  34.342  29.651  1.00  0.00     0.261 C 
ENDROOT
BRANCH   1   2
ATOM      2  O   UNL A   1      34.228  32.980  29.293  1.00  0.00    -0.463 OA
BRANCH   2   3
ATOM      3  C   UNL A   1      34.740  32.547  28.111  1.00  0.00     0.306 C 
ATOM      4  O   UNL A   1      35.805  32.897  27.621  1.00  0.00    -0.252 OA
BRANCH   3   5
ATOM      5  C   UNL A   1      33.756  31.647  27.408  1.00  0.00     0.126 C 
BRANCH   5   6
ATOM      6  C   UNL A   1      33.724  30.164  27.832  1.00  0.00    -0.003 C 
ATOM      7  C   UNL A   1      35.027  29.542  27.301  1.00  0.00     0.008 C 
BRANCH   6   8
ATOM      8  C   UNL A   1      32.433  29.417  27.375  1.00  0.00     0.008 C 
BRANCH   8   9
ATOM      9  C   UNL A   1      32.573  27.995  26.775  1.00  0.00     0.032 C 
BRANCH   9  10
ATOM     10  C   UNL A   1      31.481  27.283  25.946  1.00  0.00    -0.062 C 
ATOM     11  C   UNL A   1      32.591  24.770  25.300  1.00  0.00     0.213 C 
ATOM     12  C   UNL A   1      31.707  24.981  26.565  1.00  0.00     0.181 C 
ATOM     13  C   UNL A   1      32.598  25.927  24.192  1.00  0.00     0.049 C 
ATOM     14  C   UNL A   1      30.808  26.176  26.376  1.00  0.00    -0.042 C 
ATOM     15  C   UNL A   1      31.785  27.265  24.401  1.00  0.00    -0.004 C 
ATOM     16  C   UNL A   1      32.912  25.566  22.685  1.00  0.00    -0.028 C 
ATOM     17  C   UNL A   1      29.455  25.736  25.833  1.00  0.00     0.042 C 
ATOM     18  C   UNL A   1      32.726  28.406  23.834  1.00  0.00     0.011 C 
ATOM     19  C   UNL A   1      30.452  27.473  23.638  1.00  0.00     0.016 C 
ATOM     20  C   UNL A   1      33.975  26.629  22.289  1.00  0.00     0.007 C 
ATOM     21  C   UNL A   1      31.746  25.645  21.670  1.00  0.00     0.011 C 
ATOM     22  C   UNL A   1      33.490  24.150  22.509  1.00  0.00     0.011 C 
ATOM     23  C   UNL A   1      33.498  28.082  22.522  1.00  0.00     0.001 C 
BRANCH  11  24
ATOM     24  O   UNL A   1      33.966  24.822  25.847  1.00  0.00    -0.459 OA
BRANCH  24  25
ATOM     25  C   UNL A   1      34.768  23.737  25.826  1.00  0.00     0.303 C 
ATOM     26  C   UNL A   1      34.356  22.802  26.931  1.00  0.00     0.139 C 
ATOM     27  O   UNL A   1      35.708  23.569  25.069  1.00  0.00    -0.253 OA
ENDBRANCH  24  25
ENDBRANCH  11  24
BRANCH  12  28
ATOM     28  O   UNL A   1      30.937  23.825  26.904  1.00  0.00    -0.385 OA
ATOM     29  H   UNL A   1      31.449  23.260  27.502  1.00  0.00     0.211 HD
ENDBRANCH  12  28
ENDBRANCH   9  10
ENDBRANCH   8   9
ENDBRANCH   6   8
ENDBRANCH   5   6
ENDBRANCH   3   5
ENDBRANCH   2   3
ENDBRANCH   1   2
BRANCH   1  30
ATOM     30  C   UNL A   1      33.283  35.075  30.179  1.00  0.00     0.202 C 
BRANCH  30  31
ATOM     31  O   UNL A   1      33.107  34.947  31.586  1.00  0.00    -0.374 OA
BRANCH  31  32
ATOM     32  C   UNL A   1      34.286  34.668  32.349  1.00  0.00     0.202 C 
BRANCH  32  33
ATOM     33  C   UNL A   1      34.181  33.360  33.128  1.00  0.00     0.261 C 
BRANCH  33  34
ATOM     34  O   UNL A   1      35.088  32.399  32.555  1.00  0.00    -0.460 OA
BRANCH  34  35
ATOM     35  C   UNL A   1      36.241  32.228  33.220  1.00  0.00     0.338 C 
ATOM     36  O   UNL A   1      36.466  32.461  34.408  1.00  0.00    -0.246 OA
BRANCH  35  37
ATOM     37  C   UNL A   1      37.188  31.533  32.342  1.00  0.00     0.060 A 
ATOM     38  C   UNL A   1      38.216  30.791  32.934  1.00  0.00     0.016 A 
ATOM     39  C   UNL A   1      37.128  31.681  30.955  1.00  0.00     0.016 A 
ATOM     40  C   UNL A   1      39.220  30.237  32.139  1.00  0.00     0.010 A 
ATOM     41  C   UNL A   1      38.131  31.115  30.159  1.00  0.00     0.010 A 
ATOM     42  C   UNL A   1      39.204  30.424  30.749  1.00  0.00    -0.014 A 
BRANCH  42  43
ATOM     43  C   UNL A   1      40.379  30.014  29.937  1.00  0.00     0.031 A 
ATOM     44  C   UNL A   1      40.386  28.660  29.278  1.00  0.00     0.074 A 
ATOM     45  C   UNL A   1      41.416  30.852  29.752  1.00  0.00     0.049 A 
ATOM     46  N   UNL A   1      41.298  28.114  28.514  1.00  0.00    -0.248 NA
ATOM     47  C   UNL A   1      39.206  27.810  29.507  1.00  0.00     0.031 C 
ATOM     48  C   UNL A   1      41.522  32.203  30.300  1.00  0.00     0.029 A 
ATOM     49  N   UNL A   1      42.579  30.685  29.041  1.00  0.00    -0.354 N 
ATOM     50  C   UNL A   1      40.803  26.863  28.170  1.00  0.00     0.074 A 
ATOM     51  C   UNL A   1      39.528  26.713  28.837  1.00  0.00     0.031 C 
ATOM     52  C   UNL A   1      42.685  32.745  29.900  1.00  0.00     0.029 A 
ATOM     53  C   UNL A   1      43.418  31.771  29.094  1.00  0.00     0.049 A 
ATOM     54  H   UNL A   1      42.791  29.865  28.540  1.00  0.00     0.167 HD
ATOM     55  C   UNL A   1      41.352  25.923  27.362  1.00  0.00     0.031 A 
ATOM     56  C   UNL A   1      44.642  31.956  28.563  1.00  0.00     0.031 A 
ATOM     57  C   UNL A   1      42.626  26.056  26.707  1.00  0.00     0.049 A 
ATOM     58  C   UNL A   1      45.269  30.862  27.740  1.00  0.00     0.074 A 
ATOM     59  C   UNL A   1      43.258  25.160  25.862  1.00  0.00     0.029 A 
ATOM     60  N   UNL A   1      43.466  27.151  26.831  1.00  0.00    -0.354 N 
ATOM     61  N   UNL A   1      44.775  29.697  27.399  1.00  0.00    -0.248 NA
ATOM     62  C   UNL A   1      46.622  31.115  27.222  1.00  0.00     0.031 C 
ATOM     63  C   UNL A   1      44.505  25.692  25.514  1.00  0.00     0.029 A 
ATOM     64  C   UNL A   1      44.622  26.943  26.099  1.00  0.00     0.049 A 
ATOM     65  H   UNL A   1      43.268  27.958  27.360  1.00  0.00     0.167 HD
ATOM     66  C   UNL A   1      45.741  29.092  26.603  1.00  0.00     0.074 A 
ATOM     67  C   UNL A   1      46.846  30.023  26.503  1.00  0.00     0.031 C 
ATOM     68  C   UNL A   1      45.714  27.877  26.005  1.00  0.00     0.031 A 
BRANCH  55  69
ATOM     69  C   UNL A   1      40.581  24.648  27.160  1.00  0.00    -0.014 A 
ATOM     70  C   UNL A   1      39.407  24.624  26.390  1.00  0.00     0.009 A 
ATOM     71  C   UNL A   1      41.058  23.449  27.712  1.00  0.00     0.009 A 
ATOM     72  C   UNL A   1      38.711  23.428  26.203  1.00  0.00     0.001 A 
ATOM     73  C   UNL A   1      40.374  22.251  27.500  1.00  0.00     0.001 A 
ATOM     74  C   UNL A   1      39.197  22.242  26.754  1.00  0.00     0.000 A 
ENDBRANCH  55  69
BRANCH  56  75
ATOM     75  C   UNL A   1      45.373  33.228  28.801  1.00  0.00    -0.014 A 
ATOM     76  C   UNL A   1      46.206  33.377  29.921  1.00  0.00     0.009 A 
ATOM     77  C   UNL A   1      45.224  34.308  27.918  1.00  0.00     0.009 A 
ATOM     78  C   UNL A   1      46.853  34.591  30.164  1.00  0.00     0.001 A 
ATOM     79  C   UNL A   1      45.893  35.511  28.148  1.00  0.00     0.001 A 
ATOM     80  C   UNL A   1      46.701  35.655  29.276  1.00  0.00     0.000 A 
ENDBRANCH  56  75
BRANCH  68  81
ATOM     81  C   UNL A   1      46.894  27.494  25.158  1.00  0.00    -0.014 A 
ATOM     82  C   UNL A   1      46.964  27.846  23.802  1.00  0.00     0.009 A 
ATOM     83  C   UNL A   1      47.976  26.816  25.742  1.00  0.00     0.009 A 
ATOM     84  C   UNL A   1      48.083  27.501  23.040  1.00  0.00     0.001 A 
ATOM     85  C   UNL A   1      49.104  26.494  24.985  1.00  0.00     0.001 A 
ATOM     86  C   UNL A   1      49.153  26.830  23.633  1.00  0.00     0.000 A 
ENDBRANCH  68  81
ENDBRANCH  42  43
ENDBRANCH  35  37
ENDBRANCH  34  35
ENDBRANCH  33  34
ENDBRANCH  32  33
ENDBRANCH  31  32
ENDBRANCH  30  31
ENDBRANCH   1  30
TORSDOF 21
ENDMDL
MODEL 3
REMARK VINA RESULT:     -10.9      4.488      9.783
REMARK SMILES CC(=O)O[C@H]1[C@H](O)C(C)=C(CC[C@@H](C)CC(=O)OCCOCCOC(=O)c2ccc(-c3c4nc(c(-c5ccccc5)c5ccc([nH]5)c(-c5ccccc5)c5nc(c(-c6ccccc6)c6ccc3[nH]6)C=C5)C=C4)cc2)[C@@]2(C)CCCC(C)(C)[C@H]12
REMARK SMILES IDX 19 1 18 2 16 3 17 4 15 5 13 6 14 7 12 8 11 9 10 10 5 11 6 12
REMARK SMILES IDX 83 13 8 14 75 15 80 16 9 17 77 18 76 19 79 20 81 21 82 22
REMARK SMILES IDX 78 23 4 24 2 25 1 26 3 27 7 28 20 30 21 31 22 32 23 33 24 34
REMARK SMILES IDX 25 35 26 36 27 37 28 38 74 39 29 40 73 41 30 42 31 43 32 44
REMARK SMILES IDX 67 45 33 46 72 47 66 48 68 49 34 50 71 51 65 52 64 53 35 55
REMARK SMILES IDX 57 56 42 57 56 58 43 59 46 60 55 61 69 62 44 63 45 64 54 66
REMARK SMILES IDX 70 67 47 68 36 69 37 70 41 71 38 72 40 73 39 74 58 75 59 76
REMARK SMILES IDX 63 77 60 78 62 79 61 80 48 81 49 82 53 83 50 84 52 85 51 86
REMARK H PARENT 7 29 68 54 46 65
REMARK Flexibility Score: inf
ROOT
ATOM      1  C   UNL A   1      34.659  33.826  29.480  1.00  0.00     0.261 C 
ENDROOT
BRANCH   1   2
ATOM      2  O   UNL A   1      34.260  32.460  29.281  1.00  0.00    -0.463 OA
BRANCH   2   3
ATOM      3  C   UNL A   1      34.721  31.855  28.154  1.00  0.00     0.306 C 
ATOM      4  O   UNL A   1      35.849  31.962  27.695  1.00  0.00    -0.252 OA
BRANCH   3   5
ATOM      5  C   UNL A   1      33.607  31.110  27.463  1.00  0.00     0.126 C 
BRANCH   5   6
ATOM      6  C   UNL A   1      33.600  29.572  27.588  1.00  0.00    -0.003 C 
ATOM      7  C   UNL A   1      34.762  29.070  26.715  1.00  0.00     0.008 C 
BRANCH   6   8
ATOM      8  C   UNL A   1      32.222  28.930  27.240  1.00  0.00     0.008 C 
BRANCH   8   9
ATOM      9  C   UNL A   1      32.202  27.513  26.613  1.00  0.00     0.032 C 
BRANCH   9  10
ATOM     10  C   UNL A   1      31.941  27.219  25.119  1.00  0.00    -0.062 C 
ATOM     11  C   UNL A   1      30.640  24.716  25.094  1.00  0.00     0.213 C 
ATOM     12  C   UNL A   1      29.848  26.056  25.125  1.00  0.00     0.181 C 
ATOM     13  C   UNL A   1      32.203  24.778  24.749  1.00  0.00     0.049 C 
ATOM     14  C   UNL A   1      30.694  27.171  24.565  1.00  0.00    -0.042 C 
ATOM     15  C   UNL A   1      32.933  26.159  24.510  1.00  0.00    -0.004 C 
ATOM     16  C   UNL A   1      32.912  23.527  24.092  1.00  0.00    -0.028 C 
ATOM     17  C   UNL A   1      30.413  27.351  23.080  1.00  0.00     0.042 C 
ATOM     18  C   UNL A   1      34.345  26.000  25.212  1.00  0.00     0.011 C 
ATOM     19  C   UNL A   1      33.287  26.593  23.065  1.00  0.00     0.016 C 
ATOM     20  C   UNL A   1      34.184  23.351  24.968  1.00  0.00     0.007 C 
ATOM     21  C   UNL A   1      33.354  23.647  22.614  1.00  0.00     0.011 C 
ATOM     22  C   UNL A   1      32.054  22.249  24.143  1.00  0.00     0.011 C 
ATOM     23  C   UNL A   1      35.056  24.627  25.039  1.00  0.00     0.001 C 
BRANCH  11  24
ATOM     24  O   UNL A   1      30.626  24.292  26.513  1.00  0.00    -0.459 OA
BRANCH  24  25
ATOM     25  C   UNL A   1      30.588  22.986  26.851  1.00  0.00     0.303 C 
ATOM     26  C   UNL A   1      31.823  22.648  27.642  1.00  0.00     0.139 C 
ATOM     27  O   UNL A   1      29.719  22.197  26.521  1.00  0.00    -0.253 OA
ENDBRANCH  24  25
ENDBRANCH  11  24
BRANCH  12  28
ATOM     28  O   UNL A   1      28.600  25.981  24.432  1.00  0.00    -0.385 OA
ATOM     29  H   UNL A   1      27.902  26.372  24.980  1.00  0.00     0.211 HD
ENDBRANCH  12  28
ENDBRANCH   9  10
ENDBRANCH   8   9
ENDBRANCH   6   8
ENDBRANCH   5   6
ENDBRANCH   3   5
ENDBRANCH   2   3
ENDBRANCH   1   2
BRANCH   1  30
ATOM     30  C   UNL A   1      33.517  34.698  29.993  1.00  0.00     0.202 C 
BRANCH  30  31
ATOM     31  O   UNL A   1      33.725  35.188  31.313  1.00  0.00    -0.374 OA
BRANCH  31  32
ATOM     32  C   UNL A   1      34.861  34.665  32.011  1.00  0.00     0.202 C 
BRANCH  32  33
ATOM     33  C   UNL A   1      34.465  33.741  33.159  1.00  0.00     0.261 C 
BRANCH  33  34
ATOM     34  O   UNL A   1      35.096  32.459  32.968  1.00  0.00    -0.460 OA
BRANCH  34  35
ATOM     35  C   UNL A   1      36.296  32.316  33.551  1.00  0.00     0.338 C 
ATOM     36  O   UNL A   1      36.608  32.596  34.709  1.00  0.00    -0.246 OA
BRANCH  35  37
ATOM     37  C   UNL A   1      37.178  31.588  32.633  1.00  0.00     0.060 A 
ATOM     38  C   UNL A   1      38.200  30.806  33.180  1.00  0.00     0.016 A 
ATOM     39  C   UNL A   1      37.065  31.742  31.250  1.00  0.00     0.016 A 
ATOM     40  C   UNL A   1      39.148  30.216  32.343  1.00  0.00     0.010 A 
ATOM     41  C   UNL A   1      38.010  31.140  30.411  1.00  0.00     0.010 A 
ATOM     42  C   UNL A   1      39.080  30.408  30.955  1.00  0.00    -0.014 A 
BRANCH  42  43
ATOM     43  C   UNL A   1      40.204  29.955  30.093  1.00  0.00     0.031 A 
ATOM     44  C   UNL A   1      41.364  30.883  29.844  1.00  0.00     0.074 A 
ATOM     45  C   UNL A   1      40.216  28.716  29.569  1.00  0.00     0.049 A 
ATOM     46  N   UNL A   1      42.451  30.682  29.143  1.00  0.00    -0.248 NA
ATOM     47  C   UNL A   1      41.290  32.214  30.471  1.00  0.00     0.031 C 
ATOM     48  C   UNL A   1      39.178  27.705  29.761  1.00  0.00     0.029 A 
ATOM     49  N   UNL A   1      41.145  28.098  28.768  1.00  0.00    -0.354 N 
ATOM     50  C   UNL A   1      43.190  31.854  29.247  1.00  0.00     0.074 A 
ATOM     51  C   UNL A   1      42.413  32.775  30.046  1.00  0.00     0.031 C 
ATOM     52  C   UNL A   1      39.530  26.589  29.100  1.00  0.00     0.029 A 
ATOM     53  C   UNL A   1      40.801  26.815  28.416  1.00  0.00     0.049 A 
ATOM     54  H   UNL A   1      41.978  28.532  28.476  1.00  0.00     0.167 HD
ATOM     55  C   UNL A   1      44.411  32.138  28.733  1.00  0.00     0.031 A 
ATOM     56  C   UNL A   1      41.432  25.928  27.623  1.00  0.00     0.031 A 
ATOM     57  C   UNL A   1      45.185  31.234  27.924  1.00  0.00     0.049 A 
ATOM     58  C   UNL A   1      42.749  26.300  26.992  1.00  0.00     0.074 A 
ATOM     59  C   UNL A   1      46.437  31.431  27.368  1.00  0.00     0.029 A 
ATOM     60  N   UNL A   1      44.775  29.965  27.548  1.00  0.00    -0.354 N 
ATOM     61  N   UNL A   1      43.448  27.400  27.125  1.00  0.00    -0.248 NA
ATOM     62  C   UNL A   1      43.366  25.299  26.109  1.00  0.00     0.031 C 
ATOM     63  C   UNL A   1      46.764  30.299  26.613  1.00  0.00     0.029 A 
ATOM     64  C   UNL A   1      45.738  29.377  26.746  1.00  0.00     0.049 A 
ATOM     65  H   UNL A   1      43.926  29.543  27.813  1.00  0.00     0.167 HD
ATOM     66  C   UNL A   1      44.599  27.212  26.368  1.00  0.00     0.074 A 
ATOM     67  C   UNL A   1      44.510  25.889  25.787  1.00  0.00     0.031 C 
ATOM     68  C   UNL A   1      45.639  28.059  26.176  1.00  0.00     0.031 A 
BRANCH  55  69
ATOM     69  C   UNL A   1      44.980  33.501  29.014  1.00  0.00    -0.014 A 
ATOM     70  C   UNL A   1      45.694  33.760  30.194  1.00  0.00     0.009 A 
ATOM     71  C   UNL A   1      44.836  34.527  28.066  1.00  0.00     0.009 A 
ATOM     72  C   UNL A   1      46.227  35.029  30.432  1.00  0.00     0.001 A 
ATOM     73  C   UNL A   1      45.392  35.786  28.296  1.00  0.00     0.001 A 
ATOM     74  C   UNL A   1      46.079  36.039  29.482  1.00  0.00     0.000 A 
ENDBRANCH  55  69
BRANCH  56  75
ATOM     75  C   UNL A   1      40.826  24.597  27.362  1.00  0.00    -0.014 A 
ATOM     76  C   UNL A   1      39.690  24.474  26.546  1.00  0.00     0.009 A 
ATOM     77  C   UNL A   1      41.368  23.443  27.947  1.00  0.00     0.009 A 
ATOM     78  C   UNL A   1      39.096  23.226  26.343  1.00  0.00     0.001 A 
ATOM     79  C   UNL A   1      40.789  22.193  27.721  1.00  0.00     0.001 A 
ATOM     80  C   UNL A   1      39.649  22.086  26.926  1.00  0.00     0.000 A 
ENDBRANCH  56  75
BRANCH  68  81
ATOM     81  C   UNL A   1      46.783  27.571  25.332  1.00  0.00    -0.014 A 
ATOM     82  C   UNL A   1      46.878  27.899  23.971  1.00  0.00     0.009 A 
ATOM     83  C   UNL A   1      47.807  26.814  25.923  1.00  0.00     0.009 A 
ATOM     84  C   UNL A   1      47.963  27.454  23.212  1.00  0.00     0.001 A 
ATOM     85  C   UNL A   1      48.903  26.391  25.168  1.00  0.00     0.001 A 
ATOM     86  C   UNL A   1      48.975  26.705  23.812  1.00  0.00     0.000 A 
ENDBRANCH  68  81
ENDBRANCH  42  43
ENDBRANCH  35  37
ENDBRANCH  34  35
ENDBRANCH  33  34
ENDBRANCH  32  33
ENDBRANCH  31  32
ENDBRANCH  30  31
ENDBRANCH   1  30
TORSDOF 21
ENDMDL
