MODEL 1
REMARK VINA RESULT:     -10.3      0.000      0.000
REMARK SMILES CC1=C(C)C[C@@H](C(=O)N[C@H](C)C(C)(C)C)[C@@H](C(=O)OCCOCCOC(=O)c2ccc(-c3c4nc(c(-c5ccccc5)c5ccc([nH]5)c(-c5ccccc5)c5nc(c(-c6ccccc6)c6ccc3[nH]6)C=C5)C=C4)cc2)C1
REMARK SMILES IDX 21 1 20 2 19 3 17 4 18 5 16 6 1 7 2 8 3 9 76 10 4 11 5 12
REMARK SMILES IDX 6 13 7 14 8 15 9 16 10 18 11 19 12 20 13 21 14 22 15 23
REMARK SMILES IDX 22 24 23 25 24 26 25 27 26 28 27 29 28 30 29 31 75 32 30 33
REMARK SMILES IDX 74 34 31 35 32 36 33 37 68 38 34 39 73 40 67 41 69 42 35 43
REMARK SMILES IDX 72 44 66 45 65 46 36 48 58 49 43 50 57 51 44 52 47 53 56 54
REMARK SMILES IDX 70 55 45 56 46 57 55 59 71 60 48 61 37 62 38 63 42 64 39 65
REMARK SMILES IDX 41 66 40 67 59 68 60 69 64 70 61 71 63 72 62 73 49 74 50 75
REMARK SMILES IDX 54 76 51 77 53 78 52 79
REMARK H PARENT 9 17 69 47 47 58
REMARK Flexibility Score: inf
ROOT
ATOM      1  C   UNL A   1      40.604  21.222  26.157  1.00  0.00     0.202 C 
ENDROOT
BRANCH   1   2
ATOM      2  C   UNL A   1      39.263  21.988  26.348  1.00  0.00     0.261 C 
BRANCH   2   3
ATOM      3  O   UNL A   1      38.315  21.984  25.271  1.00  0.00    -0.463 OA
BRANCH   3   4
ATOM      4  C   UNL A   1      37.147  22.511  25.688  1.00  0.00     0.310 C 
ATOM      5  O   UNL A   1      37.085  23.663  26.069  1.00  0.00    -0.252 OA
BRANCH   4   6
ATOM      6  C   UNL A   1      35.956  21.607  25.631  1.00  0.00     0.116 C 
ATOM      7  C   UNL A   1      32.845  22.532  27.843  1.00  0.00     0.039 C 
ATOM      8  C   UNL A   1      33.576  22.022  26.626  1.00  0.00    -0.073 C 
ATOM      9  C   UNL A   1      32.994  21.716  25.447  1.00  0.00    -0.074 C 
ATOM     10  C   UNL A   1      35.071  21.897  26.850  1.00  0.00     0.046 C 
ATOM     11  C   UNL A   1      31.513  21.755  25.157  1.00  0.00     0.039 C 
ATOM     12  C   UNL A   1      33.806  21.269  24.261  1.00  0.00     0.045 C 
ATOM     13  C   UNL A   1      35.263  21.718  24.258  1.00  0.00     0.097 C 
BRANCH  13  14
ATOM     14  C   UNL A   1      35.515  22.932  23.322  1.00  0.00     0.224 C 
ATOM     15  O   UNL A   1      36.525  22.900  22.602  1.00  0.00    -0.275 OA
ATOM     16  N   UNL A   1      34.721  24.033  23.198  1.00  0.00    -0.353 N 
ATOM     17  H   UNL A   1      35.130  24.762  22.676  1.00  0.00     0.163 HD
BRANCH  16  18
ATOM     18  C   UNL A   1      33.375  24.341  23.693  1.00  0.00     0.084 C 
ATOM     19  C   UNL A   1      32.510  24.525  22.436  1.00  0.00     0.031 C 
BRANCH  18  20
ATOM     20  C   UNL A   1      33.237  25.576  24.699  1.00  0.00    -0.018 C 
ATOM     21  C   UNL A   1      31.867  25.470  25.413  1.00  0.00     0.013 C 
ATOM     22  C   UNL A   1      34.257  25.640  25.856  1.00  0.00     0.013 C 
ATOM     23  C   UNL A   1      33.349  26.925  23.973  1.00  0.00     0.013 C 
ENDBRANCH  18  20
ENDBRANCH  16  18
ENDBRANCH  13  14
ENDBRANCH   4   6
ENDBRANCH   3   4
ENDBRANCH   2   3
ENDBRANCH   1   2
BRANCH   1  24
ATOM     24  O   UNL A   1      41.877  21.685  26.579  1.00  0.00    -0.374 OA
BRANCH  24  25
ATOM     25  C   UNL A   1      43.089  21.307  25.960  1.00  0.00     0.202 C 
BRANCH  25  26
ATOM     26  C   UNL A   1      43.696  22.199  24.880  1.00  0.00     0.261 C 
BRANCH  26  27
ATOM     27  O   UNL A   1      43.065  23.475  24.758  1.00  0.00    -0.460 OA
BRANCH  27  28
ATOM     28  C   UNL A   1      43.838  24.520  25.138  1.00  0.00     0.338 C 
ATOM     29  O   UNL A   1      44.930  24.838  24.700  1.00  0.00    -0.246 OA
BRANCH  28  30
ATOM     30  C   UNL A   1      43.072  25.366  26.068  1.00  0.00     0.060 A 
ATOM     31  C   UNL A   1      43.265  26.752  26.000  1.00  0.00     0.016 A 
ATOM     32  C   UNL A   1      42.179  24.810  26.986  1.00  0.00     0.016 A 
ATOM     33  C   UNL A   1      42.588  27.592  26.874  1.00  0.00     0.010 A 
ATOM     34  C   UNL A   1      41.525  25.650  27.888  1.00  0.00     0.010 A 
ATOM     35  C   UNL A   1      41.760  27.037  27.855  1.00  0.00    -0.014 A 
BRANCH  35  36
ATOM     36  C   UNL A   1      41.334  27.879  28.989  1.00  0.00     0.031 A 
ATOM     37  C   UNL A   1      42.105  27.766  30.273  1.00  0.00     0.074 A 
ATOM     38  C   UNL A   1      40.313  28.743  28.867  1.00  0.00     0.049 A 
ATOM     39  N   UNL A   1      41.900  28.360  31.419  1.00  0.00    -0.248 NA
ATOM     40  C   UNL A   1      43.266  26.859  30.261  1.00  0.00     0.031 C 
ATOM     41  C   UNL A   1      39.539  28.975  27.649  1.00  0.00     0.029 A 
ATOM     42  N   UNL A   1      39.751  29.581  29.794  1.00  0.00    -0.354 N 
ATOM     43  C   UNL A   1      42.897  27.891  32.264  1.00  0.00     0.074 A 
ATOM     44  C   UNL A   1      43.689  26.944  31.512  1.00  0.00     0.031 C 
ATOM     45  C   UNL A   1      38.588  29.889  27.909  1.00  0.00     0.029 A 
ATOM     46  C   UNL A   1      38.666  30.274  29.316  1.00  0.00     0.049 A 
ATOM     47  H   UNL A   1      40.091  29.677  30.712  1.00  0.00     0.167 HD
ATOM     48  C   UNL A   1      43.135  28.224  33.552  1.00  0.00     0.031 A 
ATOM     49  C   UNL A   1      37.820  31.101  29.959  1.00  0.00     0.031 A 
ATOM     50  C   UNL A   1      42.326  29.149  34.299  1.00  0.00     0.049 A 
ATOM     51  C   UNL A   1      38.048  31.384  31.421  1.00  0.00     0.074 A 
ATOM     52  C   UNL A   1      42.473  29.560  35.611  1.00  0.00     0.029 A 
ATOM     53  N   UNL A   1      41.210  29.800  33.794  1.00  0.00    -0.354 N 
ATOM     54  N   UNL A   1      39.001  30.950  32.210  1.00  0.00    -0.248 NA
ATOM     55  C   UNL A   1      37.085  32.278  32.078  1.00  0.00     0.031 C 
ATOM     56  C   UNL A   1      41.408  30.412  35.918  1.00  0.00     0.029 A 
ATOM     57  C   UNL A   1      40.639  30.588  34.778  1.00  0.00     0.049 A 
ATOM     58  H   UNL A   1      40.874  29.714  32.872  1.00  0.00     0.167 HD
ATOM     59  C   UNL A   1      38.772  31.541  33.447  1.00  0.00     0.074 A 
ATOM     60  C   UNL A   1      37.597  32.376  33.297  1.00  0.00     0.031 C 
ATOM     61  C   UNL A   1      39.470  31.409  34.602  1.00  0.00     0.031 A 
BRANCH  48  62
ATOM     62  C   UNL A   1      44.285  27.546  34.242  1.00  0.00    -0.014 A 
ATOM     63  C   UNL A   1      45.572  28.109  34.243  1.00  0.00     0.009 A 
ATOM     64  C   UNL A   1      44.076  26.332  34.912  1.00  0.00     0.009 A 
ATOM     65  C   UNL A   1      46.631  27.450  34.872  1.00  0.00     0.001 A 
ATOM     66  C   UNL A   1      45.129  25.691  35.565  1.00  0.00     0.001 A 
ATOM     67  C   UNL A   1      46.408  26.245  35.537  1.00  0.00     0.000 A 
ENDBRANCH  48  62
BRANCH  49  68
ATOM     68  C   UNL A   1      36.664  31.695  29.237  1.00  0.00    -0.014 A 
ATOM     69  C   UNL A   1      35.466  30.981  29.085  1.00  0.00     0.009 A 
ATOM     70  C   UNL A   1      36.762  32.979  28.676  1.00  0.00     0.009 A 
ATOM     71  C   UNL A   1      34.402  31.529  28.365  1.00  0.00     0.001 A 
ATOM     72  C   UNL A   1      35.685  33.538  27.984  1.00  0.00     0.001 A 
ATOM     73  C   UNL A   1      34.510  32.807  27.820  1.00  0.00     0.000 A 
ENDBRANCH  49  68
BRANCH  61  74
ATOM     74  C   UNL A   1      39.008  32.219  35.782  1.00  0.00    -0.014 A 
ATOM     75  C   UNL A   1      38.199  31.660  36.782  1.00  0.00     0.009 A 
ATOM     76  C   UNL A   1      39.437  33.550  35.917  1.00  0.00     0.009 A 
ATOM     77  C   UNL A   1      37.800  32.429  37.878  1.00  0.00     0.001 A 
ATOM     78  C   UNL A   1      39.065  34.305  37.029  1.00  0.00     0.001 A 
ATOM     79  C   UNL A   1      38.238  33.747  38.003  1.00  0.00     0.000 A 
ENDBRANCH  61  74
ENDBRANCH  35  36
ENDBRANCH  28  30
ENDBRANCH  27  28
ENDBRANCH  26  27
ENDBRANCH  25  26
ENDBRANCH  24  25
ENDBRANCH   1  24
TORSDOF 17
ENDMDL
MODEL 2
REMARK VINA RESULT:     -10.2      4.094      6.337
REMARK SMILES CC1=C(C)C[C@@H](C(=O)N[C@H](C)C(C)(C)C)[C@@H](C(=O)OCCOCCOC(=O)c2ccc(-c3c4nc(c(-c5ccccc5)c5ccc([nH]5)c(-c5ccccc5)c5nc(c(-c6ccccc6)c6ccc3[nH]6)C=C5)C=C4)cc2)C1
REMARK SMILES IDX 21 1 20 2 19 3 17 4 18 5 16 6 1 7 2 8 3 9 76 10 4 11 5 12
REMARK SMILES IDX 6 13 7 14 8 15 9 16 10 18 11 19 12 20 13 21 14 22 15 23
REMARK SMILES IDX 22 24 23 25 24 26 25 27 26 28 27 29 28 30 29 31 75 32 30 33
REMARK SMILES IDX 74 34 31 35 32 36 33 37 68 38 34 39 73 40 67 41 69 42 35 43
REMARK SMILES IDX 72 44 66 45 65 46 36 48 58 49 43 50 57 51 44 52 47 53 56 54
REMARK SMILES IDX 70 55 45 56 46 57 55 59 71 60 48 61 37 62 38 63 42 64 39 65
REMARK SMILES IDX 41 66 40 67 59 68 60 69 64 70 61 71 63 72 62 73 49 74 50 75
REMARK SMILES IDX 54 76 51 77 53 78 52 79
REMARK H PARENT 9 17 69 47 47 58
REMARK Flexibility Score: inf
ROOT
ATOM      1  C   UNL A   1      36.868  22.434  24.716  1.00  0.00     0.202 C 
ENDROOT
BRANCH   1   2
ATOM      2  C   UNL A   1      36.223  23.459  25.692  1.00  0.00     0.261 C 
BRANCH   2   3
ATOM      3  O   UNL A   1      35.196  24.326  25.192  1.00  0.00    -0.463 OA
BRANCH   3   4
ATOM      4  C   UNL A   1      34.231  24.476  26.122  1.00  0.00     0.310 C 
ATOM      5  O   UNL A   1      34.018  23.607  26.944  1.00  0.00    -0.252 OA
BRANCH   4   6
ATOM      6  C   UNL A   1      33.470  25.765  26.084  1.00  0.00     0.116 C 
ATOM      7  C   UNL A   1      32.882  27.446  22.584  1.00  0.00     0.039 C 
ATOM      8  C   UNL A   1      32.542  27.021  23.991  1.00  0.00    -0.073 C 
ATOM      9  C   UNL A   1      31.318  27.120  24.552  1.00  0.00    -0.074 C 
ATOM     10  C   UNL A   1      33.730  26.440  24.732  1.00  0.00     0.046 C 
ATOM     11  C   UNL A   1      30.099  27.738  23.911  1.00  0.00     0.039 C 
ATOM     12  C   UNL A   1      31.048  26.617  25.946  1.00  0.00     0.045 C 
ATOM     13  C   UNL A   1      31.990  25.525  26.441  1.00  0.00     0.097 C 
BRANCH  13  14
ATOM     14  C   UNL A   1      31.359  24.108  26.361  1.00  0.00     0.224 C 
ATOM     15  O   UNL A   1      30.787  23.677  27.374  1.00  0.00    -0.275 OA
ATOM     16  N   UNL A   1      31.357  23.286  25.273  1.00  0.00    -0.353 N 
ATOM     17  H   UNL A   1      31.051  22.370  25.466  1.00  0.00     0.163 HD
BRANCH  16  18
ATOM     18  C   UNL A   1      31.722  23.505  23.869  1.00  0.00     0.084 C 
ATOM     19  C   UNL A   1      30.389  23.652  23.118  1.00  0.00     0.031 C 
BRANCH  18  20
ATOM     20  C   UNL A   1      32.674  22.416  23.189  1.00  0.00    -0.018 C 
ATOM     21  C   UNL A   1      31.850  21.640  22.132  1.00  0.00     0.013 C 
ATOM     22  C   UNL A   1      33.883  22.956  22.395  1.00  0.00     0.013 C 
ATOM     23  C   UNL A   1      33.259  21.439  24.221  1.00  0.00     0.013 C 
ENDBRANCH  18  20
ENDBRANCH  16  18
ENDBRANCH  13  14
ENDBRANCH   4   6
ENDBRANCH   3   4
ENDBRANCH   2   3
ENDBRANCH   1   2
BRANCH   1  24
ATOM     24  O   UNL A   1      37.898  21.518  25.054  1.00  0.00    -0.374 OA
BRANCH  24  25
ATOM     25  C   UNL A   1      37.746  20.116  24.990  1.00  0.00     0.202 C 
BRANCH  25  26
ATOM     26  C   UNL A   1      38.914  19.210  25.376  1.00  0.00     0.261 C 
BRANCH  26  27
ATOM     27  O   UNL A   1      39.739  19.741  26.415  1.00  0.00    -0.460 OA
BRANCH  27  28
ATOM     28  C   UNL A   1      41.069  19.580  26.210  1.00  0.00     0.338 C 
ATOM     29  O   UNL A   1      41.641  18.608  25.750  1.00  0.00    -0.246 OA
BRANCH  28  30
ATOM     30  C   UNL A   1      41.746  20.863  26.461  1.00  0.00     0.060 A 
ATOM     31  C   UNL A   1      41.967  21.235  27.794  1.00  0.00     0.016 A 
ATOM     32  C   UNL A   1      42.161  21.683  25.410  1.00  0.00     0.016 A 
ATOM     33  C   UNL A   1      42.576  22.448  28.086  1.00  0.00     0.010 A 
ATOM     34  C   UNL A   1      42.741  22.918  25.702  1.00  0.00     0.010 A 
ATOM     35  C   UNL A   1      42.913  23.315  27.041  1.00  0.00    -0.014 A 
BRANCH  35  36
ATOM     36  C   UNL A   1      43.220  24.724  27.354  1.00  0.00     0.031 A 
ATOM     37  C   UNL A   1      44.656  25.158  27.290  1.00  0.00     0.074 A 
ATOM     38  C   UNL A   1      42.245  25.596  27.652  1.00  0.00     0.049 A 
ATOM     39  N   UNL A   1      45.184  26.320  27.565  1.00  0.00    -0.248 NA
ATOM     40  C   UNL A   1      45.629  24.139  26.856  1.00  0.00     0.031 C 
ATOM     41  C   UNL A   1      40.814  25.294  27.681  1.00  0.00     0.029 A 
ATOM     42  N   UNL A   1      42.320  26.921  27.997  1.00  0.00    -0.354 N 
ATOM     43  C   UNL A   1      46.548  26.170  27.347  1.00  0.00     0.074 A 
ATOM     44  C   UNL A   1      46.772  24.800  26.946  1.00  0.00     0.031 C 
ATOM     45  C   UNL A   1      40.145  26.403  28.041  1.00  0.00     0.029 A 
ATOM     46  C   UNL A   1      41.102  27.476  28.302  1.00  0.00     0.049 A 
ATOM     47  H   UNL A   1      43.165  27.424  28.023  1.00  0.00     0.167 HD
ATOM     48  C   UNL A   1      47.527  27.095  27.467  1.00  0.00     0.031 A 
ATOM     49  C   UNL A   1      40.807  28.705  28.766  1.00  0.00     0.031 A 
ATOM     50  C   UNL A   1      47.296  28.450  27.891  1.00  0.00     0.049 A 
ATOM     51  C   UNL A   1      41.926  29.690  28.983  1.00  0.00     0.074 A 
ATOM     52  C   UNL A   1      48.214  29.472  28.050  1.00  0.00     0.029 A 
ATOM     53  N   UNL A   1      46.054  28.965  28.231  1.00  0.00    -0.354 N 
ATOM     54  N   UNL A   1      43.210  29.546  28.761  1.00  0.00    -0.248 NA
ATOM     55  C   UNL A   1      41.550  31.010  29.509  1.00  0.00     0.031 C 
ATOM     56  C   UNL A   1      47.534  30.588  28.547  1.00  0.00     0.029 A 
ATOM     57  C   UNL A   1      46.185  30.283  28.629  1.00  0.00     0.049 A 
ATOM     58  H   UNL A   1      45.207  28.465  28.195  1.00  0.00     0.167 HD
ATOM     59  C   UNL A   1      43.792  30.765  29.090  1.00  0.00     0.074 A 
ATOM     60  C   UNL A   1      42.717  31.640  29.512  1.00  0.00     0.031 C 
ATOM     61  C   UNL A   1      45.098  31.131  29.044  1.00  0.00     0.031 A 
BRANCH  48  62
ATOM     62  C   UNL A   1      48.934  26.654  27.182  1.00  0.00    -0.014 A 
ATOM     63  C   UNL A   1      49.478  26.731  25.889  1.00  0.00     0.009 A 
ATOM     64  C   UNL A   1      49.734  26.164  28.226  1.00  0.00     0.009 A 
ATOM     65  C   UNL A   1      50.782  26.294  25.644  1.00  0.00     0.001 A 
ATOM     66  C   UNL A   1      51.047  25.758  27.983  1.00  0.00     0.001 A 
ATOM     67  C   UNL A   1      51.567  25.813  26.691  1.00  0.00     0.000 A 
ENDBRANCH  48  62
BRANCH  49  68
ATOM     68  C   UNL A   1      39.400  29.064  29.086  1.00  0.00    -0.014 A 
ATOM     69  C   UNL A   1      38.856  28.785  30.349  1.00  0.00     0.009 A 
ATOM     70  C   UNL A   1      38.585  29.672  28.118  1.00  0.00     0.009 A 
ATOM     71  C   UNL A   1      37.520  29.083  30.626  1.00  0.00     0.001 A 
ATOM     72  C   UNL A   1      37.258  29.998  28.407  1.00  0.00     0.001 A 
ATOM     73  C   UNL A   1      36.724  29.694  29.658  1.00  0.00     0.000 A 
ENDBRANCH  49  68
BRANCH  61  74
ATOM     74  C   UNL A   1      45.428  32.550  29.419  1.00  0.00    -0.014 A 
ATOM     75  C   UNL A   1      45.775  32.898  30.733  1.00  0.00     0.009 A 
ATOM     76  C   UNL A   1      45.443  33.542  28.424  1.00  0.00     0.009 A 
ATOM     77  C   UNL A   1      46.097  34.219  31.050  1.00  0.00     0.001 A 
ATOM     78  C   UNL A   1      45.799  34.853  28.738  1.00  0.00     0.001 A 
ATOM     79  C   UNL A   1      46.115  35.193  30.051  1.00  0.00     0.000 A 
ENDBRANCH  61  74
ENDBRANCH  35  36
ENDBRANCH  28  30
ENDBRANCH  27  28
ENDBRANCH  26  27
ENDBRANCH  25  26
ENDBRANCH  24  25
ENDBRANCH   1  24
TORSDOF 17
ENDMDL
MODEL 3
REMARK VINA RESULT:     -10.1      4.202      8.416
REMARK SMILES CC1=C(C)C[C@@H](C(=O)N[C@H](C)C(C)(C)C)[C@@H](C(=O)OCCOCCOC(=O)c2ccc(-c3c4nc(c(-c5ccccc5)c5ccc([nH]5)c(-c5ccccc5)c5nc(c(-c6ccccc6)c6ccc3[nH]6)C=C5)C=C4)cc2)C1
REMARK SMILES IDX 21 1 20 2 19 3 17 4 18 5 16 6 1 7 2 8 3 9 76 10 4 11 5 12
REMARK SMILES IDX 6 13 7 14 8 15 9 16 10 18 11 19 12 20 13 21 14 22 15 23
REMARK SMILES IDX 22 24 23 25 24 26 25 27 26 28 27 29 28 30 29 31 75 32 30 33
REMARK SMILES IDX 74 34 31 35 32 36 33 37 68 38 34 39 73 40 67 41 69 42 35 43
REMARK SMILES IDX 72 44 66 45 65 46 36 48 58 49 43 50 57 51 44 52 47 53 56 54
REMARK SMILES IDX 70 55 45 56 46 57 55 59 71 60 48 61 37 62 38 63 42 64 39 65
REMARK SMILES IDX 41 66 40 67 59 68 60 69 64 70 61 71 63 72 62 73 49 74 50 75
REMARK SMILES IDX 54 76 51 77 53 78 52 79
REMARK H PARENT 9 17 69 47 47 58
REMARK Flexibility Score: inf
ROOT
ATOM      1  C   UNL A   1      37.474  23.353  25.259  1.00  0.00     0.202 C 
ENDROOT
BRANCH   1   2
ATOM      2  C   UNL A   1      36.296  24.057  25.992  1.00  0.00     0.261 C 
BRANCH   2   3
ATOM      3  O   UNL A   1      35.045  24.192  25.303  1.00  0.00    -0.463 OA
BRANCH   3   4
ATOM      4  C   UNL A   1      34.048  24.366  26.194  1.00  0.00     0.310 C 
ATOM      5  O   UNL A   1      33.785  23.504  27.008  1.00  0.00    -0.252 OA
BRANCH   4   6
ATOM      6  C   UNL A   1      33.319  25.671  26.125  1.00  0.00     0.116 C 
ATOM      7  C   UNL A   1      32.952  27.383  22.610  1.00  0.00     0.039 C 
ATOM      8  C   UNL A   1      32.529  26.959  23.993  1.00  0.00    -0.073 C 
ATOM      9  C   UNL A   1      31.280  27.083  24.491  1.00  0.00    -0.074 C 
ATOM     10  C   UNL A   1      33.665  26.348  24.792  1.00  0.00     0.046 C 
ATOM     11  C   UNL A   1      30.111  27.730  23.791  1.00  0.00     0.039 C 
ATOM     12  C   UNL A   1      30.927  26.578  25.866  1.00  0.00     0.045 C 
ATOM     13  C   UNL A   1      31.817  25.463  26.402  1.00  0.00     0.097 C 
BRANCH  13  14
ATOM     14  C   UNL A   1      31.161  24.060  26.280  1.00  0.00     0.224 C 
ATOM     15  O   UNL A   1      30.509  23.646  27.251  1.00  0.00    -0.275 OA
ATOM     16  N   UNL A   1      31.215  23.235  25.196  1.00  0.00    -0.353 N 
ATOM     17  H   UNL A   1      30.876  22.328  25.369  1.00  0.00     0.163 HD
BRANCH  16  18
ATOM     18  C   UNL A   1      31.684  23.441  23.821  1.00  0.00     0.084 C 
ATOM     19  C   UNL A   1      30.416  23.703  22.992  1.00  0.00     0.031 C 
BRANCH  18  20
ATOM     20  C   UNL A   1      32.587  22.288  23.182  1.00  0.00    -0.018 C 
ATOM     21  C   UNL A   1      33.745  22.954  22.398  1.00  0.00     0.013 C 
ATOM     22  C   UNL A   1      33.301  21.343  24.172  1.00  0.00     0.013 C 
ATOM     23  C   UNL A   1      31.778  21.374  22.248  1.00  0.00     0.013 C 
ENDBRANCH  18  20
ENDBRANCH  16  18
ENDBRANCH  13  14
ENDBRANCH   4   6
ENDBRANCH   3   4
ENDBRANCH   2   3
ENDBRANCH   1   2
BRANCH   1  24
ATOM     24  O   UNL A   1      38.096  22.149  25.679  1.00  0.00    -0.374 OA
BRANCH  24  25
ATOM     25  C   UNL A   1      37.939  20.915  25.009  1.00  0.00     0.202 C 
BRANCH  25  26
ATOM     26  C   UNL A   1      38.838  19.736  25.375  1.00  0.00     0.261 C 
BRANCH  26  27
ATOM     27  O   UNL A   1      39.730  20.002  26.459  1.00  0.00    -0.460 OA
BRANCH  27  28
ATOM     28  C   UNL A   1      41.020  19.663  26.218  1.00  0.00     0.338 C 
ATOM     29  O   UNL A   1      41.442  18.621  25.751  1.00  0.00    -0.246 OA
BRANCH  28  30
ATOM     30  C   UNL A   1      41.870  20.844  26.439  1.00  0.00     0.060 A 
ATOM     31  C   UNL A   1      42.162  21.201  27.763  1.00  0.00     0.016 A 
ATOM     32  C   UNL A   1      42.376  21.586  25.370  1.00  0.00     0.016 A 
ATOM     33  C   UNL A   1      42.936  22.322  28.027  1.00  0.00     0.010 A 
ATOM     34  C   UNL A   1      43.125  22.733  25.634  1.00  0.00     0.010 A 
ATOM     35  C   UNL A   1      43.372  23.121  26.963  1.00  0.00    -0.014 A 
BRANCH  35  36
ATOM     36  C   UNL A   1      43.874  24.478  27.250  1.00  0.00     0.031 A 
ATOM     37  C   UNL A   1      42.878  25.515  27.685  1.00  0.00     0.074 A 
ATOM     38  C   UNL A   1      45.181  24.768  27.157  1.00  0.00     0.049 A 
ATOM     39  N   UNL A   1      43.060  26.781  27.947  1.00  0.00    -0.248 NA
ATOM     40  C   UNL A   1      41.486  25.057  27.847  1.00  0.00     0.031 C 
ATOM     41  C   UNL A   1      46.238  23.822  26.804  1.00  0.00     0.029 A 
ATOM     42  N   UNL A   1      45.837  25.956  27.348  1.00  0.00    -0.354 N 
ATOM     43  C   UNL A   1      41.809  27.273  28.294  1.00  0.00     0.074 A 
ATOM     44  C   UNL A   1      40.870  26.180  28.182  1.00  0.00     0.031 C 
ATOM     45  C   UNL A   1      47.414  24.473  26.789  1.00  0.00     0.029 A 
ATOM     46  C   UNL A   1      47.185  25.883  27.095  1.00  0.00     0.049 A 
ATOM     47  H   UNL A   1      45.387  26.781  27.639  1.00  0.00     0.167 HD
ATOM     48  C   UNL A   1      41.472  28.525  28.676  1.00  0.00     0.031 A 
ATOM     49  C   UNL A   1      48.114  26.857  27.085  1.00  0.00     0.031 A 
ATOM     50  C   UNL A   1      42.409  29.612  28.761  1.00  0.00     0.049 A 
ATOM     51  C   UNL A   1      47.698  28.265  27.422  1.00  0.00     0.074 A 
ATOM     52  C   UNL A   1      42.179  30.924  29.134  1.00  0.00     0.029 A 
ATOM     53  N   UNL A   1      43.759  29.510  28.456  1.00  0.00    -0.354 N 
ATOM     54  N   UNL A   1      46.516  28.720  27.763  1.00  0.00    -0.248 NA
ATOM     55  C   UNL A   1      48.748  29.292  27.378  1.00  0.00     0.031 C 
ATOM     56  C   UNL A   1      43.378  31.629  28.995  1.00  0.00     0.029 A 
ATOM     57  C   UNL A   1      44.369  30.743  28.604  1.00  0.00     0.049 A 
ATOM     58  H   UNL A   1      44.213  28.683  28.175  1.00  0.00     0.167 HD
ATOM     59  C   UNL A   1      46.686  30.078  28.005  1.00  0.00     0.074 A 
ATOM     60  C   UNL A   1      48.089  30.368  27.785  1.00  0.00     0.031 C 
ATOM     61  C   UNL A   1      45.767  31.003  28.379  1.00  0.00     0.031 A 
BRANCH  48  62
ATOM     62  C   UNL A   1      40.025  28.790  28.983  1.00  0.00    -0.014 A 
ATOM     63  C   UNL A   1      39.147  29.283  28.003  1.00  0.00     0.009 A 
ATOM     64  C   UNL A   1      39.528  28.529  30.268  1.00  0.00     0.009 A 
ATOM     65  C   UNL A   1      37.811  29.542  28.317  1.00  0.00     0.001 A 
ATOM     66  C   UNL A   1      38.185  28.759  30.570  1.00  0.00     0.001 A 
ATOM     67  C   UNL A   1      37.330  29.275  29.598  1.00  0.00     0.000 A 
ENDBRANCH  48  62
BRANCH  49  68
ATOM     68  C   UNL A   1      49.520  26.543  26.716  1.00  0.00    -0.014 A 
ATOM     69  C   UNL A   1      50.461  26.195  27.696  1.00  0.00     0.009 A 
ATOM     70  C   UNL A   1      49.932  26.611  25.375  1.00  0.00     0.009 A 
ATOM     71  C   UNL A   1      51.790  25.948  27.345  1.00  0.00     0.001 A 
ATOM     72  C   UNL A   1      51.255  26.331  25.023  1.00  0.00     0.001 A 
ATOM     73  C   UNL A   1      52.185  26.011  26.009  1.00  0.00     0.000 A 
ENDBRANCH  49  68
BRANCH  61  74
ATOM     74  C   UNL A   1      46.259  32.405  28.615  1.00  0.00    -0.014 A 
ATOM     75  C   UNL A   1      46.322  33.344  27.575  1.00  0.00     0.009 A 
ATOM     76  C   UNL A   1      46.612  32.803  29.916  1.00  0.00     0.009 A 
ATOM     77  C   UNL A   1      46.763  34.645  27.827  1.00  0.00     0.001 A 
ATOM     78  C   UNL A   1      47.020  34.112  30.169  1.00  0.00     0.001 A 
ATOM     79  C   UNL A   1      47.105  35.029  29.123  1.00  0.00     0.000 A 
ENDBRANCH  61  74
ENDBRANCH  35  36
ENDBRANCH  28  30
ENDBRANCH  27  28
ENDBRANCH  26  27
ENDBRANCH  25  26
ENDBRANCH  24  25
ENDBRANCH   1  24
TORSDOF 17
ENDMDL
