MODEL 1
REMARK VINA RESULT:     -11.0      0.000      0.000
REMARK SMILES CC(=O)c1c[nH]c(C(=O)N[C@H]2C=C[C@H](C(=O)OCCOCCOC(=O)c3ccc(-c4c5nc(c(-c6ccccc6)c6ccc([nH]6)c(-c6ccccc6)c6nc(c(-c7ccccc7)c7ccc4[nH]7)C=C6)C=C5)cc3)C2)c1
REMARK SMILES IDX 19 1 18 2 17 3 15 4 16 5 14 6 11 7 12 8 74 9 13 10 10 11
REMARK SMILES IDX 8 12 9 13 7 15 4 16 5 17 75 18 6 19 2 21 1 22 3 23 20 24
REMARK SMILES IDX 21 25 22 26 23 27 24 28 25 29 26 30 27 31 73 32 28 33 72 34
REMARK SMILES IDX 29 35 30 36 31 37 66 38 32 39 71 40 65 41 67 42 33 43 70 44
REMARK SMILES IDX 64 45 63 46 34 48 56 49 41 50 55 51 42 52 45 53 54 54 68 55
REMARK SMILES IDX 43 56 44 57 53 59 69 60 46 61 35 62 36 63 40 64 37 65 39 66
REMARK SMILES IDX 38 67 57 68 58 69 62 70 59 71 61 72 60 73 47 74 48 75 52 76
REMARK SMILES IDX 49 77 51 78 50 79
REMARK H PARENT 10 14 6 20 67 47 45 58
REMARK Flexibility Score: inf
ROOT
ATOM      1  C   UNL A   1      37.169  21.106  25.056  1.00  0.00     0.202 C 
ENDROOT
BRANCH   1   2
ATOM      2  C   UNL A   1      36.123  21.748  25.961  1.00  0.00     0.261 C 
BRANCH   2   3
ATOM      3  O   UNL A   1      34.911  20.974  26.041  1.00  0.00    -0.463 OA
BRANCH   3   4
ATOM      4  C   UNL A   1      33.804  21.605  25.559  1.00  0.00     0.312 C 
ATOM      5  O   UNL A   1      32.908  22.058  26.263  1.00  0.00    -0.252 OA
BRANCH   4   6
ATOM      6  C   UNL A   1      33.776  21.620  24.032  1.00  0.00     0.124 C 
ATOM      7  C   UNL A   1      32.738  23.571  22.877  1.00  0.00     0.106 C 
ATOM      8  C   UNL A   1      31.827  22.394  22.963  1.00  0.00    -0.006 C 
ATOM      9  C   UNL A   1      34.088  22.955  23.325  1.00  0.00     0.048 C 
ATOM     10  C   UNL A   1      32.377  21.347  23.580  1.00  0.00    -0.014 C 
BRANCH   7  11
ATOM     11  N   UNL A   1      32.793  24.108  21.526  1.00  0.00    -0.345 N 
ATOM     12  C   UNL A   1      32.945  25.395  21.064  1.00  0.00     0.268 C 
ATOM     13  O   UNL A   1      32.919  25.579  19.848  1.00  0.00    -0.268 OA
ATOM     14  H   UNL A   1      32.704  23.431  20.816  1.00  0.00     0.164 HD
BRANCH  12  15
ATOM     15  C   UNL A   1      32.978  26.493  22.000  1.00  0.00     0.105 A 
ATOM     16  C   UNL A   1      32.368  28.024  23.548  1.00  0.00     0.035 A 
ATOM     17  C   UNL A   1      33.039  28.674  22.529  1.00  0.00     0.094 A 
ATOM     18  C   UNL A   1      32.516  26.629  23.297  1.00  0.00     0.045 A 
ATOM     19  N   UNL A   1      33.504  27.721  21.658  1.00  0.00    -0.356 N 
ATOM     20  H   UNL A   1      34.117  27.889  20.906  1.00  0.00     0.166 HD
BRANCH  16  21
ATOM     21  C   UNL A   1      31.570  28.624  24.615  1.00  0.00     0.161 C 
ATOM     22  C   UNL A   1      30.474  29.581  24.217  1.00  0.00     0.093 C 
ATOM     23  O   UNL A   1      31.711  28.274  25.785  1.00  0.00    -0.294 OA
ENDBRANCH  16  21
ENDBRANCH  12  15
ENDBRANCH   7  11
ENDBRANCH   4   6
ENDBRANCH   3   4
ENDBRANCH   2   3
ENDBRANCH   1   2
BRANCH   1  24
ATOM     24  O   UNL A   1      38.532  21.142  25.473  1.00  0.00    -0.374 OA
BRANCH  24  25
ATOM     25  C   UNL A   1      39.017  22.239  26.237  1.00  0.00     0.202 C 
BRANCH  25  26
ATOM     26  C   UNL A   1      40.491  22.253  26.622  1.00  0.00     0.261 C 
BRANCH  26  27
ATOM     27  O   UNL A   1      41.089  23.537  26.496  1.00  0.00    -0.460 OA
BRANCH  27  28
ATOM     28  C   UNL A   1      41.323  24.098  27.705  1.00  0.00     0.338 C 
ATOM     29  O   UNL A   1      41.938  23.616  28.639  1.00  0.00    -0.246 OA
BRANCH  28  30
ATOM     30  C   UNL A   1      40.557  25.332  27.839  1.00  0.00     0.060 A 
ATOM     31  C   UNL A   1      41.289  26.505  27.643  1.00  0.00     0.016 A 
ATOM     32  C   UNL A   1      39.343  25.302  28.540  1.00  0.00     0.016 A 
ATOM     33  C   UNL A   1      40.918  27.623  28.345  1.00  0.00     0.010 A 
ATOM     34  C   UNL A   1      38.989  26.412  29.270  1.00  0.00     0.010 A 
ATOM     35  C   UNL A   1      39.810  27.541  29.199  1.00  0.00    -0.014 A 
BRANCH  35  36
ATOM     36  C   UNL A   1      39.404  28.777  29.859  1.00  0.00     0.031 A 
ATOM     37  C   UNL A   1      40.171  28.893  31.188  1.00  0.00     0.074 A 
ATOM     38  C   UNL A   1      38.402  29.474  29.235  1.00  0.00     0.049 A 
ATOM     39  N   UNL A   1      39.838  29.506  32.275  1.00  0.00    -0.248 NA
ATOM     40  C   UNL A   1      41.466  28.163  31.373  1.00  0.00     0.031 C 
ATOM     41  C   UNL A   1      37.827  29.157  27.899  1.00  0.00     0.029 A 
ATOM     42  N   UNL A   1      37.647  30.570  29.584  1.00  0.00    -0.354 N 
ATOM     43  C   UNL A   1      40.915  29.400  33.178  1.00  0.00     0.074 A 
ATOM     44  C   UNL A   1      41.851  28.487  32.607  1.00  0.00     0.031 C 
ATOM     45  C   UNL A   1      36.777  29.964  27.614  1.00  0.00     0.029 A 
ATOM     46  C   UNL A   1      36.568  30.887  28.711  1.00  0.00     0.049 A 
ATOM     47  H   UNL A   1      37.842  31.103  30.389  1.00  0.00     0.167 HD
ATOM     48  C   UNL A   1      41.018  30.185  34.287  1.00  0.00     0.031 A 
ATOM     49  C   UNL A   1      35.556  31.792  28.905  1.00  0.00     0.031 A 
ATOM     50  C   UNL A   1      39.826  30.944  34.452  1.00  0.00     0.049 A 
ATOM     51  C   UNL A   1      35.906  32.479  30.155  1.00  0.00     0.074 A 
ATOM     52  C   UNL A   1      38.555  30.573  34.807  1.00  0.00     0.029 A 
ATOM     53  N   UNL A   1      39.785  32.151  33.799  1.00  0.00    -0.354 N 
ATOM     54  N   UNL A   1      36.865  33.342  30.288  1.00  0.00    -0.248 NA
ATOM     55  C   UNL A   1      35.198  32.098  31.384  1.00  0.00     0.031 C 
ATOM     56  C   UNL A   1      37.757  31.291  33.892  1.00  0.00     0.029 A 
ATOM     57  C   UNL A   1      38.538  32.251  33.237  1.00  0.00     0.049 A 
ATOM     58  H   UNL A   1      40.510  32.816  33.743  1.00  0.00     0.167 HD
ATOM     59  C   UNL A   1      37.116  33.286  31.635  1.00  0.00     0.074 A 
ATOM     60  C   UNL A   1      35.901  32.808  32.261  1.00  0.00     0.031 C 
ATOM     61  C   UNL A   1      38.384  33.093  32.078  1.00  0.00     0.031 A 
BRANCH  48  62
ATOM     62  C   UNL A   1      42.201  30.554  35.127  1.00  0.00    -0.014 A 
ATOM     63  C   UNL A   1      43.258  31.232  34.476  1.00  0.00     0.009 A 
ATOM     64  C   UNL A   1      42.474  29.968  36.366  1.00  0.00     0.009 A 
ATOM     65  C   UNL A   1      44.564  31.194  34.963  1.00  0.00     0.001 A 
ATOM     66  C   UNL A   1      43.779  29.968  36.879  1.00  0.00     0.001 A 
ATOM     67  C   UNL A   1      44.827  30.539  36.157  1.00  0.00     0.000 A 
ENDBRANCH  48  62
BRANCH  49  68
ATOM     68  C   UNL A   1      34.223  32.188  28.309  1.00  0.00    -0.014 A 
ATOM     69  C   UNL A   1      33.655  33.463  28.293  1.00  0.00     0.009 A 
ATOM     70  C   UNL A   1      33.471  31.185  27.624  1.00  0.00     0.009 A 
ATOM     71  C   UNL A   1      32.475  33.726  27.554  1.00  0.00     0.001 A 
ATOM     72  C   UNL A   1      32.338  31.448  26.849  1.00  0.00     0.001 A 
ATOM     73  C   UNL A   1      31.844  32.733  26.801  1.00  0.00     0.000 A 
ENDBRANCH  49  68
BRANCH  61  74
ATOM     74  C   UNL A   1      39.491  33.453  31.096  1.00  0.00    -0.014 A 
ATOM     75  C   UNL A   1      40.613  32.620  30.978  1.00  0.00     0.009 A 
ATOM     76  C   UNL A   1      39.509  34.649  30.355  1.00  0.00     0.009 A 
ATOM     77  C   UNL A   1      41.707  32.971  30.173  1.00  0.00     0.001 A 
ATOM     78  C   UNL A   1      40.604  35.010  29.553  1.00  0.00     0.001 A 
ATOM     79  C   UNL A   1      41.706  34.168  29.463  1.00  0.00     0.000 A 
ENDBRANCH  61  74
ENDBRANCH  35  36
ENDBRANCH  28  30
ENDBRANCH  27  28
ENDBRANCH  26  27
ENDBRANCH  25  26
ENDBRANCH  24  25
ENDBRANCH   1  24
TORSDOF 17
ENDMDL
MODEL 2
REMARK VINA RESULT:     -10.7      3.030      5.452
REMARK SMILES CC(=O)c1c[nH]c(C(=O)N[C@H]2C=C[C@H](C(=O)OCCOCCOC(=O)c3ccc(-c4c5nc(c(-c6ccccc6)c6ccc([nH]6)c(-c6ccccc6)c6nc(c(-c7ccccc7)c7ccc4[nH]7)C=C6)C=C5)cc3)C2)c1
REMARK SMILES IDX 19 1 18 2 17 3 15 4 16 5 14 6 11 7 12 8 74 9 13 10 10 11
REMARK SMILES IDX 8 12 9 13 7 15 4 16 5 17 75 18 6 19 2 21 1 22 3 23 20 24
REMARK SMILES IDX 21 25 22 26 23 27 24 28 25 29 26 30 27 31 73 32 28 33 72 34
REMARK SMILES IDX 29 35 30 36 31 37 66 38 32 39 71 40 65 41 67 42 33 43 70 44
REMARK SMILES IDX 64 45 63 46 34 48 56 49 41 50 55 51 42 52 45 53 54 54 68 55
REMARK SMILES IDX 43 56 44 57 53 59 69 60 46 61 35 62 36 63 40 64 37 65 39 66
REMARK SMILES IDX 38 67 57 68 58 69 62 70 59 71 61 72 60 73 47 74 48 75 52 76
REMARK SMILES IDX 49 77 51 78 50 79
REMARK H PARENT 10 14 6 20 67 47 45 58
REMARK Flexibility Score: inf
ROOT
ATOM      1  C   UNL A   1      46.050  19.730  24.842  1.00  0.00     0.202 C 
ENDROOT
BRANCH   1   2
ATOM      2  C   UNL A   1      44.859  18.913  25.332  1.00  0.00     0.261 C 
BRANCH   2   3
ATOM      3  O   UNL A   1      43.599  19.461  24.903  1.00  0.00    -0.463 OA
BRANCH   3   4
ATOM      4  C   UNL A   1      42.563  19.238  25.760  1.00  0.00     0.312 C 
ATOM      5  O   UNL A   1      41.872  18.226  25.757  1.00  0.00    -0.252 OA
BRANCH   4   6
ATOM      6  C   UNL A   1      42.319  20.433  26.681  1.00  0.00     0.124 C 
ATOM      7  C   UNL A   1      40.674  22.167  25.974  1.00  0.00     0.106 C 
ATOM      8  C   UNL A   1      42.086  22.561  25.703  1.00  0.00    -0.006 C 
ATOM      9  C   UNL A   1      40.864  20.911  26.860  1.00  0.00     0.048 C 
ATOM     10  C   UNL A   1      42.971  21.637  26.079  1.00  0.00    -0.014 C 
BRANCH   7  11
ATOM     11  N   UNL A   1      39.945  23.225  26.656  1.00  0.00    -0.345 N 
ATOM     12  C   UNL A   1      38.617  23.586  26.619  1.00  0.00     0.268 C 
ATOM     13  O   UNL A   1      38.265  24.562  27.280  1.00  0.00    -0.268 OA
ATOM     14  H   UNL A   1      40.499  23.782  27.249  1.00  0.00     0.164 HD
BRANCH  12  15
ATOM     15  C   UNL A   1      37.719  22.917  25.708  1.00  0.00     0.105 A 
ATOM     16  C   UNL A   1      35.959  22.462  24.363  1.00  0.00     0.035 A 
ATOM     17  C   UNL A   1      36.170  21.376  25.192  1.00  0.00     0.094 A 
ATOM     18  C   UNL A   1      37.066  23.338  24.563  1.00  0.00     0.045 A 
ATOM     19  N   UNL A   1      37.309  21.618  25.920  1.00  0.00    -0.356 N 
ATOM     20  H   UNL A   1      37.761  20.964  26.501  1.00  0.00     0.166 HD
BRANCH  16  21
ATOM     21  C   UNL A   1      34.793  22.731  23.525  1.00  0.00     0.161 C 
ATOM     22  C   UNL A   1      33.434  22.396  24.087  1.00  0.00     0.093 C 
ATOM     23  O   UNL A   1      34.907  23.315  22.449  1.00  0.00    -0.294 OA
ENDBRANCH  16  21
ENDBRANCH  12  15
ENDBRANCH   7  11
ENDBRANCH   4   6
ENDBRANCH   3   4
ENDBRANCH   2   3
ENDBRANCH   1   2
BRANCH   1  24
ATOM     24  O   UNL A   1      46.172  21.077  25.295  1.00  0.00    -0.374 OA
BRANCH  24  25
ATOM     25  C   UNL A   1      46.440  22.121  24.367  1.00  0.00     0.202 C 
BRANCH  25  26
ATOM     26  C   UNL A   1      45.438  23.263  24.259  1.00  0.00     0.261 C 
BRANCH  26  27
ATOM     27  O   UNL A   1      45.374  24.063  25.433  1.00  0.00    -0.460 OA
BRANCH  27  28
ATOM     28  C   UNL A   1      45.434  25.383  25.141  1.00  0.00     0.338 C 
ATOM     29  O   UNL A   1      46.358  25.986  24.624  1.00  0.00    -0.246 OA
BRANCH  28  30
ATOM     30  C   UNL A   1      44.286  26.075  25.716  1.00  0.00     0.060 A 
ATOM     31  C   UNL A   1      44.369  27.468  25.698  1.00  0.00     0.016 A 
ATOM     32  C   UNL A   1      43.440  25.374  26.586  1.00  0.00     0.016 A 
ATOM     33  C   UNL A   1      43.765  28.164  26.714  1.00  0.00     0.010 A 
ATOM     34  C   UNL A   1      42.861  26.066  27.623  1.00  0.00     0.010 A 
ATOM     35  C   UNL A   1      43.073  27.446  27.699  1.00  0.00    -0.014 A 
BRANCH  35  36
ATOM     36  C   UNL A   1      42.378  28.233  28.711  1.00  0.00     0.031 A 
ATOM     37  C   UNL A   1      43.179  28.155  30.023  1.00  0.00     0.074 A 
ATOM     38  C   UNL A   1      41.171  28.755  28.322  1.00  0.00     0.049 A 
ATOM     39  N   UNL A   1      42.767  28.271  31.241  1.00  0.00    -0.248 NA
ATOM     40  C   UNL A   1      44.640  27.829  29.991  1.00  0.00     0.031 C 
ATOM     41  C   UNL A   1      40.611  28.711  26.944  1.00  0.00     0.029 A 
ATOM     42  N   UNL A   1      40.160  29.408  28.988  1.00  0.00    -0.354 N 
ATOM     43  C   UNL A   1      43.895  28.218  32.086  1.00  0.00     0.074 A 
ATOM     44  C   UNL A   1      45.009  27.853  31.272  1.00  0.00     0.031 C 
ATOM     45  C   UNL A   1      39.353  29.212  26.910  1.00  0.00     0.029 A 
ATOM     46  C   UNL A   1      38.971  29.641  28.240  1.00  0.00     0.049 A 
ATOM     47  H   UNL A   1      40.253  29.697  29.925  1.00  0.00     0.167 HD
ATOM     48  C   UNL A   1      43.850  28.612  33.389  1.00  0.00     0.031 A 
ATOM     49  C   UNL A   1      37.757  30.093  28.693  1.00  0.00     0.031 A 
ATOM     50  C   UNL A   1      42.506  28.886  33.763  1.00  0.00     0.049 A 
ATOM     51  C   UNL A   1      37.988  30.429  30.103  1.00  0.00     0.074 A 
ATOM     52  C   UNL A   1      41.429  28.060  33.955  1.00  0.00     0.029 A 
ATOM     53  N   UNL A   1      42.065  30.166  33.530  1.00  0.00    -0.354 N 
ATOM     54  N   UNL A   1      38.662  31.454  30.524  1.00  0.00    -0.248 NA
ATOM     55  C   UNL A   1      37.519  29.491  31.131  1.00  0.00     0.031 C 
ATOM     56  C   UNL A   1      40.389  28.753  33.302  1.00  0.00     0.029 A 
ATOM     57  C   UNL A   1      40.803  30.056  33.004  1.00  0.00     0.049 A 
ATOM     58  H   UNL A   1      42.559  31.000  33.704  1.00  0.00     0.167 HD
ATOM     59  C   UNL A   1      39.022  31.060  31.787  1.00  0.00     0.074 A 
ATOM     60  C   UNL A   1      38.051  30.070  32.204  1.00  0.00     0.031 C 
ATOM     61  C   UNL A   1      40.322  31.129  32.172  1.00  0.00     0.031 A 
BRANCH  48  62
ATOM     62  C   UNL A   1      44.937  29.039  34.327  1.00  0.00    -0.014 A 
ATOM     63  C   UNL A   1      45.257  28.149  35.378  1.00  0.00     0.009 A 
ATOM     64  C   UNL A   1      45.374  30.361  34.442  1.00  0.00     0.009 A 
ATOM     65  C   UNL A   1      45.849  28.593  36.560  1.00  0.00     0.001 A 
ATOM     66  C   UNL A   1      46.009  30.799  35.614  1.00  0.00     0.001 A 
ATOM     67  C   UNL A   1      46.204  29.928  36.685  1.00  0.00     0.000 A 
ENDBRANCH  48  62
BRANCH  49  68
ATOM     68  C   UNL A   1      36.325  30.235  28.227  1.00  0.00    -0.014 A 
ATOM     69  C   UNL A   1      35.543  31.390  28.255  1.00  0.00     0.009 A 
ATOM     70  C   UNL A   1      35.699  29.099  27.628  1.00  0.00     0.009 A 
ATOM     71  C   UNL A   1      34.270  31.424  27.633  1.00  0.00     0.001 A 
ATOM     72  C   UNL A   1      34.469  29.139  26.966  1.00  0.00     0.001 A 
ATOM     73  C   UNL A   1      33.754  30.317  26.955  1.00  0.00     0.000 A 
ENDBRANCH  49  68
BRANCH  61  74
ATOM     74  C   UNL A   1      41.197  32.092  31.379  1.00  0.00    -0.014 A 
ATOM     75  C   UNL A   1      42.203  31.587  30.542  1.00  0.00     0.009 A 
ATOM     76  C   UNL A   1      41.127  33.490  31.513  1.00  0.00     0.009 A 
ATOM     77  C   UNL A   1      43.105  32.436  29.884  1.00  0.00     0.001 A 
ATOM     78  C   UNL A   1      42.031  34.346  30.863  1.00  0.00     0.001 A 
ATOM     79  C   UNL A   1      43.023  33.816  30.046  1.00  0.00     0.000 A 
ENDBRANCH  61  74
ENDBRANCH  35  36
ENDBRANCH  28  30
ENDBRANCH  27  28
ENDBRANCH  26  27
ENDBRANCH  25  26
ENDBRANCH  24  25
ENDBRANCH   1  24
TORSDOF 17
ENDMDL
MODEL 3
REMARK VINA RESULT:     -10.6      3.374      8.193
REMARK SMILES CC(=O)c1c[nH]c(C(=O)N[C@H]2C=C[C@H](C(=O)OCCOCCOC(=O)c3ccc(-c4c5nc(c(-c6ccccc6)c6ccc([nH]6)c(-c6ccccc6)c6nc(c(-c7ccccc7)c7ccc4[nH]7)C=C6)C=C5)cc3)C2)c1
REMARK SMILES IDX 19 1 18 2 17 3 15 4 16 5 14 6 11 7 12 8 74 9 13 10 10 11
REMARK SMILES IDX 8 12 9 13 7 15 4 16 5 17 75 18 6 19 2 21 1 22 3 23 20 24
REMARK SMILES IDX 21 25 22 26 23 27 24 28 25 29 26 30 27 31 73 32 28 33 72 34
REMARK SMILES IDX 29 35 30 36 31 37 66 38 32 39 71 40 65 41 67 42 33 43 70 44
REMARK SMILES IDX 64 45 63 46 34 48 56 49 41 50 55 51 42 52 45 53 54 54 68 55
REMARK SMILES IDX 43 56 44 57 53 59 69 60 46 61 35 62 36 63 40 64 37 65 39 66
REMARK SMILES IDX 38 67 57 68 58 69 62 70 59 71 61 72 60 73 47 74 48 75 52 76
REMARK SMILES IDX 49 77 51 78 50 79
REMARK H PARENT 10 14 6 20 67 47 45 58
REMARK Flexibility Score: inf
ROOT
ATOM      1  C   UNL A   1      34.867  31.330  27.731  1.00  0.00     0.202 C 
ENDROOT
BRANCH   1   2
ATOM      2  C   UNL A   1      33.584  30.802  27.098  1.00  0.00     0.261 C 
BRANCH   2   3
ATOM      3  O   UNL A   1      33.735  29.468  26.575  1.00  0.00    -0.463 OA
BRANCH   3   4
ATOM      4  C   UNL A   1      32.943  29.189  25.502  1.00  0.00     0.312 C 
ATOM      5  O   UNL A   1      33.233  29.458  24.342  1.00  0.00    -0.252 OA
BRANCH   4   6
ATOM      6  C   UNL A   1      31.614  28.562  25.924  1.00  0.00     0.124 C 
ATOM      7  C   UNL A   1      31.498  26.087  26.199  1.00  0.00     0.106 C 
ATOM      8  C   UNL A   1      30.956  26.553  24.890  1.00  0.00    -0.006 C 
ATOM      9  C   UNL A   1      31.660  27.424  26.964  1.00  0.00     0.048 C 
ATOM     10  C   UNL A   1      31.015  27.876  24.737  1.00  0.00    -0.014 C 
BRANCH   7  11
ATOM     11  N   UNL A   1      30.580  25.173  26.863  1.00  0.00    -0.345 N 
ATOM     12  C   UNL A   1      30.421  23.810  26.761  1.00  0.00     0.268 C 
ATOM     13  O   UNL A   1      29.529  23.282  27.422  1.00  0.00    -0.268 OA
ATOM     14  H   UNL A   1      29.964  25.606  27.497  1.00  0.00     0.164 HD
BRANCH  12  15
ATOM     15  C   UNL A   1      31.190  23.070  25.789  1.00  0.00     0.105 A 
ATOM     16  C   UNL A   1      32.910  22.268  24.559  1.00  0.00     0.035 A 
ATOM     17  C   UNL A   1      31.890  22.633  23.701  1.00  0.00     0.094 A 
ATOM     18  C   UNL A   1      32.375  22.362  25.878  1.00  0.00     0.045 A 
ATOM     19  N   UNL A   1      30.812  23.006  24.464  1.00  0.00    -0.356 N 
ATOM     20  H   UNL A   1      29.910  23.198  24.118  1.00  0.00     0.166 HD
BRANCH  16  21
ATOM     21  C   UNL A   1      34.295  21.953  24.217  1.00  0.00     0.161 C 
ATOM     22  C   UNL A   1      35.079  22.987  23.447  1.00  0.00     0.093 C 
ATOM     23  O   UNL A   1      34.836  20.933  24.638  1.00  0.00    -0.294 OA
ENDBRANCH  16  21
ENDBRANCH  12  15
ENDBRANCH   7  11
ENDBRANCH   4   6
ENDBRANCH   3   4
ENDBRANCH   2   3
ENDBRANCH   1   2
BRANCH   1  24
ATOM     24  O   UNL A   1      35.072  32.741  27.757  1.00  0.00    -0.374 OA
BRANCH  24  25
ATOM     25  C   UNL A   1      34.260  33.566  28.583  1.00  0.00     0.202 C 
BRANCH  25  26
ATOM     26  C   UNL A   1      34.474  33.508  30.090  1.00  0.00     0.261 C 
BRANCH  26  27
ATOM     27  O   UNL A   1      35.301  32.424  30.495  1.00  0.00    -0.460 OA
BRANCH  27  28
ATOM     28  C   UNL A   1      36.074  32.755  31.554  1.00  0.00     0.338 C 
ATOM     29  O   UNL A   1      35.756  33.417  32.527  1.00  0.00    -0.246 OA
BRANCH  28  30
ATOM     30  C   UNL A   1      37.460  32.373  31.301  1.00  0.00     0.060 A 
ATOM     31  C   UNL A   1      37.843  32.404  29.959  1.00  0.00     0.016 A 
ATOM     32  C   UNL A   1      38.143  31.627  32.271  1.00  0.00     0.016 A 
ATOM     33  C   UNL A   1      38.788  31.503  29.537  1.00  0.00     0.010 A 
ATOM     34  C   UNL A   1      39.066  30.702  31.844  1.00  0.00     0.010 A 
ATOM     35  C   UNL A   1      39.338  30.621  30.475  1.00  0.00    -0.014 A 
BRANCH  35  36
ATOM     36  C   UNL A   1      40.397  29.740  29.997  1.00  0.00     0.031 A 
ATOM     37  C   UNL A   1      41.702  30.552  29.904  1.00  0.00     0.074 A 
ATOM     38  C   UNL A   1      39.997  28.475  29.650  1.00  0.00     0.049 A 
ATOM     39  N   UNL A   1      42.726  30.371  29.139  1.00  0.00    -0.248 NA
ATOM     40  C   UNL A   1      41.873  31.791  30.728  1.00  0.00     0.031 C 
ATOM     41  C   UNL A   1      38.639  27.906  29.866  1.00  0.00     0.029 A 
ATOM     42  N   UNL A   1      40.623  27.415  29.034  1.00  0.00    -0.354 N 
ATOM     43  C   UNL A   1      43.705  31.321  29.496  1.00  0.00     0.074 A 
ATOM     44  C   UNL A   1      43.093  32.226  30.413  1.00  0.00     0.031 C 
ATOM     45  C   UNL A   1      38.530  26.674  29.312  1.00  0.00     0.029 A 
ATOM     46  C   UNL A   1      39.791  26.311  28.696  1.00  0.00     0.049 A 
ATOM     47  H   UNL A   1      41.589  27.420  28.841  1.00  0.00     0.167 HD
ATOM     48  C   UNL A   1      45.005  31.213  29.103  1.00  0.00     0.031 A 
ATOM     49  C   UNL A   1      40.099  25.220  27.924  1.00  0.00     0.031 A 
ATOM     50  C   UNL A   1      45.140  30.143  28.175  1.00  0.00     0.049 A 
ATOM     51  C   UNL A   1      41.532  25.360  27.637  1.00  0.00     0.074 A 
ATOM     52  C   UNL A   1      44.716  30.005  26.879  1.00  0.00     0.029 A 
ATOM     53  N   UNL A   1      45.369  28.902  28.717  1.00  0.00    -0.354 N 
ATOM     54  N   UNL A   1      42.486  25.172  28.496  1.00  0.00    -0.248 NA
ATOM     55  C   UNL A   1      41.935  25.851  26.313  1.00  0.00     0.031 C 
ATOM     56  C   UNL A   1      44.192  28.696  26.864  1.00  0.00     0.029 A 
ATOM     57  C   UNL A   1      44.571  28.022  28.030  1.00  0.00     0.049 A 
ATOM     58  H   UNL A   1      45.985  28.685  29.454  1.00  0.00     0.167 HD
ATOM     59  C   UNL A   1      43.513  25.893  27.944  1.00  0.00     0.074 A 
ATOM     60  C   UNL A   1      43.242  25.978  26.524  1.00  0.00     0.031 C 
ATOM     61  C   UNL A   1      44.179  26.806  28.696  1.00  0.00     0.031 A 
BRANCH  48  62
ATOM     62  C   UNL A   1      46.257  31.811  29.666  1.00  0.00    -0.014 A 
ATOM     63  C   UNL A   1      47.246  32.208  28.736  1.00  0.00     0.009 A 
ATOM     64  C   UNL A   1      46.645  31.664  31.000  1.00  0.00     0.009 A 
ATOM     65  C   UNL A   1      48.591  32.303  29.092  1.00  0.00     0.001 A 
ATOM     66  C   UNL A   1      47.991  31.802  31.367  1.00  0.00     0.001 A 
ATOM     67  C   UNL A   1      48.966  32.076  30.408  1.00  0.00     0.000 A 
ENDBRANCH  48  62
BRANCH  49  68
ATOM     68  C   UNL A   1      39.420  24.054  27.239  1.00  0.00    -0.014 A 
ATOM     69  C   UNL A   1      38.225  24.083  26.519  1.00  0.00     0.009 A 
ATOM     70  C   UNL A   1      40.082  22.788  27.256  1.00  0.00     0.009 A 
ATOM     71  C   UNL A   1      37.787  22.951  25.787  1.00  0.00     0.001 A 
ATOM     72  C   UNL A   1      39.687  21.686  26.493  1.00  0.00     0.001 A 
ATOM     73  C   UNL A   1      38.537  21.773  25.740  1.00  0.00     0.000 A 
ENDBRANCH  49  68
BRANCH  61  74
ATOM     74  C   UNL A   1      44.085  26.616  30.204  1.00  0.00    -0.014 A 
ATOM     75  C   UNL A   1      43.325  27.510  30.971  1.00  0.00     0.009 A 
ATOM     76  C   UNL A   1      44.812  25.637  30.907  1.00  0.00     0.009 A 
ATOM     77  C   UNL A   1      43.305  27.442  32.372  1.00  0.00     0.001 A 
ATOM     78  C   UNL A   1      44.802  25.568  32.310  1.00  0.00     0.001 A 
ATOM     79  C   UNL A   1      44.045  26.474  33.044  1.00  0.00     0.000 A 
ENDBRANCH  61  74
ENDBRANCH  35  36
ENDBRANCH  28  30
ENDBRANCH  27  28
ENDBRANCH  26  27
ENDBRANCH  25  26
ENDBRANCH  24  25
ENDBRANCH   1  24
TORSDOF 17
ENDMDL
