MODEL 1
REMARK VINA RESULT:      -9.0      0.000      0.000
REMARK SMILES C=CC[N@@H+](CC(=O)OCCOCCOC(=O)c1ccc(-c2c3nc(c(-c4ccccc4)c4ccc([nH]4)c(-c4ccccc4)c4nc(c(-c5ccccc5)c5ccc2[nH]5)C=C4)C=C3)cc1)C[C@H]1CCC[C@H](C)C1
REMARK SMILES IDX 10 1 9 2 8 3 6 4 7 5 5 6 4 7 3 9 2 10 1 11 65 12 66 13 67 14
REMARK SMILES IDX 72 15 68 16 70 17 69 18 71 19 11 20 12 21 13 22 14 23 15 24
REMARK SMILES IDX 16 25 17 26 18 27 64 28 19 29 63 30 20 31 21 32 22 33 57 34
REMARK SMILES IDX 23 35 62 36 56 37 58 38 24 39 61 40 55 41 54 42 25 44 47 45
REMARK SMILES IDX 32 46 46 47 33 48 36 49 45 50 59 51 34 52 35 53 44 55 60 56
REMARK SMILES IDX 37 57 26 58 27 59 31 60 28 61 30 62 29 63 48 64 49 65 53 66
REMARK SMILES IDX 50 67 52 68 51 69 38 70 39 71 43 72 40 73 42 74 41 75
REMARK H PARENT 4 8 58 43 36 54
REMARK Flexibility Score: inf
ROOT
ATOM      1  C   UNL A   1      33.828  29.373  27.323  1.00  0.00     0.202 C 
ENDROOT
BRANCH   1   2
ATOM      2  C   UNL A   1      32.632  28.407  27.362  1.00  0.00     0.261 C 
BRANCH   2   3
ATOM      3  O   UNL A   1      32.855  27.137  26.721  1.00  0.00    -0.459 OA
BRANCH   3   4
ATOM      4  C   UNL A   1      31.728  26.461  26.351  1.00  0.00     0.361 C 
ATOM      5  O   UNL A   1      31.325  25.440  26.903  1.00  0.00    -0.245 OA
BRANCH   4   6
ATOM      6  C   UNL A   1      30.917  27.138  25.245  1.00  0.00     0.386 C 
BRANCH   6   7
ATOM      7  N   UNL A   1      31.588  27.347  23.958  1.00  0.00    -0.322 N 
ATOM      8  H   UNL A   1      31.071  27.293  23.081  1.00  0.00     0.348 HD
BRANCH   7   9
ATOM      9  C   UNL A   1      32.265  26.208  23.375  1.00  0.00     0.290 C 
BRANCH   9  10
ATOM     10  C   UNL A   1      31.634  25.646  22.131  1.00  0.00     0.025 C 
ATOM     11  C   UNL A   1      32.130  25.828  20.897  1.00  0.00     0.010 C 
ENDBRANCH   9  10
ENDBRANCH   7   9
BRANCH   7  12
ATOM     12  C   UNL A   1      31.688  28.714  23.460  1.00  0.00     0.266 C 
BRANCH  12  13
ATOM     13  C   UNL A   1      30.369  29.384  23.011  1.00  0.00     0.044 C 
ATOM     14  C   UNL A   1      29.205  28.399  23.037  1.00  0.00     0.009 C 
ATOM     15  C   UNL A   1      29.988  30.584  23.907  1.00  0.00     0.012 C 
ATOM     16  C   UNL A   1      28.023  29.047  22.373  1.00  0.00     0.001 C 
ATOM     17  C   UNL A   1      28.572  31.189  23.710  1.00  0.00    -0.014 C 
ATOM     18  C   UNL A   1      27.501  30.265  23.106  1.00  0.00     0.003 C 
ATOM     19  C   UNL A   1      28.574  32.537  22.979  1.00  0.00     0.007 C 
ENDBRANCH  12  13
ENDBRANCH   7  12
ENDBRANCH   6   7
ENDBRANCH   4   6
ENDBRANCH   3   4
ENDBRANCH   2   3
ENDBRANCH   1   2
BRANCH   1  20
ATOM     20  O   UNL A   1      33.569  30.720  26.953  1.00  0.00    -0.374 OA
BRANCH  20  21
ATOM     21  C   UNL A   1      32.211  31.068  26.705  1.00  0.00     0.202 C 
BRANCH  21  22
ATOM     22  C   UNL A   1      31.689  32.357  27.351  1.00  0.00     0.261 C 
BRANCH  22  23
ATOM     23  O   UNL A   1      32.542  33.510  27.167  1.00  0.00    -0.460 OA
BRANCH  23  24
ATOM     24  C   UNL A   1      32.988  34.101  28.305  1.00  0.00     0.338 C 
ATOM     25  O   UNL A   1      32.400  34.936  28.983  1.00  0.00    -0.246 OA
BRANCH  24  26
ATOM     26  C   UNL A   1      34.313  33.567  28.680  1.00  0.00     0.060 A 
ATOM     27  C   UNL A   1      35.431  33.843  27.900  1.00  0.00     0.016 A 
ATOM     28  C   UNL A   1      34.443  32.711  29.772  1.00  0.00     0.016 A 
ATOM     29  C   UNL A   1      36.673  33.287  28.247  1.00  0.00     0.010 A 
ATOM     30  C   UNL A   1      35.702  32.280  30.200  1.00  0.00     0.010 A 
ATOM     31  C   UNL A   1      36.839  32.528  29.424  1.00  0.00    -0.014 A 
BRANCH  31  32
ATOM     32  C   UNL A   1      38.186  31.997  29.813  1.00  0.00     0.031 A 
ATOM     33  C   UNL A   1      39.082  32.718  30.799  1.00  0.00     0.074 A 
ATOM     34  C   UNL A   1      38.627  30.842  29.272  1.00  0.00     0.049 A 
ATOM     35  N   UNL A   1      40.222  32.322  31.318  1.00  0.00    -0.248 NA
ATOM     36  C   UNL A   1      38.673  34.061  31.240  1.00  0.00     0.031 C 
ATOM     37  C   UNL A   1      37.932  30.071  28.240  1.00  0.00     0.029 A 
ATOM     38  N   UNL A   1      39.754  30.098  29.535  1.00  0.00    -0.354 N 
ATOM     39  C   UNL A   1      40.663  33.365  32.127  1.00  0.00     0.074 A 
ATOM     40  C   UNL A   1      39.706  34.439  31.978  1.00  0.00     0.031 C 
ATOM     41  C   UNL A   1      38.597  28.928  28.020  1.00  0.00     0.029 A 
ATOM     42  C   UNL A   1      39.792  28.901  28.859  1.00  0.00     0.049 A 
ATOM     43  H   UNL A   1      40.465  30.393  30.148  1.00  0.00     0.167 HD
ATOM     44  C   UNL A   1      41.741  33.424  32.948  1.00  0.00     0.031 A 
ATOM     45  C   UNL A   1      40.671  27.882  28.912  1.00  0.00     0.031 A 
ATOM     46  C   UNL A   1      42.693  32.360  33.127  1.00  0.00     0.049 A 
ATOM     47  C   UNL A   1      41.855  27.960  29.833  1.00  0.00     0.074 A 
ATOM     48  C   UNL A   1      43.757  32.294  34.010  1.00  0.00     0.029 A 
ATOM     49  N   UNL A   1      42.703  31.179  32.403  1.00  0.00    -0.354 N 
ATOM     50  N   UNL A   1      42.180  28.906  30.679  1.00  0.00    -0.248 NA
ATOM     51  C   UNL A   1      42.792  26.827  29.807  1.00  0.00     0.031 C 
ATOM     52  C   UNL A   1      44.446  31.099  33.780  1.00  0.00     0.029 A 
ATOM     53  C   UNL A   1      43.778  30.398  32.790  1.00  0.00     0.049 A 
ATOM     54  H   UNL A   1      42.043  30.933  31.714  1.00  0.00     0.167 HD
ATOM     55  C   UNL A   1      43.351  28.478  31.293  1.00  0.00     0.074 A 
ATOM     56  C   UNL A   1      43.666  27.177  30.740  1.00  0.00     0.031 C 
ATOM     57  C   UNL A   1      44.099  29.112  32.227  1.00  0.00     0.031 A 
BRANCH  44  58
ATOM     58  C   UNL A   1      41.947  34.692  33.737  1.00  0.00    -0.014 A 
ATOM     59  C   UNL A   1      41.406  34.843  35.024  1.00  0.00     0.009 A 
ATOM     60  C   UNL A   1      42.732  35.729  33.208  1.00  0.00     0.009 A 
ATOM     61  C   UNL A   1      41.608  36.021  35.746  1.00  0.00     0.001 A 
ATOM     62  C   UNL A   1      42.958  36.895  33.944  1.00  0.00     0.001 A 
ATOM     63  C   UNL A   1      42.385  37.045  35.206  1.00  0.00     0.000 A 
ENDBRANCH  44  58
BRANCH  45  64
ATOM     64  C   UNL A   1      40.443  26.670  28.083  1.00  0.00    -0.014 A 
ATOM     65  C   UNL A   1      39.643  25.622  28.563  1.00  0.00     0.009 A 
ATOM     66  C   UNL A   1      41.011  26.560  26.803  1.00  0.00     0.009 A 
ATOM     67  C   UNL A   1      39.427  24.482  27.785  1.00  0.00     0.001 A 
ATOM     68  C   UNL A   1      40.769  25.432  26.017  1.00  0.00     0.001 A 
ATOM     69  C   UNL A   1      39.984  24.391  26.510  1.00  0.00     0.000 A 
ENDBRANCH  45  64
BRANCH  57  70
ATOM     70  C   UNL A   1      45.336  28.414  32.715  1.00  0.00    -0.014 A 
ATOM     71  C   UNL A   1      46.580  28.644  32.107  1.00  0.00     0.009 A 
ATOM     72  C   UNL A   1      45.270  27.561  33.827  1.00  0.00     0.009 A 
ATOM     73  C   UNL A   1      47.730  28.013  32.589  1.00  0.00     0.001 A 
ATOM     74  C   UNL A   1      46.424  26.953  34.322  1.00  0.00     0.001 A 
ATOM     75  C   UNL A   1      47.651  27.173  33.699  1.00  0.00     0.000 A 
ENDBRANCH  57  70
ENDBRANCH  31  32
ENDBRANCH  24  26
ENDBRANCH  23  24
ENDBRANCH  22  23
ENDBRANCH  21  22
ENDBRANCH  20  21
ENDBRANCH   1  20
TORSDOF 19
ENDMDL
MODEL 2
REMARK VINA RESULT:      -9.0      3.273      8.071
REMARK SMILES C=CC[N@@H+](CC(=O)OCCOCCOC(=O)c1ccc(-c2c3nc(c(-c4ccccc4)c4ccc([nH]4)c(-c4ccccc4)c4nc(c(-c5ccccc5)c5ccc2[nH]5)C=C4)C=C3)cc1)C[C@H]1CCC[C@H](C)C1
REMARK SMILES IDX 10 1 9 2 8 3 6 4 7 5 5 6 4 7 3 9 2 10 1 11 65 12 66 13 67 14
REMARK SMILES IDX 72 15 68 16 70 17 69 18 71 19 11 20 12 21 13 22 14 23 15 24
REMARK SMILES IDX 16 25 17 26 18 27 64 28 19 29 63 30 20 31 21 32 22 33 57 34
REMARK SMILES IDX 23 35 62 36 56 37 58 38 24 39 61 40 55 41 54 42 25 44 47 45
REMARK SMILES IDX 32 46 46 47 33 48 36 49 45 50 59 51 34 52 35 53 44 55 60 56
REMARK SMILES IDX 37 57 26 58 27 59 31 60 28 61 30 62 29 63 48 64 49 65 53 66
REMARK SMILES IDX 50 67 52 68 51 69 38 70 39 71 43 72 40 73 42 74 41 75
REMARK H PARENT 4 8 58 43 36 54
REMARK Flexibility Score: inf
ROOT
ATOM      1  C   UNL A   1      32.155  27.443  25.896  1.00  0.00     0.202 C 
ENDROOT
BRANCH   1   2
ATOM      2  C   UNL A   1      31.480  26.245  26.584  1.00  0.00     0.261 C 
BRANCH   2   3
ATOM      3  O   UNL A   1      31.712  24.972  25.952  1.00  0.00    -0.459 OA
BRANCH   3   4
ATOM      4  C   UNL A   1      31.930  23.925  26.802  1.00  0.00     0.361 C 
ATOM      5  O   UNL A   1      31.058  23.409  27.496  1.00  0.00    -0.245 OA
BRANCH   4   6
ATOM      6  C   UNL A   1      33.346  23.351  26.748  1.00  0.00     0.386 C 
BRANCH   6   7
ATOM      7  N   UNL A   1      33.980  23.261  25.429  1.00  0.00    -0.322 N 
ATOM      8  H   UNL A   1      34.585  22.476  25.189  1.00  0.00     0.348 HD
BRANCH   7   9
ATOM      9  C   UNL A   1      35.217  23.988  25.240  1.00  0.00     0.290 C 
BRANCH   9  10
ATOM     10  C   UNL A   1      36.372  23.537  26.092  1.00  0.00     0.025 C 
ATOM     11  C   UNL A   1      37.656  23.808  25.809  1.00  0.00     0.010 C 
ENDBRANCH   9  10
ENDBRANCH   7   9
BRANCH   7  12
ATOM     12  C   UNL A   1      33.229  22.611  24.360  1.00  0.00     0.266 C 
BRANCH  12  13
ATOM     13  C   UNL A   1      33.591  21.139  24.058  1.00  0.00     0.044 C 
ATOM     14  C   UNL A   1      34.418  20.525  25.181  1.00  0.00     0.009 C 
ATOM     15  C   UNL A   1      32.336  20.258  23.863  1.00  0.00     0.012 C 
ATOM     16  C   UNL A   1      34.925  19.187  24.719  1.00  0.00     0.001 C 
ATOM     17  C   UNL A   1      32.557  18.722  23.793  1.00  0.00    -0.014 C 
ATOM     18  C   UNL A   1      33.830  18.174  24.461  1.00  0.00     0.003 C 
ATOM     19  C   UNL A   1      32.417  18.143  22.380  1.00  0.00     0.007 C 
ENDBRANCH  12  13
ENDBRANCH   7  12
ENDBRANCH   6   7
ENDBRANCH   4   6
ENDBRANCH   3   4
ENDBRANCH   2   3
ENDBRANCH   1   2
BRANCH   1  20
ATOM     20  O   UNL A   1      31.366  28.605  25.683  1.00  0.00    -0.374 OA
BRANCH  20  21
ATOM     21  C   UNL A   1      32.034  29.859  25.769  1.00  0.00     0.202 C 
BRANCH  21  22
ATOM     22  C   UNL A   1      32.614  30.251  27.133  1.00  0.00     0.261 C 
BRANCH  22  23
ATOM     23  O   UNL A   1      34.030  29.998  27.278  1.00  0.00    -0.460 OA
BRANCH  23  24
ATOM     24  C   UNL A   1      34.696  30.835  28.115  1.00  0.00     0.338 C 
ATOM     25  O   UNL A   1      34.275  31.875  28.609  1.00  0.00    -0.246 OA
BRANCH  24  26
ATOM     26  C   UNL A   1      36.042  30.304  28.413  1.00  0.00     0.060 A 
ATOM     27  C   UNL A   1      37.057  30.383  27.465  1.00  0.00     0.016 A 
ATOM     28  C   UNL A   1      36.287  29.643  29.615  1.00  0.00     0.016 A 
ATOM     29  C   UNL A   1      38.316  29.830  27.749  1.00  0.00     0.010 A 
ATOM     30  C   UNL A   1      37.578  29.226  29.954  1.00  0.00     0.010 A 
ATOM     31  C   UNL A   1      38.611  29.277  29.013  1.00  0.00    -0.014 A 
BRANCH  31  32
ATOM     32  C   UNL A   1      39.980  28.751  29.322  1.00  0.00     0.031 A 
ATOM     33  C   UNL A   1      40.441  27.383  28.861  1.00  0.00     0.074 A 
ATOM     34  C   UNL A   1      40.839  29.509  30.035  1.00  0.00     0.049 A 
ATOM     35  N   UNL A   1      41.633  26.841  28.954  1.00  0.00    -0.248 NA
ATOM     36  C   UNL A   1      39.441  26.496  28.247  1.00  0.00     0.031 C 
ATOM     37  C   UNL A   1      40.525  30.808  30.633  1.00  0.00     0.029 A 
ATOM     38  N   UNL A   1      42.162  29.311  30.355  1.00  0.00    -0.354 N 
ATOM     39  C   UNL A   1      41.518  25.559  28.426  1.00  0.00     0.074 A 
ATOM     40  C   UNL A   1      40.128  25.376  28.078  1.00  0.00     0.031 C 
ATOM     41  C   UNL A   1      41.639  31.328  31.168  1.00  0.00     0.029 A 
ATOM     42  C   UNL A   1      42.739  30.383  30.997  1.00  0.00     0.049 A 
ATOM     43  H   UNL A   1      42.650  28.483  30.146  1.00  0.00     0.167 HD
ATOM     44  C   UNL A   1      42.479  24.624  28.213  1.00  0.00     0.031 A 
ATOM     45  C   UNL A   1      44.008  30.600  31.392  1.00  0.00     0.031 A 
ATOM     46  C   UNL A   1      43.871  24.794  28.532  1.00  0.00     0.049 A 
ATOM     47  C   UNL A   1      45.060  29.558  31.141  1.00  0.00     0.074 A 
ATOM     48  C   UNL A   1      44.928  23.942  28.261  1.00  0.00     0.029 A 
ATOM     49  N   UNL A   1      44.401  25.884  29.203  1.00  0.00    -0.354 N 
ATOM     50  N   UNL A   1      44.949  28.405  30.527  1.00  0.00    -0.248 NA
ATOM     51  C   UNL A   1      46.414  29.849  31.635  1.00  0.00     0.031 C 
ATOM     52  C   UNL A   1      46.088  24.488  28.819  1.00  0.00     0.029 A 
ATOM     53  C   UNL A   1      45.761  25.707  29.390  1.00  0.00     0.049 A 
ATOM     54  H   UNL A   1      43.886  26.669  29.502  1.00  0.00     0.167 HD
ATOM     55  C   UNL A   1      46.218  27.840  30.552  1.00  0.00     0.074 A 
ATOM     56  C   UNL A   1      47.088  28.786  31.219  1.00  0.00     0.031 C 
ATOM     57  C   UNL A   1      46.621  26.641  30.069  1.00  0.00     0.031 A 
BRANCH  44  58
ATOM     58  C   UNL A   1      42.055  23.320  27.586  1.00  0.00    -0.014 A 
ATOM     59  C   UNL A   1      42.154  23.114  26.201  1.00  0.00     0.009 A 
ATOM     60  C   UNL A   1      41.595  22.268  28.394  1.00  0.00     0.009 A 
ATOM     61  C   UNL A   1      41.762  21.900  25.633  1.00  0.00     0.001 A 
ATOM     62  C   UNL A   1      41.231  21.044  27.827  1.00  0.00     0.001 A 
ATOM     63  C   UNL A   1      41.303  20.866  26.447  1.00  0.00     0.000 A 
ENDBRANCH  44  58
BRANCH  45  64
ATOM     64  C   UNL A   1      44.366  31.887  32.043  1.00  0.00    -0.014 A 
ATOM     65  C   UNL A   1      44.780  32.982  31.269  1.00  0.00     0.009 A 
ATOM     66  C   UNL A   1      44.281  32.033  33.436  1.00  0.00     0.009 A 
ATOM     67  C   UNL A   1      45.116  34.193  31.879  1.00  0.00     0.001 A 
ATOM     68  C   UNL A   1      44.590  33.253  34.040  1.00  0.00     0.001 A 
ATOM     69  C   UNL A   1      45.015  34.330  33.263  1.00  0.00     0.000 A 
ENDBRANCH  45  64
BRANCH  57  70
ATOM     70  C   UNL A   1      48.068  26.274  30.242  1.00  0.00    -0.014 A 
ATOM     71  C   UNL A   1      48.513  25.631  31.408  1.00  0.00     0.009 A 
ATOM     72  C   UNL A   1      48.985  26.525  29.210  1.00  0.00     0.009 A 
ATOM     73  C   UNL A   1      49.855  25.267  31.545  1.00  0.00     0.001 A 
ATOM     74  C   UNL A   1      50.319  26.137  29.340  1.00  0.00     0.001 A 
ATOM     75  C   UNL A   1      50.755  25.515  30.509  1.00  0.00     0.000 A 
ENDBRANCH  57  70
ENDBRANCH  31  32
ENDBRANCH  24  26
ENDBRANCH  23  24
ENDBRANCH  22  23
ENDBRANCH  21  22
ENDBRANCH  20  21
ENDBRANCH   1  20
TORSDOF 19
ENDMDL
MODEL 3
REMARK VINA RESULT:      -8.8      4.596      9.248
REMARK SMILES C=CC[N@@H+](CC(=O)OCCOCCOC(=O)c1ccc(-c2c3nc(c(-c4ccccc4)c4ccc([nH]4)c(-c4ccccc4)c4nc(c(-c5ccccc5)c5ccc2[nH]5)C=C4)C=C3)cc1)C[C@H]1CCC[C@H](C)C1
REMARK SMILES IDX 10 1 9 2 8 3 6 4 7 5 5 6 4 7 3 9 2 10 1 11 65 12 66 13 67 14
REMARK SMILES IDX 72 15 68 16 70 17 69 18 71 19 11 20 12 21 13 22 14 23 15 24
REMARK SMILES IDX 16 25 17 26 18 27 64 28 19 29 63 30 20 31 21 32 22 33 57 34
REMARK SMILES IDX 23 35 62 36 56 37 58 38 24 39 61 40 55 41 54 42 25 44 47 45
REMARK SMILES IDX 32 46 46 47 33 48 36 49 45 50 59 51 34 52 35 53 44 55 60 56
REMARK SMILES IDX 37 57 26 58 27 59 31 60 28 61 30 62 29 63 48 64 49 65 53 66
REMARK SMILES IDX 50 67 52 68 51 69 38 70 39 71 43 72 40 73 42 74 41 75
REMARK H PARENT 4 8 58 43 36 54
REMARK Flexibility Score: inf
ROOT
ATOM      1  C   UNL A   1      42.023  20.656  26.063  1.00  0.00     0.202 C 
ENDROOT
BRANCH   1   2
ATOM      2  C   UNL A   1      40.803  21.157  26.854  1.00  0.00     0.261 C 
BRANCH   2   3
ATOM      3  O   UNL A   1      39.665  21.520  26.050  1.00  0.00    -0.459 OA
BRANCH   3   4
ATOM      4  C   UNL A   1      39.133  22.751  26.308  1.00  0.00     0.361 C 
ATOM      5  O   UNL A   1      39.790  23.723  26.671  1.00  0.00    -0.245 OA
BRANCH   4   6
ATOM      6  C   UNL A   1      37.639  22.872  26.001  1.00  0.00     0.386 C 
BRANCH   6   7
ATOM      7  N   UNL A   1      37.134  22.127  24.844  1.00  0.00    -0.322 N 
ATOM      8  H   UNL A   1      37.774  21.716  24.164  1.00  0.00     0.348 HD
BRANCH   7   9
ATOM      9  C   UNL A   1      36.742  22.897  23.683  1.00  0.00     0.290 C 
BRANCH   9  10
ATOM     10  C   UNL A   1      35.545  23.788  23.869  1.00  0.00     0.025 C 
ATOM     11  C   UNL A   1      34.467  23.763  23.069  1.00  0.00     0.010 C 
ENDBRANCH   9  10
ENDBRANCH   7   9
BRANCH   7  12
ATOM     12  C   UNL A   1      36.888  20.699  25.014  1.00  0.00     0.266 C 
BRANCH  12  13
ATOM     13  C   UNL A   1      35.453  20.205  24.720  1.00  0.00     0.044 C 
ATOM     14  C   UNL A   1      35.365  18.684  24.770  1.00  0.00     0.009 C 
ATOM     15  C   UNL A   1      34.424  20.767  25.727  1.00  0.00     0.012 C 
ATOM     16  C   UNL A   1      34.016  18.271  24.250  1.00  0.00     0.001 C 
ATOM     17  C   UNL A   1      32.995  20.160  25.688  1.00  0.00    -0.014 C 
ATOM     18  C   UNL A   1      32.860  18.743  25.107  1.00  0.00     0.003 C 
ATOM     19  C   UNL A   1      31.949  21.087  25.057  1.00  0.00     0.007 C 
ENDBRANCH  12  13
ENDBRANCH   7  12
ENDBRANCH   6   7
ENDBRANCH   4   6
ENDBRANCH   3   4
ENDBRANCH   2   3
ENDBRANCH   1   2
BRANCH   1  20
ATOM     20  O   UNL A   1      43.250  21.349  26.244  1.00  0.00    -0.374 OA
BRANCH  20  21
ATOM     21  C   UNL A   1      44.260  21.131  25.264  1.00  0.00     0.202 C 
BRANCH  21  22
ATOM     22  C   UNL A   1      44.550  22.278  24.289  1.00  0.00     0.261 C 
BRANCH  22  23
ATOM     23  O   UNL A   1      43.887  23.522  24.611  1.00  0.00    -0.460 OA
BRANCH  23  24
ATOM     24  C   UNL A   1      44.692  24.522  25.054  1.00  0.00     0.338 C 
ATOM     25  O   UNL A   1      45.765  24.874  24.576  1.00  0.00    -0.246 OA
BRANCH  24  26
ATOM     26  C   UNL A   1      44.079  25.204  26.212  1.00  0.00     0.060 A 
ATOM     27  C   UNL A   1      44.392  26.529  26.497  1.00  0.00     0.016 A 
ATOM     28  C   UNL A   1      43.244  24.503  27.080  1.00  0.00     0.016 A 
ATOM     29  C   UNL A   1      43.835  27.144  27.630  1.00  0.00     0.010 A 
ATOM     30  C   UNL A   1      42.576  25.158  28.119  1.00  0.00     0.010 A 
ATOM     31  C   UNL A   1      42.886  26.484  28.439  1.00  0.00    -0.014 A 
BRANCH  31  32
ATOM     32  C   UNL A   1      42.253  27.179  29.605  1.00  0.00     0.031 A 
ATOM     33  C   UNL A   1      42.898  27.205  30.976  1.00  0.00     0.074 A 
ATOM     34  C   UNL A   1      41.067  27.802  29.444  1.00  0.00     0.049 A 
ATOM     35  N   UNL A   1      42.525  27.864  32.049  1.00  0.00    -0.248 NA
ATOM     36  C   UNL A   1      44.092  26.372  31.185  1.00  0.00     0.031 C 
ATOM     37  C   UNL A   1      40.266  27.794  28.218  1.00  0.00     0.029 A 
ATOM     38  N   UNL A   1      40.338  28.589  30.306  1.00  0.00    -0.354 N 
ATOM     39  C   UNL A   1      43.424  27.513  33.051  1.00  0.00     0.074 A 
ATOM     40  C   UNL A   1      44.320  26.533  32.480  1.00  0.00     0.031 C 
ATOM     41  C   UNL A   1      39.210  28.605  28.375  1.00  0.00     0.029 A 
ATOM     42  C   UNL A   1      39.227  29.156  29.727  1.00  0.00     0.049 A 
ATOM     43  H   UNL A   1      40.589  28.734  31.246  1.00  0.00     0.167 HD
ATOM     44  C   UNL A   1      43.528  27.981  34.320  1.00  0.00     0.031 A 
ATOM     45  C   UNL A   1      38.327  30.033  30.211  1.00  0.00     0.031 A 
ATOM     46  C   UNL A   1      42.661  28.971  34.901  1.00  0.00     0.049 A 
ATOM     47  C   UNL A   1      38.461  30.547  31.615  1.00  0.00     0.074 A 
ATOM     48  C   UNL A   1      42.752  29.576  36.143  1.00  0.00     0.029 A 
ATOM     49  N   UNL A   1      41.536  29.495  34.285  1.00  0.00    -0.354 N 
ATOM     50  N   UNL A   1      39.394  30.294  32.500  1.00  0.00    -0.248 NA
ATOM     51  C   UNL A   1      37.419  31.472  32.086  1.00  0.00     0.031 C 
ATOM     52  C   UNL A   1      41.650  30.422  36.302  1.00  0.00     0.029 A 
ATOM     53  C   UNL A   1      40.903  30.384  35.136  1.00  0.00     0.049 A 
ATOM     54  H   UNL A   1      41.233  29.269  33.375  1.00  0.00     0.167 HD
ATOM     55  C   UNL A   1      39.057  31.035  33.627  1.00  0.00     0.074 A 
ATOM     56  C   UNL A   1      37.849  31.765  33.305  1.00  0.00     0.031 C 
ATOM     57  C   UNL A   1      39.692  31.096  34.821  1.00  0.00     0.031 A 
BRANCH  44  58
ATOM     58  C   UNL A   1      44.640  27.431  35.177  1.00  0.00    -0.014 A 
ATOM     59  C   UNL A   1      44.448  26.288  35.970  1.00  0.00     0.009 A 
ATOM     60  C   UNL A   1      45.908  28.033  35.155  1.00  0.00     0.009 A 
ATOM     61  C   UNL A   1      45.487  25.786  36.756  1.00  0.00     0.001 A 
ATOM     62  C   UNL A   1      46.955  27.511  35.918  1.00  0.00     0.001 A 
ATOM     63  C   UNL A   1      46.740  26.396  36.727  1.00  0.00     0.000 A 
ENDBRANCH  44  58
BRANCH  45  64
ATOM     64  C   UNL A   1      37.225  30.514  29.337  1.00  0.00    -0.014 A 
ATOM     65  C   UNL A   1      37.219  31.835  28.864  1.00  0.00     0.009 A 
ATOM     66  C   UNL A   1      36.183  29.652  28.959  1.00  0.00     0.009 A 
ATOM     67  C   UNL A   1      36.185  32.289  28.043  1.00  0.00     0.001 A 
ATOM     68  C   UNL A   1      35.166  30.100  28.114  1.00  0.00     0.001 A 
ATOM     69  C   UNL A   1      35.163  31.419  27.662  1.00  0.00     0.000 A 
ENDBRANCH  45  64
BRANCH  57  70
ATOM     70  C   UNL A   1      39.096  31.982  35.878  1.00  0.00    -0.014 A 
ATOM     71  C   UNL A   1      39.341  33.365  35.881  1.00  0.00     0.009 A 
ATOM     72  C   UNL A   1      38.240  31.441  36.849  1.00  0.00     0.009 A 
ATOM     73  C   UNL A   1      38.758  34.184  36.851  1.00  0.00     0.001 A 
ATOM     74  C   UNL A   1      37.639  32.266  37.801  1.00  0.00     0.001 A 
ATOM     75  C   UNL A   1      37.903  33.635  37.805  1.00  0.00     0.000 A 
ENDBRANCH  57  70
ENDBRANCH  31  32
ENDBRANCH  24  26
ENDBRANCH  23  24
ENDBRANCH  22  23
ENDBRANCH  21  22
ENDBRANCH  20  21
ENDBRANCH   1  20
TORSDOF 19
ENDMDL
