MODEL 1
REMARK VINA RESULT:     -11.2      0.000      0.000
REMARK SMILES Cc1ccc(N2CCC[C@@H](Cn3cc(C(=O)OCCOCCOC(=O)c4ccc(-c5c6nc(c(-c7ccccc7)c7ccc([nH]7)c(-c7ccccc7)c7nc(c(-c8ccccc8)c8ccc5[nH]8)C=C7)C=C6)cc4)nn3)C2)nn1
REMARK SMILES IDX 19 1 18 2 17 3 15 4 16 5 14 6 12 7 13 8 75 9 74 10 11 11
REMARK SMILES IDX 10 12 6 13 7 14 76 15 8 16 9 17 5 18 1 19 2 20 3 21 78 22
REMARK SMILES IDX 4 23 77 24 20 25 21 26 22 27 23 28 24 29 25 30 26 31 27 32
REMARK SMILES IDX 73 33 28 34 72 35 29 36 30 37 31 38 66 39 32 40 71 41 65 42
REMARK SMILES IDX 67 43 33 44 70 45 64 46 63 47 34 49 56 50 41 51 55 52 42 53
REMARK SMILES IDX 45 54 54 55 68 56 43 57 44 58 53 60 69 61 46 62 35 63 36 64
REMARK SMILES IDX 40 65 37 66 39 67 38 68 57 69 58 70 62 71 59 72 61 73 60 74
REMARK SMILES IDX 47 75 48 76 52 77 49 78 51 79 50 80
REMARK H PARENT 67 48 45 59
REMARK Flexibility Score: inf
ROOT
ATOM      1  C   UNL A   1      35.642  22.039  26.015  1.00  0.00     0.202 C 
ENDROOT
BRANCH   1   2
ATOM      2  C   UNL A   1      34.395  21.255  26.418  1.00  0.00     0.261 C 
BRANCH   2   3
ATOM      3  O   UNL A   1      33.917  20.444  25.338  1.00  0.00    -0.458 OA
BRANCH   3   4
ATOM      4  C   UNL A   1      32.582  20.551  25.090  1.00  0.00     0.360 C 
ATOM      5  O   UNL A   1      31.817  19.592  24.957  1.00  0.00    -0.244 OA
BRANCH   4   6
ATOM      6  C   UNL A   1      32.128  21.925  25.087  1.00  0.00     0.190 A 
ATOM      7  N   UNL A   1      31.451  23.860  24.461  1.00  0.00    -0.251 N 
ATOM      8  C   UNL A   1      32.406  22.927  24.171  1.00  0.00     0.146 A 
ATOM      9  N   UNL A   1      30.943  23.660  25.689  1.00  0.00    -0.067 NA
ATOM     10  N   UNL A   1      31.294  22.436  26.052  1.00  0.00    -0.123 NA
BRANCH   7  11
ATOM     11  C   UNL A   1      30.696  24.646  23.505  1.00  0.00     0.151 C 
BRANCH  11  12
ATOM     12  C   UNL A   1      31.161  26.118  23.418  1.00  0.00     0.030 C 
ATOM     13  N   UNL A   1      30.544  28.443  23.597  1.00  0.00    -0.355 N 
ATOM     14  C   UNL A   1      31.557  28.804  24.573  1.00  0.00     0.118 C 
ATOM     15  C   UNL A   1      30.003  27.103  23.683  1.00  0.00     0.123 C 
ATOM     16  C   UNL A   1      32.771  27.918  24.314  1.00  0.00     0.022 C 
ATOM     17  C   UNL A   1      32.385  26.434  24.316  1.00  0.00     0.009 C 
BRANCH  13  18
ATOM     18  C   UNL A   1      29.806  29.417  22.963  1.00  0.00     0.151 A 
ATOM     19  C   UNL A   1      27.856  32.574  20.929  1.00  0.00     0.069 C 
ATOM     20  C   UNL A   1      28.534  31.480  21.688  1.00  0.00     0.060 A 
ATOM     21  C   UNL A   1      28.743  31.569  23.051  1.00  0.00     0.029 A 
ATOM     22  N   UNL A   1      28.940  30.399  20.989  1.00  0.00    -0.154 NA
ATOM     23  C   UNL A   1      29.375  30.514  23.695  1.00  0.00     0.051 A 
ATOM     24  N   UNL A   1      29.598  29.376  21.631  1.00  0.00    -0.133 NA
ENDBRANCH  13  18
ENDBRANCH  11  12
ENDBRANCH   7  11
ENDBRANCH   4   6
ENDBRANCH   3   4
ENDBRANCH   2   3
ENDBRANCH   1   2
BRANCH   1  25
ATOM     25  O   UNL A   1      36.321  21.687  24.811  1.00  0.00    -0.374 OA
BRANCH  25  26
ATOM     26  C   UNL A   1      37.620  21.106  24.825  1.00  0.00     0.202 C 
BRANCH  26  27
ATOM     27  C   UNL A   1      38.707  21.701  25.712  1.00  0.00     0.261 C 
BRANCH  27  28
ATOM     28  O   UNL A   1      39.301  20.741  26.569  1.00  0.00    -0.460 OA
BRANCH  28  29
ATOM     29  C   UNL A   1      40.448  20.241  26.056  1.00  0.00     0.338 C 
ATOM     30  O   UNL A   1      40.585  19.216  25.408  1.00  0.00    -0.246 OA
BRANCH  29  31
ATOM     31  C   UNL A   1      41.579  21.044  26.523  1.00  0.00     0.060 A 
ATOM     32  C   UNL A   1      41.857  20.922  27.885  1.00  0.00     0.016 A 
ATOM     33  C   UNL A   1      41.922  22.180  25.778  1.00  0.00     0.016 A 
ATOM     34  C   UNL A   1      42.162  22.069  28.571  1.00  0.00     0.010 A 
ATOM     35  C   UNL A   1      42.197  23.329  26.468  1.00  0.00     0.010 A 
ATOM     36  C   UNL A   1      42.202  23.272  27.859  1.00  0.00    -0.014 A 
BRANCH  36  37
ATOM     37  C   UNL A   1      42.349  24.490  28.614  1.00  0.00     0.031 A 
ATOM     38  C   UNL A   1      41.273  25.449  28.310  1.00  0.00     0.074 A 
ATOM     39  C   UNL A   1      43.321  24.682  29.522  1.00  0.00     0.049 A 
ATOM     40  N   UNL A   1      41.367  26.520  27.598  1.00  0.00    -0.248 NA
ATOM     41  C   UNL A   1      39.897  25.058  28.657  1.00  0.00     0.031 C 
ATOM     42  C   UNL A   1      44.268  23.720  30.091  1.00  0.00     0.029 A 
ATOM     43  N   UNL A   1      43.598  25.819  30.204  1.00  0.00    -0.354 N 
ATOM     44  C   UNL A   1      40.083  27.038  27.557  1.00  0.00     0.074 A 
ATOM     45  C   UNL A   1      39.200  26.006  28.036  1.00  0.00     0.031 C 
ATOM     46  C   UNL A   1      44.842  24.264  31.193  1.00  0.00     0.029 A 
ATOM     47  C   UNL A   1      44.414  25.649  31.313  1.00  0.00     0.049 A 
ATOM     48  H   UNL A   1      43.248  26.698  29.933  1.00  0.00     0.167 HD
ATOM     49  C   UNL A   1      39.859  28.368  27.401  1.00  0.00     0.031 A 
ATOM     50  C   UNL A   1      44.633  26.583  32.273  1.00  0.00     0.031 A 
ATOM     51  C   UNL A   1      41.022  29.064  26.925  1.00  0.00     0.049 A 
ATOM     52  C   UNL A   1      44.281  27.898  31.679  1.00  0.00     0.074 A 
ATOM     53  C   UNL A   1      41.770  29.023  25.766  1.00  0.00     0.029 A 
ATOM     54  N   UNL A   1      41.819  29.656  27.875  1.00  0.00    -0.354 N 
ATOM     55  N   UNL A   1      44.943  28.445  30.701  1.00  0.00    -0.248 NA
ATOM     56  C   UNL A   1      42.926  28.391  31.872  1.00  0.00     0.031 C 
ATOM     57  C   UNL A   1      43.122  29.178  26.190  1.00  0.00     0.029 A 
ATOM     58  C   UNL A   1      43.125  29.363  27.574  1.00  0.00     0.049 A 
ATOM     59  H   UNL A   1      41.508  30.194  28.638  1.00  0.00     0.167 HD
ATOM     60  C   UNL A   1      43.973  29.028  29.900  1.00  0.00     0.074 A 
ATOM     61  C   UNL A   1      42.761  29.043  30.717  1.00  0.00     0.031 C 
ATOM     62  C   UNL A   1      44.170  29.180  28.558  1.00  0.00     0.031 A 
BRANCH  49  63
ATOM     63  C   UNL A   1      38.714  29.058  28.081  1.00  0.00    -0.014 A 
ATOM     64  C   UNL A   1      38.503  28.858  29.451  1.00  0.00     0.009 A 
ATOM     65  C   UNL A   1      37.689  29.710  27.361  1.00  0.00     0.009 A 
ATOM     66  C   UNL A   1      37.320  29.286  30.064  1.00  0.00     0.001 A 
ATOM     67  C   UNL A   1      36.530  30.176  27.976  1.00  0.00     0.001 A 
ATOM     68  C   UNL A   1      36.337  29.948  29.329  1.00  0.00     0.000 A 
ENDBRANCH  49  63
BRANCH  50  69
ATOM     69  C   UNL A   1      44.721  26.406  33.745  1.00  0.00    -0.014 A 
ATOM     70  C   UNL A   1      45.247  27.439  34.543  1.00  0.00     0.009 A 
ATOM     71  C   UNL A   1      44.003  25.387  34.392  1.00  0.00     0.009 A 
ATOM     72  C   UNL A   1      44.997  27.490  35.921  1.00  0.00     0.001 A 
ATOM     73  C   UNL A   1      43.760  25.433  35.770  1.00  0.00     0.001 A 
ATOM     74  C   UNL A   1      44.236  26.497  36.530  1.00  0.00     0.000 A 
ENDBRANCH  50  69
BRANCH  62  75
ATOM     75  C   UNL A   1      45.549  28.894  28.015  1.00  0.00    -0.014 A 
ATOM     76  C   UNL A   1      45.929  27.636  27.512  1.00  0.00     0.009 A 
ATOM     77  C   UNL A   1      46.421  29.977  27.835  1.00  0.00     0.009 A 
ATOM     78  C   UNL A   1      47.150  27.474  26.844  1.00  0.00     0.001 A 
ATOM     79  C   UNL A   1      47.629  29.817  27.154  1.00  0.00     0.001 A 
ATOM     80  C   UNL A   1      47.993  28.567  26.656  1.00  0.00     0.000 A 
ENDBRANCH  62  75
ENDBRANCH  36  37
ENDBRANCH  29  31
ENDBRANCH  28  29
ENDBRANCH  27  28
ENDBRANCH  26  27
ENDBRANCH  25  26
ENDBRANCH   1  25
TORSDOF 17
ENDMDL
MODEL 2
REMARK VINA RESULT:     -11.2      2.545      6.438
REMARK SMILES Cc1ccc(N2CCC[C@@H](Cn3cc(C(=O)OCCOCCOC(=O)c4ccc(-c5c6nc(c(-c7ccccc7)c7ccc([nH]7)c(-c7ccccc7)c7nc(c(-c8ccccc8)c8ccc5[nH]8)C=C7)C=C6)cc4)nn3)C2)nn1
REMARK SMILES IDX 19 1 18 2 17 3 15 4 16 5 14 6 12 7 13 8 75 9 74 10 11 11
REMARK SMILES IDX 10 12 6 13 7 14 76 15 8 16 9 17 5 18 1 19 2 20 3 21 78 22
REMARK SMILES IDX 4 23 77 24 20 25 21 26 22 27 23 28 24 29 25 30 26 31 27 32
REMARK SMILES IDX 73 33 28 34 72 35 29 36 30 37 31 38 66 39 32 40 71 41 65 42
REMARK SMILES IDX 67 43 33 44 70 45 64 46 63 47 34 49 56 50 41 51 55 52 42 53
REMARK SMILES IDX 45 54 54 55 68 56 43 57 44 58 53 60 69 61 46 62 35 63 36 64
REMARK SMILES IDX 40 65 37 66 39 67 38 68 57 69 58 70 62 71 59 72 61 73 60 74
REMARK SMILES IDX 47 75 48 76 52 77 49 78 51 79 50 80
REMARK H PARENT 67 48 45 59
REMARK Flexibility Score: inf
ROOT
ATOM      1  C   UNL A   1      42.447  19.153  26.515  1.00  0.00     0.202 C 
ENDROOT
BRANCH   1   2
ATOM      2  C   UNL A   1      40.958  19.232  26.182  1.00  0.00     0.261 C 
BRANCH   2   3
ATOM      3  O   UNL A   1      40.320  20.300  26.893  1.00  0.00    -0.458 OA
BRANCH   3   4
ATOM      4  C   UNL A   1      40.135  21.438  26.169  1.00  0.00     0.360 C 
ATOM      5  O   UNL A   1      41.043  22.188  25.802  1.00  0.00    -0.244 OA
BRANCH   4   6
ATOM      6  C   UNL A   1      38.751  21.635  25.792  1.00  0.00     0.190 A 
ATOM      7  N   UNL A   1      36.912  22.509  25.121  1.00  0.00    -0.251 N 
ATOM      8  C   UNL A   1      37.958  22.758  25.964  1.00  0.00     0.146 A 
ATOM      9  N   UNL A   1      36.844  21.202  24.816  1.00  0.00    -0.067 NA
ATOM     10  N   UNL A   1      38.007  20.669  25.159  1.00  0.00    -0.123 NA
BRANCH   7  11
ATOM     11  C   UNL A   1      36.253  23.469  24.258  1.00  0.00     0.151 C 
BRANCH  11  12
ATOM     12  C   UNL A   1      34.975  24.077  24.880  1.00  0.00     0.030 C 
ATOM     13  N   UNL A   1      32.733  24.881  24.503  1.00  0.00    -0.355 N 
ATOM     14  C   UNL A   1      32.089  24.029  25.487  1.00  0.00     0.118 C 
ATOM     15  C   UNL A   1      33.885  24.333  23.819  1.00  0.00     0.123 C 
ATOM     16  C   UNL A   1      33.091  23.801  26.614  1.00  0.00     0.022 C 
ATOM     17  C   UNL A   1      34.419  23.258  26.074  1.00  0.00     0.009 C 
BRANCH  13  18
ATOM     18  C   UNL A   1      32.040  25.914  23.913  1.00  0.00     0.151 A 
ATOM     19  C   UNL A   1      30.078  29.314  22.335  1.00  0.00     0.069 C 
ATOM     20  C   UNL A   1      30.731  28.103  22.915  1.00  0.00     0.060 A 
ATOM     21  C   UNL A   1      30.124  27.362  23.911  1.00  0.00     0.029 A 
ATOM     22  N   UNL A   1      31.944  27.761  22.433  1.00  0.00    -0.154 NA
ATOM     23  C   UNL A   1      30.784  26.245  24.403  1.00  0.00     0.051 A 
ATOM     24  N   UNL A   1      32.607  26.674  22.953  1.00  0.00    -0.133 NA
ENDBRANCH  13  18
ENDBRANCH  11  12
ENDBRANCH   7  11
ENDBRANCH   4   6
ENDBRANCH   3   4
ENDBRANCH   2   3
ENDBRANCH   1   2
BRANCH   1  25
ATOM     25  O   UNL A   1      43.278  18.270  25.762  1.00  0.00    -0.374 OA
BRANCH  25  26
ATOM     26  C   UNL A   1      44.638  18.040  26.113  1.00  0.00     0.202 C 
BRANCH  26  27
ATOM     27  C   UNL A   1      45.748  18.763  25.362  1.00  0.00     0.261 C 
BRANCH  27  28
ATOM     28  O   UNL A   1      45.626  20.174  25.431  1.00  0.00    -0.460 OA
BRANCH  28  29
ATOM     29  C   UNL A   1      45.086  20.695  24.306  1.00  0.00     0.338 C 
ATOM     30  O   UNL A   1      44.616  20.085  23.359  1.00  0.00    -0.246 OA
BRANCH  29  31
ATOM     31  C   UNL A   1      45.277  22.146  24.302  1.00  0.00     0.060 A 
ATOM     32  C   UNL A   1      46.275  22.604  25.162  1.00  0.00     0.016 A 
ATOM     33  C   UNL A   1      44.197  22.943  23.900  1.00  0.00     0.016 A 
ATOM     34  C   UNL A   1      46.008  23.735  25.891  1.00  0.00     0.010 A 
ATOM     35  C   UNL A   1      43.919  24.054  24.650  1.00  0.00     0.010 A 
ATOM     36  C   UNL A   1      44.773  24.364  25.703  1.00  0.00    -0.014 A 
BRANCH  36  37
ATOM     37  C   UNL A   1      44.432  25.443  26.594  1.00  0.00     0.031 A 
ATOM     38  C   UNL A   1      45.393  26.555  26.490  1.00  0.00     0.074 A 
ATOM     39  C   UNL A   1      43.335  25.440  27.370  1.00  0.00     0.049 A 
ATOM     40  N   UNL A   1      46.311  26.868  27.339  1.00  0.00    -0.248 NA
ATOM     41  C   UNL A   1      45.478  27.260  25.201  1.00  0.00     0.031 C 
ATOM     42  C   UNL A   1      42.189  24.528  27.361  1.00  0.00     0.029 A 
ATOM     43  N   UNL A   1      42.985  26.356  28.305  1.00  0.00    -0.354 N 
ATOM     44  C   UNL A   1      46.983  27.935  26.764  1.00  0.00     0.074 A 
ATOM     45  C   UNL A   1      46.573  27.994  25.385  1.00  0.00     0.031 C 
ATOM     46  C   UNL A   1      41.178  25.080  28.078  1.00  0.00     0.029 A 
ATOM     47  C   UNL A   1      41.658  26.300  28.707  1.00  0.00     0.049 A 
ATOM     48  H   UNL A   1      43.623  27.010  28.671  1.00  0.00     0.167 HD
ATOM     49  C   UNL A   1      47.612  28.869  27.523  1.00  0.00     0.031 A 
ATOM     50  C   UNL A   1      41.024  27.248  29.442  1.00  0.00     0.031 A 
ATOM     51  C   UNL A   1      47.812  28.427  28.876  1.00  0.00     0.049 A 
ATOM     52  C   UNL A   1      42.079  28.037  30.127  1.00  0.00     0.074 A 
ATOM     53  C   UNL A   1      48.538  27.413  29.467  1.00  0.00     0.029 A 
ATOM     54  N   UNL A   1      46.866  28.809  29.796  1.00  0.00    -0.354 N 
ATOM     55  N   UNL A   1      42.859  27.548  31.047  1.00  0.00    -0.248 NA
ATOM     56  C   UNL A   1      42.565  29.240  29.468  1.00  0.00     0.031 C 
ATOM     57  C   UNL A   1      47.713  26.934  30.526  1.00  0.00     0.029 A 
ATOM     58  C   UNL A   1      46.556  27.715  30.563  1.00  0.00     0.049 A 
ATOM     59  H   UNL A   1      46.480  29.709  29.889  1.00  0.00     0.167 HD
ATOM     60  C   UNL A   1      44.101  28.113  30.796  1.00  0.00     0.074 A 
ATOM     61  C   UNL A   1      43.838  29.216  29.871  1.00  0.00     0.031 C 
ATOM     62  C   UNL A   1      45.250  27.459  31.130  1.00  0.00     0.031 A 
BRANCH  49  63
ATOM     63  C   UNL A   1      47.653  30.313  27.119  1.00  0.00    -0.014 A 
ATOM     64  C   UNL A   1      48.833  31.045  27.290  1.00  0.00     0.009 A 
ATOM     65  C   UNL A   1      46.485  31.040  26.799  1.00  0.00     0.009 A 
ATOM     66  C   UNL A   1      48.840  32.438  27.153  1.00  0.00     0.001 A 
ATOM     67  C   UNL A   1      46.497  32.421  26.617  1.00  0.00     0.001 A 
ATOM     68  C   UNL A   1      47.674  33.124  26.812  1.00  0.00     0.000 A 
ENDBRANCH  49  63
BRANCH  50  69
ATOM     69  C   UNL A   1      39.647  27.783  29.288  1.00  0.00    -0.014 A 
ATOM     70  C   UNL A   1      38.834  27.961  30.423  1.00  0.00     0.009 A 
ATOM     71  C   UNL A   1      39.251  28.419  28.099  1.00  0.00     0.009 A 
ATOM     72  C   UNL A   1      37.714  28.802  30.389  1.00  0.00     0.001 A 
ATOM     73  C   UNL A   1      38.127  29.253  28.063  1.00  0.00     0.001 A 
ATOM     74  C   UNL A   1      37.373  29.465  29.213  1.00  0.00     0.000 A 
ENDBRANCH  50  69
BRANCH  62  75
ATOM     75  C   UNL A   1      45.127  26.211  31.972  1.00  0.00    -0.014 A 
ATOM     76  C   UNL A   1      45.166  26.229  33.379  1.00  0.00     0.009 A 
ATOM     77  C   UNL A   1      44.772  25.017  31.329  1.00  0.00     0.009 A 
ATOM     78  C   UNL A   1      44.855  25.079  34.116  1.00  0.00     0.001 A 
ATOM     79  C   UNL A   1      44.446  23.877  32.065  1.00  0.00     0.001 A 
ATOM     80  C   UNL A   1      44.484  23.908  33.458  1.00  0.00     0.000 A 
ENDBRANCH  62  75
ENDBRANCH  36  37
ENDBRANCH  29  31
ENDBRANCH  28  29
ENDBRANCH  27  28
ENDBRANCH  26  27
ENDBRANCH  25  26
ENDBRANCH   1  25
TORSDOF 17
ENDMDL
MODEL 3
REMARK VINA RESULT:     -11.1      5.236      9.855
REMARK SMILES Cc1ccc(N2CCC[C@@H](Cn3cc(C(=O)OCCOCCOC(=O)c4ccc(-c5c6nc(c(-c7ccccc7)c7ccc([nH]7)c(-c7ccccc7)c7nc(c(-c8ccccc8)c8ccc5[nH]8)C=C7)C=C6)cc4)nn3)C2)nn1
REMARK SMILES IDX 19 1 18 2 17 3 15 4 16 5 14 6 12 7 13 8 75 9 74 10 11 11
REMARK SMILES IDX 10 12 6 13 7 14 76 15 8 16 9 17 5 18 1 19 2 20 3 21 78 22
REMARK SMILES IDX 4 23 77 24 20 25 21 26 22 27 23 28 24 29 25 30 26 31 27 32
REMARK SMILES IDX 73 33 28 34 72 35 29 36 30 37 31 38 66 39 32 40 71 41 65 42
REMARK SMILES IDX 67 43 33 44 70 45 64 46 63 47 34 49 56 50 41 51 55 52 42 53
REMARK SMILES IDX 45 54 54 55 68 56 43 57 44 58 53 60 69 61 46 62 35 63 36 64
REMARK SMILES IDX 40 65 37 66 39 67 38 68 57 69 58 70 62 71 59 72 61 73 60 74
REMARK SMILES IDX 47 75 48 76 52 77 49 78 51 79 50 80
REMARK H PARENT 67 48 45 59
REMARK Flexibility Score: inf
ROOT
ATOM      1  C   UNL A   1      34.366  31.935  28.945  1.00  0.00     0.202 C 
ENDROOT
BRANCH   1   2
ATOM      2  C   UNL A   1      34.157  31.649  27.459  1.00  0.00     0.261 C 
BRANCH   2   3
ATOM      3  O   UNL A   1      33.188  30.613  27.258  1.00  0.00    -0.458 OA
BRANCH   3   4
ATOM      4  C   UNL A   1      33.642  29.531  26.567  1.00  0.00     0.360 C 
ATOM      5  O   UNL A   1      34.512  28.757  26.974  1.00  0.00    -0.244 OA
BRANCH   4   6
ATOM      6  C   UNL A   1      32.926  29.327  25.325  1.00  0.00     0.190 A 
ATOM      7  N   UNL A   1      32.143  28.461  23.528  1.00  0.00    -0.251 N 
ATOM      8  C   UNL A   1      33.319  28.609  24.207  1.00  0.00     0.146 A 
ATOM      9  N   UNL A   1      31.234  29.359  23.943  1.00  0.00    -0.067 NA
ATOM     10  N   UNL A   1      31.675  29.844  25.094  1.00  0.00    -0.123 NA
BRANCH   7  11
ATOM     11  C   UNL A   1      31.692  27.270  22.835  1.00  0.00     0.151 C 
BRANCH  11  12
ATOM     12  C   UNL A   1      31.279  26.125  23.788  1.00  0.00     0.030 C 
ATOM     13  N   UNL A   1      32.011  24.325  25.215  1.00  0.00    -0.355 N 
ATOM     14  C   UNL A   1      31.310  24.769  26.408  1.00  0.00     0.118 C 
ATOM     15  C   UNL A   1      32.503  25.355  24.326  1.00  0.00     0.123 C 
ATOM     16  C   UNL A   1      30.037  25.473  25.949  1.00  0.00     0.022 C 
ATOM     17  C   UNL A   1      30.352  26.586  24.943  1.00  0.00     0.009 C 
BRANCH  13  18
ATOM     18  C   UNL A   1      32.589  23.076  25.170  1.00  0.00     0.151 A 
ATOM     19  C   UNL A   1      34.371  19.272  24.666  1.00  0.00     0.069 C 
ATOM     20  C   UNL A   1      33.701  20.594  24.852  1.00  0.00     0.060 A 
ATOM     21  C   UNL A   1      32.326  20.699  24.945  1.00  0.00     0.029 A 
ATOM     22  N   UNL A   1      34.491  21.685  24.920  1.00  0.00    -0.154 NA
ATOM     23  C   UNL A   1      31.769  21.958  25.122  1.00  0.00     0.051 A 
ATOM     24  N   UNL A   1      33.926  22.932  25.057  1.00  0.00    -0.133 NA
ENDBRANCH  13  18
ENDBRANCH  11  12
ENDBRANCH   7  11
ENDBRANCH   4   6
ENDBRANCH   3   4
ENDBRANCH   2   3
ENDBRANCH   1   2
BRANCH   1  25
ATOM     25  O   UNL A   1      34.400  33.290  29.390  1.00  0.00    -0.374 OA
BRANCH  25  26
ATOM     26  C   UNL A   1      33.480  34.261  28.905  1.00  0.00     0.202 C 
BRANCH  26  27
ATOM     27  C   UNL A   1      33.042  35.408  29.806  1.00  0.00     0.261 C 
BRANCH  27  28
ATOM     28  O   UNL A   1      33.886  35.571  30.934  1.00  0.00    -0.460 OA
BRANCH  28  29
ATOM     29  C   UNL A   1      33.333  35.069  32.061  1.00  0.00     0.338 C 
ATOM     30  O   UNL A   1      32.181  35.198  32.442  1.00  0.00    -0.246 OA
BRANCH  29  31
ATOM     31  C   UNL A   1      34.376  34.445  32.877  1.00  0.00     0.060 A 
ATOM     32  C   UNL A   1      35.497  35.244  33.099  1.00  0.00     0.016 A 
ATOM     33  C   UNL A   1      34.422  33.045  32.914  1.00  0.00     0.016 A 
ATOM     34  C   UNL A   1      36.726  34.642  33.013  1.00  0.00     0.010 A 
ATOM     35  C   UNL A   1      35.649  32.450  32.799  1.00  0.00     0.010 A 
ATOM     36  C   UNL A   1      36.771  33.271  32.739  1.00  0.00    -0.014 A 
BRANCH  36  37
ATOM     37  C   UNL A   1      38.060  32.685  32.479  1.00  0.00     0.031 A 
ATOM     38  C   UNL A   1      38.922  32.718  33.673  1.00  0.00     0.074 A 
ATOM     39  C   UNL A   1      38.394  32.129  31.302  1.00  0.00     0.049 A 
ATOM     40  N   UNL A   1      39.925  33.500  33.885  1.00  0.00    -0.248 NA
ATOM     41  C   UNL A   1      38.484  31.945  34.847  1.00  0.00     0.031 C 
ATOM     42  C   UNL A   1      37.548  31.804  30.151  1.00  0.00     0.029 A 
ATOM     43  N   UNL A   1      39.605  31.645  30.932  1.00  0.00    -0.354 N 
ATOM     44  C   UNL A   1      40.360  33.188  35.163  1.00  0.00     0.074 A 
ATOM     45  C   UNL A   1      39.327  32.393  35.775  1.00  0.00     0.031 C 
ATOM     46  C   UNL A   1      38.226  30.969  29.324  1.00  0.00     0.029 A 
ATOM     47  C   UNL A   1      39.588  30.825  29.814  1.00  0.00     0.049 A 
ATOM     48  H   UNL A   1      40.432  31.860  31.420  1.00  0.00     0.167 HD
ATOM     49  C   UNL A   1      41.654  33.364  35.535  1.00  0.00     0.031 A 
ATOM     50  C   UNL A   1      40.619  30.046  29.400  1.00  0.00     0.031 A 
ATOM     51  C   UNL A   1      42.370  34.218  34.627  1.00  0.00     0.049 A 
ATOM     52  C   UNL A   1      41.849  30.598  30.022  1.00  0.00     0.074 A 
ATOM     53  C   UNL A   1      42.265  35.542  34.256  1.00  0.00     0.029 A 
ATOM     54  N   UNL A   1      43.094  33.597  33.638  1.00  0.00    -0.354 N 
ATOM     55  N   UNL A   1      42.341  31.767  29.728  1.00  0.00    -0.248 NA
ATOM     56  C   UNL A   1      42.277  30.041  31.296  1.00  0.00     0.031 C 
ATOM     57  C   UNL A   1      42.539  35.558  32.856  1.00  0.00     0.029 A 
ATOM     58  C   UNL A   1      42.852  34.257  32.460  1.00  0.00     0.049 A 
ATOM     59  H   UNL A   1      43.683  32.817  33.754  1.00  0.00     0.167 HD
ATOM     60  C   UNL A   1      42.788  32.278  30.937  1.00  0.00     0.074 A 
ATOM     61  C   UNL A   1      42.807  31.136  31.850  1.00  0.00     0.031 C 
ATOM     62  C   UNL A   1      42.824  33.623  31.159  1.00  0.00     0.031 A 
BRANCH  49  63
ATOM     63  C   UNL A   1      42.335  32.421  36.481  1.00  0.00    -0.014 A 
ATOM     64  C   UNL A   1      42.814  32.898  37.707  1.00  0.00     0.009 A 
ATOM     65  C   UNL A   1      42.736  31.123  36.096  1.00  0.00     0.009 A 
ATOM     66  C   UNL A   1      43.657  32.114  38.503  1.00  0.00     0.001 A 
ATOM     67  C   UNL A   1      43.540  30.323  36.904  1.00  0.00     0.001 A 
ATOM     68  C   UNL A   1      44.015  30.826  38.104  1.00  0.00     0.000 A 
ENDBRANCH  49  63
BRANCH  50  69
ATOM     69  C   UNL A   1      40.586  28.661  28.866  1.00  0.00    -0.014 A 
ATOM     70  C   UNL A   1      39.931  27.647  29.590  1.00  0.00     0.009 A 
ATOM     71  C   UNL A   1      40.898  28.399  27.521  1.00  0.00     0.009 A 
ATOM     72  C   UNL A   1      39.536  26.453  28.972  1.00  0.00     0.001 A 
ATOM     73  C   UNL A   1      40.511  27.203  26.906  1.00  0.00     0.001 A 
ATOM     74  C   UNL A   1      39.808  26.240  27.624  1.00  0.00     0.000 A 
ENDBRANCH  50  69
BRANCH  62  75
ATOM     75  C   UNL A   1      42.571  34.536  29.983  1.00  0.00    -0.014 A 
ATOM     76  C   UNL A   1      43.595  34.988  29.131  1.00  0.00     0.009 A 
ATOM     77  C   UNL A   1      41.241  34.786  29.621  1.00  0.00     0.009 A 
ATOM     78  C   UNL A   1      43.288  35.671  27.947  1.00  0.00     0.001 A 
ATOM     79  C   UNL A   1      40.936  35.451  28.432  1.00  0.00     0.001 A 
ATOM     80  C   UNL A   1      41.959  35.891  27.593  1.00  0.00     0.000 A 
ENDBRANCH  62  75
ENDBRANCH  36  37
ENDBRANCH  29  31
ENDBRANCH  28  29
ENDBRANCH  27  28
ENDBRANCH  26  27
ENDBRANCH  25  26
ENDBRANCH   1  25
TORSDOF 17
ENDMDL
