MODEL 1
REMARK VINA RESULT:      -7.9      0.000      0.000
REMARK SMILES CC(=O)NNC(=O)CSC[C@@H]([NH3+])C(=O)OCCOCCOC(=O)c1ccc(-c2c3nc(c(-c4ccccc4)c4ccc([nH]4)c(-c4ccccc4)c4nc(c(-c5ccccc5)c5ccc2[nH]5)C=C4)C=C3)cc1
REMARK SMILES IDX 16 1 15 2 13 3 14 4 11 5 10 6 9 7 8 8 6 9 5 10 7 12 4 13
REMARK SMILES IDX 1 14 2 15 3 16 12 18 17 22 18 23 19 24 20 25 21 26 22 27
REMARK SMILES IDX 23 28 24 29 25 30 71 31 26 32 70 33 27 34 28 35 29 36 64 37
REMARK SMILES IDX 30 38 69 39 63 40 65 41 31 42 68 43 62 44 61 45 32 47 54 48
REMARK SMILES IDX 39 49 53 50 40 51 43 52 52 53 66 54 41 55 42 56 51 58 67 59
REMARK SMILES IDX 44 60 33 61 34 62 38 63 35 64 37 65 36 66 55 67 56 68 60 69
REMARK SMILES IDX 57 70 59 71 58 72 45 73 46 74 50 75 47 76 49 77 48 78
REMARK H PARENT 5 11 4 17 12 19 12 20 12 21 65 46 43 57
REMARK Flexibility Score: inf
ROOT
ATOM      1  C   UNL A   1      34.435  35.284  34.101  1.00  0.00     0.261 C 
ENDROOT
BRANCH   1   2
ATOM      2  O   UNL A   1      35.782  34.845  33.863  1.00  0.00    -0.459 OA
BRANCH   2   3
ATOM      3  C   UNL A   1      36.061  33.577  34.262  1.00  0.00     0.365 C 
ATOM      4  O   UNL A   1      35.524  32.566  33.813  1.00  0.00    -0.245 OA
BRANCH   3   5
ATOM      5  C   UNL A   1      37.171  33.489  35.326  1.00  0.00     0.301 C 
BRANCH   5   6
ATOM      6  C   UNL A   1      37.827  32.105  35.452  1.00  0.00     0.147 C 
BRANCH   6   7
ATOM      7  S   UNL A   1      39.630  32.171  35.826  1.00  0.00    -0.145 SA
BRANCH   7   8
ATOM      8  C   UNL A   1      40.088  30.411  35.646  1.00  0.00     0.171 C 
BRANCH   8   9
ATOM      9  C   UNL A   1      41.581  30.196  35.793  1.00  0.00     0.248 C 
ATOM     10  N   UNL A   1      42.058  28.919  35.966  1.00  0.00    -0.267 N 
ATOM     11  H   UNL A   1      43.029  28.804  36.082  1.00  0.00     0.191 HD
ATOM     12  O   UNL A   1      42.382  31.131  35.764  1.00  0.00    -0.272 OA
BRANCH  10  13
ATOM     13  N   UNL A   1      41.261  27.781  35.988  1.00  0.00    -0.268 N 
ATOM     14  C   UNL A   1      42.984  26.497  34.787  1.00  0.00     0.116 C 
ATOM     15  C   UNL A   1      41.636  26.573  35.451  1.00  0.00     0.235 C 
ATOM     16  O   UNL A   1      40.878  25.606  35.503  1.00  0.00    -0.274 OA
ATOM     17  H   UNL A   1      40.374  27.843  36.414  1.00  0.00     0.191 HD
ENDBRANCH  10  13
ENDBRANCH   8   9
ENDBRANCH   7   8
ENDBRANCH   6   7
ENDBRANCH   5   6
BRANCH   5  18
ATOM     18  N   UNL A   1      38.154  34.563  35.052  1.00  0.00    -0.345 N 
ATOM     19  H   UNL A   1      37.678  35.465  35.043  1.00  0.00     0.345 HD
ATOM     20  H   UNL A   1      38.593  34.401  34.145  1.00  0.00     0.345 HD
ATOM     21  H   UNL A   1      38.869  34.563  35.780  1.00  0.00     0.345 HD
ENDBRANCH   5  18
ENDBRANCH   3   5
ENDBRANCH   2   3
ENDBRANCH   1   2
BRANCH   1  22
ATOM     22  C   UNL A   1      34.235  36.741  33.679  1.00  0.00     0.202 C 
BRANCH  22  23
ATOM     23  O   UNL A   1      33.076  37.020  32.896  1.00  0.00    -0.374 OA
BRANCH  23  24
ATOM     24  C   UNL A   1      33.255  37.764  31.691  1.00  0.00     0.202 C 
BRANCH  24  25
ATOM     25  C   UNL A   1      33.155  36.981  30.375  1.00  0.00     0.261 C 
BRANCH  25  26
ATOM     26  O   UNL A   1      33.208  35.555  30.577  1.00  0.00    -0.460 OA
BRANCH  26  27
ATOM     27  C   UNL A   1      33.224  34.824  29.437  1.00  0.00     0.338 C 
ATOM     28  O   UNL A   1      32.459  34.916  28.487  1.00  0.00    -0.246 OA
BRANCH  27  29
ATOM     29  C   UNL A   1      34.429  33.975  29.381  1.00  0.00     0.060 A 
ATOM     30  C   UNL A   1      34.606  33.043  30.412  1.00  0.00     0.016 A 
ATOM     31  C   UNL A   1      35.417  34.156  28.412  1.00  0.00     0.016 A 
ATOM     32  C   UNL A   1      35.798  32.329  30.511  1.00  0.00     0.010 A 
ATOM     33  C   UNL A   1      36.619  33.443  28.517  1.00  0.00     0.010 A 
ATOM     34  C   UNL A   1      36.830  32.557  29.590  1.00  0.00    -0.014 A 
BRANCH  34  35
ATOM     35  C   UNL A   1      38.171  31.980  29.854  1.00  0.00     0.031 A 
ATOM     36  C   UNL A   1      39.142  32.748  30.713  1.00  0.00     0.074 A 
ATOM     37  C   UNL A   1      38.501  30.759  29.397  1.00  0.00     0.049 A 
ATOM     38  N   UNL A   1      40.347  32.415  31.101  1.00  0.00    -0.248 NA
ATOM     39  C   UNL A   1      38.693  34.062  31.201  1.00  0.00     0.031 C 
ATOM     40  C   UNL A   1      37.638  29.894  28.596  1.00  0.00     0.029 A 
ATOM     41  N   UNL A   1      39.656  30.035  29.553  1.00  0.00    -0.354 N 
ATOM     42  C   UNL A   1      40.796  33.471  31.884  1.00  0.00     0.074 A 
ATOM     43  C   UNL A   1      39.751  34.472  31.885  1.00  0.00     0.031 C 
ATOM     44  C   UNL A   1      38.295  28.751  28.330  1.00  0.00     0.029 A 
ATOM     45  C   UNL A   1      39.630  28.815  28.922  1.00  0.00     0.049 A 
ATOM     46  H   UNL A   1      40.430  30.358  30.068  1.00  0.00     0.167 HD
ATOM     47  C   UNL A   1      41.967  33.596  32.554  1.00  0.00     0.031 A 
ATOM     48  C   UNL A   1      40.579  27.864  28.824  1.00  0.00     0.031 A 
ATOM     49  C   UNL A   1      43.019  32.616  32.544  1.00  0.00     0.049 A 
ATOM     50  C   UNL A   1      41.903  28.064  29.510  1.00  0.00     0.074 A 
ATOM     51  C   UNL A   1      44.245  32.659  33.186  1.00  0.00     0.029 A 
ATOM     52  N   UNL A   1      42.972  31.417  31.852  1.00  0.00    -0.354 N 
ATOM     53  N   UNL A   1      42.306  29.060  30.261  1.00  0.00    -0.248 NA
ATOM     54  C   UNL A   1      42.902  26.996  29.342  1.00  0.00     0.031 C 
ATOM     55  C   UNL A   1      44.958  31.503  32.845  1.00  0.00     0.029 A 
ATOM     56  C   UNL A   1      44.154  30.720  32.033  1.00  0.00     0.049 A 
ATOM     57  H   UNL A   1      42.209  31.107  31.310  1.00  0.00     0.167 HD
ATOM     58  C   UNL A   1      43.590  28.727  30.676  1.00  0.00     0.074 A 
ATOM     59  C   UNL A   1      43.894  27.431  30.107  1.00  0.00     0.031 C 
ATOM     60  C   UNL A   1      44.442  29.432  31.460  1.00  0.00     0.031 A 
BRANCH  47  61
ATOM     61  C   UNL A   1      42.177  34.858  33.341  1.00  0.00    -0.014 A 
ATOM     62  C   UNL A   1      42.912  35.930  32.808  1.00  0.00     0.009 A 
ATOM     63  C   UNL A   1      41.609  34.991  34.618  1.00  0.00     0.009 A 
ATOM     64  C   UNL A   1      43.099  37.097  33.552  1.00  0.00     0.001 A 
ATOM     65  C   UNL A   1      41.777  36.169  35.348  1.00  0.00     0.001 A 
ATOM     66  C   UNL A   1      42.528  37.217  34.819  1.00  0.00     0.000 A 
ENDBRANCH  47  61
BRANCH  48  67
ATOM     67  C   UNL A   1      40.324  26.635  28.029  1.00  0.00    -0.014 A 
ATOM     68  C   UNL A   1      39.612  25.558  28.578  1.00  0.00     0.009 A 
ATOM     69  C   UNL A   1      40.823  26.523  26.721  1.00  0.00     0.009 A 
ATOM     70  C   UNL A   1      39.432  24.382  27.845  1.00  0.00     0.001 A 
ATOM     71  C   UNL A   1      40.617  25.357  25.981  1.00  0.00     0.001 A 
ATOM     72  C   UNL A   1      39.931  24.284  26.548  1.00  0.00     0.000 A 
ENDBRANCH  48  67
BRANCH  60  73
ATOM     73  C   UNL A   1      45.768  28.799  31.775  1.00  0.00    -0.014 A 
ATOM     74  C   UNL A   1      45.918  27.923  32.862  1.00  0.00     0.009 A 
ATOM     75  C   UNL A   1      46.875  29.059  30.952  1.00  0.00     0.009 A 
ATOM     76  C   UNL A   1      47.160  27.350  33.138  1.00  0.00     0.001 A 
ATOM     77  C   UNL A   1      48.109  28.462  31.215  1.00  0.00     0.001 A 
ATOM     78  C   UNL A   1      48.253  27.616  32.313  1.00  0.00     0.000 A 
ENDBRANCH  60  73
ENDBRANCH  34  35
ENDBRANCH  27  29
ENDBRANCH  26  27
ENDBRANCH  25  26
ENDBRANCH  24  25
ENDBRANCH  23  24
ENDBRANCH  22  23
ENDBRANCH   1  22
TORSDOF 20
ENDMDL
MODEL 2
REMARK VINA RESULT:      -7.7      5.875     10.524
REMARK SMILES CC(=O)NNC(=O)CSC[C@@H]([NH3+])C(=O)OCCOCCOC(=O)c1ccc(-c2c3nc(c(-c4ccccc4)c4ccc([nH]4)c(-c4ccccc4)c4nc(c(-c5ccccc5)c5ccc2[nH]5)C=C4)C=C3)cc1
REMARK SMILES IDX 16 1 15 2 13 3 14 4 11 5 10 6 9 7 8 8 6 9 5 10 7 12 4 13
REMARK SMILES IDX 1 14 2 15 3 16 12 18 17 22 18 23 19 24 20 25 21 26 22 27
REMARK SMILES IDX 23 28 24 29 25 30 71 31 26 32 70 33 27 34 28 35 29 36 64 37
REMARK SMILES IDX 30 38 69 39 63 40 65 41 31 42 68 43 62 44 61 45 32 47 54 48
REMARK SMILES IDX 39 49 53 50 40 51 43 52 52 53 66 54 41 55 42 56 51 58 67 59
REMARK SMILES IDX 44 60 33 61 34 62 38 63 35 64 37 65 36 66 55 67 56 68 60 69
REMARK SMILES IDX 57 70 59 71 58 72 45 73 46 74 50 75 47 76 49 77 48 78
REMARK H PARENT 5 11 4 17 12 19 12 20 12 21 65 46 43 57
REMARK Flexibility Score: inf
ROOT
ATOM      1  C   UNL A   1      33.743  27.932  22.460  1.00  0.00     0.261 C 
ENDROOT
BRANCH   1   2
ATOM      2  O   UNL A   1      33.713  26.517  22.704  1.00  0.00    -0.459 OA
BRANCH   2   3
ATOM      3  C   UNL A   1      32.947  25.794  21.846  1.00  0.00     0.365 C 
ATOM      4  O   UNL A   1      33.202  25.616  20.656  1.00  0.00    -0.245 OA
BRANCH   3   5
ATOM      5  C   UNL A   1      31.712  25.151  22.504  1.00  0.00     0.301 C 
BRANCH   5   6
ATOM      6  C   UNL A   1      32.034  24.043  23.519  1.00  0.00     0.147 C 
BRANCH   6   7
ATOM      7  S   UNL A   1      33.673  23.244  23.249  1.00  0.00    -0.145 SA
BRANCH   7   8
ATOM      8  C   UNL A   1      33.765  22.139  24.703  1.00  0.00     0.171 C 
BRANCH   8   9
ATOM      9  C   UNL A   1      34.982  21.236  24.651  1.00  0.00     0.248 C 
ATOM     10  N   UNL A   1      34.855  19.922  25.031  1.00  0.00    -0.267 N 
ATOM     11  H   UNL A   1      35.662  19.358  25.011  1.00  0.00     0.191 HD
ATOM     12  O   UNL A   1      36.083  21.644  24.280  1.00  0.00    -0.272 OA
BRANCH  10  13
ATOM     13  N   UNL A   1      33.663  19.336  25.442  1.00  0.00    -0.268 N 
ATOM     14  C   UNL A   1      34.001  17.456  23.889  1.00  0.00     0.116 C 
ATOM     15  C   UNL A   1      33.185  18.146  24.948  1.00  0.00     0.235 C 
ATOM     16  O   UNL A   1      32.119  17.687  25.354  1.00  0.00    -0.274 OA
ATOM     17  H   UNL A   1      33.129  19.801  26.127  1.00  0.00     0.191 HD
ENDBRANCH  10  13
ENDBRANCH   8   9
ENDBRANCH   7   8
ENDBRANCH   6   7
ENDBRANCH   5   6
BRANCH   5  18
ATOM     18  N   UNL A   1      30.886  26.234  23.086  1.00  0.00    -0.345 N 
ATOM     19  H   UNL A   1      30.927  27.054  22.480  1.00  0.00     0.345 HD
ATOM     20  H   UNL A   1      31.242  26.476  24.010  1.00  0.00     0.345 HD
ATOM     21  H   UNL A   1      29.919  25.919  23.166  1.00  0.00     0.345 HD
ENDBRANCH   5  18
ENDBRANCH   3   5
ENDBRANCH   2   3
ENDBRANCH   1   2
BRANCH   1  22
ATOM     22  C   UNL A   1      33.217  28.721  23.661  1.00  0.00     0.202 C 
BRANCH  22  23
ATOM     23  O   UNL A   1      32.718  27.952  24.753  1.00  0.00    -0.374 OA
BRANCH  23  24
ATOM     24  C   UNL A   1      32.142  28.660  25.851  1.00  0.00     0.202 C 
BRANCH  24  25
ATOM     25  C   UNL A   1      32.762  28.414  27.233  1.00  0.00     0.261 C 
BRANCH  25  26
ATOM     26  O   UNL A   1      34.187  28.629  27.244  1.00  0.00    -0.460 OA
BRANCH  26  27
ATOM     27  C   UNL A   1      34.575  29.816  27.766  1.00  0.00     0.338 C 
ATOM     28  O   UNL A   1      33.870  30.790  27.996  1.00  0.00    -0.246 OA
BRANCH  27  29
ATOM     29  C   UNL A   1      35.978  29.754  28.214  1.00  0.00     0.060 A 
ATOM     30  C   UNL A   1      36.971  29.980  27.251  1.00  0.00     0.016 A 
ATOM     31  C   UNL A   1      36.325  29.375  29.512  1.00  0.00     0.016 A 
ATOM     32  C   UNL A   1      38.311  29.773  27.567  1.00  0.00     0.010 A 
ATOM     33  C   UNL A   1      37.673  29.159  29.826  1.00  0.00     0.010 A 
ATOM     34  C   UNL A   1      38.668  29.318  28.843  1.00  0.00    -0.014 A 
BRANCH  34  35
ATOM     35  C   UNL A   1      40.061  28.865  29.083  1.00  0.00     0.031 A 
ATOM     36  C   UNL A   1      40.444  27.453  28.727  1.00  0.00     0.074 A 
ATOM     37  C   UNL A   1      40.993  29.717  29.545  1.00  0.00     0.049 A 
ATOM     38  N   UNL A   1      41.608  26.862  28.817  1.00  0.00    -0.248 NA
ATOM     39  C   UNL A   1      39.372  26.595  28.196  1.00  0.00     0.031 C 
ATOM     40  C   UNL A   1      40.767  31.120  29.884  1.00  0.00     0.029 A 
ATOM     41  N   UNL A   1      42.328  29.518  29.802  1.00  0.00    -0.354 N 
ATOM     42  C   UNL A   1      41.413  25.570  28.348  1.00  0.00     0.074 A 
ATOM     43  C   UNL A   1      40.011  25.449  28.010  1.00  0.00     0.031 C 
ATOM     44  C   UNL A   1      41.925  31.658  30.304  1.00  0.00     0.029 A 
ATOM     45  C   UNL A   1      42.966  30.633  30.286  1.00  0.00     0.049 A 
ATOM     46  H   UNL A   1      42.783  28.658  29.654  1.00  0.00     0.167 HD
ATOM     47  C   UNL A   1      42.318  24.573  28.197  1.00  0.00     0.031 A 
ATOM     48  C   UNL A   1      44.244  30.805  30.679  1.00  0.00     0.031 A 
ATOM     49  C   UNL A   1      43.708  24.677  28.548  1.00  0.00     0.049 A 
ATOM     50  C   UNL A   1      45.211  29.656  30.579  1.00  0.00     0.074 A 
ATOM     51  C   UNL A   1      44.701  23.716  28.439  1.00  0.00     0.029 A 
ATOM     52  N   UNL A   1      44.304  25.808  29.081  1.00  0.00    -0.354 N 
ATOM     53  N   UNL A   1      45.015  28.445  30.116  1.00  0.00    -0.248 NA
ATOM     54  C   UNL A   1      46.583  29.906  31.048  1.00  0.00     0.031 C 
ATOM     55  C   UNL A   1      45.888  24.255  28.950  1.00  0.00     0.029 A 
ATOM     56  C   UNL A   1      45.645  25.566  29.326  1.00  0.00     0.049 A 
ATOM     57  H   UNL A   1      43.841  26.659  29.259  1.00  0.00     0.167 HD
ATOM     58  C   UNL A   1      46.242  27.799  30.212  1.00  0.00     0.074 A 
ATOM     59  C   UNL A   1      47.179  28.756  30.763  1.00  0.00     0.031 C 
ATOM     60  C   UNL A   1      46.565  26.527  29.875  1.00  0.00     0.031 A 
BRANCH  47  61
ATOM     61  C   UNL A   1      41.818  23.268  27.645  1.00  0.00    -0.014 A 
ATOM     62  C   UNL A   1      41.559  22.177  28.490  1.00  0.00     0.009 A 
ATOM     63  C   UNL A   1      41.575  23.137  26.269  1.00  0.00     0.009 A 
ATOM     64  C   UNL A   1      41.094  20.970  27.962  1.00  0.00     0.001 A 
ATOM     65  C   UNL A   1      41.086  21.937  25.748  1.00  0.00     0.001 A 
ATOM     66  C   UNL A   1      40.856  20.853  26.593  1.00  0.00     0.000 A 
ENDBRANCH  47  61
BRANCH  48  67
ATOM     67  C   UNL A   1      44.687  32.114  31.223  1.00  0.00    -0.014 A 
ATOM     68  C   UNL A   1      44.501  32.429  32.578  1.00  0.00     0.009 A 
ATOM     69  C   UNL A   1      45.271  33.070  30.377  1.00  0.00     0.009 A 
ATOM     70  C   UNL A   1      44.864  33.686  33.067  1.00  0.00     0.001 A 
ATOM     71  C   UNL A   1      45.658  34.316  30.875  1.00  0.00     0.001 A 
ATOM     72  C   UNL A   1      45.445  34.626  32.217  1.00  0.00     0.000 A 
ENDBRANCH  48  67
BRANCH  60  73
ATOM     73  C   UNL A   1      47.996  26.109  30.058  1.00  0.00    -0.014 A 
ATOM     74  C   UNL A   1      48.927  26.221  29.013  1.00  0.00     0.009 A 
ATOM     75  C   UNL A   1      48.426  25.628  31.305  1.00  0.00     0.009 A 
ATOM     76  C   UNL A   1      50.252  25.824  29.205  1.00  0.00     0.001 A 
ATOM     77  C   UNL A   1      49.757  25.257  31.501  1.00  0.00     0.001 A 
ATOM     78  C   UNL A   1      50.666  25.346  30.448  1.00  0.00     0.000 A 
ENDBRANCH  60  73
ENDBRANCH  34  35
ENDBRANCH  27  29
ENDBRANCH  26  27
ENDBRANCH  25  26
ENDBRANCH  24  25
ENDBRANCH  23  24
ENDBRANCH  22  23
ENDBRANCH   1  22
TORSDOF 20
ENDMDL
MODEL 3
REMARK VINA RESULT:      -7.7      4.926     10.548
REMARK SMILES CC(=O)NNC(=O)CSC[C@@H]([NH3+])C(=O)OCCOCCOC(=O)c1ccc(-c2c3nc(c(-c4ccccc4)c4ccc([nH]4)c(-c4ccccc4)c4nc(c(-c5ccccc5)c5ccc2[nH]5)C=C4)C=C3)cc1
REMARK SMILES IDX 16 1 15 2 13 3 14 4 11 5 10 6 9 7 8 8 6 9 5 10 7 12 4 13
REMARK SMILES IDX 1 14 2 15 3 16 12 18 17 22 18 23 19 24 20 25 21 26 22 27
REMARK SMILES IDX 23 28 24 29 25 30 71 31 26 32 70 33 27 34 28 35 29 36 64 37
REMARK SMILES IDX 30 38 69 39 63 40 65 41 31 42 68 43 62 44 61 45 32 47 54 48
REMARK SMILES IDX 39 49 53 50 40 51 43 52 52 53 66 54 41 55 42 56 51 58 67 59
REMARK SMILES IDX 44 60 33 61 34 62 38 63 35 64 37 65 36 66 55 67 56 68 60 69
REMARK SMILES IDX 57 70 59 71 58 72 45 73 46 74 50 75 47 76 49 77 48 78
REMARK H PARENT 5 11 4 17 12 19 12 20 12 21 65 46 43 57
REMARK Flexibility Score: inf
ROOT
ATOM      1  C   UNL A   1      34.407  23.013  23.781  1.00  0.00     0.261 C 
ENDROOT
BRANCH   1   2
ATOM      2  O   UNL A   1      34.346  23.407  22.401  1.00  0.00    -0.459 OA
BRANCH   2   3
ATOM      3  C   UNL A   1      33.271  24.162  22.057  1.00  0.00     0.365 C 
ATOM      4  O   UNL A   1      33.118  24.710  20.967  1.00  0.00    -0.245 OA
BRANCH   3   5
ATOM      5  C   UNL A   1      32.195  24.250  23.155  1.00  0.00     0.301 C 
BRANCH   5   6
ATOM      6  C   UNL A   1      31.694  25.673  23.446  1.00  0.00     0.147 C 
BRANCH   6   7
ATOM      7  S   UNL A   1      32.918  26.720  24.342  1.00  0.00    -0.145 SA
BRANCH   7   8
ATOM      8  C   UNL A   1      32.731  26.091  26.049  1.00  0.00     0.171 C 
BRANCH   8   9
ATOM      9  C   UNL A   1      31.546  26.720  26.757  1.00  0.00     0.248 C 
ATOM     10  N   UNL A   1      31.742  27.854  27.506  1.00  0.00    -0.267 N 
ATOM     11  H   UNL A   1      30.964  28.234  27.976  1.00  0.00     0.191 HD
ATOM     12  O   UNL A   1      30.413  26.244  26.683  1.00  0.00    -0.272 OA
BRANCH  10  13
ATOM     13  N   UNL A   1      32.965  28.501  27.645  1.00  0.00    -0.268 N 
ATOM     14  C   UNL A   1      32.068  30.523  26.564  1.00  0.00     0.116 C 
ATOM     15  C   UNL A   1      33.202  29.788  27.226  1.00  0.00     0.235 C 
ATOM     16  O   UNL A   1      34.310  30.298  27.377  1.00  0.00    -0.274 OA
ATOM     17  H   UNL A   1      33.705  28.008  28.068  1.00  0.00     0.191 HD
ENDBRANCH  10  13
ENDBRANCH   8   9
ENDBRANCH   7   8
ENDBRANCH   6   7
ENDBRANCH   5   6
BRANCH   5  18
ATOM     18  N   UNL A   1      31.098  23.321  22.797  1.00  0.00    -0.345 N 
ATOM     19  H   UNL A   1      31.411  22.696  22.054  1.00  0.00     0.345 HD
ATOM     20  H   UNL A   1      30.291  23.855  22.475  1.00  0.00     0.345 HD
ATOM     21  H   UNL A   1      30.837  22.771  23.616  1.00  0.00     0.345 HD
ENDBRANCH   5  18
ENDBRANCH   3   5
ENDBRANCH   2   3
ENDBRANCH   1   2
BRANCH   1  22
ATOM     22  C   UNL A   1      35.664  23.554  24.465  1.00  0.00     0.202 C 
BRANCH  22  23
ATOM     23  O   UNL A   1      36.285  22.695  25.420  1.00  0.00    -0.374 OA
BRANCH  23  24
ATOM     24  C   UNL A   1      37.010  21.570  24.922  1.00  0.00     0.202 C 
BRANCH  24  25
ATOM     25  C   UNL A   1      38.466  21.428  25.386  1.00  0.00     0.261 C 
BRANCH  25  26
ATOM     26  O   UNL A   1      38.779  22.296  26.493  1.00  0.00    -0.460 OA
BRANCH  26  27
ATOM     27  C   UNL A   1      40.011  22.856  26.439  1.00  0.00     0.338 C 
ATOM     28  O   UNL A   1      41.003  22.411  25.878  1.00  0.00    -0.246 OA
BRANCH  27  29
ATOM     29  C   UNL A   1      39.991  24.214  27.013  1.00  0.00     0.060 A 
ATOM     30  C   UNL A   1      40.880  25.153  26.473  1.00  0.00     0.016 A 
ATOM     31  C   UNL A   1      39.207  24.537  28.122  1.00  0.00     0.016 A 
ATOM     32  C   UNL A   1      41.031  26.399  27.077  1.00  0.00     0.010 A 
ATOM     33  C   UNL A   1      39.365  25.789  28.733  1.00  0.00     0.010 A 
ATOM     34  C   UNL A   1      40.307  26.709  28.236  1.00  0.00    -0.014 A 
BRANCH  34  35
ATOM     35  C   UNL A   1      40.661  27.930  29.001  1.00  0.00     0.031 A 
ATOM     36  C   UNL A   1      39.665  29.057  29.085  1.00  0.00     0.074 A 
ATOM     37  C   UNL A   1      41.823  28.012  29.673  1.00  0.00     0.049 A 
ATOM     38  N   UNL A   1      39.751  30.194  29.728  1.00  0.00    -0.248 NA
ATOM     39  C   UNL A   1      38.403  28.875  28.349  1.00  0.00     0.031 C 
ATOM     40  C   UNL A   1      42.853  26.976  29.713  1.00  0.00     0.029 A 
ATOM     41  N   UNL A   1      42.326  29.019  30.459  1.00  0.00    -0.354 N 
ATOM     42  C   UNL A   1      38.557  30.858  29.482  1.00  0.00     0.074 A 
ATOM     43  C   UNL A   1      37.777  30.015  28.600  1.00  0.00     0.031 C 
ATOM     44  C   UNL A   1      43.867  27.401  30.487  1.00  0.00     0.029 A 
ATOM     45  C   UNL A   1      43.569  28.745  30.975  1.00  0.00     0.049 A 
ATOM     46  H   UNL A   1      41.842  29.858  30.635  1.00  0.00     0.167 HD
ATOM     47  C   UNL A   1      38.136  32.055  29.956  1.00  0.00     0.031 A 
ATOM     48  C   UNL A   1      44.377  29.499  31.746  1.00  0.00     0.031 A 
ATOM     49  C   UNL A   1      38.910  32.908  30.816  1.00  0.00     0.049 A 
ATOM     50  C   UNL A   1      43.920  30.862  32.191  1.00  0.00     0.074 A 
ATOM     51  C   UNL A   1      38.570  34.144  31.341  1.00  0.00     0.029 A 
ATOM     52  N   UNL A   1      40.184  32.615  31.276  1.00  0.00    -0.354 N 
ATOM     53  N   UNL A   1      42.780  31.468  31.965  1.00  0.00    -0.248 NA
ATOM     54  C   UNL A   1      44.863  31.640  33.010  1.00  0.00     0.031 C 
ATOM     55  C   UNL A   1      39.659  34.618  32.082  1.00  0.00     0.029 A 
ATOM     56  C   UNL A   1      40.654  33.655  32.060  1.00  0.00     0.049 A 
ATOM     57  H   UNL A   1      40.681  31.789  31.074  1.00  0.00     0.167 HD
ATOM     58  C   UNL A   1      42.858  32.684  32.635  1.00  0.00     0.074 A 
ATOM     59  C   UNL A   1      44.150  32.722  33.288  1.00  0.00     0.031 C 
ATOM     60  C   UNL A   1      41.941  33.679  32.704  1.00  0.00     0.031 A 
BRANCH  47  61
ATOM     61  C   UNL A   1      36.774  32.523  29.528  1.00  0.00    -0.014 A 
ATOM     62  C   UNL A   1      36.586  33.178  28.300  1.00  0.00     0.009 A 
ATOM     63  C   UNL A   1      35.661  32.281  30.347  1.00  0.00     0.009 A 
ATOM     64  C   UNL A   1      35.313  33.607  27.916  1.00  0.00     0.001 A 
ATOM     65  C   UNL A   1      34.386  32.689  29.949  1.00  0.00     0.001 A 
ATOM     66  C   UNL A   1      34.215  33.359  28.739  1.00  0.00     0.000 A 
ENDBRANCH  47  61
BRANCH  48  67
ATOM     67  C   UNL A   1      45.718  28.993  32.138  1.00  0.00    -0.014 A 
ATOM     68  C   UNL A   1      45.897  28.280  33.333  1.00  0.00     0.009 A 
ATOM     69  C   UNL A   1      46.836  29.251  31.328  1.00  0.00     0.009 A 
ATOM     70  C   UNL A   1      47.172  27.863  33.724  1.00  0.00     0.001 A 
ATOM     71  C   UNL A   1      48.104  28.809  31.708  1.00  0.00     0.001 A 
ATOM     72  C   UNL A   1      48.272  28.125  32.910  1.00  0.00     0.000 A 
ENDBRANCH  48  67
BRANCH  60  73
ATOM     73  C   UNL A   1      42.288  34.877  33.542  1.00  0.00    -0.014 A 
ATOM     74  C   UNL A   1      41.991  34.918  34.913  1.00  0.00     0.009 A 
ATOM     75  C   UNL A   1      42.953  35.966  32.956  1.00  0.00     0.009 A 
ATOM     76  C   UNL A   1      42.320  36.042  35.672  1.00  0.00     0.001 A 
ATOM     77  C   UNL A   1      43.305  37.077  33.723  1.00  0.00     0.001 A 
ATOM     78  C   UNL A   1      42.980  37.118  35.078  1.00  0.00     0.000 A 
ENDBRANCH  60  73
ENDBRANCH  34  35
ENDBRANCH  27  29
ENDBRANCH  26  27
ENDBRANCH  25  26
ENDBRANCH  24  25
ENDBRANCH  23  24
ENDBRANCH  22  23
ENDBRANCH   1  22
TORSDOF 20
ENDMDL
