MODEL 1
REMARK VINA RESULT:      -9.7      0.000      0.000
REMARK SMILES CCC(CC)NC(=O)N[C@@H]1C=C[C@@H](C(=O)OCCOCCOC(=O)c2ccc(-c3c4nc(c(-c5ccccc5)c5ccc([nH]5)c(-c5ccccc5)c5nc(c(-c6ccccc6)c6ccc3[nH]6)C=C5)C=C4)cc2)C1
REMARK SMILES IDX 18 1 17 2 16 3 14 4 15 5 13 6 10 7 11 8 73 9 12 10 9 11 6 12
REMARK SMILES IDX 7 13 8 15 3 17 2 18 1 19 4 20 5 21 19 22 20 23 21 24 22 25
REMARK SMILES IDX 23 26 24 27 25 28 26 29 72 30 27 31 71 32 28 33 29 34 30 35
REMARK SMILES IDX 65 36 31 37 70 38 64 39 66 40 32 41 69 42 63 43 62 44 33 46
REMARK SMILES IDX 55 47 40 48 54 49 41 50 44 51 53 52 67 53 42 54 43 55 52 57
REMARK SMILES IDX 68 58 45 59 34 60 35 61 39 62 36 63 38 64 37 65 56 66 57 67
REMARK SMILES IDX 61 68 58 69 60 70 59 71 46 72 47 73 51 74 48 75 50 76 49 77
REMARK H PARENT 6 14 9 16 66 45 44 56
REMARK Flexibility Score: inf
ROOT
ATOM      1  C   UNL A   1      33.330  20.641  25.992  1.00  0.00     0.202 C 
ENDROOT
BRANCH   1   2
ATOM      2  C   UNL A   1      32.698  20.337  24.632  1.00  0.00     0.261 C 
BRANCH   2   3
ATOM      3  O   UNL A   1      32.156  21.537  24.063  1.00  0.00    -0.463 OA
BRANCH   3   4
ATOM      4  C   UNL A   1      32.264  21.660  22.713  1.00  0.00     0.312 C 
ATOM      5  O   UNL A   1      31.817  20.852  21.906  1.00  0.00    -0.252 OA
BRANCH   4   6
ATOM      6  C   UNL A   1      32.907  22.986  22.301  1.00  0.00     0.124 C 
ATOM      7  C   UNL A   1      33.344  25.103  23.515  1.00  0.00     0.107 C 
ATOM      8  C   UNL A   1      34.528  24.196  23.502  1.00  0.00    -0.006 C 
ATOM      9  C   UNL A   1      32.249  24.281  22.815  1.00  0.00     0.048 C 
ATOM     10  C   UNL A   1      34.299  23.059  22.844  1.00  0.00    -0.014 C 
BRANCH   7  11
ATOM     11  N   UNL A   1      33.695  26.299  22.788  1.00  0.00    -0.332 N 
ATOM     12  N   UNL A   1      32.430  28.055  23.745  1.00  0.00    -0.335 N 
ATOM     13  C   UNL A   1      33.327  27.582  22.872  1.00  0.00     0.315 C 
ATOM     14  H   UNL A   1      32.282  29.025  23.654  1.00  0.00     0.165 HD
ATOM     15  O   UNL A   1      33.846  28.384  22.091  1.00  0.00    -0.249 OA
ATOM     16  H   UNL A   1      34.350  26.134  22.072  1.00  0.00     0.165 HD
BRANCH  12  17
ATOM     17  C   UNL A   1      31.624  27.455  24.802  1.00  0.00     0.083 C 
BRANCH  17  18
ATOM     18  C   UNL A   1      31.683  28.327  26.068  1.00  0.00     0.021 C 
ATOM     19  C   UNL A   1      33.017  28.223  26.793  1.00  0.00     0.006 C 
ENDBRANCH  17  18
BRANCH  17  20
ATOM     20  C   UNL A   1      30.198  27.160  24.293  1.00  0.00     0.021 C 
ATOM     21  C   UNL A   1      29.764  27.932  23.054  1.00  0.00     0.006 C 
ENDBRANCH  17  20
ENDBRANCH  12  17
ENDBRANCH   7  11
ENDBRANCH   4   6
ENDBRANCH   3   4
ENDBRANCH   2   3
ENDBRANCH   1   2
BRANCH   1  22
ATOM     22  O   UNL A   1      34.009  21.892  26.097  1.00  0.00    -0.374 OA
BRANCH  22  23
ATOM     23  C   UNL A   1      35.421  21.864  26.320  1.00  0.00     0.202 C 
BRANCH  23  24
ATOM     24  C   UNL A   1      36.257  21.046  25.328  1.00  0.00     0.261 C 
BRANCH  24  25
ATOM     25  O   UNL A   1      37.494  21.701  24.988  1.00  0.00    -0.460 OA
BRANCH  25  26
ATOM     26  C   UNL A   1      38.562  21.314  25.724  1.00  0.00     0.338 C 
ATOM     27  O   UNL A   1      39.081  20.206  25.759  1.00  0.00    -0.246 OA
BRANCH  26  28
ATOM     28  C   UNL A   1      39.166  22.482  26.388  1.00  0.00     0.060 A 
ATOM     29  C   UNL A   1      38.643  23.747  26.086  1.00  0.00     0.016 A 
ATOM     30  C   UNL A   1      40.278  22.352  27.221  1.00  0.00     0.016 A 
ATOM     31  C   UNL A   1      39.260  24.895  26.580  1.00  0.00     0.010 A 
ATOM     32  C   UNL A   1      40.902  23.505  27.707  1.00  0.00     0.010 A 
ATOM     33  C   UNL A   1      40.416  24.781  27.361  1.00  0.00    -0.014 A 
BRANCH  33  34
ATOM     34  C   UNL A   1      41.211  25.986  27.690  1.00  0.00     0.031 A 
ATOM     35  C   UNL A   1      40.599  27.041  28.569  1.00  0.00     0.074 A 
ATOM     36  C   UNL A   1      42.453  26.150  27.204  1.00  0.00     0.049 A 
ATOM     37  N   UNL A   1      41.067  28.215  28.904  1.00  0.00    -0.248 NA
ATOM     38  C   UNL A   1      39.279  26.729  29.142  1.00  0.00     0.031 C 
ATOM     39  C   UNL A   1      43.175  25.181  26.383  1.00  0.00     0.029 A 
ATOM     40  N   UNL A   1      43.319  27.208  27.323  1.00  0.00    -0.354 N 
ATOM     41  C   UNL A   1      40.092  28.792  29.707  1.00  0.00     0.074 A 
ATOM     42  C   UNL A   1      39.001  27.847  29.797  1.00  0.00     0.031 C 
ATOM     43  C   UNL A   1      44.370  25.699  26.051  1.00  0.00     0.029 A 
ATOM     44  C   UNL A   1      44.478  27.048  26.604  1.00  0.00     0.049 A 
ATOM     45  H   UNL A   1      43.128  28.004  27.869  1.00  0.00     0.167 HD
ATOM     46  C   UNL A   1      40.103  30.003  30.314  1.00  0.00     0.031 A 
ATOM     47  C   UNL A   1      45.495  27.905  26.390  1.00  0.00     0.031 A 
ATOM     48  C   UNL A   1      41.185  30.946  30.218  1.00  0.00     0.049 A 
ATOM     49  C   UNL A   1      45.455  29.274  27.014  1.00  0.00     0.074 A 
ATOM     50  C   UNL A   1      41.302  32.187  30.818  1.00  0.00     0.029 A 
ATOM     51  N   UNL A   1      42.331  30.753  29.463  1.00  0.00    -0.354 N 
ATOM     52  N   UNL A   1      44.539  29.801  27.790  1.00  0.00    -0.248 NA
ATOM     53  C   UNL A   1      46.591  30.165  26.733  1.00  0.00     0.031 C 
ATOM     54  C   UNL A   1      42.496  32.770  30.381  1.00  0.00     0.029 A 
ATOM     55  C   UNL A   1      43.148  31.867  29.556  1.00  0.00     0.049 A 
ATOM     56  H   UNL A   1      42.534  29.945  28.939  1.00  0.00     0.167 HD
ATOM     57  C   UNL A   1      45.001  31.071  28.114  1.00  0.00     0.074 A 
ATOM     58  C   UNL A   1      46.279  31.235  27.453  1.00  0.00     0.031 C 
ATOM     59  C   UNL A   1      44.419  32.014  28.895  1.00  0.00     0.031 A 
BRANCH  46  60
ATOM     60  C   UNL A   1      38.880  30.394  31.093  1.00  0.00    -0.014 A 
ATOM     61  C   UNL A   1      38.713  30.017  32.436  1.00  0.00     0.009 A 
ATOM     62  C   UNL A   1      37.885  31.169  30.477  1.00  0.00     0.009 A 
ATOM     63  C   UNL A   1      37.556  30.376  33.130  1.00  0.00     0.001 A 
ATOM     64  C   UNL A   1      36.742  31.549  31.182  1.00  0.00     0.001 A 
ATOM     65  C   UNL A   1      36.574  31.143  32.504  1.00  0.00     0.000 A 
ENDBRANCH  46  60
BRANCH  47  66
ATOM     66  C   UNL A   1      46.624  27.500  25.514  1.00  0.00    -0.014 A 
ATOM     67  C   UNL A   1      47.663  26.699  26.010  1.00  0.00     0.009 A 
ATOM     68  C   UNL A   1      46.659  27.904  24.170  1.00  0.00     0.009 A 
ATOM     69  C   UNL A   1      48.722  26.324  25.180  1.00  0.00     0.001 A 
ATOM     70  C   UNL A   1      47.705  27.506  23.337  1.00  0.00     0.001 A 
ATOM     71  C   UNL A   1      48.740  26.722  23.843  1.00  0.00     0.000 A 
ENDBRANCH  47  66
BRANCH  59  72
ATOM     72  C   UNL A   1      45.170  33.297  29.115  1.00  0.00    -0.014 A 
ATOM     73  C   UNL A   1      44.956  34.417  28.299  1.00  0.00     0.009 A 
ATOM     74  C   UNL A   1      46.048  33.405  30.206  1.00  0.00     0.009 A 
ATOM     75  C   UNL A   1      45.622  35.617  28.561  1.00  0.00     0.001 A 
ATOM     76  C   UNL A   1      46.692  34.612  30.481  1.00  0.00     0.001 A 
ATOM     77  C   UNL A   1      46.482  35.716  29.655  1.00  0.00     0.000 A 
ENDBRANCH  59  72
ENDBRANCH  33  34
ENDBRANCH  26  28
ENDBRANCH  25  26
ENDBRANCH  24  25
ENDBRANCH  23  24
ENDBRANCH  22  23
ENDBRANCH   1  22
TORSDOF 18
ENDMDL
MODEL 2
REMARK VINA RESULT:      -9.5      2.492      3.312
REMARK SMILES CCC(CC)NC(=O)N[C@@H]1C=C[C@@H](C(=O)OCCOCCOC(=O)c2ccc(-c3c4nc(c(-c5ccccc5)c5ccc([nH]5)c(-c5ccccc5)c5nc(c(-c6ccccc6)c6ccc3[nH]6)C=C5)C=C4)cc2)C1
REMARK SMILES IDX 18 1 17 2 16 3 14 4 15 5 13 6 10 7 11 8 73 9 12 10 9 11 6 12
REMARK SMILES IDX 7 13 8 15 3 17 2 18 1 19 4 20 5 21 19 22 20 23 21 24 22 25
REMARK SMILES IDX 23 26 24 27 25 28 26 29 72 30 27 31 71 32 28 33 29 34 30 35
REMARK SMILES IDX 65 36 31 37 70 38 64 39 66 40 32 41 69 42 63 43 62 44 33 46
REMARK SMILES IDX 55 47 40 48 54 49 41 50 44 51 53 52 67 53 42 54 43 55 52 57
REMARK SMILES IDX 68 58 45 59 34 60 35 61 39 62 36 63 38 64 37 65 56 66 57 67
REMARK SMILES IDX 61 68 58 69 60 70 59 71 46 72 47 73 51 74 48 75 50 76 49 77
REMARK H PARENT 6 14 9 16 66 45 44 56
REMARK Flexibility Score: inf
ROOT
ATOM      1  C   UNL A   1      36.850  21.243  25.134  1.00  0.00     0.202 C 
ENDROOT
BRANCH   1   2
ATOM      2  C   UNL A   1      35.679  21.769  25.967  1.00  0.00     0.261 C 
BRANCH   2   3
ATOM      3  O   UNL A   1      34.437  21.318  25.409  1.00  0.00    -0.463 OA
BRANCH   3   4
ATOM      4  C   UNL A   1      33.649  22.276  24.853  1.00  0.00     0.312 C 
ATOM      5  O   UNL A   1      33.316  22.300  23.673  1.00  0.00    -0.252 OA
BRANCH   4   6
ATOM      6  C   UNL A   1      33.120  23.268  25.892  1.00  0.00     0.124 C 
ATOM      7  C   UNL A   1      31.560  25.190  25.754  1.00  0.00     0.107 C 
ATOM      8  C   UNL A   1      30.883  23.933  26.190  1.00  0.00    -0.006 C 
ATOM      9  C   UNL A   1      33.003  24.743  25.465  1.00  0.00     0.048 C 
ATOM     10  C   UNL A   1      31.721  22.898  26.271  1.00  0.00    -0.014 C 
BRANCH   7  11
ATOM     11  N   UNL A   1      31.475  26.137  26.839  1.00  0.00    -0.332 N 
ATOM     12  N   UNL A   1      31.573  28.287  25.856  1.00  0.00    -0.335 N 
ATOM     13  C   UNL A   1      31.467  27.472  26.913  1.00  0.00     0.315 C 
ATOM     14  H   UNL A   1      31.555  29.240  26.105  1.00  0.00     0.165 HD
ATOM     15  O   UNL A   1      31.358  27.989  28.027  1.00  0.00    -0.249 OA
ATOM     16  H   UNL A   1      31.408  25.704  27.722  1.00  0.00     0.165 HD
BRANCH  12  17
ATOM     17  C   UNL A   1      31.708  28.077  24.419  1.00  0.00     0.083 C 
BRANCH  17  18
ATOM     18  C   UNL A   1      30.713  28.973  23.662  1.00  0.00     0.021 C 
ATOM     19  C   UNL A   1      29.520  28.200  23.118  1.00  0.00     0.006 C 
ENDBRANCH  17  18
BRANCH  17  20
ATOM     20  C   UNL A   1      33.179  28.244  23.984  1.00  0.00     0.021 C 
ATOM     21  C   UNL A   1      33.532  27.688  22.611  1.00  0.00     0.006 C 
ENDBRANCH  17  20
ENDBRANCH  12  17
ENDBRANCH   7  11
ENDBRANCH   4   6
ENDBRANCH   3   4
ENDBRANCH   2   3
ENDBRANCH   1   2
BRANCH   1  22
ATOM     22  O   UNL A   1      36.870  19.833  24.910  1.00  0.00    -0.374 OA
BRANCH  22  23
ATOM     23  C   UNL A   1      38.120  19.155  25.061  1.00  0.00     0.202 C 
BRANCH  23  24
ATOM     24  C   UNL A   1      39.301  19.996  25.561  1.00  0.00     0.261 C 
BRANCH  24  25
ATOM     25  O   UNL A   1      40.389  19.179  26.036  1.00  0.00    -0.460 OA
BRANCH  25  26
ATOM     26  C   UNL A   1      41.619  19.717  25.863  1.00  0.00     0.338 C 
ATOM     27  O   UNL A   1      42.539  19.272  25.189  1.00  0.00    -0.246 OA
BRANCH  26  28
ATOM     28  C   UNL A   1      41.675  21.055  26.477  1.00  0.00     0.060 A 
ATOM     29  C   UNL A   1      42.026  22.135  25.657  1.00  0.00     0.016 A 
ATOM     30  C   UNL A   1      41.476  21.236  27.847  1.00  0.00     0.016 A 
ATOM     31  C   UNL A   1      42.225  23.398  26.211  1.00  0.00     0.010 A 
ATOM     32  C   UNL A   1      41.686  22.502  28.403  1.00  0.00     0.010 A 
ATOM     33  C   UNL A   1      42.094  23.579  27.593  1.00  0.00    -0.014 A 
BRANCH  33  34
ATOM     34  C   UNL A   1      42.532  24.848  28.219  1.00  0.00     0.031 A 
ATOM     35  C   UNL A   1      41.513  25.926  28.461  1.00  0.00     0.074 A 
ATOM     36  C   UNL A   1      43.817  25.045  28.557  1.00  0.00     0.049 A 
ATOM     37  N   UNL A   1      41.685  27.146  28.900  1.00  0.00    -0.248 NA
ATOM     38  C   UNL A   1      40.113  25.583  28.160  1.00  0.00     0.031 C 
ATOM     39  C   UNL A   1      44.889  24.062  28.420  1.00  0.00     0.029 A 
ATOM     40  N   UNL A   1      44.438  26.156  29.072  1.00  0.00    -0.354 N 
ATOM     41  C   UNL A   1      40.422  27.724  28.907  1.00  0.00     0.074 A 
ATOM     42  C   UNL A   1      39.496  26.728  28.414  1.00  0.00     0.031 C 
ATOM     43  C   UNL A   1      46.044  24.621  28.820  1.00  0.00     0.029 A 
ATOM     44  C   UNL A   1      45.796  26.010  29.204  1.00  0.00     0.049 A 
ATOM     45  H   UNL A   1      43.956  26.977  29.321  1.00  0.00     0.167 HD
ATOM     46  C   UNL A   1      40.065  28.974  29.288  1.00  0.00     0.031 A 
ATOM     47  C   UNL A   1      46.738  26.905  29.561  1.00  0.00     0.031 A 
ATOM     48  C   UNL A   1      40.988  29.966  29.771  1.00  0.00     0.049 A 
ATOM     49  C   UNL A   1      46.330  28.311  29.911  1.00  0.00     0.074 A 
ATOM     50  C   UNL A   1      40.720  31.251  30.206  1.00  0.00     0.029 A 
ATOM     51  N   UNL A   1      42.358  29.785  29.869  1.00  0.00    -0.354 N 
ATOM     52  N   UNL A   1      45.130  28.840  29.937  1.00  0.00    -0.248 NA
ATOM     53  C   UNL A   1      47.406  29.242  30.283  1.00  0.00     0.031 C 
ATOM     54  C   UNL A   1      41.937  31.868  30.516  1.00  0.00     0.029 A 
ATOM     55  C   UNL A   1      42.955  30.946  30.329  1.00  0.00     0.049 A 
ATOM     56  H   UNL A   1      42.836  28.954  29.645  1.00  0.00     0.167 HD
ATOM     57  C   UNL A   1      45.304  30.154  30.355  1.00  0.00     0.074 A 
ATOM     58  C   UNL A   1      46.723  30.341  30.574  1.00  0.00     0.031 C 
ATOM     59  C   UNL A   1      44.369  31.116  30.545  1.00  0.00     0.031 A 
BRANCH  46  60
ATOM     60  C   UNL A   1      38.618  29.350  29.146  1.00  0.00    -0.014 A 
ATOM     61  C   UNL A   1      37.721  29.239  30.220  1.00  0.00     0.009 A 
ATOM     62  C   UNL A   1      38.149  29.842  27.918  1.00  0.00     0.009 A 
ATOM     63  C   UNL A   1      36.376  29.575  30.054  1.00  0.00     0.001 A 
ATOM     64  C   UNL A   1      36.810  30.204  27.763  1.00  0.00     0.001 A 
ATOM     65  C   UNL A   1      35.923  30.059  28.827  1.00  0.00     0.000 A 
ENDBRANCH  46  60
BRANCH  47  66
ATOM     66  C   UNL A   1      48.167  26.502  29.571  1.00  0.00    -0.014 A 
ATOM     67  C   UNL A   1      48.741  25.928  30.715  1.00  0.00     0.009 A 
ATOM     68  C   UNL A   1      48.962  26.680  28.428  1.00  0.00     0.009 A 
ATOM     69  C   UNL A   1      50.087  25.554  30.717  1.00  0.00     0.001 A 
ATOM     70  C   UNL A   1      50.299  26.280  28.425  1.00  0.00     0.001 A 
ATOM     71  C   UNL A   1      50.863  25.724  29.571  1.00  0.00     0.000 A 
ENDBRANCH  47  66
BRANCH  59  72
ATOM     72  C   UNL A   1      44.836  32.452  31.052  1.00  0.00    -0.014 A 
ATOM     73  C   UNL A   1      44.965  32.706  32.424  1.00  0.00     0.009 A 
ATOM     74  C   UNL A   1      45.224  33.442  30.134  1.00  0.00     0.009 A 
ATOM     75  C   UNL A   1      45.459  33.935  32.870  1.00  0.00     0.001 A 
ATOM     76  C   UNL A   1      45.740  34.659  30.581  1.00  0.00     0.001 A 
ATOM     77  C   UNL A   1      45.852  34.906  31.948  1.00  0.00     0.000 A 
ENDBRANCH  59  72
ENDBRANCH  33  34
ENDBRANCH  26  28
ENDBRANCH  25  26
ENDBRANCH  24  25
ENDBRANCH  23  24
ENDBRANCH  22  23
ENDBRANCH   1  22
TORSDOF 18
ENDMDL
MODEL 3
REMARK VINA RESULT:      -9.5      3.730      8.813
REMARK SMILES CCC(CC)NC(=O)N[C@@H]1C=C[C@@H](C(=O)OCCOCCOC(=O)c2ccc(-c3c4nc(c(-c5ccccc5)c5ccc([nH]5)c(-c5ccccc5)c5nc(c(-c6ccccc6)c6ccc3[nH]6)C=C5)C=C4)cc2)C1
REMARK SMILES IDX 18 1 17 2 16 3 14 4 15 5 13 6 10 7 11 8 73 9 12 10 9 11 6 12
REMARK SMILES IDX 7 13 8 15 3 17 2 18 1 19 4 20 5 21 19 22 20 23 21 24 22 25
REMARK SMILES IDX 23 26 24 27 25 28 26 29 72 30 27 31 71 32 28 33 29 34 30 35
REMARK SMILES IDX 65 36 31 37 70 38 64 39 66 40 32 41 69 42 63 43 62 44 33 46
REMARK SMILES IDX 55 47 40 48 54 49 41 50 44 51 53 52 67 53 42 54 43 55 52 57
REMARK SMILES IDX 68 58 45 59 34 60 35 61 39 62 36 63 38 64 37 65 56 66 57 67
REMARK SMILES IDX 61 68 58 69 60 70 59 71 46 72 47 73 51 74 48 75 50 76 49 77
REMARK H PARENT 6 14 9 16 66 45 44 56
REMARK Flexibility Score: inf
ROOT
ATOM      1  C   UNL A   1      33.749  28.119  24.108  1.00  0.00     0.202 C 
ENDROOT
BRANCH   1   2
ATOM      2  C   UNL A   1      32.761  26.964  24.282  1.00  0.00     0.261 C 
BRANCH   2   3
ATOM      3  O   UNL A   1      32.090  26.699  23.043  1.00  0.00    -0.463 OA
BRANCH   3   4
ATOM      4  C   UNL A   1      32.760  25.918  22.155  1.00  0.00     0.312 C 
ATOM      5  O   UNL A   1      33.653  26.318  21.416  1.00  0.00    -0.252 OA
BRANCH   4   6
ATOM      6  C   UNL A   1      32.357  24.446  22.257  1.00  0.00     0.124 C 
ATOM      7  C   UNL A   1      32.349  22.821  24.130  1.00  0.00     0.107 C 
ATOM      8  C   UNL A   1      31.019  23.467  23.928  1.00  0.00    -0.006 C 
ATOM      9  C   UNL A   1      33.254  23.524  23.104  1.00  0.00     0.048 C 
ATOM     10  C   UNL A   1      31.018  24.337  22.917  1.00  0.00    -0.014 C 
BRANCH   7  11
ATOM     11  N   UNL A   1      32.200  21.410  23.868  1.00  0.00    -0.332 N 
ATOM     12  N   UNL A   1      33.970  20.330  25.008  1.00  0.00    -0.335 N 
ATOM     13  C   UNL A   1      32.873  20.317  24.240  1.00  0.00     0.315 C 
ATOM     14  H   UNL A   1      34.333  19.429  25.172  1.00  0.00     0.165 HD
ATOM     15  O   UNL A   1      32.460  19.222  23.849  1.00  0.00    -0.249 OA
ATOM     16  H   UNL A   1      31.431  21.207  23.287  1.00  0.00     0.165 HD
BRANCH  12  17
ATOM     17  C   UNL A   1      34.745  21.382  25.656  1.00  0.00     0.083 C 
BRANCH  17  18
ATOM     18  C   UNL A   1      34.381  21.459  27.149  1.00  0.00     0.021 C 
ATOM     19  C   UNL A   1      34.040  22.871  27.599  1.00  0.00     0.006 C 
ENDBRANCH  17  18
BRANCH  17  20
ATOM     20  C   UNL A   1      36.251  21.195  25.373  1.00  0.00     0.021 C 
ATOM     21  C   UNL A   1      36.831  22.073  24.272  1.00  0.00     0.006 C 
ENDBRANCH  17  20
ENDBRANCH  12  17
ENDBRANCH   7  11
ENDBRANCH   4   6
ENDBRANCH   3   4
ENDBRANCH   2   3
ENDBRANCH   1   2
BRANCH   1  22
ATOM     22  O   UNL A   1      33.349  29.369  24.671  1.00  0.00    -0.374 OA
BRANCH  22  23
ATOM     23  C   UNL A   1      32.025  29.466  25.199  1.00  0.00     0.202 C 
BRANCH  23  24
ATOM     24  C   UNL A   1      31.683  30.750  25.965  1.00  0.00     0.261 C 
BRANCH  24  25
ATOM     25  O   UNL A   1      32.388  30.841  27.218  1.00  0.00    -0.460 OA
BRANCH  25  26
ATOM     26  C   UNL A   1      33.169  31.939  27.352  1.00  0.00     0.338 C 
ATOM     27  O   UNL A   1      32.827  33.111  27.263  1.00  0.00    -0.246 OA
BRANCH  26  28
ATOM     28  C   UNL A   1      34.514  31.548  27.805  1.00  0.00     0.060 A 
ATOM     29  C   UNL A   1      34.740  30.194  28.089  1.00  0.00     0.016 A 
ATOM     30  C   UNL A   1      35.511  32.499  28.033  1.00  0.00     0.016 A 
ATOM     31  C   UNL A   1      35.950  29.789  28.648  1.00  0.00     0.010 A 
ATOM     32  C   UNL A   1      36.721  32.093  28.604  1.00  0.00     0.010 A 
ATOM     33  C   UNL A   1      36.932  30.743  28.945  1.00  0.00    -0.014 A 
BRANCH  33  34
ATOM     34  C   UNL A   1      38.115  30.362  29.750  1.00  0.00     0.031 A 
ATOM     35  C   UNL A   1      39.143  29.449  29.142  1.00  0.00     0.074 A 
ATOM     36  C   UNL A   1      38.269  30.810  31.008  1.00  0.00     0.049 A 
ATOM     37  N   UNL A   1      40.200  28.908  29.692  1.00  0.00    -0.248 NA
ATOM     38  C   UNL A   1      38.948  29.096  27.727  1.00  0.00     0.031 C 
ATOM     39  C   UNL A   1      37.370  31.737  31.691  1.00  0.00     0.029 A 
ATOM     40  N   UNL A   1      39.237  30.525  31.938  1.00  0.00    -0.354 N 
ATOM     41  C   UNL A   1      40.783  28.132  28.698  1.00  0.00     0.074 A 
ATOM     42  C   UNL A   1      39.956  28.260  27.518  1.00  0.00     0.031 C 
ATOM     43  C   UNL A   1      37.818  31.929  32.945  1.00  0.00     0.029 A 
ATOM     44  C   UNL A   1      39.009  31.109  33.159  1.00  0.00     0.049 A 
ATOM     45  H   UNL A   1      40.018  29.957  31.748  1.00  0.00     0.167 HD
ATOM     46  C   UNL A   1      41.906  27.378  28.764  1.00  0.00     0.031 A 
ATOM     47  C   UNL A   1      39.666  30.971  34.327  1.00  0.00     0.031 A 
ATOM     48  C   UNL A   1      42.723  27.245  29.939  1.00  0.00     0.049 A 
ATOM     49  C   UNL A   1      40.870  30.071  34.398  1.00  0.00     0.074 A 
ATOM     50  C   UNL A   1      43.895  26.526  30.097  1.00  0.00     0.029 A 
ATOM     51  N   UNL A   1      42.445  27.836  31.162  1.00  0.00    -0.354 N 
ATOM     52  N   UNL A   1      41.427  29.360  33.447  1.00  0.00    -0.248 NA
ATOM     53  C   UNL A   1      41.537  29.956  35.704  1.00  0.00     0.031 C 
ATOM     54  C   UNL A   1      44.296  26.637  31.433  1.00  0.00     0.029 A 
ATOM     55  C   UNL A   1      43.406  27.473  32.090  1.00  0.00     0.049 A 
ATOM     56  H   UNL A   1      41.679  28.426  31.343  1.00  0.00     0.167 HD
ATOM     57  C   UNL A   1      42.524  28.739  34.030  1.00  0.00     0.074 A 
ATOM     58  C   UNL A   1      42.557  29.157  35.416  1.00  0.00     0.031 C 
ATOM     59  C   UNL A   1      43.427  27.900  33.465  1.00  0.00     0.031 A 
BRANCH  46  60
ATOM     60  C   UNL A   1      42.283  26.598  27.537  1.00  0.00    -0.014 A 
ATOM     61  C   UNL A   1      41.878  25.265  27.360  1.00  0.00     0.009 A 
ATOM     62  C   UNL A   1      43.045  27.215  26.532  1.00  0.00     0.009 A 
ATOM     63  C   UNL A   1      42.261  24.556  26.219  1.00  0.00     0.001 A 
ATOM     64  C   UNL A   1      43.403  26.513  25.380  1.00  0.00     0.001 A 
ATOM     65  C   UNL A   1      43.021  25.181  25.231  1.00  0.00     0.000 A 
ENDBRANCH  46  60
BRANCH  47  66
ATOM     66  C   UNL A   1      39.174  31.681  35.535  1.00  0.00    -0.014 A 
ATOM     67  C   UNL A   1      39.648  32.962  35.855  1.00  0.00     0.009 A 
ATOM     68  C   UNL A   1      38.215  31.083  36.368  1.00  0.00     0.009 A 
ATOM     69  C   UNL A   1      39.182  33.622  36.994  1.00  0.00     0.001 A 
ATOM     70  C   UNL A   1      37.732  31.756  37.491  1.00  0.00     0.001 A 
ATOM     71  C   UNL A   1      38.220  33.023  37.807  1.00  0.00     0.000 A 
ENDBRANCH  47  66
BRANCH  59  72
ATOM     72  C   UNL A   1      44.554  27.404  34.327  1.00  0.00    -0.014 A 
ATOM     73  C   UNL A   1      44.448  26.208  35.049  1.00  0.00     0.009 A 
ATOM     74  C   UNL A   1      45.767  28.112  34.352  1.00  0.00     0.009 A 
ATOM     75  C   UNL A   1      45.531  25.737  35.796  1.00  0.00     0.001 A 
ATOM     76  C   UNL A   1      46.855  27.626  35.077  1.00  0.00     0.001 A 
ATOM     77  C   UNL A   1      46.735  26.442  35.803  1.00  0.00     0.000 A 
ENDBRANCH  59  72
ENDBRANCH  33  34
ENDBRANCH  26  28
ENDBRANCH  25  26
ENDBRANCH  24  25
ENDBRANCH  23  24
ENDBRANCH  22  23
ENDBRANCH   1  22
TORSDOF 18
ENDMDL
