MODEL 1
REMARK VINA RESULT:     -11.5      0.000      0.000
REMARK SMILES O=C(OCCOCCOC(=O)c1ccc(-c2c3nc(c(-c4ccccc4)c4ccc([nH]4)c(-c4ccccc4)c4nc(c(-c5ccccc5)c5ccc2[nH]5)C=C4)C=C3)cc1)c1ccc(NS(=O)(=O)C2=Cc3ccccc3CC2)cc1
REMARK SMILES IDX 5 1 4 2 3 3 2 4 1 5 60 6 61 7 79 8 62 9 78 10 63 11 64 12
REMARK SMILES IDX 65 14 66 15 67 16 68 17 69 18 77 19 70 20 76 21 71 22 75 23
REMARK SMILES IDX 72 24 74 25 73 26 6 27 7 28 8 29 9 30 10 31 11 32 12 33
REMARK SMILES IDX 13 34 59 35 14 36 58 37 15 38 16 39 17 40 52 41 18 42 57 43
REMARK SMILES IDX 51 44 53 45 19 46 56 47 50 48 49 49 20 51 42 52 27 53 41 54
REMARK SMILES IDX 28 55 31 56 40 57 54 58 29 59 30 60 39 62 55 63 32 64 21 65
REMARK SMILES IDX 22 66 26 67 23 68 25 69 24 70 43 71 44 72 48 73 45 74 47 75
REMARK SMILES IDX 46 76 33 77 34 78 38 79 35 80 37 81 36 82
REMARK H PARENT 64 13 53 50 31 61
REMARK Flexibility Score: inf
ROOT
ATOM      1  C   UNL A   1      33.343  34.184  28.714  1.00  0.00     0.202 C 
ENDROOT
BRANCH   1   2
ATOM      2  C   UNL A   1      34.379  33.188  28.202  1.00  0.00     0.261 C 
BRANCH   2   3
ATOM      3  O   UNL A   1      33.845  31.883  27.905  1.00  0.00    -0.460 OA
BRANCH   3   4
ATOM      4  C   UNL A   1      34.446  30.720  27.556  1.00  0.00     0.338 C 
ATOM      5  O   UNL A   1      35.675  30.672  27.589  1.00  0.00    -0.246 OA
BRANCH   4   6
ATOM      6  C   UNL A   1      33.729  29.517  27.029  1.00  0.00     0.060 A 
ATOM      7  C   UNL A   1      34.291  28.499  26.271  1.00  0.00     0.018 A 
ATOM      8  C   UNL A   1      32.356  29.415  27.323  1.00  0.00     0.018 A 
ATOM      9  C   UNL A   1      33.564  27.335  25.995  1.00  0.00     0.027 A 
ATOM     10  C   UNL A   1      31.639  28.239  27.060  1.00  0.00     0.027 A 
ATOM     11  C   UNL A   1      32.279  27.150  26.479  1.00  0.00     0.049 A 
BRANCH  11  12
ATOM     12  N   UNL A   1      31.650  25.879  26.589  1.00  0.00    -0.280 N 
ATOM     13  H   UNL A   1      32.055  25.224  27.203  1.00  0.00     0.180 HD
BRANCH  12  14
ATOM     14  S   UNL A   1      30.267  25.403  25.752  1.00  0.00     0.258 S 
ATOM     15  O   UNL A   1      29.297  25.197  26.812  1.00  0.00    -0.202 OA
ATOM     16  O   UNL A   1      30.024  26.430  24.758  1.00  0.00    -0.202 OA
BRANCH  14  17
ATOM     17  C   UNL A   1      30.620  23.842  24.940  1.00  0.00     0.066 C 
ATOM     18  C   UNL A   1      31.599  23.887  24.002  1.00  0.00     0.026 C 
ATOM     19  C   UNL A   1      30.778  22.639  25.857  1.00  0.00     0.055 C 
ATOM     20  C   UNL A   1      32.977  23.860  24.589  1.00  0.00    -0.021 A 
ATOM     21  C   UNL A   1      32.051  22.779  26.701  1.00  0.00     0.041 C 
ATOM     22  C   UNL A   1      34.062  24.309  23.837  1.00  0.00     0.008 A 
ATOM     23  C   UNL A   1      33.183  23.393  25.908  1.00  0.00    -0.040 A 
ATOM     24  C   UNL A   1      35.329  24.381  24.421  1.00  0.00     0.001 A 
ATOM     25  C   UNL A   1      34.445  23.518  26.499  1.00  0.00     0.004 A 
ATOM     26  C   UNL A   1      35.511  24.020  25.757  1.00  0.00     0.000 A 
ENDBRANCH  14  17
ENDBRANCH  12  14
ENDBRANCH  11  12
ENDBRANCH   4   6
ENDBRANCH   3   4
ENDBRANCH   2   3
ENDBRANCH   1   2
BRANCH   1  27
ATOM     27  O   UNL A   1      33.274  34.252  30.136  1.00  0.00    -0.374 OA
BRANCH  27  28
ATOM     28  C   UNL A   1      34.553  34.134  30.777  1.00  0.00     0.202 C 
BRANCH  28  29
ATOM     29  C   UNL A   1      34.463  33.529  32.183  1.00  0.00     0.261 C 
BRANCH  29  30
ATOM     30  O   UNL A   1      35.057  32.219  32.201  1.00  0.00    -0.460 OA
BRANCH  30  31
ATOM     31  C   UNL A   1      36.223  32.129  32.887  1.00  0.00     0.338 C 
ATOM     32  O   UNL A   1      36.407  32.362  34.066  1.00  0.00    -0.246 OA
BRANCH  31  33
ATOM     33  C   UNL A   1      37.244  31.505  32.018  1.00  0.00     0.060 A 
ATOM     34  C   UNL A   1      38.271  30.790  32.648  1.00  0.00     0.016 A 
ATOM     35  C   UNL A   1      37.201  31.596  30.622  1.00  0.00     0.016 A 
ATOM     36  C   UNL A   1      39.276  30.198  31.889  1.00  0.00     0.010 A 
ATOM     37  C   UNL A   1      38.211  31.001  29.860  1.00  0.00     0.010 A 
ATOM     38  C   UNL A   1      39.268  30.329  30.495  1.00  0.00    -0.014 A 
BRANCH  38  39
ATOM     39  C   UNL A   1      40.461  29.902  29.730  1.00  0.00     0.031 A 
ATOM     40  C   UNL A   1      40.457  28.539  29.095  1.00  0.00     0.074 A 
ATOM     41  C   UNL A   1      41.497  30.739  29.549  1.00  0.00     0.049 A 
ATOM     42  N   UNL A   1      41.354  27.982  28.324  1.00  0.00    -0.248 NA
ATOM     43  C   UNL A   1      39.281  27.694  29.364  1.00  0.00     0.031 C 
ATOM     44  C   UNL A   1      41.603  32.090  30.098  1.00  0.00     0.029 A 
ATOM     45  N   UNL A   1      42.660  30.570  28.841  1.00  0.00    -0.354 N 
ATOM     46  C   UNL A   1      40.845  26.730  28.004  1.00  0.00     0.074 A 
ATOM     47  C   UNL A   1      39.586  26.589  28.700  1.00  0.00     0.031 C 
ATOM     48  C   UNL A   1      42.769  32.630  29.703  1.00  0.00     0.029 A 
ATOM     49  C   UNL A   1      43.496  31.658  28.890  1.00  0.00     0.049 A 
ATOM     50  H   UNL A   1      42.875  29.747  28.344  1.00  0.00     0.167 HD
ATOM     51  C   UNL A   1      41.370  25.786  27.189  1.00  0.00     0.031 A 
ATOM     52  C   UNL A   1      44.711  31.843  28.342  1.00  0.00     0.031 A 
ATOM     53  C   UNL A   1      42.637  25.913  26.521  1.00  0.00     0.049 A 
ATOM     54  C   UNL A   1      45.302  30.753  27.487  1.00  0.00     0.074 A 
ATOM     55  C   UNL A   1      43.270  25.009  25.687  1.00  0.00     0.029 A 
ATOM     56  N   UNL A   1      43.468  27.018  26.622  1.00  0.00    -0.354 N 
ATOM     57  N   UNL A   1      44.796  29.585  27.167  1.00  0.00    -0.248 NA
ATOM     58  C   UNL A   1      46.625  31.016  26.903  1.00  0.00     0.031 C 
ATOM     59  C   UNL A   1      44.505  25.550  25.315  1.00  0.00     0.029 A 
ATOM     60  C   UNL A   1      44.617  26.813  25.876  1.00  0.00     0.049 A 
ATOM     61  H   UNL A   1      43.272  27.827  27.146  1.00  0.00     0.167 HD
ATOM     62  C   UNL A   1      45.728  28.985  26.328  1.00  0.00     0.074 A 
ATOM     63  C   UNL A   1      46.816  29.928  26.170  1.00  0.00     0.031 C 
ATOM     64  C   UNL A   1      45.689  27.764  25.741  1.00  0.00     0.031 A 
BRANCH  51  65
ATOM     65  C   UNL A   1      40.574  24.527  26.997  1.00  0.00    -0.014 A 
ATOM     66  C   UNL A   1      41.018  23.303  27.526  1.00  0.00     0.009 A 
ATOM     67  C   UNL A   1      39.363  24.562  26.292  1.00  0.00     0.009 A 
ATOM     68  C   UNL A   1      40.280  22.135  27.323  1.00  0.00     0.001 A 
ATOM     69  C   UNL A   1      38.614  23.397  26.112  1.00  0.00     0.001 A 
ATOM     70  C   UNL A   1      39.077  22.184  26.620  1.00  0.00     0.000 A 
ENDBRANCH  51  65
BRANCH  52  71
ATOM     71  C   UNL A   1      45.459  33.105  28.586  1.00  0.00    -0.014 A 
ATOM     72  C   UNL A   1      46.346  33.221  29.666  1.00  0.00     0.009 A 
ATOM     73  C   UNL A   1      45.267  34.213  27.744  1.00  0.00     0.009 A 
ATOM     74  C   UNL A   1      47.001  34.430  29.917  1.00  0.00     0.001 A 
ATOM     75  C   UNL A   1      45.946  35.409  27.980  1.00  0.00     0.001 A 
ATOM     76  C   UNL A   1      46.803  35.521  29.073  1.00  0.00     0.000 A 
ENDBRANCH  52  71
BRANCH  64  77
ATOM     77  C   UNL A   1      46.847  27.397  24.856  1.00  0.00    -0.014 A 
ATOM     78  C   UNL A   1      47.774  26.416  25.238  1.00  0.00     0.009 A 
ATOM     79  C   UNL A   1      46.995  28.026  23.610  1.00  0.00     0.009 A 
ATOM     80  C   UNL A   1      48.852  26.102  24.409  1.00  0.00     0.001 A 
ATOM     81  C   UNL A   1      48.056  27.689  22.769  1.00  0.00     0.001 A 
ATOM     82  C   UNL A   1      48.990  26.737  23.174  1.00  0.00     0.000 A 
ENDBRANCH  64  77
ENDBRANCH  38  39
ENDBRANCH  31  33
ENDBRANCH  30  31
ENDBRANCH  29  30
ENDBRANCH  28  29
ENDBRANCH  27  28
ENDBRANCH   1  27
TORSDOF 17
ENDMDL
MODEL 2
REMARK VINA RESULT:     -11.3      4.305      8.242
REMARK SMILES O=C(OCCOCCOC(=O)c1ccc(-c2c3nc(c(-c4ccccc4)c4ccc([nH]4)c(-c4ccccc4)c4nc(c(-c5ccccc5)c5ccc2[nH]5)C=C4)C=C3)cc1)c1ccc(NS(=O)(=O)C2=Cc3ccccc3CC2)cc1
REMARK SMILES IDX 5 1 4 2 3 3 2 4 1 5 60 6 61 7 79 8 62 9 78 10 63 11 64 12
REMARK SMILES IDX 65 14 66 15 67 16 68 17 69 18 77 19 70 20 76 21 71 22 75 23
REMARK SMILES IDX 72 24 74 25 73 26 6 27 7 28 8 29 9 30 10 31 11 32 12 33
REMARK SMILES IDX 13 34 59 35 14 36 58 37 15 38 16 39 17 40 52 41 18 42 57 43
REMARK SMILES IDX 51 44 53 45 19 46 56 47 50 48 49 49 20 51 42 52 27 53 41 54
REMARK SMILES IDX 28 55 31 56 40 57 54 58 29 59 30 60 39 62 55 63 32 64 21 65
REMARK SMILES IDX 22 66 26 67 23 68 25 69 24 70 43 71 44 72 48 73 45 74 47 75
REMARK SMILES IDX 46 76 33 77 34 78 38 79 35 80 37 81 36 82
REMARK H PARENT 64 13 53 50 31 61
REMARK Flexibility Score: inf
ROOT
ATOM      1  C   UNL A   1      34.436  32.516  29.271  1.00  0.00     0.202 C 
ENDROOT
BRANCH   1   2
ATOM      2  C   UNL A   1      34.498  31.937  27.861  1.00  0.00     0.261 C 
BRANCH   2   3
ATOM      3  O   UNL A   1      33.591  30.840  27.634  1.00  0.00    -0.460 OA
BRANCH   3   4
ATOM      4  C   UNL A   1      32.440  30.752  26.925  1.00  0.00     0.338 C 
ATOM      5  O   UNL A   1      31.797  31.785  26.738  1.00  0.00    -0.246 OA
BRANCH   4   6
ATOM      6  C   UNL A   1      31.834  29.473  26.441  1.00  0.00     0.060 A 
ATOM      7  C   UNL A   1      31.422  29.204  25.143  1.00  0.00     0.018 A 
ATOM      8  C   UNL A   1      31.660  28.451  27.394  1.00  0.00     0.018 A 
ATOM      9  C   UNL A   1      31.045  27.909  24.772  1.00  0.00     0.027 A 
ATOM     10  C   UNL A   1      31.300  27.151  27.012  1.00  0.00     0.027 A 
ATOM     11  C   UNL A   1      31.086  26.855  25.670  1.00  0.00     0.049 A 
BRANCH  11  12
ATOM     12  N   UNL A   1      31.114  25.486  25.284  1.00  0.00    -0.280 N 
ATOM     13  H   UNL A   1      30.512  25.208  24.555  1.00  0.00     0.180 HD
BRANCH  12  14
ATOM     14  S   UNL A   1      32.093  24.301  25.974  1.00  0.00     0.258 S 
ATOM     15  O   UNL A   1      33.409  24.914  25.956  1.00  0.00    -0.202 OA
ATOM     16  O   UNL A   1      31.484  23.965  27.245  1.00  0.00    -0.202 OA
BRANCH  14  17
ATOM     17  C   UNL A   1      32.076  22.869  24.892  1.00  0.00     0.066 C 
ATOM     18  C   UNL A   1      32.883  22.956  23.805  1.00  0.00     0.026 C 
ATOM     19  C   UNL A   1      32.206  21.518  25.579  1.00  0.00     0.055 C 
ATOM     20  C   UNL A   1      34.320  22.668  24.116  1.00  0.00    -0.021 A 
ATOM     21  C   UNL A   1      33.606  21.363  26.183  1.00  0.00     0.041 C 
ATOM     22  C   UNL A   1      35.320  23.106  23.249  1.00  0.00     0.008 A 
ATOM     23  C   UNL A   1      34.670  21.963  25.291  1.00  0.00    -0.040 A 
ATOM     24  C   UNL A   1      36.663  22.928  23.591  1.00  0.00     0.001 A 
ATOM     25  C   UNL A   1      36.016  21.837  25.649  1.00  0.00     0.004 A 
ATOM     26  C   UNL A   1      37.008  22.327  24.802  1.00  0.00     0.000 A 
ENDBRANCH  14  17
ENDBRANCH  12  14
ENDBRANCH  11  12
ENDBRANCH   4   6
ENDBRANCH   3   4
ENDBRANCH   2   3
ENDBRANCH   1   2
BRANCH   1  27
ATOM     27  O   UNL A   1      34.540  33.937  29.306  1.00  0.00    -0.374 OA
BRANCH  27  28
ATOM     28  C   UNL A   1      33.339  34.609  28.898  1.00  0.00     0.202 C 
BRANCH  28  29
ATOM     29  C   UNL A   1      32.928  35.733  29.857  1.00  0.00     0.261 C 
BRANCH  29  30
ATOM     30  O   UNL A   1      32.350  35.182  31.053  1.00  0.00    -0.460 OA
BRANCH  30  31
ATOM     31  C   UNL A   1      32.797  35.729  32.210  1.00  0.00     0.338 C 
ATOM     32  O   UNL A   1      32.250  36.579  32.886  1.00  0.00    -0.246 OA
BRANCH  31  33
ATOM     33  C   UNL A   1      33.999  34.991  32.656  1.00  0.00     0.060 A 
ATOM     34  C   UNL A   1      35.227  35.660  32.576  1.00  0.00     0.016 A 
ATOM     35  C   UNL A   1      33.937  33.686  33.157  1.00  0.00     0.016 A 
ATOM     36  C   UNL A   1      36.399  35.015  32.959  1.00  0.00     0.010 A 
ATOM     37  C   UNL A   1      35.115  33.038  33.542  1.00  0.00     0.010 A 
ATOM     38  C   UNL A   1      36.352  33.691  33.411  1.00  0.00    -0.014 A 
BRANCH  38  39
ATOM     39  C   UNL A   1      37.621  32.949  33.584  1.00  0.00     0.031 A 
ATOM     40  C   UNL A   1      38.422  33.179  34.835  1.00  0.00     0.074 A 
ATOM     41  C   UNL A   1      38.015  32.039  32.677  1.00  0.00     0.049 A 
ATOM     42  N   UNL A   1      39.521  32.594  35.235  1.00  0.00    -0.248 NA
ATOM     43  C   UNL A   1      37.913  34.206  35.761  1.00  0.00     0.031 C 
ATOM     44  C   UNL A   1      37.308  31.716  31.438  1.00  0.00     0.029 A 
ATOM     45  N   UNL A   1      39.110  31.213  32.667  1.00  0.00    -0.354 N 
ATOM     46  C   UNL A   1      39.825  33.169  36.462  1.00  0.00     0.074 A 
ATOM     47  C   UNL A   1      38.826  34.181  36.720  1.00  0.00     0.031 C 
ATOM     48  C   UNL A   1      37.989  30.756  30.786  1.00  0.00     0.029 A 
ATOM     49  C   UNL A   1      39.183  30.412  31.555  1.00  0.00     0.049 A 
ATOM     50  H   UNL A   1      39.779  31.196  33.389  1.00  0.00     0.167 HD
ATOM     51  C   UNL A   1      40.838  32.870  37.309  1.00  0.00     0.031 A 
ATOM     52  C   UNL A   1      40.113  29.506  31.198  1.00  0.00     0.031 A 
ATOM     53  C   UNL A   1      41.850  31.886  37.038  1.00  0.00     0.049 A 
ATOM     54  C   UNL A   1      41.265  29.234  32.130  1.00  0.00     0.074 A 
ATOM     55  C   UNL A   1      42.930  31.517  37.820  1.00  0.00     0.029 A 
ATOM     56  N   UNL A   1      41.907  31.117  35.885  1.00  0.00    -0.354 N 
ATOM     57  N   UNL A   1      41.524  29.763  33.302  1.00  0.00    -0.248 NA
ATOM     58  C   UNL A   1      42.242  28.225  31.696  1.00  0.00     0.031 C 
ATOM     59  C   UNL A   1      43.666  30.554  37.121  1.00  0.00     0.029 A 
ATOM     60  C   UNL A   1      43.013  30.286  35.928  1.00  0.00     0.049 A 
ATOM     61  H   UNL A   1      41.259  31.158  35.146  1.00  0.00     0.167 HD
ATOM     62  C   UNL A   1      42.679  29.137  33.754  1.00  0.00     0.074 A 
ATOM     63  C   UNL A   1      43.054  28.172  32.741  1.00  0.00     0.031 C 
ATOM     64  C   UNL A   1      43.370  29.340  34.903  1.00  0.00     0.031 A 
BRANCH  51  65
ATOM     65  C   UNL A   1      40.902  33.639  38.597  1.00  0.00    -0.014 A 
ATOM     66  C   UNL A   1      40.308  33.137  39.768  1.00  0.00     0.009 A 
ATOM     67  C   UNL A   1      41.570  34.870  38.648  1.00  0.00     0.009 A 
ATOM     68  C   UNL A   1      40.357  33.870  40.956  1.00  0.00     0.001 A 
ATOM     69  C   UNL A   1      41.638  35.590  39.843  1.00  0.00     0.001 A 
ATOM     70  C   UNL A   1      41.025  35.094  40.993  1.00  0.00     0.000 A 
ENDBRANCH  51  65
BRANCH  52  71
ATOM     71  C   UNL A   1      40.005  28.793  29.898  1.00  0.00    -0.014 A 
ATOM     72  C   UNL A   1      39.434  27.514  29.822  1.00  0.00     0.009 A 
ATOM     73  C   UNL A   1      40.498  29.386  28.725  1.00  0.00     0.009 A 
ATOM     74  C   UNL A   1      39.388  26.831  28.603  1.00  0.00     0.001 A 
ATOM     75  C   UNL A   1      40.424  28.713  27.504  1.00  0.00     0.001 A 
ATOM     76  C   UNL A   1      39.880  27.432  27.445  1.00  0.00     0.000 A 
ENDBRANCH  52  71
BRANCH  64  77
ATOM     77  C   UNL A   1      44.583  28.482  35.129  1.00  0.00    -0.014 A 
ATOM     78  C   UNL A   1      45.854  28.889  34.695  1.00  0.00     0.009 A 
ATOM     79  C   UNL A   1      44.453  27.261  35.809  1.00  0.00     0.009 A 
ATOM     80  C   UNL A   1      46.965  28.069  34.900  1.00  0.00     0.001 A 
ATOM     81  C   UNL A   1      45.570  26.458  36.039  1.00  0.00     0.001 A 
ATOM     82  C   UNL A   1      46.822  26.857  35.574  1.00  0.00     0.000 A 
ENDBRANCH  64  77
ENDBRANCH  38  39
ENDBRANCH  31  33
ENDBRANCH  30  31
ENDBRANCH  29  30
ENDBRANCH  28  29
ENDBRANCH  27  28
ENDBRANCH   1  27
TORSDOF 17
ENDMDL
MODEL 3
REMARK VINA RESULT:     -11.1      4.508     10.002
REMARK SMILES O=C(OCCOCCOC(=O)c1ccc(-c2c3nc(c(-c4ccccc4)c4ccc([nH]4)c(-c4ccccc4)c4nc(c(-c5ccccc5)c5ccc2[nH]5)C=C4)C=C3)cc1)c1ccc(NS(=O)(=O)C2=Cc3ccccc3CC2)cc1
REMARK SMILES IDX 5 1 4 2 3 3 2 4 1 5 60 6 61 7 79 8 62 9 78 10 63 11 64 12
REMARK SMILES IDX 65 14 66 15 67 16 68 17 69 18 77 19 70 20 76 21 71 22 75 23
REMARK SMILES IDX 72 24 74 25 73 26 6 27 7 28 8 29 9 30 10 31 11 32 12 33
REMARK SMILES IDX 13 34 59 35 14 36 58 37 15 38 16 39 17 40 52 41 18 42 57 43
REMARK SMILES IDX 51 44 53 45 19 46 56 47 50 48 49 49 20 51 42 52 27 53 41 54
REMARK SMILES IDX 28 55 31 56 40 57 54 58 29 59 30 60 39 62 55 63 32 64 21 65
REMARK SMILES IDX 22 66 26 67 23 68 25 69 24 70 43 71 44 72 48 73 45 74 47 75
REMARK SMILES IDX 46 76 33 77 34 78 38 79 35 80 37 81 36 82
REMARK H PARENT 64 13 53 50 31 61
REMARK Flexibility Score: inf
ROOT
ATOM      1  C   UNL A   1      41.594  21.518  26.578  1.00  0.00     0.202 C 
ENDROOT
BRANCH   1   2
ATOM      2  C   UNL A   1      40.256  20.813  26.380  1.00  0.00     0.261 C 
BRANCH   2   3
ATOM      3  O   UNL A   1      39.223  21.653  25.828  1.00  0.00    -0.460 OA
BRANCH   3   4
ATOM      4  C   UNL A   1      38.037  21.360  25.244  1.00  0.00     0.338 C 
ATOM      5  O   UNL A   1      37.790  20.179  25.002  1.00  0.00    -0.246 OA
BRANCH   4   6
ATOM      6  C   UNL A   1      37.047  22.377  24.772  1.00  0.00     0.060 A 
ATOM      7  C   UNL A   1      36.566  22.509  23.476  1.00  0.00     0.018 A 
ATOM      8  C   UNL A   1      36.565  23.289  25.731  1.00  0.00     0.018 A 
ATOM      9  C   UNL A   1      35.504  23.376  23.198  1.00  0.00     0.027 A 
ATOM     10  C   UNL A   1      35.488  24.142  25.450  1.00  0.00     0.027 A 
ATOM     11  C   UNL A   1      34.887  24.113  24.196  1.00  0.00     0.049 A 
BRANCH  11  12
ATOM     12  N   UNL A   1      33.588  24.681  24.074  1.00  0.00    -0.280 N 
ATOM     13  H   UNL A   1      33.526  25.597  23.715  1.00  0.00     0.180 HD
BRANCH  12  14
ATOM     14  S   UNL A   1      32.149  23.913  24.493  1.00  0.00     0.258 S 
ATOM     15  O   UNL A   1      31.279  24.213  23.371  1.00  0.00    -0.202 OA
ATOM     16  O   UNL A   1      32.495  22.534  24.774  1.00  0.00    -0.202 OA
BRANCH  14  17
ATOM     17  C   UNL A   1      31.515  24.697  25.979  1.00  0.00     0.066 C 
ATOM     18  C   UNL A   1      32.294  25.683  26.489  1.00  0.00     0.026 C 
ATOM     19  C   UNL A   1      30.050  25.104  25.941  1.00  0.00     0.055 C 
ATOM     20  C   UNL A   1      32.137  26.987  25.768  1.00  0.00    -0.021 A 
ATOM     21  C   UNL A   1      29.844  26.249  24.942  1.00  0.00     0.041 C 
ATOM     22  C   UNL A   1      33.128  27.963  25.873  1.00  0.00     0.008 A 
ATOM     23  C   UNL A   1      30.994  27.231  24.972  1.00  0.00    -0.040 A 
ATOM     24  C   UNL A   1      33.029  29.136  25.119  1.00  0.00     0.001 A 
ATOM     25  C   UNL A   1      30.932  28.384  24.183  1.00  0.00     0.004 A 
ATOM     26  C   UNL A   1      31.953  29.328  24.252  1.00  0.00     0.000 A 
ENDBRANCH  14  17
ENDBRANCH  12  14
ENDBRANCH  11  12
ENDBRANCH   4   6
ENDBRANCH   3   4
ENDBRANCH   2   3
ENDBRANCH   1   2
BRANCH   1  27
ATOM     27  O   UNL A   1      42.357  21.634  25.380  1.00  0.00    -0.374 OA
BRANCH  27  28
ATOM     28  C   UNL A   1      43.672  21.068  25.482  1.00  0.00     0.202 C 
BRANCH  28  29
ATOM     29  C   UNL A   1      44.769  22.008  24.968  1.00  0.00     0.261 C 
BRANCH  29  30
ATOM     30  O   UNL A   1      45.147  22.942  25.994  1.00  0.00    -0.460 OA
BRANCH  30  31
ATOM     31  C   UNL A   1      45.105  24.246  25.626  1.00  0.00     0.338 C 
ATOM     32  O   UNL A   1      45.555  24.743  24.612  1.00  0.00    -0.246 OA
BRANCH  31  33
ATOM     33  C   UNL A   1      44.239  24.984  26.573  1.00  0.00     0.060 A 
ATOM     34  C   UNL A   1      44.435  26.367  26.674  1.00  0.00     0.016 A 
ATOM     35  C   UNL A   1      43.249  24.353  27.334  1.00  0.00     0.016 A 
ATOM     36  C   UNL A   1      43.670  27.117  27.563  1.00  0.00     0.010 A 
ATOM     37  C   UNL A   1      42.481  25.106  28.227  1.00  0.00     0.010 A 
ATOM     38  C   UNL A   1      42.713  26.484  28.366  1.00  0.00    -0.014 A 
BRANCH  38  39
ATOM     39  C   UNL A   1      42.084  27.251  29.465  1.00  0.00     0.031 A 
ATOM     40  C   UNL A   1      42.747  27.247  30.814  1.00  0.00     0.074 A 
ATOM     41  C   UNL A   1      40.982  27.988  29.245  1.00  0.00     0.049 A 
ATOM     42  N   UNL A   1      42.420  27.899  31.900  1.00  0.00    -0.248 NA
ATOM     43  C   UNL A   1      43.942  26.397  30.956  1.00  0.00     0.031 C 
ATOM     44  C   UNL A   1      40.265  28.085  27.975  1.00  0.00     0.029 A 
ATOM     45  N   UNL A   1      40.278  28.804  30.094  1.00  0.00    -0.354 N 
ATOM     46  C   UNL A   1      43.375  27.550  32.846  1.00  0.00     0.074 A 
ATOM     47  C   UNL A   1      44.264  26.595  32.225  1.00  0.00     0.031 C 
ATOM     48  C   UNL A   1      39.220  28.918  28.126  1.00  0.00     0.029 A 
ATOM     49  C   UNL A   1      39.188  29.398  29.506  1.00  0.00     0.049 A 
ATOM     50  H   UNL A   1      40.530  28.951  31.034  1.00  0.00     0.167 HD
ATOM     51  C   UNL A   1      43.510  27.997  34.116  1.00  0.00     0.031 A 
ATOM     52  C   UNL A   1      38.268  30.231  30.028  1.00  0.00     0.031 A 
ATOM     53  C   UNL A   1      42.607  28.924  34.744  1.00  0.00     0.049 A 
ATOM     54  C   UNL A   1      38.406  30.668  31.462  1.00  0.00     0.074 A 
ATOM     55  C   UNL A   1      42.643  29.429  36.031  1.00  0.00     0.029 A 
ATOM     56  N   UNL A   1      41.497  29.478  34.125  1.00  0.00    -0.354 N 
ATOM     57  N   UNL A   1      39.331  30.354  32.338  1.00  0.00    -0.248 NA
ATOM     58  C   UNL A   1      37.381  31.588  31.974  1.00  0.00     0.031 C 
ATOM     59  C   UNL A   1      41.529  30.257  36.206  1.00  0.00     0.029 A 
ATOM     60  C   UNL A   1      40.831  30.309  35.009  1.00  0.00     0.049 A 
ATOM     61  H   UNL A   1      41.223  29.305  33.196  1.00  0.00     0.167 HD
ATOM     62  C   UNL A   1      39.013  31.056  33.495  1.00  0.00     0.074 A 
ATOM     63  C   UNL A   1      37.824  31.829  33.199  1.00  0.00     0.031 C 
ATOM     64  C   UNL A   1      39.645  31.061  34.694  1.00  0.00     0.031 A 
BRANCH  51  65
ATOM     65  C   UNL A   1      44.671  27.468  34.909  1.00  0.00    -0.014 A 
ATOM     66  C   UNL A   1      45.913  28.125  34.898  1.00  0.00     0.009 A 
ATOM     67  C   UNL A   1      44.523  26.308  35.682  1.00  0.00     0.009 A 
ATOM     68  C   UNL A   1      46.991  27.612  35.622  1.00  0.00     0.001 A 
ATOM     69  C   UNL A   1      45.596  25.811  36.425  1.00  0.00     0.001 A 
ATOM     70  C   UNL A   1      46.830  26.458  36.388  1.00  0.00     0.000 A 
ENDBRANCH  51  65
BRANCH  52  71
ATOM     71  C   UNL A   1      37.129  30.704  29.197  1.00  0.00    -0.014 A 
ATOM     72  C   UNL A   1      37.079  32.024  28.725  1.00  0.00     0.009 A 
ATOM     73  C   UNL A   1      36.069  29.834  28.893  1.00  0.00     0.009 A 
ATOM     74  C   UNL A   1      35.976  32.471  27.992  1.00  0.00     0.001 A 
ATOM     75  C   UNL A   1      34.983  30.277  28.135  1.00  0.00     0.001 A 
ATOM     76  C   UNL A   1      34.932  31.598  27.695  1.00  0.00     0.000 A 
ENDBRANCH  52  71
BRANCH  64  77
ATOM     77  C   UNL A   1      39.072  31.951  35.762  1.00  0.00    -0.014 A 
ATOM     78  C   UNL A   1      38.122  31.472  36.677  1.00  0.00     0.009 A 
ATOM     79  C   UNL A   1      39.510  33.279  35.867  1.00  0.00     0.009 A 
ATOM     80  C   UNL A   1      37.590  32.319  37.649  1.00  0.00     0.001 A 
ATOM     81  C   UNL A   1      38.999  34.116  36.859  1.00  0.00     0.001 A 
ATOM     82  C   UNL A   1      38.031  33.639  37.741  1.00  0.00     0.000 A 
ENDBRANCH  64  77
ENDBRANCH  38  39
ENDBRANCH  31  33
ENDBRANCH  30  31
ENDBRANCH  29  30
ENDBRANCH  28  29
ENDBRANCH  27  28
ENDBRANCH   1  27
TORSDOF 17
ENDMDL
