MODEL 1
REMARK VINA RESULT:     -10.1      0.000      0.000
REMARK SMILES Cc1cccc(Cl)c1Nc1ccccc1CC(=O)OCCOCCOC(=O)c1ccc(-c2c3nc(c(-c4ccccc4)c4ccc([nH]4)c(-c4ccccc4)c4nc(c(-c5ccccc5)c5ccc2[nH]5)C=C4)C=C3)cc1
REMARK SMILES IDX 21 1 20 2 19 3 17 4 18 5 16 6 15 7 10 8 11 9 12 10 14 11
REMARK SMILES IDX 13 12 9 13 8 15 1 16 2 17 3 18 4 19 6 20 5 21 7 22 22 23
REMARK SMILES IDX 23 24 24 25 25 26 26 27 27 28 28 29 29 30 75 31 30 32 74 33
REMARK SMILES IDX 31 34 32 35 33 36 68 37 34 38 73 39 67 40 69 41 35 42 72 43
REMARK SMILES IDX 66 44 65 45 36 47 58 48 43 49 57 50 44 51 47 52 56 53 70 54
REMARK SMILES IDX 45 55 46 56 55 58 71 59 48 60 37 61 38 62 42 63 39 64 41 65
REMARK SMILES IDX 40 66 59 67 60 68 64 69 61 70 63 71 62 72 49 73 50 74 54 75
REMARK SMILES IDX 51 76 53 77 52 78
REMARK H PARENT 9 14 69 46 47 57
REMARK Flexibility Score: inf
ROOT
ATOM      1  C   UNL A   1      32.619  22.595  27.119  1.00  0.00     0.202 C 
ENDROOT
BRANCH   1   2
ATOM      2  C   UNL A   1      31.403  23.389  26.629  1.00  0.00     0.261 C 
BRANCH   2   3
ATOM      3  O   UNL A   1      31.580  24.815  26.729  1.00  0.00    -0.463 OA
BRANCH   3   4
ATOM      4  C   UNL A   1      30.650  25.557  26.074  1.00  0.00     0.310 C 
ATOM      5  O   UNL A   1      29.481  25.676  26.440  1.00  0.00    -0.252 OA
BRANCH   4   6
ATOM      6  C   UNL A   1      31.129  26.235  24.815  1.00  0.00     0.160 C 
BRANCH   6   7
ATOM      7  C   UNL A   1      30.314  27.354  24.192  1.00  0.00    -0.013 A 
ATOM      8  C   UNL A   1      30.764  28.689  24.089  1.00  0.00     0.042 A 
ATOM      9  C   UNL A   1      29.898  29.659  23.541  1.00  0.00     0.026 A 
ATOM     10  C   UNL A   1      28.644  29.318  23.037  1.00  0.00     0.002 A 
ATOM     11  C   UNL A   1      29.064  27.025  23.629  1.00  0.00     0.006 A 
ATOM     12  C   UNL A   1      28.236  27.993  23.060  1.00  0.00     0.000 A 
BRANCH   8  13
ATOM     13  N   UNL A   1      32.086  29.105  24.350  1.00  0.00    -0.354 N 
ATOM     14  H   UNL A   1      32.648  29.209  23.547  1.00  0.00     0.167 HD
BRANCH  13  15
ATOM     15  C   UNL A   1      32.746  29.399  25.569  1.00  0.00     0.060 A 
ATOM     16  C   UNL A   1      34.080  27.244  25.268  1.00  0.00     0.046 C 
ATOM     17  C   UNL A   1      33.800  28.543  25.977  1.00  0.00    -0.026 A 
ATOM     18  C   UNL A   1      34.646  28.928  27.032  1.00  0.00     0.005 A 
ATOM     19  C   UNL A   1      34.448  30.128  27.708  1.00  0.00     0.002 A 
ATOM     20  C   UNL A   1      32.512  30.571  26.330  1.00  0.00     0.064 A 
ATOM     21  C   UNL A   1      33.370  30.937  27.372  1.00  0.00     0.023 A 
ATOM     22  Cl  UNL A   1      31.140  31.603  26.083  1.00  0.00    -0.082 Cl
ENDBRANCH  13  15
ENDBRANCH   8  13
ENDBRANCH   6   7
ENDBRANCH   4   6
ENDBRANCH   3   4
ENDBRANCH   2   3
ENDBRANCH   1   2
BRANCH   1  23
ATOM     23  O   UNL A   1      33.700  22.422  26.205  1.00  0.00    -0.374 OA
BRANCH  23  24
ATOM     24  C   UNL A   1      34.958  22.981  26.578  1.00  0.00     0.202 C 
BRANCH  24  25
ATOM     25  C   UNL A   1      36.151  22.665  25.668  1.00  0.00     0.261 C 
BRANCH  25  26
ATOM     26  O   UNL A   1      37.168  23.681  25.738  1.00  0.00    -0.460 OA
BRANCH  26  27
ATOM     27  C   UNL A   1      38.386  23.234  26.117  1.00  0.00     0.338 C 
ATOM     28  O   UNL A   1      38.892  22.149  25.856  1.00  0.00    -0.246 OA
BRANCH  27  29
ATOM     29  C   UNL A   1      39.156  24.311  26.764  1.00  0.00     0.060 A 
ATOM     30  C   UNL A   1      38.951  24.505  28.136  1.00  0.00     0.016 A 
ATOM     31  C   UNL A   1      39.983  25.173  26.041  1.00  0.00     0.016 A 
ATOM     32  C   UNL A   1      39.513  25.602  28.778  1.00  0.00     0.010 A 
ATOM     33  C   UNL A   1      40.541  26.284  26.687  1.00  0.00     0.010 A 
ATOM     34  C   UNL A   1      40.271  26.526  28.046  1.00  0.00    -0.014 A 
BRANCH  34  35
ATOM     35  C   UNL A   1      40.626  27.821  28.677  1.00  0.00     0.031 A 
ATOM     36  C   UNL A   1      42.052  28.056  29.100  1.00  0.00     0.074 A 
ATOM     37  C   UNL A   1      39.713  28.798  28.809  1.00  0.00     0.049 A 
ATOM     38  N   UNL A   1      42.592  29.121  29.636  1.00  0.00    -0.248 NA
ATOM     39  C   UNL A   1      42.993  26.945  28.886  1.00  0.00     0.031 C 
ATOM     40  C   UNL A   1      38.315  28.713  28.392  1.00  0.00     0.029 A 
ATOM     41  N   UNL A   1      39.834  30.063  29.328  1.00  0.00    -0.354 N 
ATOM     42  C   UNL A   1      43.933  28.808  29.823  1.00  0.00     0.074 A 
ATOM     43  C   UNL A   1      44.118  27.446  29.374  1.00  0.00     0.031 C 
ATOM     44  C   UNL A   1      37.706  29.878  28.671  1.00  0.00     0.029 A 
ATOM     45  C   UNL A   1      38.664  30.780  29.307  1.00  0.00     0.049 A 
ATOM     46  H   UNL A   1      40.681  30.422  29.681  1.00  0.00     0.167 HD
ATOM     47  C   UNL A   1      44.925  29.587  30.317  1.00  0.00     0.031 A 
ATOM     48  C   UNL A   1      38.394  32.018  29.762  1.00  0.00     0.031 A 
ATOM     49  C   UNL A   1      44.742  30.937  30.776  1.00  0.00     0.049 A 
ATOM     50  C   UNL A   1      39.497  32.837  30.378  1.00  0.00     0.074 A 
ATOM     51  C   UNL A   1      45.686  31.811  31.286  1.00  0.00     0.029 A 
ATOM     52  N   UNL A   1      43.529  31.607  30.787  1.00  0.00    -0.354 N 
ATOM     53  N   UNL A   1      40.764  32.537  30.529  1.00  0.00    -0.248 NA
ATOM     54  C   UNL A   1      39.130  34.169  30.881  1.00  0.00     0.031 C 
ATOM     55  C   UNL A   1      45.035  32.992  31.654  1.00  0.00     0.029 A 
ATOM     56  C   UNL A   1      43.695  32.874  31.321  1.00  0.00     0.049 A 
ATOM     57  H   UNL A   1      42.676  31.238  30.464  1.00  0.00     0.167 HD
ATOM     58  C   UNL A   1      41.351  33.651  31.117  1.00  0.00     0.074 A 
ATOM     59  C   UNL A   1      40.304  34.637  31.283  1.00  0.00     0.031 C 
ATOM     60  C   UNL A   1      42.642  33.842  31.482  1.00  0.00     0.031 A 
BRANCH  47  61
ATOM     61  C   UNL A   1      46.294  28.977  30.418  1.00  0.00    -0.014 A 
ATOM     62  C   UNL A   1      47.211  29.063  29.358  1.00  0.00     0.009 A 
ATOM     63  C   UNL A   1      46.683  28.332  31.602  1.00  0.00     0.009 A 
ATOM     64  C   UNL A   1      48.478  28.485  29.471  1.00  0.00     0.001 A 
ATOM     65  C   UNL A   1      47.959  27.777  31.722  1.00  0.00     0.001 A 
ATOM     66  C   UNL A   1      48.852  27.847  30.654  1.00  0.00     0.000 A 
ENDBRANCH  47  61
BRANCH  48  67
ATOM     67  C   UNL A   1      37.014  32.561  29.666  1.00  0.00    -0.014 A 
ATOM     68  C   UNL A   1      36.634  33.372  28.585  1.00  0.00     0.009 A 
ATOM     69  C   UNL A   1      36.072  32.280  30.668  1.00  0.00     0.009 A 
ATOM     70  C   UNL A   1      35.345  33.908  28.523  1.00  0.00     0.001 A 
ATOM     71  C   UNL A   1      34.777  32.796  30.589  1.00  0.00     0.001 A 
ATOM     72  C   UNL A   1      34.417  33.615  29.522  1.00  0.00     0.000 A 
ENDBRANCH  48  67
BRANCH  60  73
ATOM     73  C   UNL A   1      43.002  35.177  32.070  1.00  0.00    -0.014 A 
ATOM     74  C   UNL A   1      43.666  36.154  31.311  1.00  0.00     0.009 A 
ATOM     75  C   UNL A   1      42.633  35.476  33.391  1.00  0.00     0.009 A 
ATOM     76  C   UNL A   1      43.978  37.393  31.874  1.00  0.00     0.001 A 
ATOM     77  C   UNL A   1      42.922  36.725  33.941  1.00  0.00     0.001 A 
ATOM     78  C   UNL A   1      43.602  37.679  33.185  1.00  0.00     0.000 A 
ENDBRANCH  60  73
ENDBRANCH  34  35
ENDBRANCH  27  29
ENDBRANCH  26  27
ENDBRANCH  25  26
ENDBRANCH  24  25
ENDBRANCH  23  24
ENDBRANCH   1  23
TORSDOF 17
ENDMDL
MODEL 2
REMARK VINA RESULT:      -9.9      3.624      8.285
REMARK SMILES Cc1cccc(Cl)c1Nc1ccccc1CC(=O)OCCOCCOC(=O)c1ccc(-c2c3nc(c(-c4ccccc4)c4ccc([nH]4)c(-c4ccccc4)c4nc(c(-c5ccccc5)c5ccc2[nH]5)C=C4)C=C3)cc1
REMARK SMILES IDX 21 1 20 2 19 3 17 4 18 5 16 6 15 7 10 8 11 9 12 10 14 11
REMARK SMILES IDX 13 12 9 13 8 15 1 16 2 17 3 18 4 19 6 20 5 21 7 22 22 23
REMARK SMILES IDX 23 24 24 25 25 26 26 27 27 28 28 29 29 30 75 31 30 32 74 33
REMARK SMILES IDX 31 34 32 35 33 36 68 37 34 38 73 39 67 40 69 41 35 42 72 43
REMARK SMILES IDX 66 44 65 45 36 47 58 48 43 49 57 50 44 51 47 52 56 53 70 54
REMARK SMILES IDX 45 55 46 56 55 58 71 59 48 60 37 61 38 62 42 63 39 64 41 65
REMARK SMILES IDX 40 66 59 67 60 68 64 69 61 70 63 71 62 72 49 73 50 74 54 75
REMARK SMILES IDX 51 76 53 77 52 78
REMARK H PARENT 9 14 69 46 47 57
REMARK Flexibility Score: inf
ROOT
ATOM      1  C   UNL A   1      34.167  33.112  28.256  1.00  0.00     0.202 C 
ENDROOT
BRANCH   1   2
ATOM      2  C   UNL A   1      34.820  31.853  27.673  1.00  0.00     0.261 C 
BRANCH   2   3
ATOM      3  O   UNL A   1      33.939  30.713  27.660  1.00  0.00    -0.463 OA
BRANCH   3   4
ATOM      4  C   UNL A   1      34.542  29.525  27.393  1.00  0.00     0.310 C 
ATOM      5  O   UNL A   1      35.749  29.324  27.513  1.00  0.00    -0.252 OA
BRANCH   4   6
ATOM      6  C   UNL A   1      33.630  28.430  26.903  1.00  0.00     0.160 C 
BRANCH   6   7
ATOM      7  C   UNL A   1      33.592  28.069  25.429  1.00  0.00    -0.013 A 
ATOM      8  C   UNL A   1      33.641  26.745  24.943  1.00  0.00     0.042 A 
ATOM      9  C   UNL A   1      33.656  26.530  23.549  1.00  0.00     0.026 A 
ATOM     10  C   UNL A   1      33.552  27.587  22.645  1.00  0.00     0.002 A 
ATOM     11  C   UNL A   1      33.435  29.117  24.497  1.00  0.00     0.006 A 
ATOM     12  C   UNL A   1      33.418  28.881  23.122  1.00  0.00     0.000 A 
BRANCH   8  13
ATOM     13  N   UNL A   1      33.516  25.596  25.752  1.00  0.00    -0.354 N 
ATOM     14  H   UNL A   1      33.427  25.782  26.716  1.00  0.00     0.167 HD
BRANCH  13  15
ATOM     15  C   UNL A   1      33.496  24.219  25.417  1.00  0.00     0.060 A 
ATOM     16  C   UNL A   1      30.957  24.282  25.667  1.00  0.00     0.046 C 
ATOM     17  C   UNL A   1      32.235  23.588  25.273  1.00  0.00    -0.026 A 
ATOM     18  C   UNL A   1      32.154  22.308  24.698  1.00  0.00     0.005 A 
ATOM     19  C   UNL A   1      33.300  21.630  24.293  1.00  0.00     0.002 A 
ATOM     20  C   UNL A   1      34.653  23.473  25.079  1.00  0.00     0.064 A 
ATOM     21  C   UNL A   1      34.548  22.202  24.504  1.00  0.00     0.023 A 
ATOM     22  Cl  UNL A   1      36.265  24.028  25.396  1.00  0.00    -0.082 Cl
ENDBRANCH  13  15
ENDBRANCH   8  13
ENDBRANCH   6   7
ENDBRANCH   4   6
ENDBRANCH   3   4
ENDBRANCH   2   3
ENDBRANCH   1   2
BRANCH   1  23
ATOM     23  O   UNL A   1      33.896  33.121  29.656  1.00  0.00    -0.374 OA
BRANCH  23  24
ATOM     24  C   UNL A   1      34.407  34.220  30.408  1.00  0.00     0.202 C 
BRANCH  24  25
ATOM     25  C   UNL A   1      34.659  33.978  31.900  1.00  0.00     0.261 C 
BRANCH  25  26
ATOM     26  O   UNL A   1      36.060  33.823  32.193  1.00  0.00    -0.460 OA
BRANCH  26  27
ATOM     27  C   UNL A   1      36.372  32.697  32.872  1.00  0.00     0.338 C 
ATOM     28  O   UNL A   1      35.906  32.324  33.943  1.00  0.00    -0.246 OA
BRANCH  27  29
ATOM     29  C   UNL A   1      37.249  31.831  32.066  1.00  0.00     0.060 A 
ATOM     30  C   UNL A   1      38.305  31.196  32.733  1.00  0.00     0.016 A 
ATOM     31  C   UNL A   1      37.110  31.711  30.682  1.00  0.00     0.016 A 
ATOM     32  C   UNL A   1      39.269  30.499  32.012  1.00  0.00     0.010 A 
ATOM     33  C   UNL A   1      38.086  31.017  29.955  1.00  0.00     0.010 A 
ATOM     34  C   UNL A   1      39.191  30.448  30.613  1.00  0.00    -0.014 A 
BRANCH  34  35
ATOM     35  C   UNL A   1      40.360  29.946  29.851  1.00  0.00     0.031 A 
ATOM     36  C   UNL A   1      41.536  30.862  29.637  1.00  0.00     0.074 A 
ATOM     37  C   UNL A   1      40.408  28.676  29.415  1.00  0.00     0.049 A 
ATOM     38  N   UNL A   1      42.674  30.624  29.036  1.00  0.00    -0.248 NA
ATOM     39  C   UNL A   1      41.415  32.226  30.179  1.00  0.00     0.031 C 
ATOM     40  C   UNL A   1      39.357  27.677  29.603  1.00  0.00     0.029 A 
ATOM     41  N   UNL A   1      41.390  28.008  28.729  1.00  0.00    -0.354 N 
ATOM     42  C   UNL A   1      43.401  31.805  29.125  1.00  0.00     0.074 A 
ATOM     43  C   UNL A   1      42.567  32.767  29.810  1.00  0.00     0.031 C 
ATOM     44  C   UNL A   1      39.753  26.520  29.046  1.00  0.00     0.029 A 
ATOM     45  C   UNL A   1      41.070  26.705  28.440  1.00  0.00     0.049 A 
ATOM     46  H   UNL A   1      42.244  28.424  28.467  1.00  0.00     0.167 HD
ATOM     47  C   UNL A   1      44.655  32.064  28.683  1.00  0.00     0.031 A 
ATOM     48  C   UNL A   1      41.758  25.771  27.756  1.00  0.00     0.031 A 
ATOM     49  C   UNL A   1      45.483  31.115  27.991  1.00  0.00     0.049 A 
ATOM     50  C   UNL A   1      43.119  26.107  27.208  1.00  0.00     0.074 A 
ATOM     51  C   UNL A   1      46.771  31.280  27.512  1.00  0.00     0.029 A 
ATOM     52  N   UNL A   1      45.100  29.821  27.673  1.00  0.00    -0.354 N 
ATOM     53  N   UNL A   1      43.803  27.220  27.319  1.00  0.00    -0.248 NA
ATOM     54  C   UNL A   1      43.804  25.053  26.445  1.00  0.00     0.031 C 
ATOM     55  C   UNL A   1      47.148  30.103  26.857  1.00  0.00     0.029 A 
ATOM     56  C   UNL A   1      46.116  29.186  26.979  1.00  0.00     0.049 A 
ATOM     57  H   UNL A   1      44.234  29.415  27.906  1.00  0.00     0.167 HD
ATOM     58  C   UNL A   1      45.008  26.992  26.666  1.00  0.00     0.074 A 
ATOM     59  C   UNL A   1      44.966  25.631  26.173  1.00  0.00     0.031 C 
ATOM     60  C   UNL A   1      46.057  27.832  26.493  1.00  0.00     0.031 A 
BRANCH  47  61
ATOM     61  C   UNL A   1      45.192  33.450  28.910  1.00  0.00    -0.014 A 
ATOM     62  C   UNL A   1      45.892  33.779  30.081  1.00  0.00     0.009 A 
ATOM     63  C   UNL A   1      45.019  34.432  27.923  1.00  0.00     0.009 A 
ATOM     64  C   UNL A   1      46.380  35.074  30.273  1.00  0.00     0.001 A 
ATOM     65  C   UNL A   1      45.529  35.719  28.106  1.00  0.00     0.001 A 
ATOM     66  C   UNL A   1      46.201  36.041  29.284  1.00  0.00     0.000 A 
ENDBRANCH  47  61
BRANCH  48  67
ATOM     67  C   UNL A   1      41.166  24.426  27.535  1.00  0.00    -0.014 A 
ATOM     68  C   UNL A   1      40.071  24.254  26.673  1.00  0.00     0.009 A 
ATOM     69  C   UNL A   1      41.688  23.305  28.200  1.00  0.00     0.009 A 
ATOM     70  C   UNL A   1      39.498  22.992  26.501  1.00  0.00     0.001 A 
ATOM     71  C   UNL A   1      41.129  22.040  28.005  1.00  0.00     0.001 A 
ATOM     72  C   UNL A   1      40.031  21.886  27.162  1.00  0.00     0.000 A 
ENDBRANCH  48  67
BRANCH  60  73
ATOM     73  C   UNL A   1      47.259  27.296  25.768  1.00  0.00    -0.014 A 
ATOM     74  C   UNL A   1      47.405  27.454  24.381  1.00  0.00     0.009 A 
ATOM     75  C   UNL A   1      48.279  26.659  26.492  1.00  0.00     0.009 A 
ATOM     76  C   UNL A   1      48.536  26.959  23.730  1.00  0.00     0.001 A 
ATOM     77  C   UNL A   1      49.422  26.191  25.842  1.00  0.00     0.001 A 
ATOM     78  C   UNL A   1      49.545  26.333  24.461  1.00  0.00     0.000 A 
ENDBRANCH  60  73
ENDBRANCH  34  35
ENDBRANCH  27  29
ENDBRANCH  26  27
ENDBRANCH  25  26
ENDBRANCH  24  25
ENDBRANCH  23  24
ENDBRANCH   1  23
TORSDOF 17
ENDMDL
MODEL 3
REMARK VINA RESULT:      -9.9      4.344      8.740
REMARK SMILES Cc1cccc(Cl)c1Nc1ccccc1CC(=O)OCCOCCOC(=O)c1ccc(-c2c3nc(c(-c4ccccc4)c4ccc([nH]4)c(-c4ccccc4)c4nc(c(-c5ccccc5)c5ccc2[nH]5)C=C4)C=C3)cc1
REMARK SMILES IDX 21 1 20 2 19 3 17 4 18 5 16 6 15 7 10 8 11 9 12 10 14 11
REMARK SMILES IDX 13 12 9 13 8 15 1 16 2 17 3 18 4 19 6 20 5 21 7 22 22 23
REMARK SMILES IDX 23 24 24 25 25 26 26 27 27 28 28 29 29 30 75 31 30 32 74 33
REMARK SMILES IDX 31 34 32 35 33 36 68 37 34 38 73 39 67 40 69 41 35 42 72 43
REMARK SMILES IDX 66 44 65 45 36 47 58 48 43 49 57 50 44 51 47 52 56 53 70 54
REMARK SMILES IDX 45 55 46 56 55 58 71 59 48 60 37 61 38 62 42 63 39 64 41 65
REMARK SMILES IDX 40 66 59 67 60 68 64 69 61 70 63 71 62 72 49 73 50 74 54 75
REMARK SMILES IDX 51 76 53 77 52 78
REMARK H PARENT 9 14 69 46 47 57
REMARK Flexibility Score: inf
ROOT
ATOM      1  C   UNL A   1      35.128  33.092  28.410  1.00  0.00     0.202 C 
ENDROOT
BRANCH   1   2
ATOM      2  C   UNL A   1      34.695  31.627  28.537  1.00  0.00     0.261 C 
BRANCH   2   3
ATOM      3  O   UNL A   1      34.498  30.982  27.264  1.00  0.00    -0.463 OA
BRANCH   3   4
ATOM      4  C   UNL A   1      33.262  30.449  27.077  1.00  0.00     0.310 C 
ATOM      5  O   UNL A   1      32.220  31.101  27.111  1.00  0.00    -0.252 OA
BRANCH   4   6
ATOM      6  C   UNL A   1      33.226  28.961  26.837  1.00  0.00     0.160 C 
BRANCH   6   7
ATOM      7  C   UNL A   1      33.359  28.410  25.429  1.00  0.00    -0.013 A 
ATOM      8  C   UNL A   1      33.491  27.036  25.133  1.00  0.00     0.042 A 
ATOM      9  C   UNL A   1      33.664  26.642  23.789  1.00  0.00     0.026 A 
ATOM     10  C   UNL A   1      33.637  27.568  22.747  1.00  0.00     0.002 A 
ATOM     11  C   UNL A   1      33.283  29.321  24.355  1.00  0.00     0.006 A 
ATOM     12  C   UNL A   1      33.422  28.907  23.030  1.00  0.00     0.000 A 
BRANCH   8  13
ATOM     13  N   UNL A   1      33.303  25.999  26.071  1.00  0.00    -0.354 N 
ATOM     14  H   UNL A   1      33.695  26.174  26.958  1.00  0.00     0.167 HD
BRANCH  13  15
ATOM     15  C   UNL A   1      32.647  24.748  25.955  1.00  0.00     0.060 A 
ATOM     16  C   UNL A   1      34.942  23.634  26.025  1.00  0.00     0.046 C 
ATOM     17  C   UNL A   1      33.437  23.574  26.035  1.00  0.00    -0.026 A 
ATOM     18  C   UNL A   1      32.816  22.321  26.182  1.00  0.00     0.005 A 
ATOM     19  C   UNL A   1      31.429  22.208  26.220  1.00  0.00     0.002 A 
ATOM     20  C   UNL A   1      31.239  24.598  25.908  1.00  0.00     0.064 A 
ATOM     21  C   UNL A   1      30.642  23.342  26.060  1.00  0.00     0.023 A 
ATOM     22  Cl  UNL A   1      30.154  25.917  25.602  1.00  0.00    -0.082 Cl
ENDBRANCH  13  15
ENDBRANCH   8  13
ENDBRANCH   6   7
ENDBRANCH   4   6
ENDBRANCH   3   4
ENDBRANCH   2   3
ENDBRANCH   1   2
BRANCH   1  23
ATOM     23  O   UNL A   1      34.134  34.036  28.013  1.00  0.00    -0.374 OA
BRANCH  23  24
ATOM     24  C   UNL A   1      34.190  35.327  28.616  1.00  0.00     0.202 C 
BRANCH  24  25
ATOM     25  C   UNL A   1      32.902  35.840  29.270  1.00  0.00     0.261 C 
BRANCH  25  26
ATOM     26  O   UNL A   1      32.515  35.041  30.403  1.00  0.00    -0.460 OA
BRANCH  26  27
ATOM     27  C   UNL A   1      32.747  35.616  31.603  1.00  0.00     0.338 C 
ATOM     28  O   UNL A   1      32.059  36.458  32.168  1.00  0.00    -0.246 OA
BRANCH  27  29
ATOM     29  C   UNL A   1      33.882  34.964  32.280  1.00  0.00     0.060 A 
ATOM     30  C   UNL A   1      35.125  35.605  32.202  1.00  0.00     0.016 A 
ATOM     31  C   UNL A   1      33.766  33.714  32.893  1.00  0.00     0.016 A 
ATOM     32  C   UNL A   1      36.269  34.971  32.671  1.00  0.00     0.010 A 
ATOM     33  C   UNL A   1      34.921  33.072  33.356  1.00  0.00     0.010 A 
ATOM     34  C   UNL A   1      36.181  33.678  33.206  1.00  0.00    -0.014 A 
BRANCH  34  35
ATOM     35  C   UNL A   1      37.431  32.915  33.441  1.00  0.00     0.031 A 
ATOM     36  C   UNL A   1      38.198  33.153  34.715  1.00  0.00     0.074 A 
ATOM     37  C   UNL A   1      37.841  31.976  32.573  1.00  0.00     0.049 A 
ATOM     38  N   UNL A   1      39.291  32.574  35.145  1.00  0.00    -0.248 NA
ATOM     39  C   UNL A   1      37.657  34.174  35.628  1.00  0.00     0.031 C 
ATOM     40  C   UNL A   1      37.159  31.616  31.330  1.00  0.00     0.029 A 
ATOM     41  N   UNL A   1      38.933  31.145  32.611  1.00  0.00    -0.354 N 
ATOM     42  C   UNL A   1      39.569  33.162  36.373  1.00  0.00     0.074 A 
ATOM     43  C   UNL A   1      38.550  34.161  36.607  1.00  0.00     0.031 C 
ATOM     44  C   UNL A   1      37.850  30.634  30.725  1.00  0.00     0.029 A 
ATOM     45  C   UNL A   1      39.032  30.316  31.522  1.00  0.00     0.049 A 
ATOM     46  H   UNL A   1      39.584  31.145  33.351  1.00  0.00     0.167 HD
ATOM     47  C   UNL A   1      40.577  32.888  37.235  1.00  0.00     0.031 A 
ATOM     48  C   UNL A   1      39.977  29.412  31.200  1.00  0.00     0.031 A 
ATOM     49  C   UNL A   1      41.599  31.904  37.001  1.00  0.00     0.049 A 
ATOM     50  C   UNL A   1      41.131  29.181  32.138  1.00  0.00     0.074 A 
ATOM     51  C   UNL A   1      42.658  31.548  37.817  1.00  0.00     0.029 A 
ATOM     52  N   UNL A   1      41.692  31.123  35.860  1.00  0.00    -0.354 N 
ATOM     53  N   UNL A   1      41.369  29.726  33.307  1.00  0.00    -0.248 NA
ATOM     54  C   UNL A   1      42.142  28.201  31.715  1.00  0.00     0.031 C 
ATOM     55  C   UNL A   1      43.422  30.588  37.148  1.00  0.00     0.029 A 
ATOM     56  C   UNL A   1      42.807  30.306  35.939  1.00  0.00     0.049 A 
ATOM     57  H   UNL A   1      41.060  31.146  35.106  1.00  0.00     0.167 HD
ATOM     58  C   UNL A   1      42.540  29.139  33.769  1.00  0.00     0.074 A 
ATOM     59  C   UNL A   1      42.956  28.185  32.762  1.00  0.00     0.031 C 
ATOM     60  C   UNL A   1      43.209  29.364  34.926  1.00  0.00     0.031 A 
BRANCH  47  61
ATOM     61  C   UNL A   1      40.640  33.697  38.500  1.00  0.00    -0.014 A 
ATOM     62  C   UNL A   1      39.997  33.268  39.672  1.00  0.00     0.009 A 
ATOM     63  C   UNL A   1      41.377  34.890  38.527  1.00  0.00     0.009 A 
ATOM     64  C   UNL A   1      40.064  34.037  40.837  1.00  0.00     0.001 A 
ATOM     65  C   UNL A   1      41.464  35.644  39.699  1.00  0.00     0.001 A 
ATOM     66  C   UNL A   1      40.801  35.221  40.851  1.00  0.00     0.000 A 
ENDBRANCH  47  61
BRANCH  48  67
ATOM     67  C   UNL A   1      39.882  28.662  29.920  1.00  0.00    -0.014 A 
ATOM     68  C   UNL A   1      39.311  27.381  29.878  1.00  0.00     0.009 A 
ATOM     69  C   UNL A   1      40.379  29.224  28.733  1.00  0.00     0.009 A 
ATOM     70  C   UNL A   1      39.261  26.669  28.677  1.00  0.00     0.001 A 
ATOM     71  C   UNL A   1      40.303  28.520  27.530  1.00  0.00     0.001 A 
ATOM     72  C   UNL A   1      39.752  27.241  27.504  1.00  0.00     0.000 A 
ENDBRANCH  48  67
BRANCH  60  73
ATOM     73  C   UNL A   1      44.443  28.546  35.180  1.00  0.00    -0.014 A 
ATOM     74  C   UNL A   1      45.713  29.003  34.795  1.00  0.00     0.009 A 
ATOM     75  C   UNL A   1      44.335  27.319  35.854  1.00  0.00     0.009 A 
ATOM     76  C   UNL A   1      46.848  28.231  35.054  1.00  0.00     0.001 A 
ATOM     77  C   UNL A   1      45.474  26.564  36.136  1.00  0.00     0.001 A 
ATOM     78  C   UNL A   1      46.728  27.016  35.728  1.00  0.00     0.000 A 
ENDBRANCH  60  73
ENDBRANCH  34  35
ENDBRANCH  27  29
ENDBRANCH  26  27
ENDBRANCH  25  26
ENDBRANCH  24  25
ENDBRANCH  23  24
ENDBRANCH   1  23
TORSDOF 17
ENDMDL
