MODEL 1
REMARK VINA RESULT:     -12.3      0.000      0.000
REMARK SMILES CC1(C)[C@H](O)CC[C@@]2(C)[C@@H]1CC[C@]1(C)Oc3oc(C(=O)OCCOCCOC(=O)c4ccc(-c5c6nc(c(-c7ccccc7)c7ccc([nH]7)c(-c7ccccc7)c7nc(c(-c8ccccc8)c8ccc5[nH]8)C=C7)C=C6)cc4)cc(=O)c3C[C@@H]21
REMARK SMILES IDX 25 1 24 2 23 3 22 4 21 5 19 6 20 7 18 8 1 9 2 10 4 11 10 12
REMARK SMILES IDX 3 13 6 14 8 15 11 16 7 17 83 18 9 19 12 20 13 21 82 22 15 23
REMARK SMILES IDX 14 24 81 25 16 26 79 27 17 28 78 29 80 30 5 31 26 33 27 34
REMARK SMILES IDX 28 35 29 36 30 37 31 38 77 39 32 40 76 41 33 42 34 43 35 44
REMARK SMILES IDX 70 45 36 46 75 47 69 48 71 49 37 50 74 51 68 52 67 53 38 55
REMARK SMILES IDX 60 56 45 57 59 58 46 59 49 60 58 61 72 62 47 63 48 64 57 66
REMARK SMILES IDX 73 67 50 68 39 69 40 70 44 71 41 72 43 73 42 74 61 75 62 76
REMARK SMILES IDX 66 77 63 78 65 79 64 80 51 81 52 82 56 83 53 84 55 85 54 86
REMARK H PARENT 5 32 71 54 49 65
REMARK Flexibility Score: inf
ROOT
ATOM      1  C   UNL A   1      37.503  19.786  24.964  1.00  0.00     0.202 C 
ENDROOT
BRANCH   1   2
ATOM      2  O   UNL A   1      37.397  21.085  24.393  1.00  0.00    -0.374 OA
BRANCH   2   3
ATOM      3  C   UNL A   1      36.305  21.924  24.757  1.00  0.00     0.202 C 
BRANCH   3   4
ATOM      4  C   UNL A   1      35.528  21.594  26.035  1.00  0.00     0.261 C 
BRANCH   4   5
ATOM      5  O   UNL A   1      34.117  21.531  25.775  1.00  0.00    -0.457 OA
BRANCH   5   6
ATOM      6  C   UNL A   1      33.312  22.058  26.730  1.00  0.00     0.374 C 
ATOM      7  O   UNL A   1      33.421  21.943  27.936  1.00  0.00    -0.242 OA
BRANCH   6   8
ATOM      8  C   UNL A   1      32.305  22.915  26.067  1.00  0.00     0.219 A 
ATOM      9  C   UNL A   1      34.247  27.771  26.454  1.00  0.00     0.014 C 
ATOM     10  C   UNL A   1      33.081  28.599  25.908  1.00  0.00    -0.006 C 
ATOM     11  C   UNL A   1      33.085  30.088  26.293  1.00  0.00     0.120 C 
ATOM     12  C   UNL A   1      32.925  28.826  24.223  1.00  0.00     0.004 C 
ATOM     13  C   UNL A   1      31.913  28.045  26.859  1.00  0.00     0.014 C 
ATOM     14  C   UNL A   1      31.725  30.679  25.752  1.00  0.00     0.033 C 
ATOM     15  C   UNL A   1      31.453  28.679  23.894  1.00  0.00    -0.022 C 
ATOM     16  C   UNL A   1      33.818  28.342  23.028  1.00  0.00     0.009 C 
ATOM     17  C   UNL A   1      30.744  29.667  24.928  1.00  0.00     0.010 C 
ATOM     18  C   UNL A   1      31.317  27.062  23.752  1.00  0.00     0.044 C 
ATOM     19  C   UNL A   1      30.992  29.282  22.524  1.00  0.00     0.012 C 
ATOM     20  C   UNL A   1      33.352  27.044  22.314  1.00  0.00     0.049 C 
ATOM     21  C   UNL A   1      32.683  26.194  23.395  1.00  0.00     0.113 C 
ATOM     22  C   UNL A   1      30.255  26.269  24.537  1.00  0.00     0.055 C 
ATOM     23  O   UNL A   1      32.199  24.883  23.006  1.00  0.00    -0.458 OA
ATOM     24  C   UNL A   1      33.958  25.814  24.215  1.00  0.00     0.057 C 
ATOM     25  C   UNL A   1      30.792  24.927  24.930  1.00  0.00     0.081 A 
ATOM     26  C   UNL A   1      31.723  24.287  24.201  1.00  0.00     0.292 A 
ATOM     27  C   UNL A   1      30.425  24.384  26.253  1.00  0.00     0.192 A 
ATOM     28  O   UNL A   1      32.433  23.197  24.711  1.00  0.00    -0.418 OA
ATOM     29  C   UNL A   1      31.348  23.415  26.850  1.00  0.00     0.107 A 
ATOM     30  O   UNL A   1      29.446  24.772  26.875  1.00  0.00    -0.289 OA
BRANCH  11  31
ATOM     31  O   UNL A   1      33.236  30.313  27.687  1.00  0.00    -0.393 OA
ATOM     32  H   UNL A   1      33.971  30.928  27.838  1.00  0.00     0.210 HD
ENDBRANCH  11  31
ENDBRANCH   6   8
ENDBRANCH   5   6
ENDBRANCH   4   5
ENDBRANCH   3   4
ENDBRANCH   2   3
ENDBRANCH   1   2
BRANCH   1  33
ATOM     33  C   UNL A   1      38.878  19.275  25.416  1.00  0.00     0.261 C 
BRANCH  33  34
ATOM     34  O   UNL A   1      39.672  20.234  26.130  1.00  0.00    -0.460 OA
BRANCH  34  35
ATOM     35  C   UNL A   1      41.000  19.952  26.140  1.00  0.00     0.338 C 
ATOM     36  O   UNL A   1      41.552  18.945  25.746  1.00  0.00    -0.246 OA
BRANCH  35  37
ATOM     37  C   UNL A   1      41.755  21.122  26.614  1.00  0.00     0.060 A 
ATOM     38  C   UNL A   1      41.894  21.315  27.994  1.00  0.00     0.016 A 
ATOM     39  C   UNL A   1      42.184  22.090  25.706  1.00  0.00     0.016 A 
ATOM     40  C   UNL A   1      42.442  22.500  28.477  1.00  0.00     0.010 A 
ATOM     41  C   UNL A   1      42.714  23.284  26.191  1.00  0.00     0.010 A 
ATOM     42  C   UNL A   1      42.815  23.505  27.576  1.00  0.00    -0.014 A 
BRANCH  42  43
ATOM     43  C   UNL A   1      43.183  24.848  28.070  1.00  0.00     0.031 A 
ATOM     44  C   UNL A   1      42.096  25.846  28.344  1.00  0.00     0.074 A 
ATOM     45  C   UNL A   1      44.472  25.176  28.250  1.00  0.00     0.049 A 
ATOM     46  N   UNL A   1      42.201  27.110  28.663  1.00  0.00    -0.248 NA
ATOM     47  C   UNL A   1      40.710  25.358  28.250  1.00  0.00     0.031 C 
ATOM     48  C   UNL A   1      45.605  24.269  28.080  1.00  0.00     0.029 A 
ATOM     49  N   UNL A   1      45.041  26.372  28.605  1.00  0.00    -0.354 N 
ATOM     50  C   UNL A   1      40.899  27.570  28.800  1.00  0.00     0.074 A 
ATOM     51  C   UNL A   1      40.018  26.459  28.512  1.00  0.00     0.031 C 
ATOM     52  C   UNL A   1      46.740  24.947  28.319  1.00  0.00     0.029 A 
ATOM     53  C   UNL A   1      46.412  26.340  28.617  1.00  0.00     0.049 A 
ATOM     54  H   UNL A   1      44.517  27.175  28.831  1.00  0.00     0.167 HD
ATOM     55  C   UNL A   1      40.478  28.810  29.140  1.00  0.00     0.031 A 
ATOM     56  C   UNL A   1      47.304  27.327  28.819  1.00  0.00     0.031 A 
ATOM     57  C   UNL A   1      41.357  29.914  29.409  1.00  0.00     0.049 A 
ATOM     58  C   UNL A   1      46.816  28.721  29.097  1.00  0.00     0.074 A 
ATOM     59  C   UNL A   1      41.022  31.212  29.755  1.00  0.00     0.029 A 
ATOM     60  N   UNL A   1      42.741  29.853  29.361  1.00  0.00    -0.354 N 
ATOM     61  N   UNL A   1      45.583  29.155  29.199  1.00  0.00    -0.248 NA
ATOM     62  C   UNL A   1      47.838  29.761  29.288  1.00  0.00     0.031 C 
ATOM     63  C   UNL A   1      42.203  31.949  29.866  1.00  0.00     0.029 A 
ATOM     64  C   UNL A   1      43.274  31.094  29.654  1.00  0.00     0.049 A 
ATOM     65  H   UNL A   1      43.264  29.046  29.150  1.00  0.00     0.167 HD
ATOM     66  C   UNL A   1      45.678  30.507  29.496  1.00  0.00     0.074 A 
ATOM     67  C   UNL A   1      47.090  30.826  29.554  1.00  0.00     0.031 C 
ATOM     68  C   UNL A   1      44.681  31.399  29.711  1.00  0.00     0.031 A 
BRANCH  55  69
ATOM     69  C   UNL A   1      39.000  29.051  29.229  1.00  0.00    -0.014 A 
ATOM     70  C   UNL A   1      38.335  29.012  30.464  1.00  0.00     0.009 A 
ATOM     71  C   UNL A   1      38.282  29.414  28.079  1.00  0.00     0.009 A 
ATOM     72  C   UNL A   1      36.977  29.327  30.544  1.00  0.00     0.001 A 
ATOM     73  C   UNL A   1      36.929  29.751  28.166  1.00  0.00     0.001 A 
ATOM     74  C   UNL A   1      36.279  29.704  29.398  1.00  0.00     0.000 A 
ENDBRANCH  55  69
BRANCH  56  75
ATOM     75  C   UNL A   1      48.751  27.006  28.775  1.00  0.00    -0.014 A 
ATOM     76  C   UNL A   1      49.406  26.552  29.929  1.00  0.00     0.009 A 
ATOM     77  C   UNL A   1      49.461  27.065  27.566  1.00  0.00     0.009 A 
ATOM     78  C   UNL A   1      50.742  26.152  29.870  1.00  0.00     0.001 A 
ATOM     79  C   UNL A   1      50.792  26.646  27.506  1.00  0.00     0.001 A 
ATOM     80  C   UNL A   1      51.431  26.189  28.658  1.00  0.00     0.000 A 
ENDBRANCH  56  75
BRANCH  68  81
ATOM     81  C   UNL A   1      45.055  32.809  30.067  1.00  0.00    -0.014 A 
ATOM     82  C   UNL A   1      45.157  33.803  29.084  1.00  0.00     0.009 A 
ATOM     83  C   UNL A   1      45.177  33.169  31.419  1.00  0.00     0.009 A 
ATOM     84  C   UNL A   1      45.377  35.134  29.451  1.00  0.00     0.001 A 
ATOM     85  C   UNL A   1      45.373  34.502  31.783  1.00  0.00     0.001 A 
ATOM     86  C   UNL A   1      45.475  35.483  30.798  1.00  0.00     0.000 A 
ENDBRANCH  68  81
ENDBRANCH  42  43
ENDBRANCH  35  37
ENDBRANCH  34  35
ENDBRANCH  33  34
ENDBRANCH   1  33
TORSDOF 15
ENDMDL
MODEL 2
REMARK VINA RESULT:     -12.3      0.745      5.651
REMARK SMILES CC1(C)[C@H](O)CC[C@@]2(C)[C@@H]1CC[C@]1(C)Oc3oc(C(=O)OCCOCCOC(=O)c4ccc(-c5c6nc(c(-c7ccccc7)c7ccc([nH]7)c(-c7ccccc7)c7nc(c(-c8ccccc8)c8ccc5[nH]8)C=C7)C=C6)cc4)cc(=O)c3C[C@@H]21
REMARK SMILES IDX 25 1 24 2 23 3 22 4 21 5 19 6 20 7 18 8 1 9 2 10 4 11 10 12
REMARK SMILES IDX 3 13 6 14 8 15 11 16 7 17 83 18 9 19 12 20 13 21 82 22 15 23
REMARK SMILES IDX 14 24 81 25 16 26 79 27 17 28 78 29 80 30 5 31 26 33 27 34
REMARK SMILES IDX 28 35 29 36 30 37 31 38 77 39 32 40 76 41 33 42 34 43 35 44
REMARK SMILES IDX 70 45 36 46 75 47 69 48 71 49 37 50 74 51 68 52 67 53 38 55
REMARK SMILES IDX 60 56 45 57 59 58 46 59 49 60 58 61 72 62 47 63 48 64 57 66
REMARK SMILES IDX 73 67 50 68 39 69 40 70 44 71 41 72 43 73 42 74 61 75 62 76
REMARK SMILES IDX 66 77 63 78 65 79 64 80 51 81 52 82 56 83 53 84 55 85 54 86
REMARK H PARENT 5 32 71 54 49 65
REMARK Flexibility Score: inf
ROOT
ATOM      1  C   UNL A   1      38.928  21.822  26.070  1.00  0.00     0.202 C 
ENDROOT
BRANCH   1   2
ATOM      2  O   UNL A   1      37.821  22.378  25.371  1.00  0.00    -0.374 OA
BRANCH   2   3
ATOM      3  C   UNL A   1      36.910  21.513  24.699  1.00  0.00     0.202 C 
BRANCH   3   4
ATOM      4  C   UNL A   1      35.600  21.146  25.403  1.00  0.00     0.261 C 
BRANCH   4   5
ATOM      5  O   UNL A   1      34.998  22.304  26.001  1.00  0.00    -0.457 OA
BRANCH   5   6
ATOM      6  C   UNL A   1      33.839  22.094  26.672  1.00  0.00     0.374 C 
ATOM      7  O   UNL A   1      33.683  21.467  27.703  1.00  0.00    -0.242 OA
BRANCH   6   8
ATOM      8  C   UNL A   1      32.768  22.862  25.999  1.00  0.00     0.219 A 
ATOM      9  C   UNL A   1      34.285  27.866  26.391  1.00  0.00     0.014 C 
ATOM     10  C   UNL A   1      33.057  28.591  25.834  1.00  0.00    -0.006 C 
ATOM     11  C   UNL A   1      32.932  30.075  26.217  1.00  0.00     0.120 C 
ATOM     12  C   UNL A   1      32.894  28.801  24.148  1.00  0.00     0.004 C 
ATOM     13  C   UNL A   1      31.934  27.941  26.779  1.00  0.00     0.014 C 
ATOM     14  C   UNL A   1      31.530  30.547  25.665  1.00  0.00     0.033 C 
ATOM     15  C   UNL A   1      31.443  28.528  23.809  1.00  0.00    -0.022 C 
ATOM     16  C   UNL A   1      33.834  28.393  22.960  1.00  0.00     0.009 C 
ATOM     17  C   UNL A   1      30.645  29.455  24.835  1.00  0.00     0.010 C 
ATOM     18  C   UNL A   1      31.446  26.906  23.669  1.00  0.00     0.044 C 
ATOM     19  C   UNL A   1      30.942  29.089  22.434  1.00  0.00     0.012 C 
ATOM     20  C   UNL A   1      33.485  27.059  22.246  1.00  0.00     0.049 C 
ATOM     21  C   UNL A   1      32.884  26.157  23.324  1.00  0.00     0.113 C 
ATOM     22  C   UNL A   1      30.450  26.026  24.448  1.00  0.00     0.055 C 
ATOM     23  O   UNL A   1      32.516  24.809  22.934  1.00  0.00    -0.458 OA
ATOM     24  C   UNL A   1      34.180  25.888  24.153  1.00  0.00     0.057 C 
ATOM     25  C   UNL A   1      31.096  24.736  24.847  1.00  0.00     0.081 A 
ATOM     26  C   UNL A   1      32.084  24.176  24.126  1.00  0.00     0.292 A 
ATOM     27  C   UNL A   1      30.768  24.165  26.170  1.00  0.00     0.192 A 
ATOM     28  O   UNL A   1      32.880  23.152  24.644  1.00  0.00    -0.418 OA
ATOM     29  C   UNL A   1      31.766  23.279  26.775  1.00  0.00     0.107 A 
ATOM     30  O   UNL A   1      29.754  24.469  26.783  1.00  0.00    -0.289 OA
BRANCH  11  31
ATOM     31  O   UNL A   1      33.052  30.315  27.611  1.00  0.00    -0.393 OA
ATOM     32  H   UNL A   1      33.943  30.069  27.906  1.00  0.00     0.210 HD
ENDBRANCH  11  31
ENDBRANCH   6   8
ENDBRANCH   5   6
ENDBRANCH   4   5
ENDBRANCH   3   4
ENDBRANCH   2   3
ENDBRANCH   1   2
BRANCH   1  33
ATOM     33  C   UNL A   1      39.423  20.418  25.697  1.00  0.00     0.261 C 
BRANCH  33  34
ATOM     34  O   UNL A   1      40.454  19.897  26.549  1.00  0.00    -0.460 OA
BRANCH  34  35
ATOM     35  C   UNL A   1      41.708  20.036  26.046  1.00  0.00     0.338 C 
ATOM     36  O   UNL A   1      42.282  19.309  25.262  1.00  0.00    -0.246 OA
BRANCH  35  37
ATOM     37  C   UNL A   1      42.290  21.308  26.504  1.00  0.00     0.060 A 
ATOM     38  C   UNL A   1      42.286  21.590  27.875  1.00  0.00     0.016 A 
ATOM     39  C   UNL A   1      42.691  22.266  25.573  1.00  0.00     0.016 A 
ATOM     40  C   UNL A   1      42.661  22.853  28.324  1.00  0.00     0.010 A 
ATOM     41  C   UNL A   1      43.047  23.536  26.023  1.00  0.00     0.010 A 
ATOM     42  C   UNL A   1      43.002  23.843  27.395  1.00  0.00    -0.014 A 
BRANCH  42  43
ATOM     43  C   UNL A   1      43.181  25.243  27.830  1.00  0.00     0.031 A 
ATOM     44  C   UNL A   1      44.565  25.743  28.123  1.00  0.00     0.074 A 
ATOM     45  C   UNL A   1      42.118  26.048  27.980  1.00  0.00     0.049 A 
ATOM     46  N   UNL A   1      44.936  26.890  28.631  1.00  0.00    -0.248 NA
ATOM     47  C   UNL A   1      45.679  24.835  27.801  1.00  0.00     0.031 C 
ATOM     48  C   UNL A   1      40.737  25.693  27.662  1.00  0.00     0.029 A 
ATOM     49  N   UNL A   1      42.040  27.333  28.454  1.00  0.00    -0.354 N 
ATOM     50  C   UNL A   1      46.321  26.839  28.695  1.00  0.00     0.074 A 
ATOM     51  C   UNL A   1      46.728  25.544  28.195  1.00  0.00     0.031 C 
ATOM     52  C   UNL A   1      39.943  26.733  27.963  1.00  0.00     0.029 A 
ATOM     53  C   UNL A   1      40.756  27.808  28.531  1.00  0.00     0.049 A 
ATOM     54  H   UNL A   1      42.829  27.863  28.713  1.00  0.00     0.167 HD
ATOM     55  C   UNL A   1      47.176  27.792  29.132  1.00  0.00     0.031 A 
ATOM     56  C   UNL A   1      40.284  28.967  29.027  1.00  0.00     0.031 A 
ATOM     57  C   UNL A   1      46.766  29.071  29.644  1.00  0.00     0.049 A 
ATOM     58  C   UNL A   1      41.242  29.972  29.599  1.00  0.00     0.074 A 
ATOM     59  C   UNL A   1      47.561  30.100  30.116  1.00  0.00     0.029 A 
ATOM     60  N   UNL A   1      45.451  29.493  29.751  1.00  0.00    -0.354 N 
ATOM     61  N   UNL A   1      42.549  29.907  29.682  1.00  0.00    -0.248 NA
ATOM     62  C   UNL A   1      40.666  31.210  30.145  1.00  0.00     0.031 C 
ATOM     63  C   UNL A   1      46.723  31.126  30.557  1.00  0.00     0.029 A 
ATOM     64  C   UNL A   1      45.410  30.762  30.299  1.00  0.00     0.049 A 
ATOM     65  H   UNL A   1      44.663  28.969  29.479  1.00  0.00     0.167 HD
ATOM     66  C   UNL A   1      42.955  31.102  30.259  1.00  0.00     0.074 A 
ATOM     67  C   UNL A   1      41.756  31.875  30.512  1.00  0.00     0.031 C 
ATOM     68  C   UNL A   1      44.211  31.522  30.543  1.00  0.00     0.031 A 
BRANCH  55  69
ATOM     69  C   UNL A   1      48.646  27.491  29.091  1.00  0.00    -0.014 A 
ATOM     70  C   UNL A   1      49.424  27.842  27.978  1.00  0.00     0.009 A 
ATOM     71  C   UNL A   1      49.275  26.936  30.216  1.00  0.00     0.009 A 
ATOM     72  C   UNL A   1      50.805  27.637  27.990  1.00  0.00     0.001 A 
ATOM     73  C   UNL A   1      50.660  26.754  30.235  1.00  0.00     0.001 A 
ATOM     74  C   UNL A   1      51.422  27.103  29.121  1.00  0.00     0.000 A 
ENDBRANCH  55  69
BRANCH  56  75
ATOM     75  C   UNL A   1      38.824  29.225  28.981  1.00  0.00    -0.014 A 
ATOM     76  C   UNL A   1      38.034  28.997  30.117  1.00  0.00     0.009 A 
ATOM     77  C   UNL A   1      38.231  29.784  27.838  1.00  0.00     0.009 A 
ATOM     78  C   UNL A   1      36.679  29.334  30.112  1.00  0.00     0.001 A 
ATOM     79  C   UNL A   1      36.881  30.138  27.843  1.00  0.00     0.001 A 
ATOM     80  C   UNL A   1      36.106  29.913  28.980  1.00  0.00     0.000 A 
ENDBRANCH  56  75
BRANCH  68  81
ATOM     81  C   UNL A   1      44.386  32.894  31.129  1.00  0.00    -0.014 A 
ATOM     82  C   UNL A   1      44.454  34.029  30.310  1.00  0.00     0.009 A 
ATOM     83  C   UNL A   1      44.349  33.057  32.524  1.00  0.00     0.009 A 
ATOM     84  C   UNL A   1      44.486  35.305  30.880  1.00  0.00     0.001 A 
ATOM     85  C   UNL A   1      44.357  34.333  33.088  1.00  0.00     0.001 A 
ATOM     86  C   UNL A   1      44.426  35.456  32.265  1.00  0.00     0.000 A 
ENDBRANCH  68  81
ENDBRANCH  42  43
ENDBRANCH  35  37
ENDBRANCH  34  35
ENDBRANCH  33  34
ENDBRANCH   1  33
TORSDOF 15
ENDMDL
MODEL 3
REMARK VINA RESULT:     -12.2      1.419      7.915
REMARK SMILES CC1(C)[C@H](O)CC[C@@]2(C)[C@@H]1CC[C@]1(C)Oc3oc(C(=O)OCCOCCOC(=O)c4ccc(-c5c6nc(c(-c7ccccc7)c7ccc([nH]7)c(-c7ccccc7)c7nc(c(-c8ccccc8)c8ccc5[nH]8)C=C7)C=C6)cc4)cc(=O)c3C[C@@H]21
REMARK SMILES IDX 25 1 24 2 23 3 22 4 21 5 19 6 20 7 18 8 1 9 2 10 4 11 10 12
REMARK SMILES IDX 3 13 6 14 8 15 11 16 7 17 83 18 9 19 12 20 13 21 82 22 15 23
REMARK SMILES IDX 14 24 81 25 16 26 79 27 17 28 78 29 80 30 5 31 26 33 27 34
REMARK SMILES IDX 28 35 29 36 30 37 31 38 77 39 32 40 76 41 33 42 34 43 35 44
REMARK SMILES IDX 70 45 36 46 75 47 69 48 71 49 37 50 74 51 68 52 67 53 38 55
REMARK SMILES IDX 60 56 45 57 59 58 46 59 49 60 58 61 72 62 47 63 48 64 57 66
REMARK SMILES IDX 73 67 50 68 39 69 40 70 44 71 41 72 43 73 42 74 61 75 62 76
REMARK SMILES IDX 66 77 63 78 65 79 64 80 51 81 52 82 56 83 53 84 55 85 54 86
REMARK H PARENT 5 32 71 54 49 65
REMARK Flexibility Score: inf
ROOT
ATOM      1  C   UNL A   1      32.172  31.200  26.893  1.00  0.00     0.202 C 
ENDROOT
BRANCH   1   2
ATOM      2  O   UNL A   1      31.643  29.912  27.184  1.00  0.00    -0.374 OA
BRANCH   2   3
ATOM      3  C   UNL A   1      32.054  28.793  26.405  1.00  0.00     0.202 C 
BRANCH   3   4
ATOM      4  C   UNL A   1      32.935  29.044  25.177  1.00  0.00     0.261 C 
BRANCH   4   5
ATOM      5  O   UNL A   1      32.251  28.674  23.971  1.00  0.00    -0.457 OA
BRANCH   5   6
ATOM      6  C   UNL A   1      33.014  28.116  23.000  1.00  0.00     0.374 C 
ATOM      7  O   UNL A   1      33.917  28.640  22.374  1.00  0.00    -0.242 OA
BRANCH   6   8
ATOM      8  C   UNL A   1      32.647  26.688  22.884  1.00  0.00     0.219 A 
ATOM      9  C   UNL A   1      36.285  24.157  25.687  1.00  0.00     0.014 C 
ATOM     10  C   UNL A   1      35.937  22.700  25.375  1.00  0.00    -0.006 C 
ATOM     11  C   UNL A   1      37.057  21.679  25.635  1.00  0.00     0.120 C 
ATOM     12  C   UNL A   1      34.727  21.909  26.283  1.00  0.00     0.004 C 
ATOM     13  C   UNL A   1      35.963  22.775  23.772  1.00  0.00     0.014 C 
ATOM     14  C   UNL A   1      36.516  20.297  25.096  1.00  0.00     0.033 C 
ATOM     15  C   UNL A   1      33.901  21.099  25.305  1.00  0.00    -0.022 C 
ATOM     16  C   UNL A   1      33.847  22.403  27.485  1.00  0.00     0.009 C 
ATOM     17  C   UNL A   1      34.998  20.269  24.495  1.00  0.00     0.010 C 
ATOM     18  C   UNL A   1      32.851  22.222  24.766  1.00  0.00     0.044 C 
ATOM     19  C   UNL A   1      33.037  19.947  25.923  1.00  0.00     0.012 C 
ATOM     20  C   UNL A   1      32.427  22.916  27.121  1.00  0.00     0.049 C 
ATOM     21  C   UNL A   1      32.556  23.537  25.730  1.00  0.00     0.113 C 
ATOM     22  C   UNL A   1      32.653  22.487  23.262  1.00  0.00     0.055 C 
ATOM     23  O   UNL A   1      31.370  24.153  25.164  1.00  0.00    -0.458 OA
ATOM     24  C   UNL A   1      33.397  24.797  26.112  1.00  0.00     0.057 C 
ATOM     25  C   UNL A   1      32.388  23.941  23.020  1.00  0.00     0.081 A 
ATOM     26  C   UNL A   1      31.790  24.722  23.936  1.00  0.00     0.292 A 
ATOM     27  C   UNL A   1      32.972  24.570  21.818  1.00  0.00     0.192 A 
ATOM     28  O   UNL A   1      31.813  26.115  23.839  1.00  0.00    -0.418 OA
ATOM     29  C   UNL A   1      33.199  26.017  21.872  1.00  0.00     0.107 A 
ATOM     30  O   UNL A   1      33.332  23.922  20.845  1.00  0.00    -0.289 OA
BRANCH  11  31
ATOM     31  O   UNL A   1      38.294  22.027  25.032  1.00  0.00    -0.393 OA
ATOM     32  H   UNL A   1      38.503  21.390  24.331  1.00  0.00     0.210 HD
ENDBRANCH  11  31
ENDBRANCH   6   8
ENDBRANCH   5   6
ENDBRANCH   4   5
ENDBRANCH   3   4
ENDBRANCH   2   3
ENDBRANCH   1   2
BRANCH   1  33
ATOM     33  C   UNL A   1      33.403  31.698  27.664  1.00  0.00     0.261 C 
BRANCH  33  34
ATOM     34  O   UNL A   1      34.360  30.679  27.992  1.00  0.00    -0.460 OA
BRANCH  34  35
ATOM     35  C   UNL A   1      35.253  31.049  28.946  1.00  0.00     0.338 C 
ATOM     36  O   UNL A   1      35.116  31.891  29.810  1.00  0.00    -0.246 OA
BRANCH  35  37
ATOM     37  C   UNL A   1      36.441  30.185  28.879  1.00  0.00     0.060 A 
ATOM     38  C   UNL A   1      36.957  29.664  30.071  1.00  0.00     0.016 A 
ATOM     39  C   UNL A   1      37.119  30.024  27.670  1.00  0.00     0.016 A 
ATOM     40  C   UNL A   1      38.178  28.995  30.065  1.00  0.00     0.010 A 
ATOM     41  C   UNL A   1      38.350  29.372  27.669  1.00  0.00     0.010 A 
ATOM     42  C   UNL A   1      38.898  28.885  28.869  1.00  0.00    -0.014 A 
BRANCH  42  43
ATOM     43  C   UNL A   1      40.288  28.385  28.880  1.00  0.00     0.031 A 
ATOM     44  C   UNL A   1      41.403  29.339  29.194  1.00  0.00     0.074 A 
ATOM     45  C   UNL A   1      40.550  27.101  28.592  1.00  0.00     0.049 A 
ATOM     46  N   UNL A   1      42.695  29.144  29.139  1.00  0.00    -0.248 NA
ATOM     47  C   UNL A   1      41.013  30.692  29.629  1.00  0.00     0.031 C 
ATOM     48  C   UNL A   1      39.546  26.070  28.338  1.00  0.00     0.029 A 
ATOM     49  N   UNL A   1      41.750  26.451  28.454  1.00  0.00    -0.354 N 
ATOM     50  C   UNL A   1      43.271  30.345  29.525  1.00  0.00     0.074 A 
ATOM     51  C   UNL A   1      42.194  31.273  29.793  1.00  0.00     0.031 C 
ATOM     52  C   UNL A   1      40.173  24.915  28.060  1.00  0.00     0.029 A 
ATOM     53  C   UNL A   1      41.618  25.138  28.078  1.00  0.00     0.049 A 
ATOM     54  H   UNL A   1      42.621  26.883  28.611  1.00  0.00     0.167 HD
ATOM     55  C   UNL A   1      44.585  30.645  29.647  1.00  0.00     0.031 A 
ATOM     56  C   UNL A   1      42.555  24.226  27.759  1.00  0.00     0.031 A 
ATOM     57  C   UNL A   1      45.651  29.725  29.363  1.00  0.00     0.049 A 
ATOM     58  C   UNL A   1      44.007  24.607  27.804  1.00  0.00     0.074 A 
ATOM     59  C   UNL A   1      47.016  29.940  29.452  1.00  0.00     0.029 A 
ATOM     60  N   UNL A   1      45.475  28.418  28.936  1.00  0.00    -0.354 N 
ATOM     61  N   UNL A   1      44.545  25.754  28.143  1.00  0.00    -0.248 NA
ATOM     62  C   UNL A   1      44.982  23.574  27.424  1.00  0.00     0.031 C 
ATOM     63  C   UNL A   1      47.666  28.779  29.029  1.00  0.00     0.029 A 
ATOM     64  C   UNL A   1      46.707  27.821  28.739  1.00  0.00     0.049 A 
ATOM     65  H   UNL A   1      44.604  27.982  28.794  1.00  0.00     0.167 HD
ATOM     66  C   UNL A   1      45.918  25.573  28.049  1.00  0.00     0.074 A 
ATOM     67  C   UNL A   1      46.133  24.209  27.615  1.00  0.00     0.031 C 
ATOM     68  C   UNL A   1      46.908  26.461  28.310  1.00  0.00     0.031 A 
BRANCH  55  69
ATOM     69  C   UNL A   1      44.952  32.029  30.095  1.00  0.00    -0.014 A 
ATOM     70  C   UNL A   1      45.092  33.074  29.170  1.00  0.00     0.009 A 
ATOM     71  C   UNL A   1      45.064  32.312  31.465  1.00  0.00     0.009 A 
ATOM     72  C   UNL A   1      45.346  34.375  29.607  1.00  0.00     0.001 A 
ATOM     73  C   UNL A   1      45.294  33.618  31.902  1.00  0.00     0.001 A 
ATOM     74  C   UNL A   1      45.437  34.647  30.972  1.00  0.00     0.000 A 
ENDBRANCH  55  69
BRANCH  56  75
ATOM     75  C   UNL A   1      42.124  22.857  27.382  1.00  0.00    -0.014 A 
ATOM     76  C   UNL A   1      41.872  22.543  26.039  1.00  0.00     0.009 A 
ATOM     77  C   UNL A   1      42.050  21.839  28.347  1.00  0.00     0.009 A 
ATOM     78  C   UNL A   1      41.565  21.233  25.666  1.00  0.00     0.001 A 
ATOM     79  C   UNL A   1      41.762  20.526  27.968  1.00  0.00     0.001 A 
ATOM     80  C   UNL A   1      41.521  20.225  26.629  1.00  0.00     0.000 A 
ENDBRANCH  56  75
BRANCH  68  81
ATOM     81  C   UNL A   1      48.330  25.996  28.175  1.00  0.00    -0.014 A 
ATOM     82  C   UNL A   1      49.004  26.067  26.948  1.00  0.00     0.009 A 
ATOM     83  C   UNL A   1      49.040  25.607  29.323  1.00  0.00     0.009 A 
ATOM     84  C   UNL A   1      50.363  25.753  26.874  1.00  0.00     0.001 A 
ATOM     85  C   UNL A   1      50.402  25.317  29.250  1.00  0.00     0.001 A 
ATOM     86  C   UNL A   1      51.063  25.389  28.025  1.00  0.00     0.000 A 
ENDBRANCH  68  81
ENDBRANCH  42  43
ENDBRANCH  35  37
ENDBRANCH  34  35
ENDBRANCH  33  34
ENDBRANCH   1  33
TORSDOF 15
ENDMDL
