MODEL 1
REMARK VINA RESULT:      -8.5      0.000      0.000
REMARK SMILES C[C@@H](C(=O)OCCOCCOC(=O)c1ccc(-c2c3nc(c(-c4ccccc4)c4ccc([nH]4)c(-c4ccccc4)c4nc(c(-c5ccccc5)c5ccc2[nH]5)C=C4)C=C3)cc1)c1ccc(Cc2ccco2)cc1F
REMARK SMILES IDX 7 1 6 2 5 3 3 4 4 5 2 6 1 7 62 8 63 9 73 10 64 11 72 12
REMARK SMILES IDX 74 13 65 14 66 15 67 16 68 17 71 18 69 19 70 20 8 21 9 22
REMARK SMILES IDX 10 23 11 24 12 25 13 26 14 27 15 28 61 29 16 30 60 31 17 32
REMARK SMILES IDX 18 33 19 34 54 35 20 36 59 37 53 38 55 39 21 40 58 41 52 42
REMARK SMILES IDX 51 43 22 45 44 46 29 47 43 48 30 49 33 50 42 51 56 52 31 53
REMARK SMILES IDX 32 54 41 56 57 57 34 58 23 59 24 60 28 61 25 62 27 63 26 64
REMARK SMILES IDX 45 65 46 66 50 67 47 68 49 69 48 70 35 71 36 72 40 73 37 74
REMARK SMILES IDX 39 75 38 76
REMARK H PARENT 55 44 33 55
REMARK Flexibility Score: inf
ROOT
ATOM      1  C   UNL A   1      33.717  35.033  32.710  1.00  0.00     0.202 C 
ENDROOT
BRANCH   1   2
ATOM      2  C   UNL A   1      35.163  35.227  33.174  1.00  0.00     0.261 C 
BRANCH   2   3
ATOM      3  O   UNL A   1      35.654  34.031  33.806  1.00  0.00    -0.463 OA
BRANCH   3   4
ATOM      4  C   UNL A   1      36.854  34.152  34.437  1.00  0.00     0.313 C 
ATOM      5  O   UNL A   1      37.651  35.057  34.212  1.00  0.00    -0.252 OA
BRANCH   4   6
ATOM      6  C   UNL A   1      37.088  33.061  35.494  1.00  0.00     0.129 C 
ATOM      7  C   UNL A   1      37.443  33.588  36.892  1.00  0.00     0.025 C 
BRANCH   6   8
ATOM      8  C   UNL A   1      38.070  32.029  34.952  1.00  0.00     0.002 A 
ATOM      9  C   UNL A   1      39.407  31.934  35.368  1.00  0.00     0.008 A 
ATOM     10  C   UNL A   1      37.656  31.191  33.909  1.00  0.00     0.127 A 
ATOM     11  C   UNL A   1      40.291  31.050  34.738  1.00  0.00     0.005 A 
ATOM     12  C   UNL A   1      38.534  30.320  33.267  1.00  0.00     0.043 A 
ATOM     13  F   UNL A   1      36.378  31.224  33.501  1.00  0.00    -0.207 F 
ATOM     14  C   UNL A   1      39.872  30.246  33.668  1.00  0.00    -0.038 A 
BRANCH  14  15
ATOM     15  C   UNL A   1      40.831  29.305  32.971  1.00  0.00     0.111 C 
BRANCH  15  16
ATOM     16  C   UNL A   1      41.577  28.392  33.884  1.00  0.00     0.108 A 
ATOM     17  C   UNL A   1      42.853  28.392  34.412  1.00  0.00     0.046 A 
ATOM     18  O   UNL A   1      40.874  27.333  34.388  1.00  0.00    -0.469 OA
ATOM     19  C   UNL A   1      42.932  27.276  35.280  1.00  0.00     0.042 A 
ATOM     20  C   UNL A   1      41.703  26.665  35.229  1.00  0.00     0.195 A 
ENDBRANCH  15  16
ENDBRANCH  14  15
ENDBRANCH   6   8
ENDBRANCH   4   6
ENDBRANCH   3   4
ENDBRANCH   2   3
ENDBRANCH   1   2
BRANCH   1  21
ATOM     21  O   UNL A   1      33.052  36.205  32.234  1.00  0.00    -0.374 OA
BRANCH  21  22
ATOM     22  C   UNL A   1      32.556  36.174  30.897  1.00  0.00     0.202 C 
BRANCH  22  23
ATOM     23  C   UNL A   1      33.505  35.603  29.838  1.00  0.00     0.261 C 
BRANCH  23  24
ATOM     24  O   UNL A   1      32.802  35.093  28.692  1.00  0.00    -0.460 OA
BRANCH  24  25
ATOM     25  C   UNL A   1      33.153  33.837  28.330  1.00  0.00     0.338 C 
ATOM     26  O   UNL A   1      32.563  33.096  27.551  1.00  0.00    -0.246 OA
BRANCH  25  27
ATOM     27  C   UNL A   1      34.479  33.498  28.874  1.00  0.00     0.060 A 
ATOM     28  C   UNL A   1      35.598  33.881  28.123  1.00  0.00     0.016 A 
ATOM     29  C   UNL A   1      34.632  32.757  30.049  1.00  0.00     0.016 A 
ATOM     30  C   UNL A   1      36.873  33.477  28.514  1.00  0.00     0.010 A 
ATOM     31  C   UNL A   1      35.913  32.345  30.434  1.00  0.00     0.010 A 
ATOM     32  C   UNL A   1      37.034  32.671  29.647  1.00  0.00    -0.014 A 
BRANCH  32  33
ATOM     33  C   UNL A   1      38.352  32.046  29.910  1.00  0.00     0.031 A 
ATOM     34  C   UNL A   1      39.345  32.777  30.773  1.00  0.00     0.074 A 
ATOM     35  C   UNL A   1      38.645  30.824  29.432  1.00  0.00     0.049 A 
ATOM     36  N   UNL A   1      40.547  32.413  31.142  1.00  0.00    -0.248 NA
ATOM     37  C   UNL A   1      38.927  34.089  31.290  1.00  0.00     0.031 C 
ATOM     38  C   UNL A   1      37.751  29.993  28.627  1.00  0.00     0.029 A 
ATOM     39  N   UNL A   1      39.783  30.069  29.563  1.00  0.00    -0.354 N 
ATOM     40  C   UNL A   1      41.029  33.451  31.929  1.00  0.00     0.074 A 
ATOM     41  C   UNL A   1      40.003  34.470  31.962  1.00  0.00     0.031 C 
ATOM     42  C   UNL A   1      38.378  28.840  28.333  1.00  0.00     0.029 A 
ATOM     43  C   UNL A   1      39.723  28.865  28.907  1.00  0.00     0.049 A 
ATOM     44  H   UNL A   1      40.568  30.363  30.079  1.00  0.00     0.167 HD
ATOM     45  C   UNL A   1      42.216  33.547  32.573  1.00  0.00     0.031 A 
ATOM     46  C   UNL A   1      40.653  27.900  28.771  1.00  0.00     0.031 A 
ATOM     47  C   UNL A   1      43.244  32.543  32.534  1.00  0.00     0.049 A 
ATOM     48  C   UNL A   1      41.995  28.065  29.431  1.00  0.00     0.074 A 
ATOM     49  C   UNL A   1      44.475  32.543  33.167  1.00  0.00     0.029 A 
ATOM     50  N   UNL A   1      43.163  31.361  31.815  1.00  0.00    -0.354 N 
ATOM     51  N   UNL A   1      42.427  29.040  30.194  1.00  0.00    -0.248 NA
ATOM     52  C   UNL A   1      42.975  26.992  29.215  1.00  0.00     0.031 C 
ATOM     53  C   UNL A   1      45.160  31.384  32.788  1.00  0.00     0.029 A 
ATOM     54  C   UNL A   1      44.334  30.637  31.965  1.00  0.00     0.049 A 
ATOM     55  H   UNL A   1      42.388  31.078  31.278  1.00  0.00     0.167 HD
ATOM     56  C   UNL A   1      43.716  28.685  30.570  1.00  0.00     0.074 A 
ATOM     57  C   UNL A   1      43.992  27.400  29.960  1.00  0.00     0.031 C 
ATOM     58  C   UNL A   1      44.594  29.361  31.351  1.00  0.00     0.031 A 
BRANCH  45  59
ATOM     59  C   UNL A   1      42.480  34.806  33.350  1.00  0.00    -0.014 A 
ATOM     60  C   UNL A   1      42.106  34.923  34.697  1.00  0.00     0.009 A 
ATOM     61  C   UNL A   1      43.136  35.880  32.730  1.00  0.00     0.009 A 
ATOM     62  C   UNL A   1      42.358  36.103  35.400  1.00  0.00     0.001 A 
ATOM     63  C   UNL A   1      43.410  37.049  33.443  1.00  0.00     0.001 A 
ATOM     64  C   UNL A   1      43.013  37.163  34.774  1.00  0.00     0.000 A 
ENDBRANCH  45  59
BRANCH  46  65
ATOM     65  C   UNL A   1      40.356  26.691  27.960  1.00  0.00    -0.014 A 
ATOM     66  C   UNL A   1      40.776  26.604  26.624  1.00  0.00     0.009 A 
ATOM     67  C   UNL A   1      39.631  25.625  28.515  1.00  0.00     0.009 A 
ATOM     68  C   UNL A   1      40.454  25.482  25.855  1.00  0.00     0.001 A 
ATOM     69  C   UNL A   1      39.334  24.495  27.752  1.00  0.00     0.001 A 
ATOM     70  C   UNL A   1      39.738  24.428  26.420  1.00  0.00     0.000 A 
ENDBRANCH  46  65
BRANCH  58  71
ATOM     71  C   UNL A   1      45.920  28.710  31.621  1.00  0.00    -0.014 A 
ATOM     72  C   UNL A   1      46.093  27.826  32.697  1.00  0.00     0.009 A 
ATOM     73  C   UNL A   1      47.001  28.953  30.759  1.00  0.00     0.009 A 
ATOM     74  C   UNL A   1      47.331  27.221  32.922  1.00  0.00     0.001 A 
ATOM     75  C   UNL A   1      48.231  28.326  30.970  1.00  0.00     0.001 A 
ATOM     76  C   UNL A   1      48.397  27.468  32.057  1.00  0.00     0.000 A 
ENDBRANCH  58  71
ENDBRANCH  32  33
ENDBRANCH  25  27
ENDBRANCH  24  25
ENDBRANCH  23  24
ENDBRANCH  22  23
ENDBRANCH  21  22
ENDBRANCH   1  21
TORSDOF 17
ENDMDL
MODEL 2
REMARK VINA RESULT:      -8.1      5.837     11.647
REMARK SMILES C[C@@H](C(=O)OCCOCCOC(=O)c1ccc(-c2c3nc(c(-c4ccccc4)c4ccc([nH]4)c(-c4ccccc4)c4nc(c(-c5ccccc5)c5ccc2[nH]5)C=C4)C=C3)cc1)c1ccc(Cc2ccco2)cc1F
REMARK SMILES IDX 7 1 6 2 5 3 3 4 4 5 2 6 1 7 62 8 63 9 73 10 64 11 72 12
REMARK SMILES IDX 74 13 65 14 66 15 67 16 68 17 71 18 69 19 70 20 8 21 9 22
REMARK SMILES IDX 10 23 11 24 12 25 13 26 14 27 15 28 61 29 16 30 60 31 17 32
REMARK SMILES IDX 18 33 19 34 54 35 20 36 59 37 53 38 55 39 21 40 58 41 52 42
REMARK SMILES IDX 51 43 22 45 44 46 29 47 43 48 30 49 33 50 42 51 56 52 31 53
REMARK SMILES IDX 32 54 41 56 57 57 34 58 23 59 24 60 28 61 25 62 27 63 26 64
REMARK SMILES IDX 45 65 46 66 50 67 47 68 49 69 48 70 35 71 36 72 40 73 37 74
REMARK SMILES IDX 39 75 38 76
REMARK H PARENT 55 44 33 55
REMARK Flexibility Score: inf
ROOT
ATOM      1  C   UNL A   1      37.003  22.653  24.884  1.00  0.00     0.202 C 
ENDROOT
BRANCH   1   2
ATOM      2  C   UNL A   1      35.989  23.280  25.844  1.00  0.00     0.261 C 
BRANCH   2   3
ATOM      3  O   UNL A   1      35.351  24.417  25.233  1.00  0.00    -0.463 OA
BRANCH   3   4
ATOM      4  C   UNL A   1      34.569  24.138  24.154  1.00  0.00     0.313 C 
ATOM      5  O   UNL A   1      34.995  24.061  23.007  1.00  0.00    -0.252 OA
BRANCH   4   6
ATOM      6  C   UNL A   1      33.100  23.885  24.530  1.00  0.00     0.129 C 
ATOM      7  C   UNL A   1      32.682  24.448  25.896  1.00  0.00     0.025 C 
BRANCH   6   8
ATOM      8  C   UNL A   1      32.773  22.408  24.341  1.00  0.00     0.002 A 
ATOM      9  C   UNL A   1      32.835  21.460  25.373  1.00  0.00     0.008 A 
ATOM     10  C   UNL A   1      32.492  21.943  23.050  1.00  0.00     0.127 A 
ATOM     11  C   UNL A   1      32.649  20.098  25.105  1.00  0.00     0.005 A 
ATOM     12  C   UNL A   1      32.321  20.588  22.774  1.00  0.00     0.043 A 
ATOM     13  F   UNL A   1      32.390  22.819  22.039  1.00  0.00    -0.207 F 
ATOM     14  C   UNL A   1      32.408  19.643  23.801  1.00  0.00    -0.038 A 
BRANCH  14  15
ATOM     15  C   UNL A   1      32.228  18.169  23.505  1.00  0.00     0.111 C 
BRANCH  15  16
ATOM     16  C   UNL A   1      33.253  17.282  24.126  1.00  0.00     0.108 A 
ATOM     17  C   UNL A   1      34.631  17.323  24.217  1.00  0.00     0.046 A 
ATOM     18  O   UNL A   1      32.780  16.206  24.823  1.00  0.00    -0.469 OA
ATOM     19  C   UNL A   1      35.017  16.214  25.008  1.00  0.00     0.042 A 
ATOM     20  C   UNL A   1      33.855  15.566  25.351  1.00  0.00     0.195 A 
ENDBRANCH  15  16
ENDBRANCH  14  15
ENDBRANCH   6   8
ENDBRANCH   4   6
ENDBRANCH   3   4
ENDBRANCH   2   3
ENDBRANCH   1   2
BRANCH   1  21
ATOM     21  O   UNL A   1      37.869  21.665  25.447  1.00  0.00    -0.374 OA
BRANCH  21  22
ATOM     22  C   UNL A   1      37.753  20.336  24.946  1.00  0.00     0.202 C 
BRANCH  22  23
ATOM     23  C   UNL A   1      38.912  19.387  25.274  1.00  0.00     0.261 C 
BRANCH  23  24
ATOM     24  O   UNL A   1      39.670  19.825  26.415  1.00  0.00    -0.460 OA
BRANCH  24  25
ATOM     25  C   UNL A   1      41.012  19.764  26.254  1.00  0.00     0.338 C 
ATOM     26  O   UNL A   1      41.655  18.876  25.706  1.00  0.00    -0.246 OA
BRANCH  25  27
ATOM     27  C   UNL A   1      41.640  21.025  26.686  1.00  0.00     0.060 A 
ATOM     28  C   UNL A   1      41.709  21.268  28.064  1.00  0.00     0.016 A 
ATOM     29  C   UNL A   1      42.082  21.985  25.773  1.00  0.00     0.016 A 
ATOM     30  C   UNL A   1      42.170  22.495  28.535  1.00  0.00     0.010 A 
ATOM     31  C   UNL A   1      42.535  23.222  26.248  1.00  0.00     0.010 A 
ATOM     32  C   UNL A   1      42.545  23.495  27.628  1.00  0.00    -0.014 A 
BRANCH  32  33
ATOM     33  C   UNL A   1      42.794  24.869  28.127  1.00  0.00     0.031 A 
ATOM     34  C   UNL A   1      44.205  25.284  28.443  1.00  0.00     0.074 A 
ATOM     35  C   UNL A   1      41.787  25.752  28.249  1.00  0.00     0.049 A 
ATOM     36  N   UNL A   1      44.652  26.435  28.877  1.00  0.00    -0.248 NA
ATOM     37  C   UNL A   1      45.250  24.269  28.240  1.00  0.00     0.031 C 
ATOM     38  C   UNL A   1      40.385  25.488  27.928  1.00  0.00     0.029 A 
ATOM     39  N   UNL A   1      41.798  27.057  28.675  1.00  0.00    -0.354 N 
ATOM     40  C   UNL A   1      46.027  26.282  29.003  1.00  0.00     0.074 A 
ATOM     41  C   UNL A   1      46.338  24.920  28.626  1.00  0.00     0.031 C 
ATOM     42  C   UNL A   1      39.668  26.600  28.171  1.00  0.00     0.029 A 
ATOM     43  C   UNL A   1      40.556  27.640  28.688  1.00  0.00     0.049 A 
ATOM     44  H   UNL A   1      42.618  27.528  28.944  1.00  0.00     0.167 HD
ATOM     45  C   UNL A   1      46.950  27.193  29.390  1.00  0.00     0.031 A 
ATOM     46  C   UNL A   1      40.176  28.870  29.086  1.00  0.00     0.031 A 
ATOM     47  C   UNL A   1      46.645  28.544  29.776  1.00  0.00     0.049 A 
ATOM     48  C   UNL A   1      41.211  29.839  29.589  1.00  0.00     0.074 A 
ATOM     49  C   UNL A   1      47.515  29.547  30.169  1.00  0.00     0.029 A 
ATOM     50  N   UNL A   1      45.368  29.080  29.825  1.00  0.00    -0.354 N 
ATOM     51  N   UNL A   1      42.511  29.689  29.677  1.00  0.00    -0.248 NA
ATOM     52  C   UNL A   1      40.726  31.151  30.040  1.00  0.00     0.031 C 
ATOM     53  C   UNL A   1      46.759  30.673  30.506  1.00  0.00     0.029 A 
ATOM     54  C   UNL A   1      45.423  30.390  30.269  1.00  0.00     0.049 A 
ATOM     55  H   UNL A   1      44.544  28.600  29.579  1.00  0.00     0.167 HD
ATOM     56  C   UNL A   1      43.000  30.893  30.168  1.00  0.00     0.074 A 
ATOM     57  C   UNL A   1      41.859  31.768  30.347  1.00  0.00     0.031 C 
ATOM     58  C   UNL A   1      44.279  31.246  30.443  1.00  0.00     0.031 A 
BRANCH  45  59
ATOM     59  C   UNL A   1      48.382  26.742  29.449  1.00  0.00    -0.014 A 
ATOM     60  C   UNL A   1      48.898  26.100  30.586  1.00  0.00     0.009 A 
ATOM     61  C   UNL A   1      49.218  26.936  28.339  1.00  0.00     0.009 A 
ATOM     62  C   UNL A   1      50.233  25.691  30.620  1.00  0.00     0.001 A 
ATOM     63  C   UNL A   1      50.545  26.503  28.367  1.00  0.00     0.001 A 
ATOM     64  C   UNL A   1      51.053  25.888  29.510  1.00  0.00     0.000 A 
ENDBRANCH  45  59
BRANCH  46  65
ATOM     65  C   UNL A   1      38.742  29.255  29.045  1.00  0.00    -0.014 A 
ATOM     66  C   UNL A   1      37.911  29.047  30.157  1.00  0.00     0.009 A 
ATOM     67  C   UNL A   1      38.190  29.813  27.881  1.00  0.00     0.009 A 
ATOM     68  C   UNL A   1      36.553  29.370  30.094  1.00  0.00     0.001 A 
ATOM     69  C   UNL A   1      36.840  30.159  27.830  1.00  0.00     0.001 A 
ATOM     70  C   UNL A   1      36.020  29.929  28.934  1.00  0.00     0.000 A 
ENDBRANCH  46  65
BRANCH  58  71
ATOM     71  C   UNL A   1      44.518  32.645  30.934  1.00  0.00    -0.014 A 
ATOM     72  C   UNL A   1      44.479  32.954  32.303  1.00  0.00     0.009 A 
ATOM     73  C   UNL A   1      44.829  33.660  30.016  1.00  0.00     0.009 A 
ATOM     74  C   UNL A   1      44.718  34.259  32.739  1.00  0.00     0.001 A 
ATOM     75  C   UNL A   1      45.094  34.958  30.457  1.00  0.00     0.001 A 
ATOM     76  C   UNL A   1      45.029  35.258  31.817  1.00  0.00     0.000 A 
ENDBRANCH  58  71
ENDBRANCH  32  33
ENDBRANCH  25  27
ENDBRANCH  24  25
ENDBRANCH  23  24
ENDBRANCH  22  23
ENDBRANCH  21  22
ENDBRANCH   1  21
TORSDOF 17
ENDMDL
MODEL 3
REMARK VINA RESULT:      -8.1      5.125      8.418
REMARK SMILES C[C@@H](C(=O)OCCOCCOC(=O)c1ccc(-c2c3nc(c(-c4ccccc4)c4ccc([nH]4)c(-c4ccccc4)c4nc(c(-c5ccccc5)c5ccc2[nH]5)C=C4)C=C3)cc1)c1ccc(Cc2ccco2)cc1F
REMARK SMILES IDX 7 1 6 2 5 3 3 4 4 5 2 6 1 7 62 8 63 9 73 10 64 11 72 12
REMARK SMILES IDX 74 13 65 14 66 15 67 16 68 17 71 18 69 19 70 20 8 21 9 22
REMARK SMILES IDX 10 23 11 24 12 25 13 26 14 27 15 28 61 29 16 30 60 31 17 32
REMARK SMILES IDX 18 33 19 34 54 35 20 36 59 37 53 38 55 39 21 40 58 41 52 42
REMARK SMILES IDX 51 43 22 45 44 46 29 47 43 48 30 49 33 50 42 51 56 52 31 53
REMARK SMILES IDX 32 54 41 56 57 57 34 58 23 59 24 60 28 61 25 62 27 63 26 64
REMARK SMILES IDX 45 65 46 66 50 67 47 68 49 69 48 70 35 71 36 72 40 73 37 74
REMARK SMILES IDX 39 75 38 76
REMARK H PARENT 55 44 33 55
REMARK Flexibility Score: inf
ROOT
ATOM      1  C   UNL A   1      30.727  28.398  23.749  1.00  0.00     0.202 C 
ENDROOT
BRANCH   1   2
ATOM      2  C   UNL A   1      30.251  27.114  24.433  1.00  0.00     0.261 C 
BRANCH   2   3
ATOM      3  O   UNL A   1      31.294  26.122  24.424  1.00  0.00    -0.463 OA
BRANCH   3   4
ATOM      4  C   UNL A   1      31.495  25.474  25.604  1.00  0.00     0.313 C 
ATOM      5  O   UNL A   1      30.655  25.407  26.494  1.00  0.00    -0.252 OA
BRANCH   4   6
ATOM      6  C   UNL A   1      32.872  24.794  25.685  1.00  0.00     0.129 C 
ATOM      7  C   UNL A   1      34.046  25.665  25.216  1.00  0.00     0.025 C 
BRANCH   6   8
ATOM      8  C   UNL A   1      32.806  23.428  25.013  1.00  0.00     0.002 A 
ATOM      9  C   UNL A   1      33.104  23.212  23.659  1.00  0.00     0.008 A 
ATOM     10  C   UNL A   1      32.325  22.339  25.751  1.00  0.00     0.127 A 
ATOM     11  C   UNL A   1      32.898  21.957  23.071  1.00  0.00     0.005 A 
ATOM     12  C   UNL A   1      32.103  21.092  25.170  1.00  0.00     0.043 A 
ATOM     13  F   UNL A   1      32.058  22.490  27.057  1.00  0.00    -0.207 F 
ATOM     14  C   UNL A   1      32.378  20.887  23.814  1.00  0.00    -0.038 A 
BRANCH  14  15
ATOM     15  C   UNL A   1      32.135  19.536  23.176  1.00  0.00     0.111 C 
BRANCH  15  16
ATOM     16  C   UNL A   1      33.149  18.498  23.517  1.00  0.00     0.108 A 
ATOM     17  C   UNL A   1      34.107  18.378  24.506  1.00  0.00     0.046 A 
ATOM     18  O   UNL A   1      33.135  17.364  22.754  1.00  0.00    -0.469 OA
ATOM     19  C   UNL A   1      34.710  17.108  24.333  1.00  0.00     0.042 A 
ATOM     20  C   UNL A   1      34.083  16.532  23.255  1.00  0.00     0.195 A 
ENDBRANCH  15  16
ENDBRANCH  14  15
ENDBRANCH   6   8
ENDBRANCH   4   6
ENDBRANCH   3   4
ENDBRANCH   2   3
ENDBRANCH   1   2
BRANCH   1  21
ATOM     21  O   UNL A   1      31.103  29.468  24.618  1.00  0.00    -0.374 OA
BRANCH  21  22
ATOM     22  C   UNL A   1      31.845  29.127  25.787  1.00  0.00     0.202 C 
BRANCH  22  23
ATOM     23  C   UNL A   1      33.364  29.310  25.700  1.00  0.00     0.261 C 
BRANCH  23  24
ATOM     24  O   UNL A   1      34.019  29.046  26.954  1.00  0.00    -0.460 OA
BRANCH  24  25
ATOM     25  C   UNL A   1      34.399  30.153  27.632  1.00  0.00     0.338 C 
ATOM     26  O   UNL A   1      33.709  31.127  27.913  1.00  0.00    -0.246 OA
BRANCH  25  27
ATOM     27  C   UNL A   1      35.760  29.984  28.170  1.00  0.00     0.060 A 
ATOM     28  C   UNL A   1      36.829  30.167  27.282  1.00  0.00     0.016 A 
ATOM     29  C   UNL A   1      35.994  29.581  29.487  1.00  0.00     0.016 A 
ATOM     30  C   UNL A   1      38.132  29.895  27.691  1.00  0.00     0.010 A 
ATOM     31  C   UNL A   1      37.303  29.299  29.894  1.00  0.00     0.010 A 
ATOM     32  C   UNL A   1      38.372  29.418  28.986  1.00  0.00    -0.014 A 
BRANCH  32  33
ATOM     33  C   UNL A   1      39.718  28.899  29.329  1.00  0.00     0.031 A 
ATOM     34  C   UNL A   1      40.623  29.735  30.193  1.00  0.00     0.074 A 
ATOM     35  C   UNL A   1      40.112  27.680  28.921  1.00  0.00     0.049 A 
ATOM     36  N   UNL A   1      41.830  29.473  30.625  1.00  0.00    -0.248 NA
ATOM     37  C   UNL A   1      40.095  31.036  30.631  1.00  0.00     0.031 C 
ATOM     38  C   UNL A   1      39.312  26.753  28.122  1.00  0.00     0.029 A 
ATOM     39  N   UNL A   1      41.293  27.013  29.131  1.00  0.00    -0.354 N 
ATOM     40  C   UNL A   1      42.207  30.576  31.380  1.00  0.00     0.074 A 
ATOM     41  C   UNL A   1      41.114  31.521  31.325  1.00  0.00     0.031 C 
ATOM     42  C   UNL A   1      40.027  25.635  27.907  1.00  0.00     0.029 A 
ATOM     43  C   UNL A   1      41.342  25.780  28.530  1.00  0.00     0.049 A 
ATOM     44  H   UNL A   1      42.034  27.383  29.662  1.00  0.00     0.167 HD
ATOM     45  C   UNL A   1      43.358  30.783  32.063  1.00  0.00     0.031 A 
ATOM     46  C   UNL A   1      42.340  24.876  28.476  1.00  0.00     0.031 A 
ATOM     47  C   UNL A   1      44.452  29.852  32.112  1.00  0.00     0.049 A 
ATOM     48  C   UNL A   1      43.639  25.164  29.178  1.00  0.00     0.074 A 
ATOM     49  C   UNL A   1      45.653  29.966  32.790  1.00  0.00     0.029 A 
ATOM     50  N   UNL A   1      44.482  28.636  31.446  1.00  0.00    -0.354 N 
ATOM     51  N   UNL A   1      43.972  26.200  29.910  1.00  0.00    -0.248 NA
ATOM     52  C   UNL A   1      44.698  24.153  29.050  1.00  0.00     0.031 C 
ATOM     53  C   UNL A   1      46.430  28.842  32.493  1.00  0.00     0.029 A 
ATOM     54  C   UNL A   1      45.691  28.003  31.675  1.00  0.00     0.049 A 
ATOM     55  H   UNL A   1      43.750  28.276  30.894  1.00  0.00     0.167 HD
ATOM     56  C   UNL A   1      45.266  25.953  30.351  1.00  0.00     0.074 A 
ATOM     57  C   UNL A   1      45.654  24.664  29.814  1.00  0.00     0.031 C 
ATOM     58  C   UNL A   1      46.062  26.722  31.132  1.00  0.00     0.031 A 
BRANCH  45  59
ATOM     59  C   UNL A   1      43.503  32.090  32.789  1.00  0.00    -0.014 A 
ATOM     60  C   UNL A   1      43.080  32.236  34.119  1.00  0.00     0.009 A 
ATOM     61  C   UNL A   1      44.097  33.183  32.140  1.00  0.00     0.009 A 
ATOM     62  C   UNL A   1      43.221  33.462  34.774  1.00  0.00     0.001 A 
ATOM     63  C   UNL A   1      44.260  34.399  32.806  1.00  0.00     0.001 A 
ATOM     64  C   UNL A   1      43.815  34.540  34.119  1.00  0.00     0.000 A 
ENDBRANCH  45  59
BRANCH  46  65
ATOM     65  C   UNL A   1      42.160  23.614  27.712  1.00  0.00    -0.014 A 
ATOM     66  C   UNL A   1      42.520  23.539  26.358  1.00  0.00     0.009 A 
ATOM     67  C   UNL A   1      41.604  22.484  28.331  1.00  0.00     0.009 A 
ATOM     68  C   UNL A   1      42.306  22.362  25.635  1.00  0.00     0.001 A 
ATOM     69  C   UNL A   1      41.416  21.302  27.614  1.00  0.00     0.001 A 
ATOM     70  C   UNL A   1      41.759  21.245  26.264  1.00  0.00     0.000 A 
ENDBRANCH  46  65
BRANCH  58  71
ATOM     71  C   UNL A   1      47.418  26.178  31.483  1.00  0.00    -0.014 A 
ATOM     72  C   UNL A   1      47.644  25.513  32.698  1.00  0.00     0.009 A 
ATOM     73  C   UNL A   1      48.472  26.294  30.565  1.00  0.00     0.009 A 
ATOM     74  C   UNL A   1      48.908  25.004  32.999  1.00  0.00     0.001 A 
ATOM     75  C   UNL A   1      49.729  25.760  30.856  1.00  0.00     0.001 A 
ATOM     76  C   UNL A   1      49.948  25.123  32.077  1.00  0.00     0.000 A 
ENDBRANCH  58  71
ENDBRANCH  32  33
ENDBRANCH  25  27
ENDBRANCH  24  25
ENDBRANCH  23  24
ENDBRANCH  22  23
ENDBRANCH  21  22
ENDBRANCH   1  21
TORSDOF 17
ENDMDL
