MODEL 1
REMARK VINA RESULT:      -9.2      0.000      0.000
REMARK SMILES CC[C@@H]1CCCC[N@H+]1Cc1c(C(=O)OCCOCCOC(=O)c2ccc(-c3c4nc(c(-c5ccccc5)c5ccc([nH]5)c(-c5ccccc5)c5nc(c(-c6ccccc6)c6ccc3[nH]6)C=C5)C=C4)cc2)oc2ccccc12
REMARK SMILES IDX 16 1 15 2 14 3 12 4 13 5 11 6 10 7 77 8 71 9 72 10 76 11
REMARK SMILES IDX 73 12 75 13 74 14 9 15 8 16 3 17 4 18 5 19 7 20 6 22 2 23
REMARK SMILES IDX 1 24 17 25 18 26 19 27 20 28 21 29 22 30 23 31 24 32 70 33
REMARK SMILES IDX 25 34 69 35 26 36 27 37 28 38 63 39 29 40 68 41 62 42 64 43
REMARK SMILES IDX 30 44 67 45 61 46 60 47 31 49 53 50 38 51 52 52 39 53 42 54
REMARK SMILES IDX 51 55 65 56 40 57 41 58 50 60 66 61 43 62 32 63 33 64 37 65
REMARK SMILES IDX 34 66 36 67 35 68 54 69 55 70 59 71 56 72 58 73 57 74 44 75
REMARK SMILES IDX 45 76 49 77 46 78 48 79 47 80
REMARK H PARENT 8 21 64 48 42 59
REMARK Flexibility Score: inf
ROOT
ATOM      1  C   UNL A   1      34.621  35.807  33.455  1.00  0.00     0.202 C 
ENDROOT
BRANCH   1   2
ATOM      2  C   UNL A   1      35.823  34.972  33.002  1.00  0.00     0.261 C 
BRANCH   2   3
ATOM      3  O   UNL A   1      36.786  34.796  34.052  1.00  0.00    -0.457 OA
BRANCH   3   4
ATOM      4  C   UNL A   1      36.503  33.773  34.911  1.00  0.00     0.374 C 
ATOM      5  O   UNL A   1      35.644  33.816  35.782  1.00  0.00    -0.242 OA
BRANCH   4   6
ATOM      6  C   UNL A   1      37.248  32.591  34.548  1.00  0.00     0.221 A 
ATOM      7  C   UNL A   1      38.519  32.174  34.952  1.00  0.00     0.067 A 
ATOM      8  C   UNL A   1      38.778  30.974  34.205  1.00  0.00     0.030 A 
ATOM      9  O   UNL A   1      36.699  31.691  33.683  1.00  0.00    -0.448 OA
ATOM     10  C   UNL A   1      37.632  30.732  33.454  1.00  0.00     0.135 A 
ATOM     11  C   UNL A   1      39.836  30.050  34.070  1.00  0.00     0.012 A 
ATOM     12  C   UNL A   1      37.472  29.652  32.584  1.00  0.00     0.048 A 
ATOM     13  C   UNL A   1      39.725  28.978  33.175  1.00  0.00     0.001 A 
ATOM     14  C   UNL A   1      38.556  28.782  32.445  1.00  0.00     0.004 A 
BRANCH   7  15
ATOM     15  C   UNL A   1      39.328  32.840  36.037  1.00  0.00     0.304 C 
BRANCH  15  16
ATOM     16  N   UNL A   1      38.845  32.685  37.422  1.00  0.00    -0.329 N 
ATOM     17  C   UNL A   1      38.473  33.922  38.127  1.00  0.00     0.184 C 
ATOM     18  C   UNL A   1      37.745  33.650  39.474  1.00  0.00     0.065 C 
ATOM     19  C   UNL A   1      36.636  32.623  39.362  1.00  0.00     0.012 C 
ATOM     20  C   UNL A   1      37.873  31.578  37.488  1.00  0.00     0.262 C 
ATOM     21  H   UNL A   1      39.648  32.419  37.990  1.00  0.00     0.348 HD
ATOM     22  C   UNL A   1      37.243  31.335  38.851  1.00  0.00     0.062 C 
BRANCH  17  23
ATOM     23  C   UNL A   1      39.663  34.856  38.521  1.00  0.00     0.061 C 
ATOM     24  C   UNL A   1      39.597  36.356  38.276  1.00  0.00     0.010 C 
ENDBRANCH  17  23
ENDBRANCH  15  16
ENDBRANCH   7  15
ENDBRANCH   4   6
ENDBRANCH   3   4
ENDBRANCH   2   3
ENDBRANCH   1   2
BRANCH   1  25
ATOM     25  O   UNL A   1      34.168  36.829  32.571  1.00  0.00    -0.374 OA
BRANCH  25  26
ATOM     26  C   UNL A   1      32.785  36.844  32.217  1.00  0.00     0.202 C 
BRANCH  26  27
ATOM     27  C   UNL A   1      32.385  36.248  30.862  1.00  0.00     0.261 C 
BRANCH  27  28
ATOM     28  O   UNL A   1      33.531  35.916  30.060  1.00  0.00    -0.460 OA
BRANCH  28  29
ATOM     29  C   UNL A   1      33.355  34.862  29.228  1.00  0.00     0.338 C 
ATOM     30  O   UNL A   1      32.441  34.682  28.442  1.00  0.00    -0.246 OA
BRANCH  29  31
ATOM     31  C   UNL A   1      34.556  34.007  29.248  1.00  0.00     0.060 A 
ATOM     32  C   UNL A   1      34.639  33.037  30.255  1.00  0.00     0.016 A 
ATOM     33  C   UNL A   1      35.610  34.197  28.353  1.00  0.00     0.016 A 
ATOM     34  C   UNL A   1      35.804  32.288  30.406  1.00  0.00     0.010 A 
ATOM     35  C   UNL A   1      36.782  33.452  28.512  1.00  0.00     0.010 A 
ATOM     36  C   UNL A   1      36.898  32.523  29.563  1.00  0.00    -0.014 A 
BRANCH  36  37
ATOM     37  C   UNL A   1      38.207  31.909  29.885  1.00  0.00     0.031 A 
ATOM     38  C   UNL A   1      39.156  32.652  30.786  1.00  0.00     0.074 A 
ATOM     39  C   UNL A   1      38.530  30.690  29.421  1.00  0.00     0.049 A 
ATOM     40  N   UNL A   1      40.352  32.309  31.195  1.00  0.00    -0.248 NA
ATOM     41  C   UNL A   1      38.696  33.955  31.294  1.00  0.00     0.031 C 
ATOM     42  C   UNL A   1      37.678  29.851  28.579  1.00  0.00     0.029 A 
ATOM     43  N   UNL A   1      39.669  29.947  29.596  1.00  0.00    -0.354 N 
ATOM     44  C   UNL A   1      40.786  33.352  32.003  1.00  0.00     0.074 A 
ATOM     45  C   UNL A   1      39.742  34.354  32.001  1.00  0.00     0.031 C 
ATOM     46  C   UNL A   1      38.328  28.706  28.308  1.00  0.00     0.029 A 
ATOM     47  C   UNL A   1      39.650  28.747  28.929  1.00  0.00     0.049 A 
ATOM     48  H   UNL A   1      40.429  30.246  30.147  1.00  0.00     0.167 HD
ATOM     49  C   UNL A   1      41.945  33.463  32.695  1.00  0.00     0.031 A 
ATOM     50  C   UNL A   1      40.600  27.799  28.820  1.00  0.00     0.031 A 
ATOM     51  C   UNL A   1      42.991  32.477  32.684  1.00  0.00     0.049 A 
ATOM     52  C   UNL A   1      41.914  27.984  29.530  1.00  0.00     0.074 A 
ATOM     53  C   UNL A   1      44.203  32.496  33.351  1.00  0.00     0.029 A 
ATOM     54  N   UNL A   1      42.950  31.293  31.962  1.00  0.00    -0.354 N 
ATOM     55  N   UNL A   1      42.304  28.964  30.309  1.00  0.00    -0.248 NA
ATOM     56  C   UNL A   1      42.915  26.921  29.355  1.00  0.00     0.031 C 
ATOM     57  C   UNL A   1      44.918  31.349  32.992  1.00  0.00     0.029 A 
ATOM     58  C   UNL A   1      44.125  30.586  32.150  1.00  0.00     0.049 A 
ATOM     59  H   UNL A   1      42.197  31.000  31.400  1.00  0.00     0.167 HD
ATOM     60  C   UNL A   1      43.580  28.621  30.740  1.00  0.00     0.074 A 
ATOM     61  C   UNL A   1      43.891  27.337  30.149  1.00  0.00     0.031 C 
ATOM     62  C   UNL A   1      44.419  29.307  31.556  1.00  0.00     0.031 A 
BRANCH  49  63
ATOM     63  C   UNL A   1      42.152  34.718  33.496  1.00  0.00    -0.014 A 
ATOM     64  C   UNL A   1      41.725  34.808  34.831  1.00  0.00     0.009 A 
ATOM     65  C   UNL A   1      42.807  35.816  32.918  1.00  0.00     0.009 A 
ATOM     66  C   UNL A   1      41.919  35.985  35.558  1.00  0.00     0.001 A 
ATOM     67  C   UNL A   1      43.025  36.980  33.656  1.00  0.00     0.001 A 
ATOM     68  C   UNL A   1      42.574  37.067  34.972  1.00  0.00     0.000 A 
ENDBRANCH  49  63
BRANCH  50  69
ATOM     69  C   UNL A   1      40.357  26.591  27.987  1.00  0.00    -0.014 A 
ATOM     70  C   UNL A   1      39.618  25.510  28.490  1.00  0.00     0.009 A 
ATOM     71  C   UNL A   1      40.893  26.503  26.692  1.00  0.00     0.009 A 
ATOM     72  C   UNL A   1      39.446  24.354  27.724  1.00  0.00     0.001 A 
ATOM     73  C   UNL A   1      40.693  25.358  25.918  1.00  0.00     0.001 A 
ATOM     74  C   UNL A   1      39.980  24.281  26.438  1.00  0.00     0.000 A 
ENDBRANCH  50  69
BRANCH  62  75
ATOM     75  C   UNL A   1      45.734  28.660  31.892  1.00  0.00    -0.014 A 
ATOM     76  C   UNL A   1      45.862  27.785  32.981  1.00  0.00     0.009 A 
ATOM     77  C   UNL A   1      46.854  28.909  31.083  1.00  0.00     0.009 A 
ATOM     78  C   UNL A   1      47.096  27.200  33.275  1.00  0.00     0.001 A 
ATOM     79  C   UNL A   1      48.079  28.299  31.361  1.00  0.00     0.001 A 
ATOM     80  C   UNL A   1      48.202  27.455  32.462  1.00  0.00     0.000 A 
ENDBRANCH  62  75
ENDBRANCH  36  37
ENDBRANCH  29  31
ENDBRANCH  28  29
ENDBRANCH  27  28
ENDBRANCH  26  27
ENDBRANCH  25  26
ENDBRANCH   1  25
TORSDOF 17
ENDMDL
MODEL 2
REMARK VINA RESULT:      -9.0      5.440     11.757
REMARK SMILES CC[C@@H]1CCCC[N@H+]1Cc1c(C(=O)OCCOCCOC(=O)c2ccc(-c3c4nc(c(-c5ccccc5)c5ccc([nH]5)c(-c5ccccc5)c5nc(c(-c6ccccc6)c6ccc3[nH]6)C=C5)C=C4)cc2)oc2ccccc12
REMARK SMILES IDX 16 1 15 2 14 3 12 4 13 5 11 6 10 7 77 8 71 9 72 10 76 11
REMARK SMILES IDX 73 12 75 13 74 14 9 15 8 16 3 17 4 18 5 19 7 20 6 22 2 23
REMARK SMILES IDX 1 24 17 25 18 26 19 27 20 28 21 29 22 30 23 31 24 32 70 33
REMARK SMILES IDX 25 34 69 35 26 36 27 37 28 38 63 39 29 40 68 41 62 42 64 43
REMARK SMILES IDX 30 44 67 45 61 46 60 47 31 49 53 50 38 51 52 52 39 53 42 54
REMARK SMILES IDX 51 55 65 56 40 57 41 58 50 60 66 61 43 62 32 63 33 64 37 65
REMARK SMILES IDX 34 66 36 67 35 68 54 69 55 70 59 71 56 72 58 73 57 74 44 75
REMARK SMILES IDX 45 76 49 77 46 78 48 79 47 80
REMARK H PARENT 8 21 64 48 42 59
REMARK Flexibility Score: inf
ROOT
ATOM      1  C   UNL A   1      40.531  21.079  26.743  1.00  0.00     0.202 C 
ENDROOT
BRANCH   1   2
ATOM      2  C   UNL A   1      39.511  22.221  26.677  1.00  0.00     0.261 C 
BRANCH   2   3
ATOM      3  O   UNL A   1      38.483  21.974  25.708  1.00  0.00    -0.457 OA
BRANCH   3   4
ATOM      4  C   UNL A   1      37.429  22.839  25.771  1.00  0.00     0.374 C 
ATOM      5  O   UNL A   1      37.510  24.007  26.132  1.00  0.00    -0.242 OA
BRANCH   4   6
ATOM      6  C   UNL A   1      36.245  22.233  25.210  1.00  0.00     0.221 A 
ATOM      7  C   UNL A   1      35.193  22.814  24.499  1.00  0.00     0.067 A 
ATOM      8  C   UNL A   1      34.256  21.747  24.271  1.00  0.00     0.030 A 
ATOM      9  O   UNL A   1      36.047  20.891  25.354  1.00  0.00    -0.448 OA
ATOM     10  C   UNL A   1      34.835  20.605  24.813  1.00  0.00     0.135 A 
ATOM     11  C   UNL A   1      32.989  21.597  23.669  1.00  0.00     0.012 A 
ATOM     12  C   UNL A   1      34.244  19.339  24.803  1.00  0.00     0.048 A 
ATOM     13  C   UNL A   1      32.349  20.351  23.677  1.00  0.00     0.001 A 
ATOM     14  C   UNL A   1      32.971  19.238  24.234  1.00  0.00     0.004 A 
BRANCH   7  15
ATOM     15  C   UNL A   1      35.181  24.241  24.010  1.00  0.00     0.304 C 
BRANCH  15  16
ATOM     16  N   UNL A   1      34.025  25.071  24.395  1.00  0.00    -0.329 N 
ATOM     17  C   UNL A   1      32.932  25.166  23.414  1.00  0.00     0.184 C 
ATOM     18  C   UNL A   1      31.660  25.844  23.996  1.00  0.00     0.065 C 
ATOM     19  C   UNL A   1      31.254  25.299  25.351  1.00  0.00     0.012 C 
ATOM     20  C   UNL A   1      33.632  24.762  25.782  1.00  0.00     0.262 C 
ATOM     21  H   UNL A   1      34.334  26.042  24.376  1.00  0.00     0.348 HD
ATOM     22  C   UNL A   1      32.411  25.505  26.302  1.00  0.00     0.062 C 
BRANCH  17  23
ATOM     23  C   UNL A   1      33.252  25.997  22.129  1.00  0.00     0.061 C 
ATOM     24  C   UNL A   1      32.571  25.687  20.805  1.00  0.00     0.010 C 
ENDBRANCH  17  23
ENDBRANCH  15  16
ENDBRANCH   7  15
ENDBRANCH   4   6
ENDBRANCH   3   4
ENDBRANCH   2   3
ENDBRANCH   1   2
BRANCH   1  25
ATOM     25  O   UNL A   1      41.484  20.996  25.686  1.00  0.00    -0.374 OA
BRANCH  25  26
ATOM     26  C   UNL A   1      42.860  20.850  26.036  1.00  0.00     0.202 C 
BRANCH  26  27
ATOM     27  C   UNL A   1      43.865  21.826  25.412  1.00  0.00     0.261 C 
BRANCH  27  28
ATOM     28  O   UNL A   1      43.225  23.013  24.912  1.00  0.00    -0.460 OA
BRANCH  28  29
ATOM     29  C   UNL A   1      43.932  24.155  25.087  1.00  0.00     0.338 C 
ATOM     30  O   UNL A   1      44.949  24.493  24.508  1.00  0.00    -0.246 OA
BRANCH  29  31
ATOM     31  C   UNL A   1      43.184  25.072  25.966  1.00  0.00     0.060 A 
ATOM     32  C   UNL A   1      43.719  26.351  26.166  1.00  0.00     0.016 A 
ATOM     33  C   UNL A   1      42.030  24.669  26.640  1.00  0.00     0.016 A 
ATOM     34  C   UNL A   1      43.131  27.216  27.086  1.00  0.00     0.010 A 
ATOM     35  C   UNL A   1      41.447  25.534  27.570  1.00  0.00     0.010 A 
ATOM     36  C   UNL A   1      42.018  26.795  27.825  1.00  0.00    -0.014 A 
BRANCH  36  37
ATOM     37  C   UNL A   1      41.555  27.614  28.970  1.00  0.00     0.031 A 
ATOM     38  C   UNL A   1      42.297  27.523  30.275  1.00  0.00     0.074 A 
ATOM     39  C   UNL A   1      40.519  28.460  28.839  1.00  0.00     0.049 A 
ATOM     40  N   UNL A   1      42.066  28.141  31.406  1.00  0.00    -0.248 NA
ATOM     41  C   UNL A   1      43.455  26.614  30.311  1.00  0.00     0.031 C 
ATOM     42  C   UNL A   1      39.750  28.673  27.613  1.00  0.00     0.029 A 
ATOM     43  N   UNL A   1      39.937  29.299  29.754  1.00  0.00    -0.354 N 
ATOM     44  C   UNL A   1      43.044  27.695  32.285  1.00  0.00     0.074 A 
ATOM     45  C   UNL A   1      43.850  26.730  31.570  1.00  0.00     0.031 C 
ATOM     46  C   UNL A   1      38.791  29.585  27.855  1.00  0.00     0.029 A 
ATOM     47  C   UNL A   1      38.862  29.993  29.256  1.00  0.00     0.049 A 
ATOM     48  H   UNL A   1      40.260  29.395  30.679  1.00  0.00     0.167 HD
ATOM     49  C   UNL A   1      43.260  28.062  33.571  1.00  0.00     0.031 A 
ATOM     50  C   UNL A   1      38.020  30.846  29.870  1.00  0.00     0.031 A 
ATOM     51  C   UNL A   1      42.449  29.008  34.289  1.00  0.00     0.049 A 
ATOM     52  C   UNL A   1      38.230  31.175  31.324  1.00  0.00     0.074 A 
ATOM     53  C   UNL A   1      42.586  29.446  35.594  1.00  0.00     0.029 A 
ATOM     54  N   UNL A   1      41.344  29.657  33.762  1.00  0.00    -0.354 N 
ATOM     55  N   UNL A   1      39.171  30.763  32.139  1.00  0.00    -0.248 NA
ATOM     56  C   UNL A   1      37.266  32.099  31.939  1.00  0.00     0.031 C 
ATOM     57  C   UNL A   1      41.532  30.323  35.874  1.00  0.00     0.029 A 
ATOM     58  C   UNL A   1      40.775  30.476  34.724  1.00  0.00     0.049 A 
ATOM     59  H   UNL A   1      41.012  29.552  32.842  1.00  0.00     0.167 HD
ATOM     60  C   UNL A   1      38.931  31.401  33.350  1.00  0.00     0.074 A 
ATOM     61  C   UNL A   1      37.765  32.238  33.158  1.00  0.00     0.031 C 
ATOM     62  C   UNL A   1      39.616  31.305  34.516  1.00  0.00     0.031 A 
BRANCH  49  63
ATOM     63  C   UNL A   1      44.406  27.408  34.291  1.00  0.00    -0.014 A 
ATOM     64  C   UNL A   1      45.684  27.989  34.304  1.00  0.00     0.009 A 
ATOM     65  C   UNL A   1      44.197  26.209  34.990  1.00  0.00     0.009 A 
ATOM     66  C   UNL A   1      46.739  27.362  34.974  1.00  0.00     0.001 A 
ATOM     67  C   UNL A   1      45.247  25.600  35.681  1.00  0.00     0.001 A 
ATOM     68  C   UNL A   1      46.517  26.172  35.665  1.00  0.00     0.000 A 
ENDBRANCH  49  63
BRANCH  50  69
ATOM     69  C   UNL A   1      36.882  31.441  29.120  1.00  0.00    -0.014 A 
ATOM     70  C   UNL A   1      36.942  32.763  28.654  1.00  0.00     0.009 A 
ATOM     71  C   UNL A   1      35.715  30.695  28.893  1.00  0.00     0.009 A 
ATOM     72  C   UNL A   1      35.845  33.334  28.004  1.00  0.00     0.001 A 
ATOM     73  C   UNL A   1      34.632  31.259  28.216  1.00  0.00     0.001 A 
ATOM     74  C   UNL A   1      34.694  32.581  27.782  1.00  0.00     0.000 A 
ENDBRANCH  50  69
BRANCH  62  75
ATOM     75  C   UNL A   1      39.148  32.160  35.662  1.00  0.00    -0.014 A 
ATOM     76  C   UNL A   1      39.588  33.483  35.814  1.00  0.00     0.009 A 
ATOM     77  C   UNL A   1      38.226  31.638  36.583  1.00  0.00     0.009 A 
ATOM     78  C   UNL A   1      39.142  34.255  36.889  1.00  0.00     0.001 A 
ATOM     79  C   UNL A   1      37.759  32.422  37.639  1.00  0.00     0.001 A 
ATOM     80  C   UNL A   1      38.225  33.725  37.798  1.00  0.00     0.000 A 
ENDBRANCH  62  75
ENDBRANCH  36  37
ENDBRANCH  29  31
ENDBRANCH  28  29
ENDBRANCH  27  28
ENDBRANCH  26  27
ENDBRANCH  25  26
ENDBRANCH   1  25
TORSDOF 17
ENDMDL
MODEL 3
REMARK VINA RESULT:      -8.8      0.734      5.915
REMARK SMILES CC[C@@H]1CCCC[N@H+]1Cc1c(C(=O)OCCOCCOC(=O)c2ccc(-c3c4nc(c(-c5ccccc5)c5ccc([nH]5)c(-c5ccccc5)c5nc(c(-c6ccccc6)c6ccc3[nH]6)C=C5)C=C4)cc2)oc2ccccc12
REMARK SMILES IDX 16 1 15 2 14 3 12 4 13 5 11 6 10 7 77 8 71 9 72 10 76 11
REMARK SMILES IDX 73 12 75 13 74 14 9 15 8 16 3 17 4 18 5 19 7 20 6 22 2 23
REMARK SMILES IDX 1 24 17 25 18 26 19 27 20 28 21 29 22 30 23 31 24 32 70 33
REMARK SMILES IDX 25 34 69 35 26 36 27 37 28 38 63 39 29 40 68 41 62 42 64 43
REMARK SMILES IDX 30 44 67 45 61 46 60 47 31 49 53 50 38 51 52 52 39 53 42 54
REMARK SMILES IDX 51 55 65 56 40 57 41 58 50 60 66 61 43 62 32 63 33 64 37 65
REMARK SMILES IDX 34 66 36 67 35 68 54 69 55 70 59 71 56 72 58 73 57 74 44 75
REMARK SMILES IDX 45 76 49 77 46 78 48 79 47 80
REMARK H PARENT 8 21 64 48 42 59
REMARK Flexibility Score: inf
ROOT
ATOM      1  C   UNL A   1      34.714  35.752  33.387  1.00  0.00     0.202 C 
ENDROOT
BRANCH   1   2
ATOM      2  C   UNL A   1      35.931  34.976  32.873  1.00  0.00     0.261 C 
BRANCH   2   3
ATOM      3  O   UNL A   1      36.949  34.839  33.875  1.00  0.00    -0.457 OA
BRANCH   3   4
ATOM      4  C   UNL A   1      36.755  33.800  34.738  1.00  0.00     0.374 C 
ATOM      5  O   UNL A   1      35.947  33.803  35.658  1.00  0.00    -0.242 OA
BRANCH   4   6
ATOM      6  C   UNL A   1      37.520  32.649  34.320  1.00  0.00     0.221 A 
ATOM      7  C   UNL A   1      38.898  32.427  34.360  1.00  0.00     0.067 A 
ATOM      8  C   UNL A   1      39.094  31.149  33.734  1.00  0.00     0.030 A 
ATOM      9  O   UNL A   1      36.874  31.570  33.793  1.00  0.00    -0.448 OA
ATOM     10  C   UNL A   1      37.825  30.678  33.414  1.00  0.00     0.135 A 
ATOM     11  C   UNL A   1      40.185  30.319  33.400  1.00  0.00     0.012 A 
ATOM     12  C   UNL A   1      37.571  29.457  32.785  1.00  0.00     0.048 A 
ATOM     13  C   UNL A   1      39.969  29.107  32.731  1.00  0.00     0.001 A 
ATOM     14  C   UNL A   1      38.679  28.682  32.432  1.00  0.00     0.004 A 
BRANCH   7  15
ATOM     15  C   UNL A   1      39.887  33.339  35.045  1.00  0.00     0.304 C 
BRANCH  15  16
ATOM     16  N   UNL A   1      39.732  33.522  36.499  1.00  0.00    -0.329 N 
ATOM     17  C   UNL A   1      39.147  34.798  36.940  1.00  0.00     0.184 C 
ATOM     18  C   UNL A   1      38.791  34.805  38.453  1.00  0.00     0.065 C 
ATOM     19  C   UNL A   1      38.033  33.571  38.899  1.00  0.00     0.012 C 
ATOM     20  C   UNL A   1      39.159  32.301  37.096  1.00  0.00     0.262 C 
ATOM     21  H   UNL A   1      40.667  33.638  36.887  1.00  0.00     0.348 HD
ATOM     22  C   UNL A   1      38.888  32.363  38.591  1.00  0.00     0.062 C 
BRANCH  17  23
ATOM     23  C   UNL A   1      40.061  36.054  36.759  1.00  0.00     0.061 C 
ATOM     24  C   UNL A   1      41.115  36.413  37.795  1.00  0.00     0.010 C 
ENDBRANCH  17  23
ENDBRANCH  15  16
ENDBRANCH   7  15
ENDBRANCH   4   6
ENDBRANCH   3   4
ENDBRANCH   2   3
ENDBRANCH   1   2
BRANCH   1  25
ATOM     25  O   UNL A   1      34.141  36.720  32.512  1.00  0.00    -0.374 OA
BRANCH  25  26
ATOM     26  C   UNL A   1      32.755  36.598  32.194  1.00  0.00     0.202 C 
BRANCH  26  27
ATOM     27  C   UNL A   1      32.378  35.863  30.902  1.00  0.00     0.261 C 
BRANCH  27  28
ATOM     28  O   UNL A   1      33.513  35.670  30.040  1.00  0.00    -0.460 OA
BRANCH  28  29
ATOM     29  C   UNL A   1      33.417  34.610  29.203  1.00  0.00     0.338 C 
ATOM     30  O   UNL A   1      32.522  34.370  28.411  1.00  0.00    -0.246 OA
BRANCH  29  31
ATOM     31  C   UNL A   1      34.675  33.842  29.226  1.00  0.00     0.060 A 
ATOM     32  C   UNL A   1      34.884  32.980  30.310  1.00  0.00     0.016 A 
ATOM     33  C   UNL A   1      35.661  34.015  28.252  1.00  0.00     0.016 A 
ATOM     34  C   UNL A   1      36.106  32.327  30.456  1.00  0.00     0.010 A 
ATOM     35  C   UNL A   1      36.890  33.367  28.406  1.00  0.00     0.010 A 
ATOM     36  C   UNL A   1      37.130  32.552  29.528  1.00  0.00    -0.014 A 
BRANCH  36  37
ATOM     37  C   UNL A   1      38.496  32.059  29.822  1.00  0.00     0.031 A 
ATOM     38  C   UNL A   1      38.894  30.691  29.341  1.00  0.00     0.074 A 
ATOM     39  C   UNL A   1      39.384  32.833  30.469  1.00  0.00     0.049 A 
ATOM     40  N   UNL A   1      40.030  30.057  29.490  1.00  0.00    -0.248 NA
ATOM     41  C   UNL A   1      37.877  29.936  28.592  1.00  0.00     0.031 C 
ATOM     42  C   UNL A   1      39.135  34.194  30.944  1.00  0.00     0.029 A 
ATOM     43  N   UNL A   1      40.681  32.579  30.836  1.00  0.00    -0.354 N 
ATOM     44  C   UNL A   1      39.863  28.832  28.857  1.00  0.00     0.074 A 
ATOM     45  C   UNL A   1      38.507  28.796  28.352  1.00  0.00     0.031 C 
ATOM     46  C   UNL A   1      40.245  34.655  31.545  1.00  0.00     0.029 A 
ATOM     47  C   UNL A   1      41.269  33.613  31.524  1.00  0.00     0.049 A 
ATOM     48  H   UNL A   1      41.146  31.737  30.627  1.00  0.00     0.167 HD
ATOM     49  C   UNL A   1      40.759  27.828  28.700  1.00  0.00     0.031 A 
ATOM     50  C   UNL A   1      42.489  33.697  32.087  1.00  0.00     0.031 A 
ATOM     51  C   UNL A   1      42.101  27.855  29.216  1.00  0.00     0.049 A 
ATOM     52  C   UNL A   1      43.440  32.536  31.971  1.00  0.00     0.074 A 
ATOM     53  C   UNL A   1      43.086  26.889  29.110  1.00  0.00     0.029 A 
ATOM     54  N   UNL A   1      42.645  28.903  29.942  1.00  0.00    -0.354 N 
ATOM     55  N   UNL A   1      43.277  31.391  31.352  1.00  0.00    -0.248 NA
ATOM     56  C   UNL A   1      44.749  32.685  32.623  1.00  0.00     0.031 C 
ATOM     57  C   UNL A   1      44.209  27.330  29.817  1.00  0.00     0.029 A 
ATOM     58  C   UNL A   1      43.945  28.597  30.310  1.00  0.00     0.049 A 
ATOM     59  H   UNL A   1      42.177  29.740  30.164  1.00  0.00     0.167 HD
ATOM     60  C   UNL A   1      44.472  30.699  31.513  1.00  0.00     0.074 A 
ATOM     61  C   UNL A   1      45.354  31.559  32.275  1.00  0.00     0.031 C 
ATOM     62  C   UNL A   1      44.810  29.465  31.067  1.00  0.00     0.031 A 
BRANCH  49  63
ATOM     63  C   UNL A   1      40.299  26.602  27.963  1.00  0.00    -0.014 A 
ATOM     64  C   UNL A   1      40.663  26.376  26.626  1.00  0.00     0.009 A 
ATOM     65  C   UNL A   1      39.513  25.645  28.624  1.00  0.00     0.009 A 
ATOM     66  C   UNL A   1      40.220  25.234  25.955  1.00  0.00     0.001 A 
ATOM     67  C   UNL A   1      39.095  24.491  27.959  1.00  0.00     0.001 A 
ATOM     68  C   UNL A   1      39.441  24.290  26.624  1.00  0.00     0.000 A 
ENDBRANCH  49  63
BRANCH  50  69
ATOM     69  C   UNL A   1      42.883  34.922  32.833  1.00  0.00    -0.014 A 
ATOM     70  C   UNL A   1      43.420  36.030  32.161  1.00  0.00     0.009 A 
ATOM     71  C   UNL A   1      42.753  34.973  34.230  1.00  0.00     0.009 A 
ATOM     72  C   UNL A   1      43.844  37.153  32.876  1.00  0.00     0.001 A 
ATOM     73  C   UNL A   1      43.151  36.109  34.939  1.00  0.00     0.001 A 
ATOM     74  C   UNL A   1      43.706  37.193  34.263  1.00  0.00     0.000 A 
ENDBRANCH  50  69
BRANCH  62  75
ATOM     75  C   UNL A   1      46.208  28.988  31.354  1.00  0.00    -0.014 A 
ATOM     76  C   UNL A   1      47.266  29.254  30.473  1.00  0.00     0.009 A 
ATOM     77  C   UNL A   1      46.470  28.289  32.543  1.00  0.00     0.009 A 
ATOM     78  C   UNL A   1      48.554  28.797  30.760  1.00  0.00     0.001 A 
ATOM     79  C   UNL A   1      47.764  27.860  32.842  1.00  0.00     0.001 A 
ATOM     80  C   UNL A   1      48.802  28.104  31.946  1.00  0.00     0.000 A 
ENDBRANCH  62  75
ENDBRANCH  36  37
ENDBRANCH  29  31
ENDBRANCH  28  29
ENDBRANCH  27  28
ENDBRANCH  26  27
ENDBRANCH  25  26
ENDBRANCH   1  25
TORSDOF 17
ENDMDL
