MODEL 1
REMARK VINA RESULT:     -11.9      0.000      0.000
REMARK SMILES Cc1c(CC(=O)OCCOCCOC(=O)c2ccc(-c3c4nc(c(-c5ccccc5)c5ccc([nH]5)c(-c5ccccc5)c5nc(c(-c6ccccc6)c6ccc3[nH]6)C=C5)C=C4)cc2)cc(-c2ccccc2)cc1-c1ccccc1
REMARK SMILES IDX 10 1 9 2 8 3 7 4 5 5 6 6 4 7 3 8 1 9 2 10 73 11 64 12 72 13
REMARK SMILES IDX 65 14 74 15 75 16 79 17 76 18 78 19 77 20 66 21 67 22 71 23
REMARK SMILES IDX 68 24 70 25 69 26 11 27 12 28 13 29 14 30 15 31 16 32 17 33
REMARK SMILES IDX 63 34 18 35 62 36 19 37 20 38 21 39 56 40 22 41 61 42 55 43
REMARK SMILES IDX 57 44 23 45 60 46 54 47 53 48 24 50 46 51 31 52 45 53 32 54
REMARK SMILES IDX 35 55 44 56 58 57 33 58 34 59 43 61 59 62 36 63 25 64 26 65
REMARK SMILES IDX 30 66 27 67 29 68 28 69 47 70 48 71 52 72 49 73 51 74 50 75
REMARK SMILES IDX 37 76 38 77 42 78 39 79 41 80 40 81
REMARK H PARENT 57 49 35 60
REMARK Flexibility Score: inf
ROOT
ATOM      1  O   UNL A   1      31.356  27.450  25.475  1.00  0.00    -0.374 OA
ENDROOT
BRANCH   1   2
ATOM      2  C   UNL A   1      30.914  26.144  25.811  1.00  0.00     0.202 C 
BRANCH   2   3
ATOM      3  C   UNL A   1      32.103  25.243  25.765  1.00  0.00     0.261 C 
BRANCH   3   4
ATOM      4  O   UNL A   1      32.243  24.561  24.522  1.00  0.00    -0.463 OA
BRANCH   4   5
ATOM      5  C   UNL A   1      33.299  24.922  23.726  1.00  0.00     0.310 C 
ATOM      6  O   UNL A   1      33.890  25.977  23.763  1.00  0.00    -0.252 OA
BRANCH   5   7
ATOM      7  C   UNL A   1      33.635  23.771  22.790  1.00  0.00     0.158 C 
BRANCH   7   8
ATOM      8  C   UNL A   1      34.405  22.686  23.532  1.00  0.00    -0.033 A 
ATOM      9  C   UNL A   1      32.383  21.161  23.462  1.00  0.00     0.045 C 
ATOM     10  C   UNL A   1      33.807  21.456  23.888  1.00  0.00    -0.039 A 
ATOM     11  C   UNL A   1      34.532  20.549  24.699  1.00  0.00    -0.015 A 
ATOM     12  C   UNL A   1      35.654  23.039  24.080  1.00  0.00     0.013 A 
ATOM     13  C   UNL A   1      35.739  20.975  25.296  1.00  0.00     0.017 A 
ATOM     14  C   UNL A   1      36.301  22.222  25.013  1.00  0.00    -0.017 A 
BRANCH  11  15
ATOM     15  C   UNL A   1      34.127  19.141  24.843  1.00  0.00    -0.018 A 
ATOM     16  C   UNL A   1      34.807  18.086  24.219  1.00  0.00     0.009 A 
ATOM     17  C   UNL A   1      32.970  18.841  25.587  1.00  0.00     0.009 A 
ATOM     18  C   UNL A   1      34.338  16.775  24.336  1.00  0.00     0.001 A 
ATOM     19  C   UNL A   1      32.510  17.534  25.716  1.00  0.00     0.001 A 
ATOM     20  C   UNL A   1      33.191  16.501  25.084  1.00  0.00     0.000 A 
ENDBRANCH  11  15
BRANCH  14  21
ATOM     21  C   UNL A   1      37.532  22.679  25.669  1.00  0.00    -0.018 A 
ATOM     22  C   UNL A   1      38.641  21.829  25.831  1.00  0.00     0.009 A 
ATOM     23  C   UNL A   1      37.606  23.970  26.201  1.00  0.00     0.009 A 
ATOM     24  C   UNL A   1      39.761  22.236  26.561  1.00  0.00     0.001 A 
ATOM     25  C   UNL A   1      38.736  24.390  26.905  1.00  0.00     0.001 A 
ATOM     26  C   UNL A   1      39.804  23.518  27.103  1.00  0.00     0.000 A 
ENDBRANCH  14  21
ENDBRANCH   7   8
ENDBRANCH   5   7
ENDBRANCH   4   5
ENDBRANCH   3   4
ENDBRANCH   2   3
ENDBRANCH   1   2
BRANCH   1  27
ATOM     27  C   UNL A   1      32.412  27.957  26.276  1.00  0.00     0.202 C 
BRANCH  27  28
ATOM     28  C   UNL A   1      33.344  28.968  25.578  1.00  0.00     0.261 C 
BRANCH  28  29
ATOM     29  O   UNL A   1      34.327  29.476  26.504  1.00  0.00    -0.460 OA
BRANCH  29  30
ATOM     30  C   UNL A   1      33.936  30.522  27.288  1.00  0.00     0.338 C 
ATOM     31  O   UNL A   1      32.981  31.252  27.074  1.00  0.00    -0.246 OA
BRANCH  30  32
ATOM     32  C   UNL A   1      35.033  30.846  28.248  1.00  0.00     0.060 A 
ATOM     33  C   UNL A   1      35.943  31.882  27.964  1.00  0.00     0.016 A 
ATOM     34  C   UNL A   1      35.364  29.874  29.186  1.00  0.00     0.016 A 
ATOM     35  C   UNL A   1      37.242  31.845  28.498  1.00  0.00     0.010 A 
ATOM     36  C   UNL A   1      36.678  29.763  29.571  1.00  0.00     0.010 A 
ATOM     37  C   UNL A   1      37.635  30.731  29.236  1.00  0.00    -0.014 A 
BRANCH  37  38
ATOM     38  C   UNL A   1      39.004  30.399  29.654  1.00  0.00     0.031 A 
ATOM     39  C   UNL A   1      39.648  29.241  28.993  1.00  0.00     0.074 A 
ATOM     40  C   UNL A   1      39.753  31.199  30.458  1.00  0.00     0.049 A 
ATOM     41  N   UNL A   1      40.564  28.524  29.543  1.00  0.00    -0.248 NA
ATOM     42  C   UNL A   1      39.277  28.753  27.664  1.00  0.00     0.031 C 
ATOM     43  C   UNL A   1      41.202  31.187  30.666  1.00  0.00     0.029 A 
ATOM     44  N   UNL A   1      39.340  32.221  31.320  1.00  0.00    -0.354 N 
ATOM     45  C   UNL A   1      41.126  27.758  28.546  1.00  0.00     0.074 A 
ATOM     46  C   UNL A   1      40.209  27.828  27.443  1.00  0.00     0.031 C 
ATOM     47  C   UNL A   1      41.501  31.892  31.776  1.00  0.00     0.029 A 
ATOM     48  C   UNL A   1      40.245  32.308  32.383  1.00  0.00     0.049 A 
ATOM     49  H   UNL A   1      38.543  32.786  31.198  1.00  0.00     0.167 HD
ATOM     50  C   UNL A   1      42.400  27.303  28.696  1.00  0.00     0.031 A 
ATOM     51  C   UNL A   1      39.822  32.162  33.667  1.00  0.00     0.031 A 
ATOM     52  C   UNL A   1      42.966  27.751  29.975  1.00  0.00     0.049 A 
ATOM     53  C   UNL A   1      40.447  30.911  34.207  1.00  0.00     0.074 A 
ATOM     54  C   UNL A   1      43.857  28.763  30.289  1.00  0.00     0.029 A 
ATOM     55  N   UNL A   1      42.341  27.396  31.171  1.00  0.00    -0.354 N 
ATOM     56  N   UNL A   1      40.909  29.981  33.417  1.00  0.00    -0.248 NA
ATOM     57  C   UNL A   1      40.670  30.613  35.616  1.00  0.00     0.031 C 
ATOM     58  C   UNL A   1      43.701  29.070  31.671  1.00  0.00     0.029 A 
ATOM     59  C   UNL A   1      42.742  28.223  32.204  1.00  0.00     0.049 A 
ATOM     60  H   UNL A   1      41.699  26.655  31.266  1.00  0.00     0.167 HD
ATOM     61  C   UNL A   1      41.559  29.047  34.147  1.00  0.00     0.074 A 
ATOM     62  C   UNL A   1      41.338  29.446  35.528  1.00  0.00     0.031 C 
ATOM     63  C   UNL A   1      42.236  28.025  33.560  1.00  0.00     0.031 A 
BRANCH  50  64
ATOM     64  C   UNL A   1      43.220  26.731  27.559  1.00  0.00    -0.014 A 
ATOM     65  C   UNL A   1      43.963  27.598  26.739  1.00  0.00     0.009 A 
ATOM     66  C   UNL A   1      43.295  25.366  27.221  1.00  0.00     0.009 A 
ATOM     67  C   UNL A   1      44.673  27.140  25.619  1.00  0.00     0.001 A 
ATOM     68  C   UNL A   1      43.967  24.904  26.081  1.00  0.00     0.001 A 
ATOM     69  C   UNL A   1      44.657  25.794  25.276  1.00  0.00     0.000 A 
ENDBRANCH  50  64
BRANCH  51  70
ATOM     70  C   UNL A   1      38.425  32.669  33.861  1.00  0.00    -0.014 A 
ATOM     71  C   UNL A   1      38.225  34.067  33.751  1.00  0.00     0.009 A 
ATOM     72  C   UNL A   1      37.315  31.833  33.675  1.00  0.00     0.009 A 
ATOM     73  C   UNL A   1      37.000  34.595  33.319  1.00  0.00     0.001 A 
ATOM     74  C   UNL A   1      36.087  32.369  33.252  1.00  0.00     0.001 A 
ATOM     75  C   UNL A   1      35.943  33.740  33.031  1.00  0.00     0.000 A 
ENDBRANCH  51  70
BRANCH  63  76
ATOM     76  C   UNL A   1      42.537  26.751  34.275  1.00  0.00    -0.014 A 
ATOM     77  C   UNL A   1      41.576  26.075  35.037  1.00  0.00     0.009 A 
ATOM     78  C   UNL A   1      43.760  26.098  34.032  1.00  0.00     0.009 A 
ATOM     79  C   UNL A   1      41.848  24.824  35.589  1.00  0.00     0.001 A 
ATOM     80  C   UNL A   1      44.012  24.825  34.534  1.00  0.00     0.001 A 
ATOM     81  C   UNL A   1      43.063  24.196  35.329  1.00  0.00     0.000 A 
ENDBRANCH  63  76
ENDBRANCH  37  38
ENDBRANCH  30  32
ENDBRANCH  29  30
ENDBRANCH  28  29
ENDBRANCH  27  28
ENDBRANCH   1  27
TORSDOF 17
ENDMDL
MODEL 2
REMARK VINA RESULT:     -11.5      1.326      2.138
REMARK SMILES Cc1c(CC(=O)OCCOCCOC(=O)c2ccc(-c3c4nc(c(-c5ccccc5)c5ccc([nH]5)c(-c5ccccc5)c5nc(c(-c6ccccc6)c6ccc3[nH]6)C=C5)C=C4)cc2)cc(-c2ccccc2)cc1-c1ccccc1
REMARK SMILES IDX 10 1 9 2 8 3 7 4 5 5 6 6 4 7 3 8 1 9 2 10 73 11 64 12 72 13
REMARK SMILES IDX 65 14 74 15 75 16 79 17 76 18 78 19 77 20 66 21 67 22 71 23
REMARK SMILES IDX 68 24 70 25 69 26 11 27 12 28 13 29 14 30 15 31 16 32 17 33
REMARK SMILES IDX 63 34 18 35 62 36 19 37 20 38 21 39 56 40 22 41 61 42 55 43
REMARK SMILES IDX 57 44 23 45 60 46 54 47 53 48 24 50 46 51 31 52 45 53 32 54
REMARK SMILES IDX 35 55 44 56 58 57 33 58 34 59 43 61 59 62 36 63 25 64 26 65
REMARK SMILES IDX 30 66 27 67 29 68 28 69 47 70 48 71 52 72 49 73 51 74 50 75
REMARK SMILES IDX 37 76 38 77 42 78 39 79 41 80 40 81
REMARK H PARENT 57 49 35 60
REMARK Flexibility Score: inf
ROOT
ATOM      1  O   UNL A   1      33.392  29.060  24.990  1.00  0.00    -0.374 OA
ENDROOT
BRANCH   1   2
ATOM      2  C   UNL A   1      32.586  28.003  24.491  1.00  0.00     0.202 C 
BRANCH   2   3
ATOM      3  C   UNL A   1      33.395  26.750  24.563  1.00  0.00     0.261 C 
BRANCH   3   4
ATOM      4  O   UNL A   1      33.136  25.853  23.487  1.00  0.00    -0.463 OA
BRANCH   4   5
ATOM      5  C   UNL A   1      32.800  24.565  23.814  1.00  0.00     0.310 C 
ATOM      6  O   UNL A   1      32.118  24.224  24.754  1.00  0.00    -0.252 OA
BRANCH   5   7
ATOM      7  C   UNL A   1      33.406  23.616  22.792  1.00  0.00     0.158 C 
BRANCH   7   8
ATOM      8  C   UNL A   1      34.183  22.507  23.487  1.00  0.00    -0.033 A 
ATOM      9  C   UNL A   1      32.151  20.996  23.413  1.00  0.00     0.045 C 
ATOM     10  C   UNL A   1      33.584  21.270  23.819  1.00  0.00    -0.039 A 
ATOM     11  C   UNL A   1      34.320  20.336  24.590  1.00  0.00    -0.015 A 
ATOM     12  C   UNL A   1      35.445  22.836  24.020  1.00  0.00     0.013 A 
ATOM     13  C   UNL A   1      35.540  20.738  25.175  1.00  0.00     0.017 A 
ATOM     14  C   UNL A   1      36.105  21.989  24.917  1.00  0.00    -0.017 A 
BRANCH  11  15
ATOM     15  C   UNL A   1      33.909  18.927  24.702  1.00  0.00    -0.018 A 
ATOM     16  C   UNL A   1      34.421  17.917  23.875  1.00  0.00     0.009 A 
ATOM     17  C   UNL A   1      32.913  18.583  25.636  1.00  0.00     0.009 A 
ATOM     18  C   UNL A   1      33.944  16.607  23.981  1.00  0.00     0.001 A 
ATOM     19  C   UNL A   1      32.448  17.277  25.752  1.00  0.00     0.001 A 
ATOM     20  C   UNL A   1      32.960  16.289  24.918  1.00  0.00     0.000 A 
ENDBRANCH  11  15
BRANCH  14  21
ATOM     21  C   UNL A   1      37.351  22.420  25.561  1.00  0.00    -0.018 A 
ATOM     22  C   UNL A   1      38.449  21.554  25.697  1.00  0.00     0.009 A 
ATOM     23  C   UNL A   1      37.450  23.704  26.109  1.00  0.00     0.009 A 
ATOM     24  C   UNL A   1      39.585  21.936  26.417  1.00  0.00     0.001 A 
ATOM     25  C   UNL A   1      38.595  24.099  26.803  1.00  0.00     0.001 A 
ATOM     26  C   UNL A   1      39.654  23.209  26.975  1.00  0.00     0.000 A 
ENDBRANCH  14  21
ENDBRANCH   7   8
ENDBRANCH   5   7
ENDBRANCH   4   5
ENDBRANCH   3   4
ENDBRANCH   2   3
ENDBRANCH   1   2
BRANCH   1  27
ATOM     27  C   UNL A   1      33.959  28.836  26.272  1.00  0.00     0.202 C 
BRANCH  27  28
ATOM     28  C   UNL A   1      33.648  29.915  27.329  1.00  0.00     0.261 C 
BRANCH  28  29
ATOM     29  O   UNL A   1      34.626  30.975  27.274  1.00  0.00    -0.460 OA
BRANCH  29  30
ATOM     30  C   UNL A   1      35.367  31.176  28.401  1.00  0.00     0.338 C 
ATOM     31  O   UNL A   1      35.388  32.202  29.063  1.00  0.00    -0.246 OA
BRANCH  30  32
ATOM     32  C   UNL A   1      36.387  30.093  28.511  1.00  0.00     0.060 A 
ATOM     33  C   UNL A   1      36.508  29.347  29.699  1.00  0.00     0.016 A 
ATOM     34  C   UNL A   1      37.437  30.115  27.600  1.00  0.00     0.016 A 
ATOM     35  C   UNL A   1      37.740  28.766  30.043  1.00  0.00     0.010 A 
ATOM     36  C   UNL A   1      38.672  29.683  28.020  1.00  0.00     0.010 A 
ATOM     37  C   UNL A   1      38.850  29.011  29.238  1.00  0.00    -0.014 A 
BRANCH  37  38
ATOM     38  C   UNL A   1      40.250  28.707  29.563  1.00  0.00     0.031 A 
ATOM     39  C   UNL A   1      40.906  27.635  28.781  1.00  0.00     0.074 A 
ATOM     40  C   UNL A   1      41.006  29.475  30.393  1.00  0.00     0.049 A 
ATOM     41  N   UNL A   1      41.877  26.918  29.228  1.00  0.00    -0.248 NA
ATOM     42  C   UNL A   1      40.488  27.237  27.436  1.00  0.00     0.031 C 
ATOM     43  C   UNL A   1      42.463  29.510  30.530  1.00  0.00     0.029 A 
ATOM     44  N   UNL A   1      40.596  30.407  31.352  1.00  0.00    -0.354 N 
ATOM     45  C   UNL A   1      42.418  26.258  28.148  1.00  0.00     0.074 A 
ATOM     46  C   UNL A   1      41.444  26.374  27.098  1.00  0.00     0.031 C 
ATOM     47  C   UNL A   1      42.789  30.139  31.677  1.00  0.00     0.029 A 
ATOM     48  C   UNL A   1      41.550  30.450  32.374  1.00  0.00     0.049 A 
ATOM     49  H   UNL A   1      39.773  30.944  31.314  1.00  0.00     0.167 HD
ATOM     50  C   UNL A   1      43.715  25.849  28.199  1.00  0.00     0.031 A 
ATOM     51  C   UNL A   1      41.199  30.186  33.662  1.00  0.00     0.031 A 
ATOM     52  C   UNL A   1      44.326  26.220  29.483  1.00  0.00     0.049 A 
ATOM     53  C   UNL A   1      41.900  28.926  34.069  1.00  0.00     0.074 A 
ATOM     54  C   UNL A   1      45.191  27.243  29.834  1.00  0.00     0.029 A 
ATOM     55  N   UNL A   1      43.777  25.746  30.674  1.00  0.00    -0.354 N 
ATOM     56  N   UNL A   1      42.358  28.081  33.186  1.00  0.00    -0.248 NA
ATOM     57  C   UNL A   1      42.207  28.528  35.437  1.00  0.00     0.031 C 
ATOM     58  C   UNL A   1      45.093  27.433  31.242  1.00  0.00     0.029 A 
ATOM     59  C   UNL A   1      44.197  26.506  31.751  1.00  0.00     0.049 A 
ATOM     60  H   UNL A   1      43.172  24.971  30.740  1.00  0.00     0.167 HD
ATOM     61  C   UNL A   1      43.082  27.122  33.807  1.00  0.00     0.074 A 
ATOM     62  C   UNL A   1      42.915  27.402  35.224  1.00  0.00     0.031 C 
ATOM     63  C   UNL A   1      43.769  26.181  33.108  1.00  0.00     0.031 A 
BRANCH  50  64
ATOM     64  C   UNL A   1      44.499  25.405  26.983  1.00  0.00    -0.014 A 
ATOM     65  C   UNL A   1      44.341  24.095  26.500  1.00  0.00     0.009 A 
ATOM     66  C   UNL A   1      45.420  26.203  26.278  1.00  0.00     0.009 A 
ATOM     67  C   UNL A   1      45.102  23.597  25.431  1.00  0.00     0.001 A 
ATOM     68  C   UNL A   1      46.214  25.703  25.237  1.00  0.00     0.001 A 
ATOM     69  C   UNL A   1      46.056  24.394  24.813  1.00  0.00     0.000 A 
ENDBRANCH  50  64
BRANCH  51  70
ATOM     70  C   UNL A   1      39.795  30.614  33.961  1.00  0.00    -0.014 A 
ATOM     71  C   UNL A   1      39.593  31.975  34.300  1.00  0.00     0.009 A 
ATOM     72  C   UNL A   1      38.694  29.890  33.480  1.00  0.00     0.009 A 
ATOM     73  C   UNL A   1      38.382  32.622  34.019  1.00  0.00     0.001 A 
ATOM     74  C   UNL A   1      37.479  30.543  33.211  1.00  0.00     0.001 A 
ATOM     75  C   UNL A   1      37.338  31.913  33.437  1.00  0.00     0.000 A 
ENDBRANCH  51  70
BRANCH  63  76
ATOM     76  C   UNL A   1      44.157  24.869  33.703  1.00  0.00    -0.014 A 
ATOM     77  C   UNL A   1      45.492  24.455  33.798  1.00  0.00     0.009 A 
ATOM     78  C   UNL A   1      43.184  24.100  34.367  1.00  0.00     0.009 A 
ATOM     79  C   UNL A   1      45.835  23.284  34.472  1.00  0.00     0.001 A 
ATOM     80  C   UNL A   1      43.531  22.962  35.090  1.00  0.00     0.001 A 
ATOM     81  C   UNL A   1      44.854  22.544  35.125  1.00  0.00     0.000 A 
ENDBRANCH  63  76
ENDBRANCH  37  38
ENDBRANCH  30  32
ENDBRANCH  29  30
ENDBRANCH  28  29
ENDBRANCH  27  28
ENDBRANCH   1  27
TORSDOF 17
ENDMDL
MODEL 3
REMARK VINA RESULT:     -11.4      4.730     10.906
REMARK SMILES Cc1c(CC(=O)OCCOCCOC(=O)c2ccc(-c3c4nc(c(-c5ccccc5)c5ccc([nH]5)c(-c5ccccc5)c5nc(c(-c6ccccc6)c6ccc3[nH]6)C=C5)C=C4)cc2)cc(-c2ccccc2)cc1-c1ccccc1
REMARK SMILES IDX 10 1 9 2 8 3 7 4 5 5 6 6 4 7 3 8 1 9 2 10 73 11 64 12 72 13
REMARK SMILES IDX 65 14 74 15 75 16 79 17 76 18 78 19 77 20 66 21 67 22 71 23
REMARK SMILES IDX 68 24 70 25 69 26 11 27 12 28 13 29 14 30 15 31 16 32 17 33
REMARK SMILES IDX 63 34 18 35 62 36 19 37 20 38 21 39 56 40 22 41 61 42 55 43
REMARK SMILES IDX 57 44 23 45 60 46 54 47 53 48 24 50 46 51 31 52 45 53 32 54
REMARK SMILES IDX 35 55 44 56 58 57 33 58 34 59 43 61 59 62 36 63 25 64 26 65
REMARK SMILES IDX 30 66 27 67 29 68 28 69 47 70 48 71 52 72 49 73 51 74 50 75
REMARK SMILES IDX 37 76 38 77 42 78 39 79 41 80 40 81
REMARK H PARENT 57 49 35 60
REMARK Flexibility Score: inf
ROOT
ATOM      1  O   UNL A   1      43.684  21.972  25.624  1.00  0.00    -0.374 OA
ENDROOT
BRANCH   1   2
ATOM      2  C   UNL A   1      43.480  22.957  24.624  1.00  0.00     0.202 C 
BRANCH   2   3
ATOM      3  C   UNL A   1      44.151  24.209  25.084  1.00  0.00     0.261 C 
BRANCH   3   4
ATOM      4  O   UNL A   1      45.453  24.383  24.532  1.00  0.00    -0.463 OA
BRANCH   4   5
ATOM      5  C   UNL A   1      46.520  24.143  25.358  1.00  0.00     0.310 C 
ATOM      6  O   UNL A   1      46.656  23.186  26.086  1.00  0.00    -0.252 OA
BRANCH   5   7
ATOM      7  C   UNL A   1      47.533  25.268  25.205  1.00  0.00     0.158 C 
BRANCH   7   8
ATOM      8  C   UNL A   1      47.337  26.315  26.293  1.00  0.00    -0.033 A 
ATOM      9  C   UNL A   1      46.438  27.960  24.588  1.00  0.00     0.045 C 
ATOM     10  C   UNL A   1      46.851  27.611  26.003  1.00  0.00    -0.039 A 
ATOM     11  C   UNL A   1      46.827  28.582  27.035  1.00  0.00    -0.015 A 
ATOM     12  C   UNL A   1      47.893  26.046  27.559  1.00  0.00     0.013 A 
ATOM     13  C   UNL A   1      47.470  28.299  28.260  1.00  0.00     0.017 A 
ATOM     14  C   UNL A   1      48.024  27.046  28.529  1.00  0.00    -0.017 A 
BRANCH  11  15
ATOM     15  C   UNL A   1      46.052  29.828  26.911  1.00  0.00    -0.018 A 
ATOM     16  C   UNL A   1      44.650  29.856  26.930  1.00  0.00     0.009 A 
ATOM     17  C   UNL A   1      46.741  31.037  26.701  1.00  0.00     0.009 A 
ATOM     18  C   UNL A   1      43.965  31.060  26.740  1.00  0.00     0.001 A 
ATOM     19  C   UNL A   1      46.061  32.238  26.526  1.00  0.00     0.001 A 
ATOM     20  C   UNL A   1      44.670  32.248  26.539  1.00  0.00     0.000 A 
ENDBRANCH  11  15
BRANCH  14  21
ATOM     21  C   UNL A   1      48.731  26.769  29.785  1.00  0.00    -0.018 A 
ATOM     22  C   UNL A   1      49.320  25.519  30.040  1.00  0.00     0.009 A 
ATOM     23  C   UNL A   1      48.784  27.742  30.789  1.00  0.00     0.009 A 
ATOM     24  C   UNL A   1      49.885  25.228  31.285  1.00  0.00     0.001 A 
ATOM     25  C   UNL A   1      49.374  27.464  32.024  1.00  0.00     0.001 A 
ATOM     26  C   UNL A   1      49.906  26.202  32.279  1.00  0.00     0.000 A 
ENDBRANCH  14  21
ENDBRANCH   7   8
ENDBRANCH   5   7
ENDBRANCH   4   5
ENDBRANCH   3   4
ENDBRANCH   2   3
ENDBRANCH   1   2
BRANCH   1  27
ATOM     27  C   UNL A   1      42.522  21.253  26.012  1.00  0.00     0.202 C 
BRANCH  27  28
ATOM     28  C   UNL A   1      41.953  21.617  27.398  1.00  0.00     0.261 C 
BRANCH  28  29
ATOM     29  O   UNL A   1      41.448  22.969  27.400  1.00  0.00    -0.460 OA
BRANCH  29  30
ATOM     30  C   UNL A   1      40.197  23.149  26.887  1.00  0.00     0.338 C 
ATOM     31  O   UNL A   1      39.613  22.370  26.150  1.00  0.00    -0.246 OA
BRANCH  30  32
ATOM     32  C   UNL A   1      39.791  24.571  27.085  1.00  0.00     0.060 A 
ATOM     33  C   UNL A   1      40.519  25.610  26.474  1.00  0.00     0.016 A 
ATOM     34  C   UNL A   1      38.965  24.852  28.167  1.00  0.00     0.016 A 
ATOM     35  C   UNL A   1      40.543  26.889  27.054  1.00  0.00     0.010 A 
ATOM     36  C   UNL A   1      39.122  26.055  28.812  1.00  0.00     0.010 A 
ATOM     37  C   UNL A   1      39.909  27.086  28.279  1.00  0.00    -0.014 A 
BRANCH  37  38
ATOM     38  C   UNL A   1      40.036  28.262  29.150  1.00  0.00     0.031 A 
ATOM     39  C   UNL A   1      39.056  29.355  28.954  1.00  0.00     0.074 A 
ATOM     40  C   UNL A   1      40.868  28.308  30.224  1.00  0.00     0.049 A 
ATOM     41  N   UNL A   1      39.298  30.589  29.230  1.00  0.00    -0.248 NA
ATOM     42  C   UNL A   1      37.726  29.161  28.375  1.00  0.00     0.031 C 
ATOM     43  C   UNL A   1      40.847  29.234  31.358  1.00  0.00     0.029 A 
ATOM     44  N   UNL A   1      41.977  27.508  30.517  1.00  0.00    -0.354 N 
ATOM     45  C   UNL A   1      38.089  31.247  29.213  1.00  0.00     0.074 A 
ATOM     46  C   UNL A   1      37.177  30.362  28.544  1.00  0.00     0.031 C 
ATOM     47  C   UNL A   1      42.021  29.163  32.015  1.00  0.00     0.029 A 
ATOM     48  C   UNL A   1      42.885  28.256  31.274  1.00  0.00     0.049 A 
ATOM     49  H   UNL A   1      42.099  26.572  30.237  1.00  0.00     0.167 HD
ATOM     50  C   UNL A   1      37.945  32.390  29.937  1.00  0.00     0.031 A 
ATOM     51  C   UNL A   1      44.159  28.447  30.837  1.00  0.00     0.031 A 
ATOM     52  C   UNL A   1      39.189  32.718  30.646  1.00  0.00     0.049 A 
ATOM     53  C   UNL A   1      44.323  29.911  30.557  1.00  0.00     0.074 A 
ATOM     54  C   UNL A   1      39.571  32.560  31.968  1.00  0.00     0.029 A 
ATOM     55  N   UNL A   1      40.364  32.925  29.922  1.00  0.00    -0.354 N 
ATOM     56  N   UNL A   1      43.294  30.688  30.358  1.00  0.00    -0.248 NA
ATOM     57  C   UNL A   1      45.587  30.636  30.535  1.00  0.00     0.031 C 
ATOM     58  C   UNL A   1      40.993  32.592  32.019  1.00  0.00     0.029 A 
ATOM     59  C   UNL A   1      41.476  32.803  30.737  1.00  0.00     0.049 A 
ATOM     60  H   UNL A   1      40.397  33.132  28.960  1.00  0.00     0.167 HD
ATOM     61  C   UNL A   1      43.705  31.975  30.289  1.00  0.00     0.074 A 
ATOM     62  C   UNL A   1      45.155  31.898  30.346  1.00  0.00     0.031 C 
ATOM     63  C   UNL A   1      42.819  33.003  30.202  1.00  0.00     0.031 A 
BRANCH  50  64
ATOM     64  C   UNL A   1      36.603  33.019  30.245  1.00  0.00    -0.014 A 
ATOM     65  C   UNL A   1      35.962  33.796  29.264  1.00  0.00     0.009 A 
ATOM     66  C   UNL A   1      35.921  32.913  31.473  1.00  0.00     0.009 A 
ATOM     67  C   UNL A   1      34.761  34.475  29.517  1.00  0.00     0.001 A 
ATOM     68  C   UNL A   1      34.743  33.621  31.749  1.00  0.00     0.001 A 
ATOM     69  C   UNL A   1      34.161  34.406  30.768  1.00  0.00     0.000 A 
ENDBRANCH  50  64
BRANCH  51  70
ATOM     70  C   UNL A   1      44.664  27.281  30.045  1.00  0.00    -0.014 A 
ATOM     71  C   UNL A   1      45.253  26.215  30.769  1.00  0.00     0.009 A 
ATOM     72  C   UNL A   1      44.174  27.006  28.760  1.00  0.00     0.009 A 
ATOM     73  C   UNL A   1      45.208  24.898  30.290  1.00  0.00     0.001 A 
ATOM     74  C   UNL A   1      44.142  25.685  28.281  1.00  0.00     0.001 A 
ATOM     75  C   UNL A   1      44.616  24.630  29.061  1.00  0.00     0.000 A 
ENDBRANCH  51  70
BRANCH  63  76
ATOM     76  C   UNL A   1      43.197  34.337  29.650  1.00  0.00    -0.014 A 
ATOM     77  C   UNL A   1      43.127  34.628  28.281  1.00  0.00     0.009 A 
ATOM     78  C   UNL A   1      43.448  35.402  30.535  1.00  0.00     0.009 A 
ATOM     79  C   UNL A   1      43.363  35.918  27.808  1.00  0.00     0.001 A 
ATOM     80  C   UNL A   1      43.628  36.701  30.070  1.00  0.00     0.001 A 
ATOM     81  C   UNL A   1      43.604  36.955  28.705  1.00  0.00     0.000 A 
ENDBRANCH  63  76
ENDBRANCH  37  38
ENDBRANCH  30  32
ENDBRANCH  29  30
ENDBRANCH  28  29
ENDBRANCH  27  28
ENDBRANCH   1  27
TORSDOF 17
ENDMDL
