MODEL 1
REMARK VINA RESULT:     -11.2      0.000      0.000
REMARK SMILES COc1ccccc1NC1=[NH+]C(=O)/C(=C\c2ccccc2OCC(=O)OCCOCCOC(=O)c2ccc(-c3c4nc(c(-c5ccccc5)c5ccc([nH]5)c(-c5ccccc5)c5nc(c(-c6ccccc6)c6ccc3[nH]6)C=C5)C=C4)cc2)S1
REMARK SMILES IDX 27 1 26 2 24 3 25 4 23 5 22 6 21 7 16 8 17 9 18 10 20 11
REMARK SMILES IDX 19 12 15 13 9 14 10 15 11 17 83 18 12 19 14 21 13 22 8 23
REMARK SMILES IDX 3 24 4 25 5 26 7 27 6 28 2 29 1 30 28 31 29 32 30 33 31 34
REMARK SMILES IDX 32 35 33 36 34 37 35 38 36 39 82 40 37 41 81 42 38 43 39 44
REMARK SMILES IDX 40 45 75 46 41 47 80 48 74 49 76 50 42 51 79 52 73 53 72 54
REMARK SMILES IDX 43 56 65 57 50 58 64 59 51 60 54 61 63 62 77 63 52 64 53 65
REMARK SMILES IDX 62 67 78 68 55 69 44 70 45 71 49 72 46 73 48 74 47 75 66 76
REMARK SMILES IDX 67 77 71 78 68 79 70 80 69 81 56 82 57 83 61 84 58 85 60 86
REMARK SMILES IDX 59 87
REMARK H PARENT 9 16 11 20 76 55 54 66
REMARK Flexibility Score: inf
ROOT
ATOM      1  C   UNL A   1      33.343  31.893  27.605  1.00  0.00     0.261 C 
ENDROOT
BRANCH   1   2
ATOM      2  O   UNL A   1      33.818  30.588  27.207  1.00  0.00    -0.461 OA
BRANCH   2   3
ATOM      3  C   UNL A   1      32.854  29.652  27.036  1.00  0.00     0.344 C 
ATOM      4  O   UNL A   1      32.871  28.536  27.545  1.00  0.00    -0.248 OA
BRANCH   3   5
ATOM      5  C   UNL A   1      31.719  30.121  26.125  1.00  0.00     0.351 C 
BRANCH   5   6
ATOM      6  O   UNL A   1      31.644  29.636  24.803  1.00  0.00    -0.481 OA
BRANCH   6   7
ATOM      7  C   UNL A   1      30.545  29.737  23.999  1.00  0.00     0.127 A 
ATOM      8  C   UNL A   1      30.086  28.911  22.955  1.00  0.00     0.018 A 
ATOM      9  C   UNL A   1      28.915  29.275  22.260  1.00  0.00     0.012 A 
ATOM     10  C   UNL A   1      28.209  30.435  22.583  1.00  0.00     0.001 A 
ATOM     11  C   UNL A   1      29.831  30.914  24.289  1.00  0.00     0.047 A 
ATOM     12  C   UNL A   1      28.673  31.261  23.597  1.00  0.00     0.004 A 
BRANCH   8  13
ATOM     13  C   UNL A   1      30.744  27.678  22.510  1.00  0.00     0.036 C 
ATOM     14  N   UNL A   1      31.666  23.702  25.280  1.00  0.00    -0.231 N 
ATOM     15  C   UNL A   1      31.009  24.591  24.486  1.00  0.00     0.322 C 
ATOM     16  H   UNL A   1      31.099  23.352  26.005  1.00  0.00     0.313 HD
ATOM     17  N   UNL A   1      29.925  25.165  24.913  1.00  0.00    -0.199 N 
ATOM     18  S   UNL A   1      31.512  25.108  22.885  1.00  0.00     0.006 SA
ATOM     19  C   UNL A   1      29.467  26.153  24.071  1.00  0.00     0.346 C 
ATOM     20  H   UNL A   1      29.477  24.918  25.754  1.00  0.00     0.316 HD
ATOM     21  C   UNL A   1      30.495  26.479  23.051  1.00  0.00     0.110 C 
ATOM     22  O   UNL A   1      28.364  26.673  24.091  1.00  0.00    -0.240 OA
BRANCH  14  23
ATOM     23  C   UNL A   1      32.966  23.164  25.308  1.00  0.00     0.167 A 
ATOM     24  C   UNL A   1      33.213  21.899  24.722  1.00  0.00     0.165 A 
ATOM     25  C   UNL A   1      34.482  21.303  24.787  1.00  0.00     0.051 A 
ATOM     26  C   UNL A   1      35.538  21.958  25.414  1.00  0.00     0.004 A 
ATOM     27  C   UNL A   1      34.060  23.802  25.909  1.00  0.00     0.056 A 
ATOM     28  C   UNL A   1      35.325  23.207  25.976  1.00  0.00     0.005 A 
BRANCH  24  29
ATOM     29  O   UNL A   1      32.222  21.081  24.231  1.00  0.00    -0.492 OA
ATOM     30  C   UNL A   1      32.566  19.705  24.094  1.00  0.00     0.278 C 
ENDBRANCH  24  29
ENDBRANCH  14  23
ENDBRANCH   8  13
ENDBRANCH   6   7
ENDBRANCH   5   6
ENDBRANCH   3   5
ENDBRANCH   2   3
ENDBRANCH   1   2
BRANCH   1  31
ATOM     31  C   UNL A   1      34.429  32.553  28.447  1.00  0.00     0.202 C 
BRANCH  31  32
ATOM     32  O   UNL A   1      33.808  33.431  29.375  1.00  0.00    -0.374 OA
BRANCH  32  33
ATOM     33  C   UNL A   1      34.652  34.094  30.319  1.00  0.00     0.202 C 
BRANCH  33  34
ATOM     34  C   UNL A   1      34.508  33.577  31.765  1.00  0.00     0.261 C 
BRANCH  34  35
ATOM     35  O   UNL A   1      35.001  32.233  31.905  1.00  0.00    -0.460 OA
BRANCH  35  36
ATOM     36  C   UNL A   1      36.087  32.118  32.700  1.00  0.00     0.338 C 
ATOM     37  O   UNL A   1      36.144  32.291  33.904  1.00  0.00    -0.246 OA
BRANCH  36  38
ATOM     38  C   UNL A   1      37.112  31.407  31.911  1.00  0.00     0.060 A 
ATOM     39  C   UNL A   1      38.057  30.654  32.617  1.00  0.00     0.016 A 
ATOM     40  C   UNL A   1      37.089  31.402  30.511  1.00  0.00     0.016 A 
ATOM     41  C   UNL A   1      39.039  29.959  31.922  1.00  0.00     0.010 A 
ATOM     42  C   UNL A   1      38.073  30.705  29.813  1.00  0.00     0.010 A 
ATOM     43  C   UNL A   1      39.084  30.038  30.524  1.00  0.00    -0.014 A 
BRANCH  43  44
ATOM     44  C   UNL A   1      40.354  29.697  29.854  1.00  0.00     0.031 A 
ATOM     45  C   UNL A   1      40.453  28.329  29.238  1.00  0.00     0.074 A 
ATOM     46  C   UNL A   1      41.343  30.594  29.721  1.00  0.00     0.049 A 
ATOM     47  N   UNL A   1      41.389  27.825  28.481  1.00  0.00    -0.248 NA
ATOM     48  C   UNL A   1      39.333  27.405  29.506  1.00  0.00     0.031 C 
ATOM     49  C   UNL A   1      41.339  31.953  30.257  1.00  0.00     0.029 A 
ATOM     50  N   UNL A   1      42.544  30.488  29.069  1.00  0.00    -0.354 N 
ATOM     51  C   UNL A   1      40.961  26.541  28.168  1.00  0.00     0.074 A 
ATOM     52  C   UNL A   1      39.711  26.320  28.853  1.00  0.00     0.031 C 
ATOM     53  C   UNL A   1      42.485  32.563  29.901  1.00  0.00     0.029 A 
ATOM     54  C   UNL A   1      43.297  31.633  29.119  1.00  0.00     0.049 A 
ATOM     55  H   UNL A   1      42.836  29.669  28.608  1.00  0.00     0.167 HD
ATOM     56  C   UNL A   1      41.551  25.628  27.364  1.00  0.00     0.031 A 
ATOM     57  C   UNL A   1      44.504  31.893  28.582  1.00  0.00     0.031 A 
ATOM     58  C   UNL A   1      42.808  25.837  26.709  1.00  0.00     0.049 A 
ATOM     59  C   UNL A   1      45.176  30.834  27.748  1.00  0.00     0.074 A 
ATOM     60  C   UNL A   1      43.502  24.982  25.876  1.00  0.00     0.029 A 
ATOM     61  N   UNL A   1      43.566  26.992  26.831  1.00  0.00    -0.354 N 
ATOM     62  N   UNL A   1      44.740  29.641  27.417  1.00  0.00    -0.248 NA
ATOM     63  C   UNL A   1      46.499  31.164  27.202  1.00  0.00     0.031 C 
ATOM     64  C   UNL A   1      44.705  25.604  25.527  1.00  0.00     0.029 A 
ATOM     65  C   UNL A   1      44.735  26.863  26.107  1.00  0.00     0.049 A 
ATOM     66  H   UNL A   1      43.308  27.785  27.354  1.00  0.00     0.167 HD
ATOM     67  C   UNL A   1      45.722  29.089  26.605  1.00  0.00     0.074 A 
ATOM     68  C   UNL A   1      46.770  30.083  26.483  1.00  0.00     0.031 C 
ATOM     69  C   UNL A   1      45.758  27.871  26.010  1.00  0.00     0.031 A 
BRANCH  56  70
ATOM     70  C   UNL A   1      40.839  24.318  27.188  1.00  0.00    -0.014 A 
ATOM     71  C   UNL A   1      41.356  23.133  27.735  1.00  0.00     0.009 A 
ATOM     72  C   UNL A   1      39.648  24.266  26.449  1.00  0.00     0.009 A 
ATOM     73  C   UNL A   1      40.709  21.916  27.520  1.00  0.00     0.001 A 
ATOM     74  C   UNL A   1      38.990  23.050  26.255  1.00  0.00     0.001 A 
ATOM     75  C   UNL A   1      39.525  21.876  26.783  1.00  0.00     0.000 A 
ENDBRANCH  56  70
BRANCH  57  76
ATOM     76  C   UNL A   1      45.150  33.212  28.804  1.00  0.00    -0.014 A 
ATOM     77  C   UNL A   1      45.992  33.422  29.908  1.00  0.00     0.009 A 
ATOM     78  C   UNL A   1      44.919  34.274  27.915  1.00  0.00     0.009 A 
ATOM     79  C   UNL A   1      46.570  34.675  30.128  1.00  0.00     0.001 A 
ATOM     80  C   UNL A   1      45.517  35.518  28.125  1.00  0.00     0.001 A 
ATOM     81  C   UNL A   1      46.335  35.720  29.235  1.00  0.00     0.000 A 
ENDBRANCH  57  76
BRANCH  69  82
ATOM     82  C   UNL A   1      46.954  27.559  25.161  1.00  0.00    -0.014 A 
ATOM     83  C   UNL A   1      48.053  26.863  25.687  1.00  0.00     0.009 A 
ATOM     84  C   UNL A   1      46.954  27.914  23.803  1.00  0.00     0.009 A 
ATOM     85  C   UNL A   1      49.141  26.551  24.872  1.00  0.00     0.001 A 
ATOM     86  C   UNL A   1      48.033  27.579  22.986  1.00  0.00     0.001 A 
ATOM     87  C   UNL A   1      49.129  26.905  23.523  1.00  0.00     0.000 A 
ENDBRANCH  69  82
ENDBRANCH  43  44
ENDBRANCH  36  38
ENDBRANCH  35  36
ENDBRANCH  34  35
ENDBRANCH  33  34
ENDBRANCH  32  33
ENDBRANCH  31  32
ENDBRANCH   1  31
TORSDOF 19
ENDMDL
MODEL 2
REMARK VINA RESULT:     -10.7      4.184     10.043
REMARK SMILES COc1ccccc1NC1=[NH+]C(=O)/C(=C\c2ccccc2OCC(=O)OCCOCCOC(=O)c2ccc(-c3c4nc(c(-c5ccccc5)c5ccc([nH]5)c(-c5ccccc5)c5nc(c(-c6ccccc6)c6ccc3[nH]6)C=C5)C=C4)cc2)S1
REMARK SMILES IDX 27 1 26 2 24 3 25 4 23 5 22 6 21 7 16 8 17 9 18 10 20 11
REMARK SMILES IDX 19 12 15 13 9 14 10 15 11 17 83 18 12 19 14 21 13 22 8 23
REMARK SMILES IDX 3 24 4 25 5 26 7 27 6 28 2 29 1 30 28 31 29 32 30 33 31 34
REMARK SMILES IDX 32 35 33 36 34 37 35 38 36 39 82 40 37 41 81 42 38 43 39 44
REMARK SMILES IDX 40 45 75 46 41 47 80 48 74 49 76 50 42 51 79 52 73 53 72 54
REMARK SMILES IDX 43 56 65 57 50 58 64 59 51 60 54 61 63 62 77 63 52 64 53 65
REMARK SMILES IDX 62 67 78 68 55 69 44 70 45 71 49 72 46 73 48 74 47 75 66 76
REMARK SMILES IDX 67 77 71 78 68 79 70 80 69 81 56 82 57 83 61 84 58 85 60 86
REMARK SMILES IDX 59 87
REMARK H PARENT 9 16 11 20 76 55 54 66
REMARK Flexibility Score: inf
ROOT
ATOM      1  C   UNL A   1      38.710  20.288  25.500  1.00  0.00     0.261 C 
ENDROOT
BRANCH   1   2
ATOM      2  O   UNL A   1      38.629  21.705  25.768  1.00  0.00    -0.461 OA
BRANCH   2   3
ATOM      3  C   UNL A   1      37.529  22.323  25.274  1.00  0.00     0.344 C 
ATOM      4  O   UNL A   1      37.328  23.531  25.331  1.00  0.00    -0.248 OA
BRANCH   3   5
ATOM      5  C   UNL A   1      36.538  21.354  24.629  1.00  0.00     0.351 C 
BRANCH   5   6
ATOM      6  O   UNL A   1      35.381  20.970  25.339  1.00  0.00    -0.481 OA
BRANCH   6   7
ATOM      7  C   UNL A   1      34.513  19.995  24.940  1.00  0.00     0.127 A 
ATOM      8  C   UNL A   1      33.108  19.991  24.852  1.00  0.00     0.018 A 
ATOM      9  C   UNL A   1      32.453  18.816  24.429  1.00  0.00     0.012 A 
ATOM     10  C   UNL A   1      33.167  17.662  24.104  1.00  0.00     0.001 A 
ATOM     11  C   UNL A   1      35.210  18.812  24.632  1.00  0.00     0.047 A 
ATOM     12  C   UNL A   1      34.551  17.659  24.212  1.00  0.00     0.004 A 
BRANCH   8  13
ATOM     13  C   UNL A   1      32.243  21.129  25.180  1.00  0.00     0.036 C 
ATOM     14  N   UNL A   1      32.288  25.548  22.987  1.00  0.00    -0.231 N 
ATOM     15  C   UNL A   1      32.013  24.238  23.233  1.00  0.00     0.322 C 
ATOM     16  H   UNL A   1      32.466  25.725  22.035  1.00  0.00     0.313 HD
ATOM     17  N   UNL A   1      32.354  23.331  22.368  1.00  0.00    -0.199 N 
ATOM     18  S   UNL A   1      31.251  23.600  24.680  1.00  0.00     0.006 SA
ATOM     19  C   UNL A   1      32.160  22.046  22.825  1.00  0.00     0.346 C 
ATOM     20  H   UNL A   1      32.715  23.541  21.477  1.00  0.00     0.316 HD
ATOM     21  C   UNL A   1      31.879  22.054  24.283  1.00  0.00     0.110 C 
ATOM     22  O   UNL A   1      32.155  21.029  22.154  1.00  0.00    -0.240 OA
BRANCH  14  23
ATOM     23  C   UNL A   1      32.376  26.712  23.775  1.00  0.00     0.167 A 
ATOM     24  C   UNL A   1      31.313  27.648  23.762  1.00  0.00     0.165 A 
ATOM     25  C   UNL A   1      31.394  28.847  24.485  1.00  0.00     0.051 A 
ATOM     26  C   UNL A   1      32.518  29.135  25.253  1.00  0.00     0.004 A 
ATOM     27  C   UNL A   1      33.480  27.026  24.579  1.00  0.00     0.056 A 
ATOM     28  C   UNL A   1      33.561  28.223  25.299  1.00  0.00     0.005 A 
BRANCH  24  29
ATOM     29  O   UNL A   1      30.234  27.562  22.914  1.00  0.00    -0.492 OA
ATOM     30  C   UNL A   1      29.323  28.657  22.959  1.00  0.00     0.278 C 
ENDBRANCH  24  29
ENDBRANCH  14  23
ENDBRANCH   8  13
ENDBRANCH   6   7
ENDBRANCH   5   6
ENDBRANCH   3   5
ENDBRANCH   2   3
ENDBRANCH   1   2
BRANCH   1  31
ATOM     31  C   UNL A   1      39.990  19.760  26.138  1.00  0.00     0.202 C 
BRANCH  31  32
ATOM     32  O   UNL A   1      41.086  20.512  25.639  1.00  0.00    -0.374 OA
BRANCH  32  33
ATOM     33  C   UNL A   1      42.297  20.495  26.400  1.00  0.00     0.202 C 
BRANCH  33  34
ATOM     34  C   UNL A   1      42.931  21.886  26.606  1.00  0.00     0.261 C 
BRANCH  34  35
ATOM     35  O   UNL A   1      42.059  22.943  26.170  1.00  0.00    -0.460 OA
BRANCH  35  36
ATOM     36  C   UNL A   1      42.695  24.088  25.840  1.00  0.00     0.338 C 
ATOM     37  O   UNL A   1      43.338  24.313  24.831  1.00  0.00    -0.246 OA
BRANCH  36  38
ATOM     38  C   UNL A   1      42.181  25.130  26.750  1.00  0.00     0.060 A 
ATOM     39  C   UNL A   1      42.820  26.375  26.726  1.00  0.00     0.016 A 
ATOM     40  C   UNL A   1      41.042  24.923  27.537  1.00  0.00     0.016 A 
ATOM     41  C   UNL A   1      42.372  27.394  27.558  1.00  0.00     0.010 A 
ATOM     42  C   UNL A   1      40.591  25.944  28.371  1.00  0.00     0.010 A 
ATOM     43  C   UNL A   1      41.298  27.156  28.426  1.00  0.00    -0.014 A 
BRANCH  43  44
ATOM     44  C   UNL A   1      41.139  28.050  29.588  1.00  0.00     0.031 A 
ATOM     45  C   UNL A   1      40.026  29.060  29.523  1.00  0.00     0.074 A 
ATOM     46  C   UNL A   1      41.892  27.914  30.690  1.00  0.00     0.049 A 
ATOM     47  N   UNL A   1      39.581  29.866  30.449  1.00  0.00    -0.248 NA
ATOM     48  C   UNL A   1      39.308  29.165  28.238  1.00  0.00     0.031 C 
ATOM     49  C   UNL A   1      42.979  26.953  30.867  1.00  0.00     0.029 A 
ATOM     50  N   UNL A   1      41.835  28.587  31.883  1.00  0.00    -0.354 N 
ATOM     51  C   UNL A   1      38.525  30.554  29.865  1.00  0.00     0.074 A 
ATOM     52  C   UNL A   1      38.424  30.112  28.495  1.00  0.00     0.031 C 
ATOM     53  C   UNL A   1      43.482  27.091  32.107  1.00  0.00     0.029 A 
ATOM     54  C   UNL A   1      42.756  28.152  32.802  1.00  0.00     0.049 A 
ATOM     55  H   UNL A   1      41.195  29.313  32.062  1.00  0.00     0.167 HD
ATOM     56  C   UNL A   1      37.699  31.464  30.426  1.00  0.00     0.031 A 
ATOM     57  C   UNL A   1      42.972  28.565  34.065  1.00  0.00     0.031 A 
ATOM     58  C   UNL A   1      37.820  31.924  31.777  1.00  0.00     0.049 A 
ATOM     59  C   UNL A   1      42.083  29.633  34.646  1.00  0.00     0.074 A 
ATOM     60  C   UNL A   1      37.043  32.846  32.451  1.00  0.00     0.029 A 
ATOM     61  N   UNL A   1      38.802  31.498  32.659  1.00  0.00    -0.354 N 
ATOM     62  N   UNL A   1      41.056  30.241  34.102  1.00  0.00    -0.248 NA
ATOM     63  C   UNL A   1      42.376  30.059  36.022  1.00  0.00     0.031 C 
ATOM     64  C   UNL A   1      37.582  33.011  33.730  1.00  0.00     0.029 A 
ATOM     65  C   UNL A   1      38.666  32.156  33.865  1.00  0.00     0.049 A 
ATOM     66  H   UNL A   1      39.492  30.825  32.455  1.00  0.00     0.167 HD
ATOM     67  C   UNL A   1      40.564  31.102  35.075  1.00  0.00     0.074 A 
ATOM     68  C   UNL A   1      41.398  30.927  36.247  1.00  0.00     0.031 C 
ATOM     69  C   UNL A   1      39.516  31.960  35.010  1.00  0.00     0.031 A 
BRANCH  56  70
ATOM     70  C   UNL A   1      36.617  32.029  29.552  1.00  0.00    -0.014 A 
ATOM     71  C   UNL A   1      36.840  33.175  28.772  1.00  0.00     0.009 A 
ATOM     72  C   UNL A   1      35.355  31.418  29.522  1.00  0.00     0.009 A 
ATOM     73  C   UNL A   1      35.809  33.716  28.003  1.00  0.00     0.001 A 
ATOM     74  C   UNL A   1      34.333  31.949  28.734  1.00  0.00     0.001 A 
ATOM     75  C   UNL A   1      34.558  33.101  27.982  1.00  0.00     0.000 A 
ENDBRANCH  56  70
BRANCH  57  76
ATOM     76  C   UNL A   1      44.066  27.963  34.869  1.00  0.00    -0.014 A 
ATOM     77  C   UNL A   1      43.829  26.845  35.683  1.00  0.00     0.009 A 
ATOM     78  C   UNL A   1      45.358  28.513  34.832  1.00  0.00     0.009 A 
ATOM     79  C   UNL A   1      44.856  26.306  36.461  1.00  0.00     0.001 A 
ATOM     80  C   UNL A   1      46.388  27.958  35.593  1.00  0.00     0.001 A 
ATOM     81  C   UNL A   1      46.135  26.859  36.413  1.00  0.00     0.000 A 
ENDBRANCH  57  76
BRANCH  69  82
ATOM     82  C   UNL A   1      39.204  32.754  36.243  1.00  0.00    -0.014 A 
ATOM     83  C   UNL A   1      39.759  34.028  36.443  1.00  0.00     0.009 A 
ATOM     84  C   UNL A   1      38.298  32.245  37.187  1.00  0.00     0.009 A 
ATOM     85  C   UNL A   1      39.429  34.766  37.580  1.00  0.00     0.001 A 
ATOM     86  C   UNL A   1      37.953  32.996  38.310  1.00  0.00     0.001 A 
ATOM     87  C   UNL A   1      38.525  34.252  38.509  1.00  0.00     0.000 A 
ENDBRANCH  69  82
ENDBRANCH  43  44
ENDBRANCH  36  38
ENDBRANCH  35  36
ENDBRANCH  34  35
ENDBRANCH  33  34
ENDBRANCH  32  33
ENDBRANCH  31  32
ENDBRANCH   1  31
TORSDOF 19
ENDMDL
MODEL 3
REMARK VINA RESULT:     -10.7      4.051      9.994
REMARK SMILES COc1ccccc1NC1=[NH+]C(=O)/C(=C\c2ccccc2OCC(=O)OCCOCCOC(=O)c2ccc(-c3c4nc(c(-c5ccccc5)c5ccc([nH]5)c(-c5ccccc5)c5nc(c(-c6ccccc6)c6ccc3[nH]6)C=C5)C=C4)cc2)S1
REMARK SMILES IDX 27 1 26 2 24 3 25 4 23 5 22 6 21 7 16 8 17 9 18 10 20 11
REMARK SMILES IDX 19 12 15 13 9 14 10 15 11 17 83 18 12 19 14 21 13 22 8 23
REMARK SMILES IDX 3 24 4 25 5 26 7 27 6 28 2 29 1 30 28 31 29 32 30 33 31 34
REMARK SMILES IDX 32 35 33 36 34 37 35 38 36 39 82 40 37 41 81 42 38 43 39 44
REMARK SMILES IDX 40 45 75 46 41 47 80 48 74 49 76 50 42 51 79 52 73 53 72 54
REMARK SMILES IDX 43 56 65 57 50 58 64 59 51 60 54 61 63 62 77 63 52 64 53 65
REMARK SMILES IDX 62 67 78 68 55 69 44 70 45 71 49 72 46 73 48 74 47 75 66 76
REMARK SMILES IDX 67 77 71 78 68 79 70 80 69 81 56 82 57 83 61 84 58 85 60 86
REMARK SMILES IDX 59 87
REMARK H PARENT 9 16 11 20 76 55 54 66
REMARK Flexibility Score: inf
ROOT
ATOM      1  C   UNL A   1      39.018  20.662  25.669  1.00  0.00     0.261 C 
ENDROOT
BRANCH   1   2
ATOM      2  O   UNL A   1      38.822  22.072  25.913  1.00  0.00    -0.461 OA
BRANCH   2   3
ATOM      3  C   UNL A   1      37.582  22.539  25.632  1.00  0.00     0.344 C 
ATOM      4  O   UNL A   1      37.193  23.675  25.886  1.00  0.00    -0.248 OA
BRANCH   3   5
ATOM      5  C   UNL A   1      36.689  21.497  24.957  1.00  0.00     0.351 C 
BRANCH   5   6
ATOM      6  O   UNL A   1      35.348  21.359  25.373  1.00  0.00    -0.481 OA
BRANCH   6   7
ATOM      7  C   UNL A   1      34.524  20.332  25.009  1.00  0.00     0.127 A 
ATOM      8  C   UNL A   1      33.120  20.236  25.000  1.00  0.00     0.018 A 
ATOM      9  C   UNL A   1      32.521  19.025  24.598  1.00  0.00     0.012 A 
ATOM     10  C   UNL A   1      33.290  17.924  24.217  1.00  0.00     0.001 A 
ATOM     11  C   UNL A   1      35.279  19.202  24.646  1.00  0.00     0.047 A 
ATOM     12  C   UNL A   1      34.675  18.012  24.247  1.00  0.00     0.004 A 
BRANCH   8  13
ATOM     13  C   UNL A   1      32.202  21.311  25.392  1.00  0.00     0.036 C 
ATOM     14  N   UNL A   1      32.126  25.890  23.558  1.00  0.00    -0.231 N 
ATOM     15  C   UNL A   1      31.898  24.554  23.691  1.00  0.00     0.322 C 
ATOM     16  H   UNL A   1      32.322  26.149  22.629  1.00  0.00     0.313 HD
ATOM     17  N   UNL A   1      32.297  23.734  22.768  1.00  0.00    -0.199 N 
ATOM     18  S   UNL A   1      31.126  23.774  25.061  1.00  0.00     0.006 SA
ATOM     19  C   UNL A   1      32.143  22.410  23.115  1.00  0.00     0.346 C 
ATOM     20  H   UNL A   1      32.672  24.027  21.907  1.00  0.00     0.316 HD
ATOM     21  C   UNL A   1      31.825  22.290  24.560  1.00  0.00     0.110 C 
ATOM     22  O   UNL A   1      32.196  21.450  22.366  1.00  0.00    -0.240 OA
BRANCH  14  23
ATOM     23  C   UNL A   1      32.147  26.989  24.438  1.00  0.00     0.167 A 
ATOM     24  C   UNL A   1      31.372  28.136  24.143  1.00  0.00     0.165 A 
ATOM     25  C   UNL A   1      31.417  29.274  24.964  1.00  0.00     0.051 A 
ATOM     26  C   UNL A   1      32.215  29.290  26.104  1.00  0.00     0.004 A 
ATOM     27  C   UNL A   1      32.919  27.035  25.608  1.00  0.00     0.056 A 
ATOM     28  C   UNL A   1      32.966  28.170  26.424  1.00  0.00     0.005 A 
BRANCH  24  29
ATOM     29  O   UNL A   1      30.684  28.308  22.964  1.00  0.00    -0.492 OA
ATOM     30  C   UNL A   1      29.497  29.091  23.049  1.00  0.00     0.278 C 
ENDBRANCH  24  29
ENDBRANCH  14  23
ENDBRANCH   8  13
ENDBRANCH   6   7
ENDBRANCH   5   6
ENDBRANCH   3   5
ENDBRANCH   2   3
ENDBRANCH   1   2
BRANCH   1  31
ATOM     31  C   UNL A   1      40.398  20.280  26.192  1.00  0.00     0.202 C 
BRANCH  31  32
ATOM     32  O   UNL A   1      41.322  21.287  25.803  1.00  0.00    -0.374 OA
BRANCH  32  33
ATOM     33  C   UNL A   1      42.699  21.075  26.123  1.00  0.00     0.202 C 
BRANCH  33  34
ATOM     34  C   UNL A   1      43.665  22.057  25.431  1.00  0.00     0.261 C 
BRANCH  34  35
ATOM     35  O   UNL A   1      44.086  23.109  26.317  1.00  0.00    -0.460 OA
BRANCH  35  36
ATOM     36  C   UNL A   1      44.175  24.325  25.733  1.00  0.00     0.338 C 
ATOM     37  O   UNL A   1      44.599  24.582  24.622  1.00  0.00    -0.246 OA
BRANCH  36  38
ATOM     38  C   UNL A   1      43.344  25.239  26.541  1.00  0.00     0.060 A 
ATOM     39  C   UNL A   1      43.857  26.516  26.796  1.00  0.00     0.016 A 
ATOM     40  C   UNL A   1      42.054  24.887  26.956  1.00  0.00     0.016 A 
ATOM     41  C   UNL A   1      43.113  27.419  27.545  1.00  0.00     0.010 A 
ATOM     42  C   UNL A   1      41.306  25.792  27.707  1.00  0.00     0.010 A 
ATOM     43  C   UNL A   1      41.865  27.032  28.053  1.00  0.00    -0.014 A 
BRANCH  43  44
ATOM     44  C   UNL A   1      41.317  27.796  29.190  1.00  0.00     0.031 A 
ATOM     45  C   UNL A   1      42.056  27.697  30.496  1.00  0.00     0.074 A 
ATOM     46  C   UNL A   1      40.261  28.612  29.047  1.00  0.00     0.049 A 
ATOM     47  N   UNL A   1      41.876  28.363  31.605  1.00  0.00    -0.248 NA
ATOM     48  C   UNL A   1      43.160  26.719  30.555  1.00  0.00     0.031 C 
ATOM     49  C   UNL A   1      39.489  28.800  27.821  1.00  0.00     0.029 A 
ATOM     50  N   UNL A   1      39.671  29.452  29.955  1.00  0.00    -0.354 N 
ATOM     51  C   UNL A   1      42.851  27.899  32.478  1.00  0.00     0.074 A 
ATOM     52  C   UNL A   1      43.589  26.865  31.796  1.00  0.00     0.031 C 
ATOM     53  C   UNL A   1      38.528  29.713  28.051  1.00  0.00     0.029 A 
ATOM     54  C   UNL A   1      38.618  30.163  29.438  1.00  0.00     0.049 A 
ATOM     55  H   UNL A   1      39.974  29.537  30.887  1.00  0.00     0.167 HD
ATOM     56  C   UNL A   1      43.122  28.312  33.737  1.00  0.00     0.031 A 
ATOM     57  C   UNL A   1      37.828  31.081  30.026  1.00  0.00     0.031 A 
ATOM     58  C   UNL A   1      42.369  29.319  34.424  1.00  0.00     0.049 A 
ATOM     59  C   UNL A   1      38.103  31.474  31.454  1.00  0.00     0.074 A 
ATOM     60  C   UNL A   1      42.549  29.813  35.700  1.00  0.00     0.029 A 
ATOM     61  N   UNL A   1      41.274  29.976  33.883  1.00  0.00    -0.354 N 
ATOM     62  N   UNL A   1      39.059  31.066  32.255  1.00  0.00    -0.248 NA
ATOM     63  C   UNL A   1      37.199  32.465  32.052  1.00  0.00     0.031 C 
ATOM     64  C   UNL A   1      41.533  30.742  35.950  1.00  0.00     0.029 A 
ATOM     65  C   UNL A   1      40.751  30.856  34.810  1.00  0.00     0.049 A 
ATOM     66  H   UNL A   1      40.923  29.837  32.974  1.00  0.00     0.167 HD
ATOM     67  C   UNL A   1      38.888  31.768  33.441  1.00  0.00     0.074 A 
ATOM     68  C   UNL A   1      37.744  32.636  33.250  1.00  0.00     0.031 C 
ATOM     69  C   UNL A   1      39.610  31.704  34.587  1.00  0.00     0.031 A 
BRANCH  56  70
ATOM     70  C   UNL A   1      44.265  27.641  34.440  1.00  0.00    -0.014 A 
ATOM     71  C   UNL A   1      45.584  28.089  34.269  1.00  0.00     0.009 A 
ATOM     72  C   UNL A   1      44.022  26.536  35.269  1.00  0.00     0.009 A 
ATOM     73  C   UNL A   1      46.642  27.425  34.891  1.00  0.00     0.001 A 
ATOM     74  C   UNL A   1      45.080  25.887  35.908  1.00  0.00     0.001 A 
ATOM     75  C   UNL A   1      46.389  26.326  35.712  1.00  0.00     0.000 A 
ENDBRANCH  56  70
BRANCH  57  76
ATOM     76  C   UNL A   1      36.710  31.699  29.268  1.00  0.00    -0.014 A 
ATOM     77  C   UNL A   1      36.842  32.980  28.711  1.00  0.00     0.009 A 
ATOM     78  C   UNL A   1      35.498  31.010  29.106  1.00  0.00     0.009 A 
ATOM     79  C   UNL A   1      35.774  33.567  28.027  1.00  0.00     0.001 A 
ATOM     80  C   UNL A   1      34.440  31.590  28.402  1.00  0.00     0.001 A 
ATOM     81  C   UNL A   1      34.576  32.872  27.870  1.00  0.00     0.000 A 
ENDBRANCH  57  76
BRANCH  69  82
ATOM     82  C   UNL A   1      39.196  32.610  35.708  1.00  0.00    -0.014 A 
ATOM     83  C   UNL A   1      38.293  32.179  36.692  1.00  0.00     0.009 A 
ATOM     84  C   UNL A   1      39.763  33.890  35.812  1.00  0.00     0.009 A 
ATOM     85  C   UNL A   1      37.948  33.024  37.746  1.00  0.00     0.001 A 
ATOM     86  C   UNL A   1      39.433  34.723  36.881  1.00  0.00     0.001 A 
ATOM     87  C   UNL A   1      38.520  34.293  37.842  1.00  0.00     0.000 A 
ENDBRANCH  69  82
ENDBRANCH  43  44
ENDBRANCH  36  38
ENDBRANCH  35  36
ENDBRANCH  34  35
ENDBRANCH  33  34
ENDBRANCH  32  33
ENDBRANCH  31  32
ENDBRANCH   1  31
TORSDOF 19
ENDMDL
