MODEL 1
REMARK VINA RESULT:     -13.2      0.000      0.000
REMARK SMILES O=C(OCCOCCOC(=O)c1ccc(-c2c3nc(c(-c4ccccc4)c4ccc([nH]4)c(-c4ccccc4)c4nc(c(-c5ccccc5)c5ccc2[nH]5)C=C4)C=C3)cc1)C1=Cc2cc(Cl)cc(-c3ccc(CO)cc3)c2O[C@@H]1C(F)(F)F
REMARK SMILES IDX 5 1 4 2 3 3 2 4 1 5 60 6 61 7 78 8 62 9 77 10 63 11 76 12
REMARK SMILES IDX 64 13 67 14 65 15 66 16 79 17 80 18 81 19 82 20 68 21 69 22
REMARK SMILES IDX 75 23 70 24 74 25 71 26 72 27 73 28 6 30 7 31 8 32 9 33
REMARK SMILES IDX 10 34 11 35 12 36 13 37 59 38 14 39 58 40 15 41 16 42 17 43
REMARK SMILES IDX 52 44 18 45 57 46 51 47 53 48 19 49 56 50 50 51 49 52 20 54
REMARK SMILES IDX 42 55 27 56 41 57 28 58 31 59 40 60 54 61 29 62 30 63 39 65
REMARK SMILES IDX 55 66 32 67 21 68 22 69 26 70 23 71 25 72 24 73 43 74 44 75
REMARK SMILES IDX 48 76 45 77 47 78 46 79 33 80 34 81 38 82 35 83 37 84 36 85
REMARK H PARENT 73 29 53 53 31 64
REMARK Flexibility Score: inf
ROOT
ATOM      1  C   UNL A   1      29.689  28.846  23.411  1.00  0.00     0.202 C 
ENDROOT
BRANCH   1   2
ATOM      2  C   UNL A   1      30.764  27.229  22.428  1.00  0.00     0.261 C 
BRANCH   2   3
ATOM      3  O   UNL A   1      30.825  25.759  22.899  1.00  0.00    -0.460 OA
BRANCH   3   4
ATOM      4  C   UNL A   1      32.046  25.226  22.782  1.00  0.00     0.338 C 
ATOM      5  O   UNL A   1      32.601  24.787  21.807  1.00  0.00    -0.246 OA
BRANCH   4   6
ATOM      6  C   UNL A   1      32.249  24.998  24.199  1.00  0.00     0.087 C 
ATOM      7  C   UNL A   1      31.838  23.659  24.610  1.00  0.00     0.027 C 
ATOM      8  C   UNL A   1      34.070  25.638  24.224  1.00  0.00     0.316 C 
ATOM      9  C   UNL A   1      32.983  22.321  24.976  1.00  0.00     0.019 A 
ATOM     10  O   UNL A   1      35.341  24.195  24.592  1.00  0.00    -0.475 OA
ATOM     11  C   UNL A   1      32.404  21.087  25.108  1.00  0.00     0.032 A 
ATOM     12  C   UNL A   1      34.726  22.484  24.890  1.00  0.00     0.135 A 
ATOM     13  C   UNL A   1      33.294  20.019  25.058  1.00  0.00     0.042 A 
ATOM     14  C   UNL A   1      35.549  21.317  24.946  1.00  0.00     0.026 A 
ATOM     15  Cl  UNL A   1      32.615  18.426  25.171  1.00  0.00    -0.084 Cl
ATOM     16  C   UNL A   1      34.734  20.128  24.926  1.00  0.00     0.033 A 
BRANCH   8  17
ATOM     17  C   UNL A   1      33.631  27.014  24.997  1.00  0.00     0.430 C 
ATOM     18  F   UNL A   1      32.334  27.109  25.338  1.00  0.00    -0.167 F 
ATOM     19  F   UNL A   1      34.281  27.036  26.204  1.00  0.00    -0.167 F 
ATOM     20  F   UNL A   1      34.017  28.166  24.399  1.00  0.00    -0.167 F 
ENDBRANCH   8  17
BRANCH  14  21
ATOM     21  C   UNL A   1      37.148  21.110  25.072  1.00  0.00    -0.015 A 
ATOM     22  C   UNL A   1      37.758  22.628  25.859  1.00  0.00     0.009 A 
ATOM     23  C   UNL A   1      38.444  19.545  25.048  1.00  0.00     0.009 A 
ATOM     24  C   UNL A   1      39.384  22.642  26.560  1.00  0.00     0.007 A 
ATOM     25  C   UNL A   1      40.050  19.698  25.823  1.00  0.00     0.007 A 
ATOM     26  C   UNL A   1      40.475  21.234  26.535  1.00  0.00    -0.023 A 
BRANCH  26  27
ATOM     27  C   UNL A   1      41.940  21.404  26.832  1.00  0.00     0.191 C 
BRANCH  27  28
ATOM     28  O   UNL A   1      42.243  20.748  28.058  1.00  0.00    -0.392 OA
ATOM     29  H   UNL A   1      42.616  19.872  27.873  1.00  0.00     0.211 HD
ENDBRANCH  27  28
ENDBRANCH  26  27
ENDBRANCH  14  21
ENDBRANCH   4   6
ENDBRANCH   3   4
ENDBRANCH   2   3
ENDBRANCH   1   2
BRANCH   1  30
ATOM     30  O   UNL A   1      30.272  30.202  24.154  1.00  0.00    -0.374 OA
BRANCH  30  31
ATOM     31  C   UNL A   1      31.213  30.437  25.238  1.00  0.00     0.202 C 
BRANCH  31  32
ATOM     32  C   UNL A   1      31.102  31.723  26.048  1.00  0.00     0.261 C 
BRANCH  32  33
ATOM     33  O   UNL A   1      31.794  31.577  27.255  1.00  0.00    -0.460 OA
BRANCH  33  34
ATOM     34  C   UNL A   1      32.630  32.602  27.484  1.00  0.00     0.338 C 
ATOM     35  O   UNL A   1      32.428  33.800  27.501  1.00  0.00    -0.246 OA
BRANCH  34  36
ATOM     36  C   UNL A   1      33.878  31.957  27.772  1.00  0.00     0.060 A 
ATOM     37  C   UNL A   1      34.082  30.213  27.459  1.00  0.00     0.016 A 
ATOM     38  C   UNL A   1      35.178  32.835  28.688  1.00  0.00     0.016 A 
ATOM     39  C   UNL A   1      35.496  29.285  28.055  1.00  0.00     0.010 A 
ATOM     40  C   UNL A   1      36.747  31.727  29.303  1.00  0.00     0.010 A 
ATOM     41  C   UNL A   1      36.814  29.989  28.971  1.00  0.00    -0.014 A 
BRANCH  41  42
ATOM     42  C   UNL A   1      37.840  29.329  29.848  1.00  0.00     0.031 A 
ATOM     43  C   UNL A   1      38.093  29.837  31.261  1.00  0.00     0.074 A 
ATOM     44  C   UNL A   1      38.859  28.692  29.233  1.00  0.00     0.049 A 
ATOM     45  N   UNL A   1      39.123  29.645  32.057  1.00  0.00    -0.248 NA
ATOM     46  C   UNL A   1      37.098  30.759  31.821  1.00  0.00     0.031 C 
ATOM     47  C   UNL A   1      38.896  28.360  27.811  1.00  0.00     0.029 A 
ATOM     48  N   UNL A   1      40.095  28.303  29.700  1.00  0.00    -0.354 N 
ATOM     49  C   UNL A   1      38.902  30.438  33.183  1.00  0.00     0.074 A 
ATOM     50  C   UNL A   1      37.694  31.188  32.924  1.00  0.00     0.031 C 
ATOM     51  C   UNL A   1      40.098  27.840  27.514  1.00  0.00     0.029 A 
ATOM     52  C   UNL A   1      40.918  27.794  28.723  1.00  0.00     0.049 A 
ATOM     53  H   UNL A   1      40.364  28.383  30.644  1.00  0.00     0.167 HD
ATOM     54  C   UNL A   1      39.604  30.516  34.345  1.00  0.00     0.031 A 
ATOM     55  C   UNL A   1      42.184  27.333  28.782  1.00  0.00     0.031 A 
ATOM     56  C   UNL A   1      40.818  29.783  34.599  1.00  0.00     0.049 A 
ATOM     57  C   UNL A   1      42.916  27.311  30.098  1.00  0.00     0.074 A 
ATOM     58  C   UNL A   1      41.509  29.633  35.789  1.00  0.00     0.029 A 
ATOM     59  N   UNL A   1      41.540  29.106  33.630  1.00  0.00    -0.354 N 
ATOM     60  N   UNL A   1      42.566  27.838  31.246  1.00  0.00    -0.248 NA
ATOM     61  C   UNL A   1      44.201  26.596  30.136  1.00  0.00     0.031 C 
ATOM     62  C   UNL A   1      42.686  28.926  35.526  1.00  0.00     0.029 A 
ATOM     63  C   UNL A   1      42.683  28.560  34.190  1.00  0.00     0.049 A 
ATOM     64  H   UNL A   1      41.280  29.025  32.685  1.00  0.00     0.167 HD
ATOM     65  C   UNL A   1      43.560  27.478  32.150  1.00  0.00     0.074 A 
ATOM     66  C   UNL A   1      44.526  26.687  31.419  1.00  0.00     0.031 C 
ATOM     67  C   UNL A   1      43.649  27.770  33.470  1.00  0.00     0.031 A 
BRANCH  54  68
ATOM     68  C   UNL A   1      39.059  31.392  35.456  1.00  0.00    -0.014 A 
ATOM     69  C   UNL A   1      39.362  32.765  35.512  1.00  0.00     0.009 A 
ATOM     70  C   UNL A   1      38.178  30.869  36.417  1.00  0.00     0.009 A 
ATOM     71  C   UNL A   1      38.862  33.571  36.539  1.00  0.00     0.001 A 
ATOM     72  C   UNL A   1      37.641  31.687  37.418  1.00  0.00     0.001 A 
ATOM     73  C   UNL A   1      37.998  33.031  37.489  1.00  0.00     0.000 A 
ENDBRANCH  54  68
BRANCH  55  74
ATOM     74  C   UNL A   1      42.804  26.737  27.566  1.00  0.00    -0.014 A 
ATOM     75  C   UNL A   1      42.554  25.393  27.244  1.00  0.00     0.009 A 
ATOM     76  C   UNL A   1      43.611  27.499  26.710  1.00  0.00     0.009 A 
ATOM     77  C   UNL A   1      43.125  24.815  26.108  1.00  0.00     0.001 A 
ATOM     78  C   UNL A   1      44.155  26.926  25.556  1.00  0.00     0.001 A 
ATOM     79  C   UNL A   1      43.920  25.584  25.261  1.00  0.00     0.000 A 
ENDBRANCH  55  74
BRANCH  67  80
ATOM     80  C   UNL A   1      44.798  27.192  34.252  1.00  0.00    -0.014 A 
ATOM     81  C   UNL A   1      45.967  27.925  34.503  1.00  0.00     0.009 A 
ATOM     82  C   UNL A   1      44.664  25.916  34.824  1.00  0.00     0.009 A 
ATOM     83  C   UNL A   1      46.985  27.382  35.294  1.00  0.00     0.001 A 
ATOM     84  C   UNL A   1      45.666  25.390  35.641  1.00  0.00     0.001 A 
ATOM     85  C   UNL A   1      46.829  26.122  35.870  1.00  0.00     0.000 A 
ENDBRANCH  67  80
ENDBRANCH  41  42
ENDBRANCH  34  36
ENDBRANCH  33  34
ENDBRANCH  32  33
ENDBRANCH  31  32
ENDBRANCH  30  31
ENDBRANCH   1  30
TORSDOF 18
ENDMDL
MODEL 2
REMARK VINA RESULT:     -13.0      1.521      5.940
REMARK SMILES O=C(OCCOCCOC(=O)c1ccc(-c2c3nc(c(-c4ccccc4)c4ccc([nH]4)c(-c4ccccc4)c4nc(c(-c5ccccc5)c5ccc2[nH]5)C=C4)C=C3)cc1)C1=Cc2cc(Cl)cc(-c3ccc(CO)cc3)c2O[C@@H]1C(F)(F)F
REMARK SMILES IDX 5 1 4 2 3 3 2 4 1 5 60 6 61 7 78 8 62 9 77 10 63 11 76 12
REMARK SMILES IDX 64 13 67 14 65 15 66 16 79 17 80 18 81 19 82 20 68 21 69 22
REMARK SMILES IDX 75 23 70 24 74 25 71 26 72 27 73 28 6 30 7 31 8 32 9 33
REMARK SMILES IDX 10 34 11 35 12 36 13 37 59 38 14 39 58 40 15 41 16 42 17 43
REMARK SMILES IDX 52 44 18 45 57 46 51 47 53 48 19 49 56 50 50 51 49 52 20 54
REMARK SMILES IDX 42 55 27 56 41 57 28 58 31 59 40 60 54 61 29 62 30 63 39 65
REMARK SMILES IDX 55 66 32 67 21 68 22 69 26 70 23 71 25 72 24 73 43 74 44 75
REMARK SMILES IDX 48 76 45 77 47 78 46 79 33 80 34 81 38 82 35 83 37 84 36 85
REMARK H PARENT 73 29 53 53 31 64
REMARK Flexibility Score: inf
ROOT
ATOM      1  C   UNL A   1      30.300  28.831  24.210  1.00  0.00     0.202 C 
ENDROOT
BRANCH   1   2
ATOM      2  C   UNL A   1      31.027  27.339  22.803  1.00  0.00     0.261 C 
BRANCH   2   3
ATOM      3  O   UNL A   1      30.866  25.809  22.934  1.00  0.00    -0.460 OA
BRANCH   3   4
ATOM      4  C   UNL A   1      32.022  25.150  22.796  1.00  0.00     0.338 C 
ATOM      5  O   UNL A   1      32.517  24.670  21.808  1.00  0.00    -0.246 OA
BRANCH   4   6
ATOM      6  C   UNL A   1      32.212  24.878  24.207  1.00  0.00     0.087 C 
ATOM      7  C   UNL A   1      31.796  23.528  24.573  1.00  0.00     0.027 C 
ATOM      8  C   UNL A   1      34.033  25.515  24.267  1.00  0.00     0.316 C 
ATOM      9  C   UNL A   1      32.938  22.178  24.908  1.00  0.00     0.019 A 
ATOM     10  O   UNL A   1      35.300  24.061  24.602  1.00  0.00    -0.475 OA
ATOM     11  C   UNL A   1      32.357  20.942  24.997  1.00  0.00     0.032 A 
ATOM     12  C   UNL A   1      34.681  22.342  24.842  1.00  0.00     0.135 A 
ATOM     13  C   UNL A   1      33.247  19.874  24.922  1.00  0.00     0.042 A 
ATOM     14  C   UNL A   1      35.503  21.173  24.869  1.00  0.00     0.026 A 
ATOM     15  Cl  UNL A   1      32.566  18.279  24.981  1.00  0.00    -0.084 Cl
ATOM     16  C   UNL A   1      34.688  19.986  24.806  1.00  0.00     0.033 A 
BRANCH   8  17
ATOM     17  C   UNL A   1      33.589  26.868  25.077  1.00  0.00     0.430 C 
ATOM     18  F   UNL A   1      32.389  26.823  25.684  1.00  0.00    -0.167 F 
ATOM     19  F   UNL A   1      34.467  27.034  26.118  1.00  0.00    -0.167 F 
ATOM     20  F   UNL A   1      33.689  28.024  24.380  1.00  0.00    -0.167 F 
ENDBRANCH   8  17
BRANCH  14  21
ATOM     21  C   UNL A   1      37.101  20.961  25.002  1.00  0.00    -0.015 A 
ATOM     22  C   UNL A   1      37.714  22.480  25.785  1.00  0.00     0.009 A 
ATOM     23  C   UNL A   1      38.391  19.390  24.991  1.00  0.00     0.009 A 
ATOM     24  C   UNL A   1      39.336  22.492  26.491  1.00  0.00     0.007 A 
ATOM     25  C   UNL A   1      39.995  19.541  25.771  1.00  0.00     0.007 A 
ATOM     26  C   UNL A   1      40.423  21.079  26.478  1.00  0.00    -0.023 A 
BRANCH  26  27
ATOM     27  C   UNL A   1      41.887  21.246  26.779  1.00  0.00     0.191 C 
BRANCH  27  28
ATOM     28  O   UNL A   1      42.182  20.596  28.011  1.00  0.00    -0.392 OA
ATOM     29  H   UNL A   1      41.531  19.896  28.172  1.00  0.00     0.211 HD
ENDBRANCH  27  28
ENDBRANCH  26  27
ENDBRANCH  14  21
ENDBRANCH   4   6
ENDBRANCH   3   4
ENDBRANCH   2   3
ENDBRANCH   1   2
BRANCH   1  30
ATOM     30  O   UNL A   1      31.076  30.141  24.852  1.00  0.00    -0.374 OA
BRANCH  30  31
ATOM     31  C   UNL A   1      31.950  30.338  25.999  1.00  0.00     0.202 C 
BRANCH  31  32
ATOM     32  C   UNL A   1      31.754  31.571  26.874  1.00  0.00     0.261 C 
BRANCH  32  33
ATOM     33  O   UNL A   1      32.990  31.985  27.383  1.00  0.00    -0.460 OA
BRANCH  33  34
ATOM     34  C   UNL A   1      32.960  33.258  27.806  1.00  0.00     0.338 C 
ATOM     35  O   UNL A   1      32.149  34.140  27.608  1.00  0.00    -0.246 OA
BRANCH  34  36
ATOM     36  C   UNL A   1      34.126  33.360  28.635  1.00  0.00     0.060 A 
ATOM     37  C   UNL A   1      35.628  34.074  27.990  1.00  0.00     0.016 A 
ATOM     38  C   UNL A   1      34.176  32.545  30.258  1.00  0.00     0.016 A 
ATOM     39  C   UNL A   1      37.193  33.975  28.859  1.00  0.00     0.010 A 
ATOM     40  C   UNL A   1      35.968  32.496  31.182  1.00  0.00     0.010 A 
ATOM     41  C   UNL A   1      37.402  33.200  30.417  1.00  0.00    -0.014 A 
BRANCH  41  42
ATOM     42  C   UNL A   1      38.650  32.701  31.088  1.00  0.00     0.031 A 
ATOM     43  C   UNL A   1      39.297  31.395  30.645  1.00  0.00     0.074 A 
ATOM     44  C   UNL A   1      38.866  33.092  32.360  1.00  0.00     0.049 A 
ATOM     45  N   UNL A   1      40.159  30.623  31.272  1.00  0.00    -0.248 NA
ATOM     46  C   UNL A   1      38.846  30.832  29.367  1.00  0.00     0.031 C 
ATOM     47  C   UNL A   1      38.140  34.165  33.036  1.00  0.00     0.029 A 
ATOM     48  N   UNL A   1      39.681  32.570  33.341  1.00  0.00    -0.354 N 
ATOM     49  C   UNL A   1      40.323  29.490  30.475  1.00  0.00     0.074 A 
ATOM     50  C   UNL A   1      39.399  29.628  29.373  1.00  0.00     0.031 C 
ATOM     51  C   UNL A   1      38.521  34.210  34.323  1.00  0.00     0.029 A 
ATOM     52  C   UNL A   1      39.523  33.174  34.567  1.00  0.00     0.049 A 
ATOM     53  H   UNL A   1      40.314  31.834  33.179  1.00  0.00     0.167 HD
ATOM     54  C   UNL A   1      41.183  28.446  30.612  1.00  0.00     0.031 A 
ATOM     55  C   UNL A   1      40.117  32.936  35.755  1.00  0.00     0.031 A 
ATOM     56  C   UNL A   1      42.093  28.297  31.719  1.00  0.00     0.049 A 
ATOM     57  C   UNL A   1      41.159  31.854  35.871  1.00  0.00     0.074 A 
ATOM     58  C   UNL A   1      43.133  27.396  31.873  1.00  0.00     0.029 A 
ATOM     59  N   UNL A   1      42.043  29.051  32.879  1.00  0.00    -0.354 N 
ATOM     60  N   UNL A   1      41.503  30.942  34.996  1.00  0.00    -0.248 NA
ATOM     61  C   UNL A   1      41.922  31.794  37.128  1.00  0.00     0.031 C 
ATOM     62  C   UNL A   1      43.666  27.558  33.156  1.00  0.00     0.029 A 
ATOM     63  C   UNL A   1      43.015  28.618  33.765  1.00  0.00     0.049 A 
ATOM     64  H   UNL A   1      41.411  29.785  33.050  1.00  0.00     0.167 HD
ATOM     65  C   UNL A   1      42.552  30.234  35.575  1.00  0.00     0.074 A 
ATOM     66  C   UNL A   1      42.789  30.823  36.875  1.00  0.00     0.031 C 
ATOM     67  C   UNL A   1      43.259  29.199  35.061  1.00  0.00     0.031 A 
BRANCH  54  68
ATOM     68  C   UNL A   1      41.220  27.398  29.518  1.00  0.00    -0.014 A 
ATOM     69  C   UNL A   1      40.161  26.487  29.349  1.00  0.00     0.009 A 
ATOM     70  C   UNL A   1      42.281  27.356  28.598  1.00  0.00     0.009 A 
ATOM     71  C   UNL A   1      40.198  25.518  28.342  1.00  0.00     0.001 A 
ATOM     72  C   UNL A   1      42.295  26.415  27.561  1.00  0.00     0.001 A 
ATOM     73  C   UNL A   1      41.263  25.486  27.446  1.00  0.00     0.000 A 
ENDBRANCH  54  68
BRANCH  55  74
ATOM     74  C   UNL A   1      39.822  33.825  36.911  1.00  0.00    -0.014 A 
ATOM     75  C   UNL A   1      40.408  35.101  36.977  1.00  0.00     0.009 A 
ATOM     76  C   UNL A   1      38.943  33.432  37.931  1.00  0.00     0.009 A 
ATOM     77  C   UNL A   1      40.145  35.950  38.052  1.00  0.00     0.001 A 
ATOM     78  C   UNL A   1      38.656  34.299  38.990  1.00  0.00     0.001 A 
ATOM     79  C   UNL A   1      39.264  35.552  39.055  1.00  0.00     0.000 A 
ENDBRANCH  55  74
BRANCH  67  80
ATOM     80  C   UNL A   1      44.407  28.651  35.866  1.00  0.00    -0.014 A 
ATOM     81  C   UNL A   1      44.224  27.649  36.831  1.00  0.00     0.009 A 
ATOM     82  C   UNL A   1      45.712  29.088  35.583  1.00  0.00     0.009 A 
ATOM     83  C   UNL A   1      45.323  27.114  37.510  1.00  0.00     0.001 A 
ATOM     84  C   UNL A   1      46.810  28.527  36.236  1.00  0.00     0.001 A 
ATOM     85  C   UNL A   1      46.614  27.544  37.204  1.00  0.00     0.000 A 
ENDBRANCH  67  80
ENDBRANCH  41  42
ENDBRANCH  34  36
ENDBRANCH  33  34
ENDBRANCH  32  33
ENDBRANCH  31  32
ENDBRANCH  30  31
ENDBRANCH   1  30
TORSDOF 18
ENDMDL
MODEL 3
REMARK VINA RESULT:     -12.7      5.129      7.696
REMARK SMILES O=C(OCCOCCOC(=O)c1ccc(-c2c3nc(c(-c4ccccc4)c4ccc([nH]4)c(-c4ccccc4)c4nc(c(-c5ccccc5)c5ccc2[nH]5)C=C4)C=C3)cc1)C1=Cc2cc(Cl)cc(-c3ccc(CO)cc3)c2O[C@@H]1C(F)(F)F
REMARK SMILES IDX 5 1 4 2 3 3 2 4 1 5 60 6 61 7 78 8 62 9 77 10 63 11 76 12
REMARK SMILES IDX 64 13 67 14 65 15 66 16 79 17 80 18 81 19 82 20 68 21 69 22
REMARK SMILES IDX 75 23 70 24 74 25 71 26 72 27 73 28 6 30 7 31 8 32 9 33
REMARK SMILES IDX 10 34 11 35 12 36 13 37 59 38 14 39 58 40 15 41 16 42 17 43
REMARK SMILES IDX 52 44 18 45 57 46 51 47 53 48 19 49 56 50 50 51 49 52 20 54
REMARK SMILES IDX 42 55 27 56 41 57 28 58 31 59 40 60 54 61 29 62 30 63 39 65
REMARK SMILES IDX 55 66 32 67 21 68 22 69 26 70 23 71 25 72 24 73 43 74 44 75
REMARK SMILES IDX 48 76 45 77 47 78 46 79 33 80 34 81 38 82 35 83 37 84 36 85
REMARK H PARENT 73 29 53 53 31 64
REMARK Flexibility Score: inf
ROOT
ATOM      1  C   UNL A   1      37.652  31.591  28.932  1.00  0.00     0.202 C 
ENDROOT
BRANCH   1   2
ATOM      2  C   UNL A   1      38.390  29.564  28.652  1.00  0.00     0.261 C 
BRANCH   2   3
ATOM      3  O   UNL A   1      39.844  29.086  28.864  1.00  0.00    -0.460 OA
BRANCH   3   4
ATOM      4  C   UNL A   1      39.985  27.765  28.714  1.00  0.00     0.338 C 
ATOM      5  O   UNL A   1      39.276  26.869  29.098  1.00  0.00    -0.246 OA
BRANCH   4   6
ATOM      6  C   UNL A   1      41.386  27.802  28.343  1.00  0.00     0.087 C 
ATOM      7  C   UNL A   1      42.241  27.164  29.339  1.00  0.00     0.027 C 
ATOM      8  C   UNL A   1      41.113  27.139  26.551  1.00  0.00     0.316 C 
ATOM      9  C   UNL A   1      42.985  25.539  29.136  1.00  0.00     0.019 A 
ATOM     10  O   UNL A   1      41.889  25.358  26.311  1.00  0.00    -0.475 OA
ATOM     11  C   UNL A   1      43.549  25.019  30.270  1.00  0.00     0.032 A 
ATOM     12  C   UNL A   1      42.772  24.545  27.709  1.00  0.00     0.135 A 
ATOM     13  C   UNL A   1      43.822  23.655  30.211  1.00  0.00     0.042 A 
ATOM     14  C   UNL A   1      43.181  23.176  27.733  1.00  0.00     0.026 A 
ATOM     15  Cl  UNL A   1      44.495  22.927  31.635  1.00  0.00    -0.084 Cl
ATOM     16  C   UNL A   1      43.598  22.801  29.060  1.00  0.00     0.033 A 
BRANCH   8  17
ATOM     17  C   UNL A   1      41.397  28.618  25.904  1.00  0.00     0.430 C 
ATOM     18  F   UNL A   1      42.339  29.357  26.516  1.00  0.00    -0.167 F 
ATOM     19  F   UNL A   1      41.907  28.428  24.646  1.00  0.00    -0.167 F 
ATOM     20  F   UNL A   1      40.299  29.383  25.697  1.00  0.00    -0.167 F 
ENDBRANCH   8  17
BRANCH  14  21
ATOM     21  C   UNL A   1      43.298  22.048  26.579  1.00  0.00    -0.015 A 
ATOM     22  C   UNL A   1      44.772  22.504  25.623  1.00  0.00     0.009 A 
ATOM     23  C   UNL A   1      42.593  20.166  26.273  1.00  0.00     0.009 A 
ATOM     24  C   UNL A   1      45.498  21.311  24.537  1.00  0.00     0.007 A 
ATOM     25  C   UNL A   1      43.452  19.057  25.161  1.00  0.00     0.007 A 
ATOM     26  C   UNL A   1      44.857  19.663  24.320  1.00  0.00    -0.023 A 
BRANCH  26  27
ATOM     27  C   UNL A   1      45.299  18.824  23.152  1.00  0.00     0.191 C 
BRANCH  27  28
ATOM     28  O   UNL A   1      44.531  19.182  22.009  1.00  0.00    -0.392 OA
ATOM     29  H   UNL A   1      43.632  19.419  22.284  1.00  0.00     0.211 HD
ENDBRANCH  27  28
ENDBRANCH  26  27
ENDBRANCH  14  21
ENDBRANCH   4   6
ENDBRANCH   3   4
ENDBRANCH   2   3
ENDBRANCH   1   2
BRANCH   1  30
ATOM     30  O   UNL A   1      36.100  32.158  28.935  1.00  0.00    -0.374 OA
BRANCH  30  31
ATOM     31  C   UNL A   1      35.080  32.311  29.962  1.00  0.00     0.202 C 
BRANCH  31  32
ATOM     32  C   UNL A   1      35.418  33.088  31.229  1.00  0.00     0.261 C 
BRANCH  32  33
ATOM     33  O   UNL A   1      34.957  32.385  32.346  1.00  0.00    -0.460 OA
BRANCH  33  34
ATOM     34  C   UNL A   1      35.620  32.722  33.463  1.00  0.00     0.338 C 
ATOM     35  O   UNL A   1      35.310  33.460  34.376  1.00  0.00    -0.246 OA
BRANCH  34  36
ATOM     36  C   UNL A   1      36.824  31.946  33.383  1.00  0.00     0.060 A 
ATOM     37  C   UNL A   1      38.399  32.688  33.764  1.00  0.00     0.016 A 
ATOM     38  C   UNL A   1      36.798  30.281  32.654  1.00  0.00     0.016 A 
ATOM     39  C   UNL A   1      39.959  31.875  33.411  1.00  0.00     0.010 A 
ATOM     40  C   UNL A   1      38.591  29.425  32.310  1.00  0.00     0.010 A 
ATOM     41  C   UNL A   1      40.093  30.284  32.689  1.00  0.00    -0.014 A 
BRANCH  41  42
ATOM     42  C   UNL A   1      41.256  29.634  31.994  1.00  0.00     0.031 A 
ATOM     43  C   UNL A   1      42.106  28.595  32.714  1.00  0.00     0.074 A 
ATOM     44  C   UNL A   1      41.847  30.328  30.999  1.00  0.00     0.049 A 
ATOM     45  N   UNL A   1      43.316  28.157  32.441  1.00  0.00    -0.248 NA
ATOM     46  C   UNL A   1      41.561  28.042  33.960  1.00  0.00     0.031 C 
ATOM     47  C   UNL A   1      41.285  31.521  30.368  1.00  0.00     0.029 A 
ATOM     48  N   UNL A   1      43.088  30.194  30.417  1.00  0.00    -0.354 N 
ATOM     49  C   UNL A   1      43.671  27.307  33.489  1.00  0.00     0.074 A 
ATOM     50  C   UNL A   1      42.593  27.370  34.449  1.00  0.00     0.031 C 
ATOM     51  C   UNL A   1      42.183  32.024  29.506  1.00  0.00     0.029 A 
ATOM     52  C   UNL A   1      43.383  31.189  29.514  1.00  0.00     0.049 A 
ATOM     53  H   UNL A   1      43.705  29.456  30.628  1.00  0.00     0.167 HD
ATOM     54  C   UNL A   1      44.766  26.514  33.634  1.00  0.00     0.031 A 
ATOM     55  C   UNL A   1      44.484  31.410  28.767  1.00  0.00     0.031 A 
ATOM     56  C   UNL A   1      45.850  26.462  32.687  1.00  0.00     0.049 A 
ATOM     57  C   UNL A   1      45.649  30.457  28.845  1.00  0.00     0.074 A 
ATOM     58  C   UNL A   1      46.908  25.572  32.627  1.00  0.00     0.029 A 
ATOM     59  N   UNL A   1      46.029  27.367  31.654  1.00  0.00    -0.354 N 
ATOM     60  N   UNL A   1      45.852  29.468  29.679  1.00  0.00    -0.248 NA
ATOM     61  C   UNL A   1      46.719  30.628  27.849  1.00  0.00     0.031 C 
ATOM     62  C   UNL A   1      47.766  25.981  31.601  1.00  0.00     0.029 A 
ATOM     63  C   UNL A   1      47.195  27.073  30.968  1.00  0.00     0.049 A 
ATOM     64  H   UNL A   1      45.420  28.108  31.440  1.00  0.00     0.167 HD
ATOM     65  C   UNL A   1      47.043  28.871  29.281  1.00  0.00     0.074 A 
ATOM     66  C   UNL A   1      47.517  29.607  28.129  1.00  0.00     0.031 C 
ATOM     67  C   UNL A   1      47.674  27.799  29.819  1.00  0.00     0.031 A 
BRANCH  54  68
ATOM     68  C   UNL A   1      44.833  25.597  34.840  1.00  0.00    -0.014 A 
ATOM     69  C   UNL A   1      45.361  26.047  36.064  1.00  0.00     0.009 A 
ATOM     70  C   UNL A   1      44.303  24.297  34.785  1.00  0.00     0.009 A 
ATOM     71  C   UNL A   1      45.426  25.199  37.174  1.00  0.00     0.001 A 
ATOM     72  C   UNL A   1      44.326  23.465  35.911  1.00  0.00     0.001 A 
ATOM     73  C   UNL A   1      44.905  23.910  37.097  1.00  0.00     0.000 A 
ENDBRANCH  54  68
BRANCH  55  74
ATOM     74  C   UNL A   1      44.490  32.528  27.784  1.00  0.00    -0.014 A 
ATOM     75  C   UNL A   1      44.148  32.279  26.444  1.00  0.00     0.009 A 
ATOM     76  C   UNL A   1      44.800  33.839  28.170  1.00  0.00     0.009 A 
ATOM     77  C   UNL A   1      44.147  33.313  25.506  1.00  0.00     0.001 A 
ATOM     78  C   UNL A   1      44.765  34.878  27.235  1.00  0.00     0.001 A 
ATOM     79  C   UNL A   1      44.449  34.613  25.903  1.00  0.00     0.000 A 
ENDBRANCH  55  74
BRANCH  67  80
ATOM     80  C   UNL A   1      48.925  27.298  29.149  1.00  0.00    -0.014 A 
ATOM     81  C   UNL A   1      48.880  26.433  28.045  1.00  0.00     0.009 A 
ATOM     82  C   UNL A   1      50.172  27.778  29.582  1.00  0.00     0.009 A 
ATOM     83  C   UNL A   1      50.061  26.044  27.404  1.00  0.00     0.001 A 
ATOM     84  C   UNL A   1      51.346  27.417  28.919  1.00  0.00     0.001 A 
ATOM     85  C   UNL A   1      51.290  26.544  27.834  1.00  0.00     0.000 A 
ENDBRANCH  67  80
ENDBRANCH  41  42
ENDBRANCH  34  36
ENDBRANCH  33  34
ENDBRANCH  32  33
ENDBRANCH  31  32
ENDBRANCH  30  31
ENDBRANCH   1  30
TORSDOF 18
ENDMDL
