MODEL 1
REMARK VINA RESULT:     -11.3      0.000      0.000
REMARK SMILES Cc1cccc(CN(C)c2ccc(C(=O)OCCOCCOC(=O)c3ccc(-c4c5nc(c(-c6ccccc6)c6ccc([nH]6)c(-c6ccccc6)c6nc(c(-c7ccccc7)c7ccc4[nH]7)C=C6)C=C5)cc3)cc2C)n1
REMARK SMILES IDX 18 1 17 2 16 3 14 4 15 5 13 6 10 7 11 8 74 9 12 10 73 11
REMARK SMILES IDX 75 12 8 13 9 14 7 15 6 16 1 17 2 18 3 19 76 20 4 21 5 22
REMARK SMILES IDX 19 23 20 24 21 25 22 26 23 27 24 28 25 29 26 30 72 31 27 32
REMARK SMILES IDX 71 33 28 34 29 35 30 36 65 37 31 38 70 39 64 40 66 41 32 42
REMARK SMILES IDX 69 43 63 44 62 45 33 47 55 48 40 49 54 50 41 51 44 52 53 53
REMARK SMILES IDX 67 54 42 55 43 56 52 58 68 59 45 60 34 61 35 62 39 63 36 64
REMARK SMILES IDX 38 65 37 66 56 67 57 68 61 69 58 70 60 71 59 72 46 73 47 74
REMARK SMILES IDX 51 75 48 76 50 77 49 78
REMARK H PARENT 66 46 44 57
REMARK Flexibility Score: inf
ROOT
ATOM      1  C   UNL A   1      41.807  19.603  26.595  1.00  0.00     0.202 C 
ENDROOT
BRANCH   1   2
ATOM      2  C   UNL A   1      40.432  19.922  26.116  1.00  0.00     0.261 C 
BRANCH   2   3
ATOM      3  O   UNL A   1      40.300  21.303  25.769  1.00  0.00    -0.460 OA
BRANCH   3   4
ATOM      4  C   UNL A   1      39.725  22.177  26.644  1.00  0.00     0.338 C 
ATOM      5  O   UNL A   1      40.199  22.688  27.631  1.00  0.00    -0.246 OA
BRANCH   4   6
ATOM      6  C   UNL A   1      38.418  22.509  26.046  1.00  0.00     0.060 A 
ATOM      7  C   UNL A   1      35.816  23.185  25.212  1.00  0.00     0.040 A 
ATOM      8  C   UNL A   1      36.679  24.107  25.801  1.00  0.00     0.027 A 
ATOM      9  C   UNL A   1      36.240  21.840  25.180  1.00  0.00    -0.027 A 
ATOM     10  C   UNL A   1      37.979  23.820  26.115  1.00  0.00     0.018 A 
ATOM     11  C   UNL A   1      37.547  21.511  25.609  1.00  0.00     0.021 A 
ATOM     12  C   UNL A   1      35.329  20.702  24.812  1.00  0.00     0.046 C 
BRANCH   7  13
ATOM     13  N   UNL A   1      34.614  23.655  24.698  1.00  0.00    -0.368 N 
ATOM     14  C   UNL A   1      34.466  23.656  23.253  1.00  0.00     0.144 C 
BRANCH  13  15
ATOM     15  C   UNL A   1      33.386  23.611  25.544  1.00  0.00     0.172 C 
BRANCH  15  16
ATOM     16  C   UNL A   1      32.790  24.956  25.990  1.00  0.00     0.060 A 
ATOM     17  C   UNL A   1      33.975  28.450  26.136  1.00  0.00     0.067 C 
ATOM     18  C   UNL A   1      33.053  27.269  26.224  1.00  0.00     0.038 A 
ATOM     19  C   UNL A   1      31.677  27.464  26.306  1.00  0.00     0.023 A 
ATOM     20  N   UNL A   1      33.619  26.037  26.095  1.00  0.00    -0.256 NA
ATOM     21  C   UNL A   1      30.843  26.354  26.261  1.00  0.00     0.004 A 
ATOM     22  C   UNL A   1      31.400  25.087  26.098  1.00  0.00     0.026 A 
ENDBRANCH  15  16
ENDBRANCH  13  15
ENDBRANCH   7  13
ENDBRANCH   4   6
ENDBRANCH   3   4
ENDBRANCH   2   3
ENDBRANCH   1   2
BRANCH   1  23
ATOM     23  O   UNL A   1      42.120  18.345  26.022  1.00  0.00    -0.374 OA
BRANCH  23  24
ATOM     24  C   UNL A   1      43.495  18.085  25.849  1.00  0.00     0.202 C 
BRANCH  24  25
ATOM     25  C   UNL A   1      44.160  19.052  24.858  1.00  0.00     0.261 C 
BRANCH  25  26
ATOM     26  O   UNL A   1      45.240  19.753  25.515  1.00  0.00    -0.460 OA
BRANCH  26  27
ATOM     27  C   UNL A   1      45.668  20.914  24.940  1.00  0.00     0.338 C 
ATOM     28  O   UNL A   1      46.779  21.106  24.473  1.00  0.00    -0.246 OA
BRANCH  27  29
ATOM     29  C   UNL A   1      44.694  22.011  25.234  1.00  0.00     0.060 A 
ATOM     30  C   UNL A   1      44.495  23.056  24.307  1.00  0.00     0.016 A 
ATOM     31  C   UNL A   1      44.286  22.177  26.552  1.00  0.00     0.016 A 
ATOM     32  C   UNL A   1      44.057  24.321  24.743  1.00  0.00     0.010 A 
ATOM     33  C   UNL A   1      43.977  23.446  26.990  1.00  0.00     0.010 A 
ATOM     34  C   UNL A   1      43.892  24.539  26.108  1.00  0.00    -0.014 A 
BRANCH  34  35
ATOM     35  C   UNL A   1      43.780  25.843  26.782  1.00  0.00     0.031 A 
ATOM     36  C   UNL A   1      42.454  26.489  26.811  1.00  0.00     0.074 A 
ATOM     37  C   UNL A   1      44.744  26.312  27.617  1.00  0.00     0.049 A 
ATOM     38  N   UNL A   1      42.269  27.713  27.158  1.00  0.00    -0.248 NA
ATOM     39  C   UNL A   1      41.214  25.828  26.413  1.00  0.00     0.031 C 
ATOM     40  C   UNL A   1      44.609  27.224  28.760  1.00  0.00     0.029 A 
ATOM     41  N   UNL A   1      46.108  26.029  27.629  1.00  0.00    -0.354 N 
ATOM     42  C   UNL A   1      40.929  27.865  27.407  1.00  0.00     0.074 A 
ATOM     43  C   UNL A   1      40.302  26.722  26.796  1.00  0.00     0.031 C 
ATOM     44  C   UNL A   1      45.827  27.625  29.170  1.00  0.00     0.029 A 
ATOM     45  C   UNL A   1      46.797  27.085  28.236  1.00  0.00     0.049 A 
ATOM     46  H   UNL A   1      46.523  25.213  27.266  1.00  0.00     0.167 HD
ATOM     47  C   UNL A   1      40.537  28.868  28.241  1.00  0.00     0.031 A 
ATOM     48  C   UNL A   1      47.784  27.727  27.558  1.00  0.00     0.031 A 
ATOM     49  C   UNL A   1      41.694  29.661  28.697  1.00  0.00     0.049 A 
ATOM     50  C   UNL A   1      47.306  29.124  27.286  1.00  0.00     0.074 A 
ATOM     51  C   UNL A   1      42.354  29.781  29.909  1.00  0.00     0.029 A 
ATOM     52  N   UNL A   1      42.554  30.213  27.745  1.00  0.00    -0.354 N 
ATOM     53  N   UNL A   1      46.052  29.469  27.405  1.00  0.00    -0.248 NA
ATOM     54  C   UNL A   1      48.160  30.253  26.963  1.00  0.00     0.031 C 
ATOM     55  C   UNL A   1      43.619  30.401  29.667  1.00  0.00     0.029 A 
ATOM     56  C   UNL A   1      43.720  30.690  28.314  1.00  0.00     0.049 A 
ATOM     57  H   UNL A   1      42.354  30.258  26.781  1.00  0.00     0.167 HD
ATOM     58  C   UNL A   1      45.917  30.816  27.298  1.00  0.00     0.074 A 
ATOM     59  C   UNL A   1      47.266  31.261  26.973  1.00  0.00     0.031 C 
ATOM     60  C   UNL A   1      44.707  31.418  27.500  1.00  0.00     0.031 A 
BRANCH  47  61
ATOM     61  C   UNL A   1      39.144  28.991  28.823  1.00  0.00    -0.014 A 
ATOM     62  C   UNL A   1      38.097  29.477  28.020  1.00  0.00     0.009 A 
ATOM     63  C   UNL A   1      38.784  28.666  30.145  1.00  0.00     0.009 A 
ATOM     64  C   UNL A   1      36.796  29.661  28.517  1.00  0.00     0.001 A 
ATOM     65  C   UNL A   1      37.494  28.862  30.657  1.00  0.00     0.001 A 
ATOM     66  C   UNL A   1      36.496  29.362  29.840  1.00  0.00     0.000 A 
ENDBRANCH  47  61
BRANCH  48  67
ATOM     67  C   UNL A   1      48.559  26.776  26.696  1.00  0.00    -0.014 A 
ATOM     68  C   UNL A   1      48.579  27.051  25.305  1.00  0.00     0.009 A 
ATOM     69  C   UNL A   1      49.629  26.035  27.225  1.00  0.00     0.009 A 
ATOM     70  C   UNL A   1      49.695  26.737  24.513  1.00  0.00     0.001 A 
ATOM     71  C   UNL A   1      50.747  25.730  26.427  1.00  0.00     0.001 A 
ATOM     72  C   UNL A   1      50.798  26.116  25.088  1.00  0.00     0.000 A 
ENDBRANCH  48  67
BRANCH  60  73
ATOM     73  C   UNL A   1      44.316  32.776  26.963  1.00  0.00    -0.014 A 
ATOM     74  C   UNL A   1      44.267  33.117  25.610  1.00  0.00     0.009 A 
ATOM     75  C   UNL A   1      43.838  33.754  27.866  1.00  0.00     0.009 A 
ATOM     76  C   UNL A   1      43.770  34.353  25.181  1.00  0.00     0.001 A 
ATOM     77  C   UNL A   1      43.293  34.966  27.444  1.00  0.00     0.001 A 
ATOM     78  C   UNL A   1      43.266  35.268  26.095  1.00  0.00     0.000 A 
ENDBRANCH  60  73
ENDBRANCH  34  35
ENDBRANCH  27  29
ENDBRANCH  26  27
ENDBRANCH  25  26
ENDBRANCH  24  25
ENDBRANCH  23  24
ENDBRANCH   1  23
TORSDOF 17
ENDMDL
MODEL 2
REMARK VINA RESULT:     -10.9      5.820     11.364
REMARK SMILES Cc1cccc(CN(C)c2ccc(C(=O)OCCOCCOC(=O)c3ccc(-c4c5nc(c(-c6ccccc6)c6ccc([nH]6)c(-c6ccccc6)c6nc(c(-c7ccccc7)c7ccc4[nH]7)C=C6)C=C5)cc3)cc2C)n1
REMARK SMILES IDX 18 1 17 2 16 3 14 4 15 5 13 6 10 7 11 8 74 9 12 10 73 11
REMARK SMILES IDX 75 12 8 13 9 14 7 15 6 16 1 17 2 18 3 19 76 20 4 21 5 22
REMARK SMILES IDX 19 23 20 24 21 25 22 26 23 27 24 28 25 29 26 30 72 31 27 32
REMARK SMILES IDX 71 33 28 34 29 35 30 36 65 37 31 38 70 39 64 40 66 41 32 42
REMARK SMILES IDX 69 43 63 44 62 45 33 47 55 48 40 49 54 50 41 51 44 52 53 53
REMARK SMILES IDX 67 54 42 55 43 56 52 58 68 59 45 60 34 61 35 62 39 63 36 64
REMARK SMILES IDX 38 65 37 66 56 67 57 68 61 69 58 70 60 71 59 72 46 73 47 74
REMARK SMILES IDX 51 75 48 76 50 77 49 78
REMARK H PARENT 66 46 44 57
REMARK Flexibility Score: inf
ROOT
ATOM      1  C   UNL A   1      33.290  34.184  29.167  1.00  0.00     0.202 C 
ENDROOT
BRANCH   1   2
ATOM      2  C   UNL A   1      33.501  33.729  27.762  1.00  0.00     0.261 C 
BRANCH   2   3
ATOM      3  O   UNL A   1      33.225  32.335  27.612  1.00  0.00    -0.460 OA
BRANCH   3   4
ATOM      4  C   UNL A   1      34.250  31.437  27.541  1.00  0.00     0.338 C 
ATOM      5  O   UNL A   1      35.384  31.545  27.941  1.00  0.00    -0.246 OA
BRANCH   4   6
ATOM      6  C   UNL A   1      33.641  30.207  27.001  1.00  0.00     0.060 A 
ATOM      7  C   UNL A   1      32.730  27.852  25.757  1.00  0.00     0.040 A 
ATOM      8  C   UNL A   1      33.888  27.893  26.530  1.00  0.00     0.027 A 
ATOM      9  C   UNL A   1      32.094  29.082  25.489  1.00  0.00    -0.027 A 
ATOM     10  C   UNL A   1      34.286  29.003  27.224  1.00  0.00     0.018 A 
ATOM     11  C   UNL A   1      32.565  30.260  26.114  1.00  0.00     0.021 A 
ATOM     12  C   UNL A   1      30.994  29.232  24.476  1.00  0.00     0.046 C 
BRANCH   7  13
ATOM     13  N   UNL A   1      32.285  26.611  25.316  1.00  0.00    -0.368 N 
ATOM     14  C   UNL A   1      31.059  26.100  25.903  1.00  0.00     0.144 C 
BRANCH  13  15
ATOM     15  C   UNL A   1      32.693  26.123  23.967  1.00  0.00     0.172 C 
BRANCH  15  16
ATOM     16  C   UNL A   1      33.569  24.861  23.911  1.00  0.00     0.060 A 
ATOM     17  C   UNL A   1      36.696  23.744  25.526  1.00  0.00     0.067 C 
ATOM     18  C   UNL A   1      35.448  23.707  24.692  1.00  0.00     0.038 A 
ATOM     19  C   UNL A   1      34.942  22.488  24.251  1.00  0.00     0.023 A 
ATOM     20  N   UNL A   1      34.797  24.888  24.509  1.00  0.00    -0.256 NA
ATOM     21  C   UNL A   1      33.721  22.475  23.587  1.00  0.00     0.004 A 
ATOM     22  C   UNL A   1      33.023  23.669  23.417  1.00  0.00     0.026 A 
ENDBRANCH  15  16
ENDBRANCH  13  15
ENDBRANCH   7  13
ENDBRANCH   4   6
ENDBRANCH   3   4
ENDBRANCH   2   3
ENDBRANCH   1   2
BRANCH   1  23
ATOM     23  O   UNL A   1      33.666  35.550  29.177  1.00  0.00    -0.374 OA
BRANCH  23  24
ATOM     24  C   UNL A   1      32.783  36.415  29.856  1.00  0.00     0.202 C 
BRANCH  24  25
ATOM     25  C   UNL A   1      33.329  36.868  31.218  1.00  0.00     0.261 C 
BRANCH  25  26
ATOM     26  O   UNL A   1      33.194  35.794  32.176  1.00  0.00    -0.460 OA
BRANCH  26  27
ATOM     27  C   UNL A   1      34.304  35.459  32.895  1.00  0.00     0.338 C 
ATOM     28  O   UNL A   1      34.858  36.172  33.716  1.00  0.00    -0.246 OA
BRANCH  27  29
ATOM     29  C   UNL A   1      34.924  34.224  32.322  1.00  0.00     0.060 A 
ATOM     30  C   UNL A   1      34.765  32.980  32.968  1.00  0.00     0.016 A 
ATOM     31  C   UNL A   1      35.936  34.385  31.383  1.00  0.00     0.016 A 
ATOM     32  C   UNL A   1      35.728  31.966  32.806  1.00  0.00     0.010 A 
ATOM     33  C   UNL A   1      36.935  33.438  31.325  1.00  0.00     0.010 A 
ATOM     34  C   UNL A   1      36.869  32.237  32.056  1.00  0.00    -0.014 A 
BRANCH  34  35
ATOM     35  C   UNL A   1      38.120  31.463  32.047  1.00  0.00     0.031 A 
ATOM     36  C   UNL A   1      38.156  30.227  31.243  1.00  0.00     0.074 A 
ATOM     37  C   UNL A   1      39.297  31.983  32.484  1.00  0.00     0.049 A 
ATOM     38  N   UNL A   1      39.093  29.351  31.331  1.00  0.00    -0.248 NA
ATOM     39  C   UNL A   1      37.119  29.840  30.290  1.00  0.00     0.031 C 
ATOM     40  C   UNL A   1      40.664  31.647  32.065  1.00  0.00     0.029 A 
ATOM     41  N   UNL A   1      39.517  32.991  33.419  1.00  0.00    -0.354 N 
ATOM     42  C   UNL A   1      38.999  28.544  30.225  1.00  0.00     0.074 A 
ATOM     43  C   UNL A   1      37.685  28.792  29.692  1.00  0.00     0.031 C 
ATOM     44  C   UNL A   1      41.550  32.215  32.905  1.00  0.00     0.029 A 
ATOM     45  C   UNL A   1      40.794  32.842  33.972  1.00  0.00     0.049 A 
ATOM     46  H   UNL A   1      38.874  33.699  33.654  1.00  0.00     0.167 HD
ATOM     47  C   UNL A   1      40.115  27.882  29.813  1.00  0.00     0.031 A 
ATOM     48  C   UNL A   1      40.937  32.711  35.316  1.00  0.00     0.031 A 
ATOM     49  C   UNL A   1      41.252  28.144  30.716  1.00  0.00     0.049 A 
ATOM     50  C   UNL A   1      41.428  31.317  35.582  1.00  0.00     0.074 A 
ATOM     51  C   UNL A   1      42.422  28.875  30.593  1.00  0.00     0.029 A 
ATOM     52  N   UNL A   1      41.099  27.906  32.083  1.00  0.00    -0.354 N 
ATOM     53  N   UNL A   1      41.374  30.374  34.679  1.00  0.00    -0.248 NA
ATOM     54  C   UNL A   1      42.091  30.879  36.797  1.00  0.00     0.031 C 
ATOM     55  C   UNL A   1      42.958  29.078  31.902  1.00  0.00     0.029 A 
ATOM     56  C   UNL A   1      42.136  28.444  32.822  1.00  0.00     0.049 A 
ATOM     57  H   UNL A   1      40.342  27.412  32.476  1.00  0.00     0.167 HD
ATOM     58  C   UNL A   1      42.054  29.276  35.097  1.00  0.00     0.074 A 
ATOM     59  C   UNL A   1      42.448  29.625  36.455  1.00  0.00     0.031 C 
ATOM     60  C   UNL A   1      42.228  28.201  34.271  1.00  0.00     0.031 A 
BRANCH  47  61
ATOM     61  C   UNL A   1      40.240  27.184  28.474  1.00  0.00    -0.014 A 
ATOM     62  C   UNL A   1      39.656  25.919  28.294  1.00  0.00     0.009 A 
ATOM     63  C   UNL A   1      40.923  27.695  27.352  1.00  0.00     0.009 A 
ATOM     64  C   UNL A   1      39.780  25.201  27.092  1.00  0.00     0.001 A 
ATOM     65  C   UNL A   1      41.069  26.980  26.155  1.00  0.00     0.001 A 
ATOM     66  C   UNL A   1      40.496  25.728  26.025  1.00  0.00     0.000 A 
ENDBRANCH  47  61
BRANCH  48  67
ATOM     67  C   UNL A   1      39.936  33.550  36.055  1.00  0.00    -0.014 A 
ATOM     68  C   UNL A   1      38.993  32.857  36.855  1.00  0.00     0.009 A 
ATOM     69  C   UNL A   1      40.231  34.877  36.405  1.00  0.00     0.009 A 
ATOM     70  C   UNL A   1      38.490  33.414  38.041  1.00  0.00     0.001 A 
ATOM     71  C   UNL A   1      39.729  35.428  37.598  1.00  0.00     0.001 A 
ATOM     72  C   UNL A   1      38.896  34.685  38.434  1.00  0.00     0.000 A 
ENDBRANCH  48  67
BRANCH  60  73
ATOM     73  C   UNL A   1      42.519  26.792  34.734  1.00  0.00    -0.014 A 
ATOM     74  C   UNL A   1      41.685  26.032  35.557  1.00  0.00     0.009 A 
ATOM     75  C   UNL A   1      43.649  26.122  34.209  1.00  0.00     0.009 A 
ATOM     76  C   UNL A   1      41.956  24.688  35.838  1.00  0.00     0.001 A 
ATOM     77  C   UNL A   1      43.898  24.770  34.442  1.00  0.00     0.001 A 
ATOM     78  C   UNL A   1      43.050  24.053  35.266  1.00  0.00     0.000 A 
ENDBRANCH  60  73
ENDBRANCH  34  35
ENDBRANCH  27  29
ENDBRANCH  26  27
ENDBRANCH  25  26
ENDBRANCH  24  25
ENDBRANCH  23  24
ENDBRANCH   1  23
TORSDOF 17
ENDMDL
MODEL 3
REMARK VINA RESULT:     -10.5      5.443     10.448
REMARK SMILES Cc1cccc(CN(C)c2ccc(C(=O)OCCOCCOC(=O)c3ccc(-c4c5nc(c(-c6ccccc6)c6ccc([nH]6)c(-c6ccccc6)c6nc(c(-c7ccccc7)c7ccc4[nH]7)C=C6)C=C5)cc3)cc2C)n1
REMARK SMILES IDX 18 1 17 2 16 3 14 4 15 5 13 6 10 7 11 8 74 9 12 10 73 11
REMARK SMILES IDX 75 12 8 13 9 14 7 15 6 16 1 17 2 18 3 19 76 20 4 21 5 22
REMARK SMILES IDX 19 23 20 24 21 25 22 26 23 27 24 28 25 29 26 30 72 31 27 32
REMARK SMILES IDX 71 33 28 34 29 35 30 36 65 37 31 38 70 39 64 40 66 41 32 42
REMARK SMILES IDX 69 43 63 44 62 45 33 47 55 48 40 49 54 50 41 51 44 52 53 53
REMARK SMILES IDX 67 54 42 55 43 56 52 58 68 59 45 60 34 61 35 62 39 63 36 64
REMARK SMILES IDX 38 65 37 66 56 67 57 68 61 69 58 70 60 71 59 72 46 73 47 74
REMARK SMILES IDX 51 75 48 76 50 77 49 78
REMARK H PARENT 66 46 44 57
REMARK Flexibility Score: inf
ROOT
ATOM      1  C   UNL A   1      32.038  30.350  26.618  1.00  0.00     0.202 C 
ENDROOT
BRANCH   1   2
ATOM      2  C   UNL A   1      33.015  29.736  25.674  1.00  0.00     0.261 C 
BRANCH   2   3
ATOM      3  O   UNL A   1      32.620  28.416  25.291  1.00  0.00    -0.460 OA
BRANCH   3   4
ATOM      4  C   UNL A   1      33.227  27.797  24.238  1.00  0.00     0.338 C 
ATOM      5  O   UNL A   1      33.770  28.288  23.277  1.00  0.00    -0.246 OA
BRANCH   4   6
ATOM      6  C   UNL A   1      33.230  26.364  24.588  1.00  0.00     0.060 A 
ATOM      7  C   UNL A   1      33.471  23.703  25.474  1.00  0.00     0.040 A 
ATOM      8  C   UNL A   1      32.951  24.717  26.276  1.00  0.00     0.027 A 
ATOM      9  C   UNL A   1      34.021  24.086  24.233  1.00  0.00    -0.027 A 
ATOM     10  C   UNL A   1      32.732  25.990  25.824  1.00  0.00     0.018 A 
ATOM     11  C   UNL A   1      33.900  25.427  23.801  1.00  0.00     0.021 A 
ATOM     12  C   UNL A   1      34.837  23.158  23.377  1.00  0.00     0.046 C 
BRANCH   7  13
ATOM     13  N   UNL A   1      33.405  22.399  25.949  1.00  0.00    -0.368 N 
ATOM     14  C   UNL A   1      34.160  22.092  27.151  1.00  0.00     0.144 C 
BRANCH  13  15
ATOM     15  C   UNL A   1      32.224  21.553  25.609  1.00  0.00     0.172 C 
BRANCH  15  16
ATOM     16  C   UNL A   1      32.489  20.259  24.823  1.00  0.00     0.060 A 
ATOM     17  C   UNL A   1      32.517  16.651  25.610  1.00  0.00     0.067 C 
ATOM     18  C   UNL A   1      32.577  17.921  24.812  1.00  0.00     0.038 A 
ATOM     19  C   UNL A   1      32.471  17.877  23.425  1.00  0.00     0.023 A 
ATOM     20  N   UNL A   1      32.614  19.087  25.514  1.00  0.00    -0.256 NA
ATOM     21  C   UNL A   1      32.406  19.075  22.723  1.00  0.00     0.004 A 
ATOM     22  C   UNL A   1      32.411  20.278  23.425  1.00  0.00     0.026 A 
ENDBRANCH  15  16
ENDBRANCH  13  15
ENDBRANCH   7  13
ENDBRANCH   4   6
ENDBRANCH   3   4
ENDBRANCH   2   3
ENDBRANCH   1   2
BRANCH   1  23
ATOM     23  O   UNL A   1      32.733  31.426  27.224  1.00  0.00    -0.374 OA
BRANCH  23  24
ATOM     24  C   UNL A   1      32.080  32.675  27.169  1.00  0.00     0.202 C 
BRANCH  24  25
ATOM     25  C   UNL A   1      32.905  33.802  27.808  1.00  0.00     0.261 C 
BRANCH  25  26
ATOM     26  O   UNL A   1      33.589  33.299  28.978  1.00  0.00    -0.460 OA
BRANCH  26  27
ATOM     27  C   UNL A   1      33.865  34.194  29.970  1.00  0.00     0.338 C 
ATOM     28  O   UNL A   1      33.131  35.100  30.331  1.00  0.00    -0.246 OA
BRANCH  27  29
ATOM     29  C   UNL A   1      35.310  34.102  30.345  1.00  0.00     0.060 A 
ATOM     30  C   UNL A   1      36.314  34.271  29.368  1.00  0.00     0.016 A 
ATOM     31  C   UNL A   1      35.626  33.493  31.554  1.00  0.00     0.016 A 
ATOM     32  C   UNL A   1      37.576  33.671  29.533  1.00  0.00     0.010 A 
ATOM     33  C   UNL A   1      36.816  32.807  31.653  1.00  0.00     0.010 A 
ATOM     34  C   UNL A   1      37.791  32.854  30.639  1.00  0.00    -0.014 A 
BRANCH  34  35
ATOM     35  C   UNL A   1      38.885  31.885  30.817  1.00  0.00     0.031 A 
ATOM     36  C   UNL A   1      38.704  30.534  30.253  1.00  0.00     0.074 A 
ATOM     37  C   UNL A   1      40.134  32.264  31.194  1.00  0.00     0.049 A 
ATOM     38  N   UNL A   1      39.470  29.540  30.533  1.00  0.00    -0.248 NA
ATOM     39  C   UNL A   1      37.618  30.164  29.349  1.00  0.00     0.031 C 
ATOM     40  C   UNL A   1      41.421  31.625  30.894  1.00  0.00     0.029 A 
ATOM     41  N   UNL A   1      40.526  33.375  31.937  1.00  0.00    -0.354 N 
ATOM     42  C   UNL A   1      39.237  28.572  29.590  1.00  0.00     0.074 A 
ATOM     43  C   UNL A   1      37.991  28.940  28.973  1.00  0.00     0.031 C 
ATOM     44  C   UNL A   1      42.391  32.175  31.647  1.00  0.00     0.029 A 
ATOM     45  C   UNL A   1      41.754  33.111  32.554  1.00  0.00     0.049 A 
ATOM     46  H   UNL A   1      40.019  34.215  32.016  1.00  0.00     0.167 HD
ATOM     47  C   UNL A   1      40.220  27.661  29.346  1.00  0.00     0.031 A 
ATOM     48  C   UNL A   1      41.867  33.209  33.904  1.00  0.00     0.031 A 
ATOM     49  C   UNL A   1      41.382  27.884  30.227  1.00  0.00     0.049 A 
ATOM     50  C   UNL A   1      42.102  31.825  34.437  1.00  0.00     0.074 A 
ATOM     51  C   UNL A   1      42.664  28.364  30.015  1.00  0.00     0.029 A 
ATOM     52  N   UNL A   1      41.184  27.934  31.608  1.00  0.00    -0.354 N 
ATOM     53  N   UNL A   1      41.884  30.755  33.719  1.00  0.00    -0.248 NA
ATOM     54  C   UNL A   1      42.672  31.511  35.735  1.00  0.00     0.031 C 
ATOM     55  C   UNL A   1      43.223  28.710  31.284  1.00  0.00     0.029 A 
ATOM     56  C   UNL A   1      42.298  28.411  32.274  1.00  0.00     0.049 A 
ATOM     57  H   UNL A   1      40.350  27.661  32.056  1.00  0.00     0.167 HD
ATOM     58  C   UNL A   1      42.357  29.652  34.355  1.00  0.00     0.074 A 
ATOM     59  C   UNL A   1      42.802  30.173  35.640  1.00  0.00     0.031 C 
ATOM     60  C   UNL A   1      42.340  28.429  33.745  1.00  0.00     0.031 A 
BRANCH  47  61
ATOM     61  C   UNL A   1      40.224  26.715  28.162  1.00  0.00    -0.014 A 
ATOM     62  C   UNL A   1      39.556  25.482  28.256  1.00  0.00     0.009 A 
ATOM     63  C   UNL A   1      40.868  26.956  26.932  1.00  0.00     0.009 A 
ATOM     64  C   UNL A   1      39.566  24.543  27.210  1.00  0.00     0.001 A 
ATOM     65  C   UNL A   1      40.900  26.020  25.889  1.00  0.00     0.001 A 
ATOM     66  C   UNL A   1      40.247  24.808  26.030  1.00  0.00     0.000 A 
ENDBRANCH  47  61
BRANCH  48  67
ATOM     67  C   UNL A   1      41.029  34.332  34.441  1.00  0.00    -0.014 A 
ATOM     68  C   UNL A   1      39.961  33.972  35.302  1.00  0.00     0.009 A 
ATOM     69  C   UNL A   1      41.561  35.625  34.573  1.00  0.00     0.009 A 
ATOM     70  C   UNL A   1      39.553  34.811  36.350  1.00  0.00     0.001 A 
ATOM     71  C   UNL A   1      41.152  36.458  35.630  1.00  0.00     0.001 A 
ATOM     72  C   UNL A   1      40.182  36.037  36.540  1.00  0.00     0.000 A 
ENDBRANCH  48  67
BRANCH  60  73
ATOM     73  C   UNL A   1      42.374  27.102  34.467  1.00  0.00    -0.014 A 
ATOM     74  C   UNL A   1      41.414  26.663  35.381  1.00  0.00     0.009 A 
ATOM     75  C   UNL A   1      43.372  26.161  34.118  1.00  0.00     0.009 A 
ATOM     76  C   UNL A   1      41.442  25.368  35.912  1.00  0.00     0.001 A 
ATOM     77  C   UNL A   1      43.377  24.854  34.601  1.00  0.00     0.001 A 
ATOM     78  C   UNL A   1      42.410  24.459  35.508  1.00  0.00     0.000 A 
ENDBRANCH  60  73
ENDBRANCH  34  35
ENDBRANCH  27  29
ENDBRANCH  26  27
ENDBRANCH  25  26
ENDBRANCH  24  25
ENDBRANCH  23  24
ENDBRANCH   1  23
TORSDOF 17
ENDMDL
