MODEL 1
REMARK VINA RESULT:      -7.2      0.000      0.000
REMARK SMILES CCCCCCNC(=O)Oc1cccc(-c2ccc([C@@H](C)C(=O)OCCOCCOC(=O)c3ccc(-c4c5nc(c(-c6ccccc6)c6ccc([nH]6)c(-c6ccccc6)c6nc(c(-c7ccccc7)c7ccc4[nH]7)C=C6)C=C5)cc3)cc2C)c1
REMARK SMILES IDX 22 1 23 2 20 3 21 4 19 5 16 6 17 7 82 8 18 9 81 10 83 11
REMARK SMILES IDX 15 12 11 13 12 14 84 15 13 16 14 17 10 18 8 19 7 20 9 22
REMARK SMILES IDX 6 23 5 24 4 25 3 26 2 27 1 28 24 29 25 30 26 31 27 32 28 33
REMARK SMILES IDX 29 34 30 35 31 36 32 37 33 38 34 39 80 40 35 41 79 42 36 43
REMARK SMILES IDX 37 44 38 45 73 46 39 47 78 48 72 49 74 50 40 51 77 52 71 53
REMARK SMILES IDX 70 54 41 56 63 57 48 58 62 59 49 60 52 61 61 62 75 63 50 64
REMARK SMILES IDX 51 65 60 67 76 68 53 69 42 70 43 71 47 72 44 73 46 74 45 75
REMARK SMILES IDX 64 76 65 77 69 78 66 79 68 80 67 81 54 82 55 83 59 84 56 85
REMARK SMILES IDX 58 86 57 87
REMARK H PARENT 7 21 74 55 52 66
REMARK Flexibility Score: inf
ROOT
ATOM      1  C   UNL A   1      38.451  30.175  29.967  1.00  0.00     0.313 C 
ATOM      2  O   UNL A   1      39.123  31.076  29.471  1.00  0.00    -0.252 OA
ENDROOT
BRANCH   1   3
ATOM      3  C   UNL A   1      38.690  28.717  29.612  1.00  0.00     0.126 C 
ATOM      4  C   UNL A   1      38.426  27.852  30.843  1.00  0.00     0.025 C 
BRANCH   3   5
ATOM      5  C   UNL A   1      39.999  28.342  28.927  1.00  0.00    -0.034 A 
ATOM      6  C   UNL A   1      42.271  27.464  27.424  1.00  0.00    -0.015 A 
ATOM      7  C   UNL A   1      42.037  27.028  28.745  1.00  0.00     0.009 A 
ATOM      8  C   UNL A   1      41.361  28.392  26.871  1.00  0.00    -0.043 A 
ATOM      9  C   UNL A   1      40.921  27.449  29.480  1.00  0.00     0.005 A 
ATOM     10  C   UNL A   1      40.260  28.831  27.636  1.00  0.00     0.008 A 
ATOM     11  C   UNL A   1      41.490  28.946  25.475  1.00  0.00     0.045 C 
BRANCH   6  12
ATOM     12  C   UNL A   1      43.380  26.864  26.649  1.00  0.00    -0.014 A 
ATOM     13  C   UNL A   1      44.381  25.032  25.407  1.00  0.00     0.133 A 
ATOM     14  C   UNL A   1      45.609  25.689  25.367  1.00  0.00     0.047 A 
ATOM     15  C   UNL A   1      43.268  25.609  26.027  1.00  0.00     0.056 A 
ATOM     16  C   UNL A   1      45.725  26.949  25.942  1.00  0.00     0.004 A 
ATOM     17  C   UNL A   1      44.623  27.526  26.581  1.00  0.00     0.009 A 
BRANCH  13  18
ATOM     18  O   UNL A   1      44.373  23.702  24.945  1.00  0.00    -0.410 OA
BRANCH  18  19
ATOM     19  C   UNL A   1      44.847  22.689  25.761  1.00  0.00     0.412 C 
ATOM     20  N   UNL A   1      43.878  21.798  26.133  1.00  0.00    -0.321 N 
ATOM     21  H   UNL A   1      44.163  21.061  26.720  1.00  0.00     0.167 HD
ATOM     22  O   UNL A   1      46.005  22.562  26.149  1.00  0.00    -0.224 OA
BRANCH  20  23
ATOM     23  C   UNL A   1      42.477  21.820  25.756  1.00  0.00     0.119 C 
BRANCH  23  24
ATOM     24  C   UNL A   1      41.572  22.211  26.925  1.00  0.00     0.021 C 
BRANCH  24  25
ATOM     25  C   UNL A   1      42.239  22.165  28.307  1.00  0.00     0.002 C 
BRANCH  25  26
ATOM     26  C   UNL A   1      42.707  23.514  28.863  1.00  0.00    -0.000 C 
BRANCH  26  27
ATOM     27  C   UNL A   1      44.040  23.490  29.613  1.00  0.00    -0.003 C 
ATOM     28  C   UNL A   1      45.063  24.471  29.058  1.00  0.00     0.004 C 
ENDBRANCH  26  27
ENDBRANCH  25  26
ENDBRANCH  24  25
ENDBRANCH  23  24
ENDBRANCH  20  23
ENDBRANCH  18  19
ENDBRANCH  13  18
ENDBRANCH   6  12
ENDBRANCH   3   5
ENDBRANCH   1   3
BRANCH   1  29
ATOM     29  O   UNL A   1      37.419  30.374  30.826  1.00  0.00    -0.463 OA
BRANCH  29  30
ATOM     30  C   UNL A   1      36.432  31.335  30.409  1.00  0.00     0.261 C 
BRANCH  30  31
ATOM     31  C   UNL A   1      36.411  32.543  31.347  1.00  0.00     0.202 C 
BRANCH  31  32
ATOM     32  O   UNL A   1      36.219  32.254  32.731  1.00  0.00    -0.374 OA
BRANCH  32  33
ATOM     33  C   UNL A   1      36.068  33.365  33.617  1.00  0.00     0.202 C 
BRANCH  33  34
ATOM     34  C   UNL A   1      36.937  33.349  34.880  1.00  0.00     0.261 C 
BRANCH  34  35
ATOM     35  O   UNL A   1      37.024  32.036  35.462  1.00  0.00    -0.460 OA
BRANCH  35  36
ATOM     36  C   UNL A   1      38.207  31.743  36.048  1.00  0.00     0.338 C 
ATOM     37  O   UNL A   1      38.426  31.567  37.235  1.00  0.00    -0.246 OA
BRANCH  36  38
ATOM     38  C   UNL A   1      39.220  31.467  35.011  1.00  0.00     0.060 A 
ATOM     39  C   UNL A   1      38.923  30.484  34.057  1.00  0.00     0.016 A 
ATOM     40  C   UNL A   1      40.462  32.104  35.010  1.00  0.00     0.016 A 
ATOM     41  C   UNL A   1      39.887  30.095  33.128  1.00  0.00     0.010 A 
ATOM     42  C   UNL A   1      41.432  31.705  34.086  1.00  0.00     0.010 A 
ATOM     43  C   UNL A   1      41.160  30.676  33.164  1.00  0.00    -0.014 A 
BRANCH  43  44
ATOM     44  C   UNL A   1      42.262  30.104  32.356  1.00  0.00     0.031 A 
ATOM     45  C   UNL A   1      42.944  28.856  32.846  1.00  0.00     0.074 A 
ATOM     46  C   UNL A   1      42.660  30.686  31.212  1.00  0.00     0.049 A 
ATOM     47  N   UNL A   1      44.003  28.250  32.374  1.00  0.00    -0.248 NA
ATOM     48  C   UNL A   1      42.353  28.207  34.029  1.00  0.00     0.031 C 
ATOM     49  C   UNL A   1      42.044  31.860  30.598  1.00  0.00     0.029 A 
ATOM     50  N   UNL A   1      43.699  30.370  30.372  1.00  0.00    -0.354 N 
ATOM     51  C   UNL A   1      44.218  27.164  33.213  1.00  0.00     0.074 A 
ATOM     52  C   UNL A   1      43.188  27.197  34.227  1.00  0.00     0.031 C 
ATOM     53  C   UNL A   1      42.734  32.184  29.491  1.00  0.00     0.029 A 
ATOM     54  C   UNL A   1      43.861  31.266  29.342  1.00  0.00     0.049 A 
ATOM     55  H   UNL A   1      44.271  29.580  30.494  1.00  0.00     0.167 HD
ATOM     56  C   UNL A   1      45.191  26.225  33.147  1.00  0.00     0.031 A 
ATOM     57  C   UNL A   1      44.831  31.355  28.412  1.00  0.00     0.031 A 
ATOM     58  C   UNL A   1      46.219  26.195  32.144  1.00  0.00     0.049 A 
ATOM     59  C   UNL A   1      45.952  30.348  28.409  1.00  0.00     0.074 A 
ATOM     60  C   UNL A   1      47.240  25.274  31.982  1.00  0.00     0.029 A 
ATOM     61  N   UNL A   1      46.361  27.133  31.134  1.00  0.00    -0.354 N 
ATOM     62  N   UNL A   1      46.138  29.318  29.197  1.00  0.00    -0.248 NA
ATOM     63  C   UNL A   1      46.996  30.520  27.388  1.00  0.00     0.031 C 
ATOM     64  C   UNL A   1      48.030  25.684  30.906  1.00  0.00     0.029 A 
ATOM     65  C   UNL A   1      47.469  26.829  30.363  1.00  0.00     0.049 A 
ATOM     66  H   UNL A   1      45.762  27.902  30.986  1.00  0.00     0.167 HD
ATOM     67  C   UNL A   1      47.300  28.703  28.749  1.00  0.00     0.074 A 
ATOM     68  C   UNL A   1      47.774  29.470  27.617  1.00  0.00     0.031 C 
ATOM     69  C   UNL A   1      47.918  27.597  29.231  1.00  0.00     0.031 A 
BRANCH  56  70
ATOM     70  C   UNL A   1      45.216  25.176  34.219  1.00  0.00    -0.014 A 
ATOM     71  C   UNL A   1      46.001  25.327  35.372  1.00  0.00     0.009 A 
ATOM     72  C   UNL A   1      44.404  24.038  34.092  1.00  0.00     0.009 A 
ATOM     73  C   UNL A   1      45.992  24.346  36.366  1.00  0.00     0.001 A 
ATOM     74  C   UNL A   1      44.378  23.070  35.097  1.00  0.00     0.001 A 
ATOM     75  C   UNL A   1      45.176  23.221  36.231  1.00  0.00     0.000 A 
ENDBRANCH  56  70
BRANCH  57  76
ATOM     76  C   UNL A   1      44.820  32.470  27.429  1.00  0.00    -0.014 A 
ATOM     77  C   UNL A   1      44.156  32.338  26.201  1.00  0.00     0.009 A 
ATOM     78  C   UNL A   1      45.497  33.668  27.710  1.00  0.00     0.009 A 
ATOM     79  C   UNL A   1      44.192  33.374  25.263  1.00  0.00     0.001 A 
ATOM     80  C   UNL A   1      45.509  34.711  26.781  1.00  0.00     0.001 A 
ATOM     81  C   UNL A   1      44.865  34.559  25.556  1.00  0.00     0.000 A 
ENDBRANCH  57  76
BRANCH  69  82
ATOM     82  C   UNL A   1      49.147  27.116  28.514  1.00  0.00    -0.014 A 
ATOM     83  C   UNL A   1      49.058  26.243  27.420  1.00  0.00     0.009 A 
ATOM     84  C   UNL A   1      50.405  27.608  28.893  1.00  0.00     0.009 A 
ATOM     85  C   UNL A   1      50.210  25.858  26.730  1.00  0.00     0.001 A 
ATOM     86  C   UNL A   1      51.551  27.243  28.187  1.00  0.00     0.001 A 
ATOM     87  C   UNL A   1      51.454  26.363  27.110  1.00  0.00     0.000 A 
ENDBRANCH  69  82
ENDBRANCH  43  44
ENDBRANCH  36  38
ENDBRANCH  35  36
ENDBRANCH  34  35
ENDBRANCH  33  34
ENDBRANCH  32  33
ENDBRANCH  31  32
ENDBRANCH  30  31
ENDBRANCH  29  30
ENDBRANCH   1  29
TORSDOF 23
ENDMDL
MODEL 2
REMARK VINA RESULT:      -6.8      2.347      6.327
REMARK SMILES CCCCCCNC(=O)Oc1cccc(-c2ccc([C@@H](C)C(=O)OCCOCCOC(=O)c3ccc(-c4c5nc(c(-c6ccccc6)c6ccc([nH]6)c(-c6ccccc6)c6nc(c(-c7ccccc7)c7ccc4[nH]7)C=C6)C=C5)cc3)cc2C)c1
REMARK SMILES IDX 22 1 23 2 20 3 21 4 19 5 16 6 17 7 82 8 18 9 81 10 83 11
REMARK SMILES IDX 15 12 11 13 12 14 84 15 13 16 14 17 10 18 8 19 7 20 9 22
REMARK SMILES IDX 6 23 5 24 4 25 3 26 2 27 1 28 24 29 25 30 26 31 27 32 28 33
REMARK SMILES IDX 29 34 30 35 31 36 32 37 33 38 34 39 80 40 35 41 79 42 36 43
REMARK SMILES IDX 37 44 38 45 73 46 39 47 78 48 72 49 74 50 40 51 77 52 71 53
REMARK SMILES IDX 70 54 41 56 63 57 48 58 62 59 49 60 52 61 61 62 75 63 50 64
REMARK SMILES IDX 51 65 60 67 76 68 53 69 42 70 43 71 47 72 44 73 46 74 45 75
REMARK SMILES IDX 64 76 65 77 69 78 66 79 68 80 67 81 54 82 55 83 59 84 56 85
REMARK SMILES IDX 58 86 57 87
REMARK H PARENT 7 21 74 55 52 66
REMARK Flexibility Score: inf
ROOT
ATOM      1  C   UNL A   1      37.786  31.475  29.193  1.00  0.00     0.313 C 
ATOM      2  O   UNL A   1      37.887  32.676  28.956  1.00  0.00    -0.252 OA
ENDROOT
BRANCH   1   3
ATOM      3  C   UNL A   1      37.714  30.446  28.077  1.00  0.00     0.126 C 
ATOM      4  C   UNL A   1      36.290  29.901  27.989  1.00  0.00     0.025 C 
BRANCH   3   5
ATOM      5  C   UNL A   1      38.750  29.328  28.053  1.00  0.00    -0.034 A 
ATOM      6  C   UNL A   1      40.556  27.132  27.721  1.00  0.00    -0.015 A 
ATOM      7  C   UNL A   1      39.599  27.161  28.757  1.00  0.00     0.009 A 
ATOM      8  C   UNL A   1      40.627  28.254  26.865  1.00  0.00    -0.043 A 
ATOM      9  C   UNL A   1      38.708  28.230  28.917  1.00  0.00     0.005 A 
ATOM     10  C   UNL A   1      39.744  29.338  27.060  1.00  0.00     0.008 A 
ATOM     11  C   UNL A   1      41.602  28.363  25.721  1.00  0.00     0.045 C 
BRANCH   6  12
ATOM     12  C   UNL A   1      41.362  25.909  27.512  1.00  0.00    -0.014 A 
ATOM     13  C   UNL A   1      41.633  23.633  26.706  1.00  0.00     0.133 A 
ATOM     14  C   UNL A   1      42.871  23.526  27.335  1.00  0.00     0.047 A 
ATOM     15  C   UNL A   1      40.883  24.812  26.776  1.00  0.00     0.056 A 
ATOM     16  C   UNL A   1      43.378  24.616  28.033  1.00  0.00     0.004 A 
ATOM     17  C   UNL A   1      42.627  25.792  28.124  1.00  0.00     0.009 A 
BRANCH  13  18
ATOM     18  O   UNL A   1      41.113  22.449  26.151  1.00  0.00    -0.410 OA
BRANCH  18  19
ATOM     19  C   UNL A   1      40.271  21.650  26.905  1.00  0.00     0.412 C 
ATOM     20  N   UNL A   1      38.952  21.793  26.573  1.00  0.00    -0.321 N 
ATOM     21  H   UNL A   1      38.309  21.250  27.085  1.00  0.00     0.167 HD
ATOM     22  O   UNL A   1      40.618  20.881  27.798  1.00  0.00    -0.224 OA
BRANCH  20  23
ATOM     23  C   UNL A   1      38.395  22.656  25.548  1.00  0.00     0.119 C 
BRANCH  23  24
ATOM     24  C   UNL A   1      37.127  23.370  26.020  1.00  0.00     0.021 C 
BRANCH  24  25
ATOM     25  C   UNL A   1      36.197  23.852  24.898  1.00  0.00     0.002 C 
BRANCH  25  26
ATOM     26  C   UNL A   1      34.741  24.101  25.305  1.00  0.00    -0.000 C 
BRANCH  26  27
ATOM     27  C   UNL A   1      33.876  22.848  25.454  1.00  0.00    -0.003 C 
ATOM     28  C   UNL A   1      34.183  21.776  24.417  1.00  0.00     0.004 C 
ENDBRANCH  26  27
ENDBRANCH  25  26
ENDBRANCH  24  25
ENDBRANCH  23  24
ENDBRANCH  20  23
ENDBRANCH  18  19
ENDBRANCH  13  18
ENDBRANCH   6  12
ENDBRANCH   3   5
ENDBRANCH   1   3
BRANCH   1  29
ATOM     29  O   UNL A   1      37.683  30.947  30.440  1.00  0.00    -0.463 OA
BRANCH  29  30
ATOM     30  C   UNL A   1      36.360  30.930  31.006  1.00  0.00     0.261 C 
BRANCH  30  31
ATOM     31  C   UNL A   1      36.006  32.287  31.617  1.00  0.00     0.202 C 
BRANCH  31  32
ATOM     32  O   UNL A   1      35.167  32.252  32.770  1.00  0.00    -0.374 OA
BRANCH  32  33
ATOM     33  C   UNL A   1      34.949  33.484  33.460  1.00  0.00     0.202 C 
BRANCH  33  34
ATOM     34  C   UNL A   1      35.929  33.811  34.593  1.00  0.00     0.261 C 
BRANCH  34  35
ATOM     35  O   UNL A   1      36.782  32.697  34.909  1.00  0.00    -0.460 OA
BRANCH  35  36
ATOM     36  C   UNL A   1      37.995  33.025  35.413  1.00  0.00     0.338 C 
ATOM     37  O   UNL A   1      38.233  33.762  36.356  1.00  0.00    -0.246 OA
BRANCH  36  38
ATOM     38  C   UNL A   1      39.038  32.202  34.772  1.00  0.00     0.060 A 
ATOM     39  C   UNL A   1      40.375  32.513  35.053  1.00  0.00     0.016 A 
ATOM     40  C   UNL A   1      38.720  31.195  33.860  1.00  0.00     0.016 A 
ATOM     41  C   UNL A   1      41.404  31.851  34.384  1.00  0.00     0.010 A 
ATOM     42  C   UNL A   1      39.751  30.540  33.181  1.00  0.00     0.010 A 
ATOM     43  C   UNL A   1      41.095  30.889  33.415  1.00  0.00    -0.014 A 
BRANCH  43  44
ATOM     44  C   UNL A   1      42.157  30.362  32.526  1.00  0.00     0.031 A 
ATOM     45  C   UNL A   1      42.549  31.162  31.316  1.00  0.00     0.074 A 
ATOM     46  C   UNL A   1      42.757  29.186  32.782  1.00  0.00     0.049 A 
ATOM     47  N   UNL A   1      43.358  30.845  30.338  1.00  0.00    -0.248 NA
ATOM     48  C   UNL A   1      41.945  32.500  31.190  1.00  0.00     0.031 C 
ATOM     49  C   UNL A   1      42.512  28.345  33.952  1.00  0.00     0.029 A 
ATOM     50  N   UNL A   1      43.688  28.490  32.052  1.00  0.00    -0.354 N 
ATOM     51  C   UNL A   1      43.343  31.930  29.472  1.00  0.00     0.074 A 
ATOM     52  C   UNL A   1      42.440  32.912  30.032  1.00  0.00     0.031 C 
ATOM     53  C   UNL A   1      43.255  27.230  33.848  1.00  0.00     0.029 A 
ATOM     54  C   UNL A   1      43.995  27.261  32.587  1.00  0.00     0.049 A 
ATOM     55  H   UNL A   1      44.097  28.836  31.228  1.00  0.00     0.167 HD
ATOM     56  C   UNL A   1      44.018  32.094  28.310  1.00  0.00     0.031 A 
ATOM     57  C   UNL A   1      44.753  26.263  32.094  1.00  0.00     0.031 A 
ATOM     58  C   UNL A   1      44.910  31.117  27.748  1.00  0.00     0.049 A 
ATOM     59  C   UNL A   1      45.428  26.433  30.758  1.00  0.00     0.074 A 
ATOM     60  C   UNL A   1      45.654  31.198  26.584  1.00  0.00     0.029 A 
ATOM     61  N   UNL A   1      45.174  29.878  28.310  1.00  0.00    -0.354 N 
ATOM     62  N   UNL A   1      45.418  27.469  29.955  1.00  0.00    -0.248 NA
ATOM     63  C   UNL A   1      46.215  25.295  30.262  1.00  0.00     0.031 C 
ATOM     64  C   UNL A   1      46.328  29.986  26.413  1.00  0.00     0.029 A 
ATOM     65  C   UNL A   1      46.047  29.173  27.500  1.00  0.00     0.049 A 
ATOM     66  H   UNL A   1      44.797  29.548  29.158  1.00  0.00     0.167 HD
ATOM     67  C   UNL A   1      46.220  27.119  28.875  1.00  0.00     0.074 A 
ATOM     68  C   UNL A   1      46.706  25.779  29.128  1.00  0.00     0.031 C 
ATOM     69  C   UNL A   1      46.530  27.846  27.775  1.00  0.00     0.031 A 
BRANCH  56  70
ATOM     70  C   UNL A   1      43.781  33.362  27.542  1.00  0.00    -0.014 A 
ATOM     71  C   UNL A   1      43.669  33.359  26.144  1.00  0.00     0.009 A 
ATOM     72  C   UNL A   1      43.622  34.571  28.236  1.00  0.00     0.009 A 
ATOM     73  C   UNL A   1      43.428  34.549  25.453  1.00  0.00     0.001 A 
ATOM     74  C   UNL A   1      43.357  35.755  27.547  1.00  0.00     0.001 A 
ATOM     75  C   UNL A   1      43.267  35.744  26.155  1.00  0.00     0.000 A 
ENDBRANCH  56  70
BRANCH  57  76
ATOM     76  C   UNL A   1      44.880  24.985  32.843  1.00  0.00    -0.014 A 
ATOM     77  C   UNL A   1      43.950  23.952  32.664  1.00  0.00     0.009 A 
ATOM     78  C   UNL A   1      45.928  24.804  33.761  1.00  0.00     0.009 A 
ATOM     79  C   UNL A   1      44.050  22.773  33.408  1.00  0.00     0.001 A 
ATOM     80  C   UNL A   1      46.041  23.615  34.483  1.00  0.00     0.001 A 
ATOM     81  C   UNL A   1      45.097  22.605  34.313  1.00  0.00     0.000 A 
ENDBRANCH  57  76
BRANCH  69  82
ATOM     82  C   UNL A   1      47.474  27.234  26.778  1.00  0.00    -0.014 A 
ATOM     83  C   UNL A   1      47.001  26.490  25.688  1.00  0.00     0.009 A 
ATOM     84  C   UNL A   1      48.852  27.475  26.894  1.00  0.00     0.009 A 
ATOM     85  C   UNL A   1      47.893  25.982  24.741  1.00  0.00     0.001 A 
ATOM     86  C   UNL A   1      49.739  26.988  25.934  1.00  0.00     0.001 A 
ATOM     87  C   UNL A   1      49.260  26.237  24.861  1.00  0.00     0.000 A 
ENDBRANCH  69  82
ENDBRANCH  43  44
ENDBRANCH  36  38
ENDBRANCH  35  36
ENDBRANCH  34  35
ENDBRANCH  33  34
ENDBRANCH  32  33
ENDBRANCH  31  32
ENDBRANCH  30  31
ENDBRANCH  29  30
ENDBRANCH   1  29
TORSDOF 23
ENDMDL
MODEL 3
REMARK VINA RESULT:      -6.7      1.993      3.963
REMARK SMILES CCCCCCNC(=O)Oc1cccc(-c2ccc([C@@H](C)C(=O)OCCOCCOC(=O)c3ccc(-c4c5nc(c(-c6ccccc6)c6ccc([nH]6)c(-c6ccccc6)c6nc(c(-c7ccccc7)c7ccc4[nH]7)C=C6)C=C5)cc3)cc2C)c1
REMARK SMILES IDX 22 1 23 2 20 3 21 4 19 5 16 6 17 7 82 8 18 9 81 10 83 11
REMARK SMILES IDX 15 12 11 13 12 14 84 15 13 16 14 17 10 18 8 19 7 20 9 22
REMARK SMILES IDX 6 23 5 24 4 25 3 26 2 27 1 28 24 29 25 30 26 31 27 32 28 33
REMARK SMILES IDX 29 34 30 35 31 36 32 37 33 38 34 39 80 40 35 41 79 42 36 43
REMARK SMILES IDX 37 44 38 45 73 46 39 47 78 48 72 49 74 50 40 51 77 52 71 53
REMARK SMILES IDX 70 54 41 56 63 57 48 58 62 59 49 60 52 61 61 62 75 63 50 64
REMARK SMILES IDX 51 65 60 67 76 68 53 69 42 70 43 71 47 72 44 73 46 74 45 75
REMARK SMILES IDX 64 76 65 77 69 78 66 79 68 80 67 81 54 82 55 83 59 84 56 85
REMARK SMILES IDX 58 86 57 87
REMARK H PARENT 7 21 74 55 52 66
REMARK Flexibility Score: inf
ROOT
ATOM      1  C   UNL A   1      33.505  34.406  30.299  1.00  0.00     0.313 C 
ATOM      2  O   UNL A   1      32.507  35.075  30.047  1.00  0.00    -0.252 OA
ENDROOT
BRANCH   1   3
ATOM      3  C   UNL A   1      34.523  34.058  29.225  1.00  0.00     0.126 C 
ATOM      4  C   UNL A   1      33.809  33.923  27.882  1.00  0.00     0.025 C 
BRANCH   3   5
ATOM      5  C   UNL A   1      35.476  32.895  29.478  1.00  0.00    -0.034 A 
ATOM      6  C   UNL A   1      37.434  30.818  29.688  1.00  0.00    -0.015 A 
ATOM      7  C   UNL A   1      36.094  30.547  29.344  1.00  0.00     0.009 A 
ATOM      8  C   UNL A   1      37.778  32.159  29.971  1.00  0.00    -0.043 A 
ATOM      9  C   UNL A   1      35.135  31.562  29.232  1.00  0.00     0.005 A 
ATOM     10  C   UNL A   1      36.793  33.166  29.886  1.00  0.00     0.008 A 
ATOM     11  C   UNL A   1      39.169  32.594  30.356  1.00  0.00     0.045 C 
BRANCH   6  12
ATOM     12  C   UNL A   1      38.432  29.726  29.638  1.00  0.00    -0.014 A 
ATOM     13  C   UNL A   1      40.171  28.462  28.508  1.00  0.00     0.133 A 
ATOM     14  C   UNL A   1      40.160  27.494  29.509  1.00  0.00     0.047 A 
ATOM     15  C   UNL A   1      39.329  29.578  28.568  1.00  0.00     0.056 A 
ATOM     16  C   UNL A   1      39.308  27.647  30.595  1.00  0.00     0.004 A 
ATOM     17  C   UNL A   1      38.449  28.749  30.654  1.00  0.00     0.009 A 
BRANCH  13  18
ATOM     18  O   UNL A   1      40.943  28.169  27.367  1.00  0.00    -0.410 OA
BRANCH  18  19
ATOM     19  C   UNL A   1      42.162  28.799  27.185  1.00  0.00     0.412 C 
ATOM     20  N   UNL A   1      43.230  27.952  27.302  1.00  0.00    -0.321 N 
ATOM     21  H   UNL A   1      44.122  28.353  27.187  1.00  0.00     0.167 HD
ATOM     22  O   UNL A   1      42.326  29.993  26.950  1.00  0.00    -0.224 OA
BRANCH  20  23
ATOM     23  C   UNL A   1      43.192  26.528  27.577  1.00  0.00     0.119 C 
BRANCH  23  24
ATOM     24  C   UNL A   1      43.054  25.697  26.300  1.00  0.00     0.021 C 
BRANCH  24  25
ATOM     25  C   UNL A   1      42.261  24.393  26.456  1.00  0.00     0.002 C 
BRANCH  25  26
ATOM     26  C   UNL A   1      41.498  24.234  27.775  1.00  0.00    -0.000 C 
BRANCH  26  27
ATOM     27  C   UNL A   1      41.944  23.067  28.658  1.00  0.00    -0.003 C 
ATOM     28  C   UNL A   1      41.707  21.705  28.022  1.00  0.00     0.004 C 
ENDBRANCH  26  27
ENDBRANCH  25  26
ENDBRANCH  24  25
ENDBRANCH  23  24
ENDBRANCH  20  23
ENDBRANCH  18  19
ENDBRANCH  13  18
ENDBRANCH   6  12
ENDBRANCH   3   5
ENDBRANCH   1   3
BRANCH   1  29
ATOM     29  O   UNL A   1      33.783  33.875  31.517  1.00  0.00    -0.463 OA
BRANCH  29  30
ATOM     30  C   UNL A   1      33.942  34.819  32.591  1.00  0.00     0.261 C 
BRANCH  30  31
ATOM     31  C   UNL A   1      35.298  35.521  32.511  1.00  0.00     0.202 C 
BRANCH  31  32
ATOM     32  O   UNL A   1      36.177  35.307  33.613  1.00  0.00    -0.374 OA
BRANCH  32  33
ATOM     33  C   UNL A   1      36.581  33.962  33.878  1.00  0.00     0.202 C 
BRANCH  33  34
ATOM     34  C   UNL A   1      36.523  33.510  35.342  1.00  0.00     0.261 C 
BRANCH  34  35
ATOM     35  O   UNL A   1      37.569  32.576  35.662  1.00  0.00    -0.460 OA
BRANCH  35  36
ATOM     36  C   UNL A   1      38.818  33.096  35.693  1.00  0.00     0.338 C 
ATOM     37  O   UNL A   1      39.224  34.014  36.387  1.00  0.00    -0.246 OA
BRANCH  36  38
ATOM     38  C   UNL A   1      39.723  32.264  34.878  1.00  0.00     0.060 A 
ATOM     39  C   UNL A   1      41.095  32.541  34.941  1.00  0.00     0.016 A 
ATOM     40  C   UNL A   1      39.236  31.280  34.014  1.00  0.00     0.016 A 
ATOM     41  C   UNL A   1      41.985  31.870  34.104  1.00  0.00     0.010 A 
ATOM     42  C   UNL A   1      40.128  30.617  33.167  1.00  0.00     0.010 A 
ATOM     43  C   UNL A   1      41.500  30.933  33.184  1.00  0.00    -0.014 A 
BRANCH  43  44
ATOM     44  C   UNL A   1      42.390  30.400  32.126  1.00  0.00     0.031 A 
ATOM     45  C   UNL A   1      42.935  29.006  32.275  1.00  0.00     0.074 A 
ATOM     46  C   UNL A   1      42.719  31.143  31.055  1.00  0.00     0.049 A 
ATOM     47  N   UNL A   1      43.821  28.380  31.544  1.00  0.00    -0.248 NA
ATOM     48  C   UNL A   1      42.412  28.214  33.401  1.00  0.00     0.031 C 
ATOM     49  C   UNL A   1      42.211  32.482  30.763  1.00  0.00     0.029 A 
ATOM     50  N   UNL A   1      43.580  30.873  30.021  1.00  0.00    -0.354 N 
ATOM     51  C   UNL A   1      43.978  27.132  32.133  1.00  0.00     0.074 A 
ATOM     52  C   UNL A   1      43.104  27.090  33.285  1.00  0.00     0.031 C 
ATOM     53  C   UNL A   1      42.792  32.930  29.637  1.00  0.00     0.029 A 
ATOM     54  C   UNL A   1      43.739  31.927  29.154  1.00  0.00     0.049 A 
ATOM     55  H   UNL A   1      44.038  30.010  29.910  1.00  0.00     0.167 HD
ATOM     56  C   UNL A   1      44.781  26.112  31.751  1.00  0.00     0.031 A 
ATOM     57  C   UNL A   1      44.583  32.079  28.115  1.00  0.00     0.031 A 
ATOM     58  C   UNL A   1      45.654  26.154  30.610  1.00  0.00     0.049 A 
ATOM     59  C   UNL A   1      45.530  30.963  27.758  1.00  0.00     0.074 A 
ATOM     60  C   UNL A   1      46.495  25.165  30.131  1.00  0.00     0.029 A 
ATOM     61  N   UNL A   1      45.802  27.248  29.773  1.00  0.00    -0.354 N 
ATOM     62  N   UNL A   1      45.660  29.782  28.313  1.00  0.00    -0.248 NA
ATOM     63  C   UNL A   1      46.446  31.202  26.634  1.00  0.00     0.031 C 
ATOM     64  C   UNL A   1      47.192  25.679  29.034  1.00  0.00     0.029 A 
ATOM     65  C   UNL A   1      46.743  26.968  28.797  1.00  0.00     0.049 A 
ATOM     66  H   UNL A   1      45.312  28.098  29.859  1.00  0.00     0.167 HD
ATOM     67  C   UNL A   1      46.649  29.129  27.587  1.00  0.00     0.074 A 
ATOM     68  C   UNL A   1      47.082  30.040  26.549  1.00  0.00     0.031 C 
ATOM     69  C   UNL A   1      47.151  27.882  27.764  1.00  0.00     0.031 A 
BRANCH  56  70
ATOM     70  C   UNL A   1      44.788  24.876  32.603  1.00  0.00    -0.014 A 
ATOM     71  C   UNL A   1      45.690  24.727  33.667  1.00  0.00     0.009 A 
ATOM     72  C   UNL A   1      43.843  23.866  32.364  1.00  0.00     0.009 A 
ATOM     73  C   UNL A   1      45.663  23.577  34.458  1.00  0.00     0.001 A 
ATOM     74  C   UNL A   1      43.801  22.729  33.171  1.00  0.00     0.001 A 
ATOM     75  C   UNL A   1      44.716  22.582  34.214  1.00  0.00     0.000 A 
ENDBRANCH  56  70
BRANCH  57  76
ATOM     76  C   UNL A   1      44.612  33.358  27.358  1.00  0.00    -0.014 A 
ATOM     77  C   UNL A   1      45.399  34.433  27.795  1.00  0.00     0.009 A 
ATOM     78  C   UNL A   1      43.830  33.515  26.203  1.00  0.00     0.009 A 
ATOM     79  C   UNL A   1      45.382  35.649  27.105  1.00  0.00     0.001 A 
ATOM     80  C   UNL A   1      43.836  34.721  25.500  1.00  0.00     0.001 A 
ATOM     81  C   UNL A   1      44.604  35.789  25.957  1.00  0.00     0.000 A 
ENDBRANCH  57  76
BRANCH  69  82
ATOM     82  C   UNL A   1      48.190  27.405  26.789  1.00  0.00    -0.014 A 
ATOM     83  C   UNL A   1      49.559  27.569  27.045  1.00  0.00     0.009 A 
ATOM     84  C   UNL A   1      47.790  26.713  25.636  1.00  0.00     0.009 A 
ATOM     85  C   UNL A   1      50.508  27.063  26.154  1.00  0.00     0.001 A 
ATOM     86  C   UNL A   1      48.739  26.186  24.760  1.00  0.00     0.001 A 
ATOM     87  C   UNL A   1      50.097  26.367  25.016  1.00  0.00     0.000 A 
ENDBRANCH  69  82
ENDBRANCH  43  44
ENDBRANCH  36  38
ENDBRANCH  35  36
ENDBRANCH  34  35
ENDBRANCH  33  34
ENDBRANCH  32  33
ENDBRANCH  31  32
ENDBRANCH  30  31
ENDBRANCH  29  30
ENDBRANCH   1  29
TORSDOF 23
ENDMDL
