MODEL 1
REMARK VINA RESULT:      -9.4      0.000      0.000
REMARK SMILES CCOc1ccccc1NC(=O)N[C@@](C)(CC)C(=O)OCCOCCOC(=O)c1ccc(-c2c3nc(c(-c4ccccc4)c4ccc([nH]4)c(-c4ccccc4)c4nc(c(-c5ccccc5)c5ccc2[nH]5)C=C4)C=C3)cc1
REMARK SMILES IDX 22 1 21 2 20 3 18 4 19 5 14 6 15 7 13 8 10 9 11 10 12 12
REMARK SMILES IDX 9 14 4 15 5 16 6 17 8 18 7 19 3 20 2 21 1 22 16 23 17 24
REMARK SMILES IDX 23 25 24 26 25 27 26 28 27 29 28 30 29 31 30 32 76 33 31 34
REMARK SMILES IDX 75 35 32 36 33 37 34 38 69 39 35 40 74 41 68 42 70 43 36 44
REMARK SMILES IDX 73 45 67 46 66 47 37 49 59 50 44 51 58 52 45 53 48 54 57 55
REMARK SMILES IDX 71 56 46 57 47 58 56 60 72 61 49 62 38 63 39 64 43 65 40 66
REMARK SMILES IDX 42 67 41 68 60 69 61 70 65 71 62 72 64 73 63 74 50 75 51 76
REMARK SMILES IDX 55 77 52 78 54 79 53 80
REMARK H PARENT 10 11 13 13 70 48 48 59
REMARK Flexibility Score: inf
ROOT
ATOM      1  C   UNL A   1      31.376  28.947  24.383  1.00  0.00     0.202 C 
ENDROOT
BRANCH   1   2
ATOM      2  C   UNL A   1      30.209  28.138  23.821  1.00  0.00     0.261 C 
BRANCH   2   3
ATOM      3  O   UNL A   1      30.372  26.812  23.313  1.00  0.00    -0.462 OA
BRANCH   3   4
ATOM      4  C   UNL A   1      30.369  25.899  24.324  1.00  0.00     0.331 C 
ATOM      5  O   UNL A   1      29.522  25.906  25.214  1.00  0.00    -0.249 OA
BRANCH   4   6
ATOM      6  C   UNL A   1      31.446  24.791  24.214  1.00  0.00     0.136 C 
ATOM      7  C   UNL A   1      31.011  23.320  24.299  1.00  0.00     0.047 C 
BRANCH   6   8
ATOM      8  N   UNL A   1      32.117  25.001  22.892  1.00  0.00    -0.322 N 
ATOM      9  N   UNL A   1      33.797  23.330  22.644  1.00  0.00    -0.305 N 
ATOM     10  C   UNL A   1      33.145  24.428  22.227  1.00  0.00     0.320 C 
ATOM     11  H   UNL A   1      33.726  22.598  21.988  1.00  0.00     0.172 HD
ATOM     12  O   UNL A   1      33.295  24.790  21.054  1.00  0.00    -0.248 OA
ATOM     13  H   UNL A   1      31.708  25.737  22.381  1.00  0.00     0.166 HD
BRANCH   9  14
ATOM     14  C   UNL A   1      34.557  22.942  23.763  1.00  0.00     0.085 A 
ATOM     15  C   UNL A   1      34.345  21.629  24.248  1.00  0.00     0.142 A 
ATOM     16  C   UNL A   1      34.912  21.191  25.449  1.00  0.00     0.048 A 
ATOM     17  C   UNL A   1      35.724  22.061  26.170  1.00  0.00     0.004 A 
ATOM     18  C   UNL A   1      35.465  23.748  24.433  1.00  0.00     0.030 A 
ATOM     19  C   UNL A   1      36.014  23.328  25.654  1.00  0.00     0.002 A 
BRANCH  15  20
ATOM     20  O   UNL A   1      33.286  20.930  23.723  1.00  0.00    -0.492 OA
BRANCH  20  21
ATOM     21  C   UNL A   1      32.742  19.942  24.590  1.00  0.00     0.226 C 
ATOM     22  C   UNL A   1      32.515  18.710  23.728  1.00  0.00     0.049 C 
ENDBRANCH  20  21
ENDBRANCH  15  20
ENDBRANCH   9  14
ENDBRANCH   6   8
BRANCH   6  23
ATOM     23  C   UNL A   1      32.486  25.003  25.375  1.00  0.00     0.037 C 
ATOM     24  C   UNL A   1      32.433  24.048  26.562  1.00  0.00     0.007 C 
ENDBRANCH   6  23
ENDBRANCH   4   6
ENDBRANCH   3   4
ENDBRANCH   2   3
ENDBRANCH   1   2
BRANCH   1  25
ATOM     25  O   UNL A   1      31.619  28.827  25.763  1.00  0.00    -0.374 OA
BRANCH  25  26
ATOM     26  C   UNL A   1      32.823  29.281  26.358  1.00  0.00     0.202 C 
BRANCH  26  27
ATOM     27  C   UNL A   1      32.963  30.476  27.326  1.00  0.00     0.261 C 
BRANCH  27  28
ATOM     28  O   UNL A   1      34.151  31.269  27.263  1.00  0.00    -0.460 OA
BRANCH  28  29
ATOM     29  C   UNL A   1      34.844  31.375  28.421  1.00  0.00     0.338 C 
ATOM     30  O   UNL A   1      34.550  32.036  29.399  1.00  0.00    -0.246 OA
BRANCH  29  31
ATOM     31  C   UNL A   1      35.937  30.378  28.410  1.00  0.00     0.060 A 
ATOM     32  C   UNL A   1      36.280  29.772  29.626  1.00  0.00     0.016 A 
ATOM     33  C   UNL A   1      36.663  30.104  27.250  1.00  0.00     0.016 A 
ATOM     34  C   UNL A   1      37.407  28.960  29.710  1.00  0.00     0.010 A 
ATOM     35  C   UNL A   1      37.815  29.315  27.339  1.00  0.00     0.010 A 
ATOM     36  C   UNL A   1      38.223  28.800  28.583  1.00  0.00    -0.014 A 
BRANCH  36  37
ATOM     37  C   UNL A   1      39.636  28.401  28.796  1.00  0.00     0.031 A 
ATOM     38  C   UNL A   1      40.545  29.399  29.468  1.00  0.00     0.074 A 
ATOM     39  C   UNL A   1      40.091  27.177  28.483  1.00  0.00     0.049 A 
ATOM     40  N   UNL A   1      41.817  29.306  29.755  1.00  0.00    -0.248 NA
ATOM     41  C   UNL A   1      39.929  30.675  29.879  1.00  0.00     0.031 C 
ATOM     42  C   UNL A   1      39.300  26.092  27.909  1.00  0.00     0.029 A 
ATOM     43  N   UNL A   1      41.349  26.644  28.619  1.00  0.00    -0.354 N 
ATOM     44  C   UNL A   1      42.150  30.504  30.376  1.00  0.00     0.074 A 
ATOM     45  C   UNL A   1      40.957  31.320  30.403  1.00  0.00     0.031 C 
ATOM     46  C   UNL A   1      40.095  25.021  27.733  1.00  0.00     0.029 A 
ATOM     47  C   UNL A   1      41.455  25.357  28.153  1.00  0.00     0.049 A 
ATOM     48  H   UNL A   1      42.104  27.138  29.012  1.00  0.00     0.167 HD
ATOM     49  C   UNL A   1      43.339  30.894  30.888  1.00  0.00     0.031 A 
ATOM     50  C   UNL A   1      42.533  24.555  28.062  1.00  0.00     0.031 A 
ATOM     51  C   UNL A   1      44.533  30.099  30.853  1.00  0.00     0.049 A 
ATOM     52  C   UNL A   1      43.873  25.052  28.544  1.00  0.00     0.074 A 
ATOM     53  C   UNL A   1      45.796  30.417  31.319  1.00  0.00     0.029 A 
ATOM     54  N   UNL A   1      44.609  28.823  30.319  1.00  0.00    -0.354 N 
ATOM     55  N   UNL A   1      44.178  26.191  29.118  1.00  0.00    -0.248 NA
ATOM     56  C   UNL A   1      45.018  24.145  28.369  1.00  0.00     0.031 C 
ATOM     57  C   UNL A   1      46.648  29.347  31.030  1.00  0.00     0.029 A 
ATOM     58  C   UNL A   1      45.902  28.345  30.432  1.00  0.00     0.049 A 
ATOM     59  H   UNL A   1      43.855  28.330  29.921  1.00  0.00     0.167 HD
ATOM     60  C   UNL A   1      45.537  26.123  29.402  1.00  0.00     0.074 A 
ATOM     61  C   UNL A   1      45.996  24.827  28.948  1.00  0.00     0.031 C 
ATOM     62  C   UNL A   1      46.335  27.047  29.989  1.00  0.00     0.031 A 
BRANCH  49  63
ATOM     63  C   UNL A   1      43.410  32.263  31.498  1.00  0.00    -0.014 A 
ATOM     64  C   UNL A   1      43.181  32.460  32.869  1.00  0.00     0.009 A 
ATOM     65  C   UNL A   1      43.735  33.367  30.695  1.00  0.00     0.009 A 
ATOM     66  C   UNL A   1      43.255  33.741  33.418  1.00  0.00     0.001 A 
ATOM     67  C   UNL A   1      43.832  34.643  31.252  1.00  0.00     0.001 A 
ATOM     68  C   UNL A   1      43.586  34.830  32.612  1.00  0.00     0.000 A 
ENDBRANCH  49  63
BRANCH  50  69
ATOM     69  C   UNL A   1      42.417  23.201  27.458  1.00  0.00    -0.014 A 
ATOM     70  C   UNL A   1      42.635  23.005  26.086  1.00  0.00     0.009 A 
ATOM     71  C   UNL A   1      42.029  22.107  28.248  1.00  0.00     0.009 A 
ATOM     72  C   UNL A   1      42.430  21.748  25.510  1.00  0.00     0.001 A 
ATOM     73  C   UNL A   1      41.853  20.846  27.674  1.00  0.00     0.001 A 
ATOM     74  C   UNL A   1      42.042  20.670  26.304  1.00  0.00     0.000 A 
ENDBRANCH  50  69
BRANCH  62  75
ATOM     75  C   UNL A   1      47.771  26.674  30.224  1.00  0.00    -0.014 A 
ATOM     76  C   UNL A   1      48.775  27.012  29.304  1.00  0.00     0.009 A 
ATOM     77  C   UNL A   1      48.127  26.015  31.412  1.00  0.00     0.009 A 
ATOM     78  C   UNL A   1      50.105  26.668  29.556  1.00  0.00     0.001 A 
ATOM     79  C   UNL A   1      49.460  25.697  31.673  1.00  0.00     0.001 A 
ATOM     80  C   UNL A   1      50.446  26.015  30.741  1.00  0.00     0.000 A 
ENDBRANCH  62  75
ENDBRANCH  36  37
ENDBRANCH  29  31
ENDBRANCH  28  29
ENDBRANCH  27  28
ENDBRANCH  26  27
ENDBRANCH  25  26
ENDBRANCH   1  25
TORSDOF 19
ENDMDL
MODEL 2
REMARK VINA RESULT:      -9.4      1.874      7.636
REMARK SMILES CCOc1ccccc1NC(=O)N[C@@](C)(CC)C(=O)OCCOCCOC(=O)c1ccc(-c2c3nc(c(-c4ccccc4)c4ccc([nH]4)c(-c4ccccc4)c4nc(c(-c5ccccc5)c5ccc2[nH]5)C=C4)C=C3)cc1
REMARK SMILES IDX 22 1 21 2 20 3 18 4 19 5 14 6 15 7 13 8 10 9 11 10 12 12
REMARK SMILES IDX 9 14 4 15 5 16 6 17 8 18 7 19 3 20 2 21 1 22 16 23 17 24
REMARK SMILES IDX 23 25 24 26 25 27 26 28 27 29 28 30 29 31 30 32 76 33 31 34
REMARK SMILES IDX 75 35 32 36 33 37 34 38 69 39 35 40 74 41 68 42 70 43 36 44
REMARK SMILES IDX 73 45 67 46 66 47 37 49 59 50 44 51 58 52 45 53 48 54 57 55
REMARK SMILES IDX 71 56 46 57 47 58 56 60 72 61 49 62 38 63 39 64 43 65 40 66
REMARK SMILES IDX 42 67 41 68 60 69 61 70 65 71 62 72 64 73 63 74 50 75 51 76
REMARK SMILES IDX 55 77 52 78 54 79 53 80
REMARK H PARENT 10 11 13 13 70 48 48 59
REMARK Flexibility Score: inf
ROOT
ATOM      1  C   UNL A   1      35.591  21.498  26.134  1.00  0.00     0.202 C 
ENDROOT
BRANCH   1   2
ATOM      2  C   UNL A   1      35.183  22.969  26.149  1.00  0.00     0.261 C 
BRANCH   2   3
ATOM      3  O   UNL A   1      33.838  23.387  26.393  1.00  0.00    -0.462 OA
BRANCH   3   4
ATOM      4  C   UNL A   1      33.572  24.565  25.762  1.00  0.00     0.331 C 
ATOM      5  O   UNL A   1      34.453  25.374  25.481  1.00  0.00    -0.249 OA
BRANCH   4   6
ATOM      6  C   UNL A   1      32.097  24.763  25.331  1.00  0.00     0.136 C 
ATOM      7  C   UNL A   1      31.226  25.767  26.100  1.00  0.00     0.047 C 
BRANCH   6   8
ATOM      8  N   UNL A   1      32.142  25.191  23.897  1.00  0.00    -0.322 N 
ATOM      9  N   UNL A   1      33.095  27.374  23.808  1.00  0.00    -0.305 N 
ATOM     10  C   UNL A   1      32.513  26.308  23.232  1.00  0.00     0.320 C 
ATOM     11  H   UNL A   1      33.985  27.549  23.424  1.00  0.00     0.172 HD
ATOM     12  O   UNL A   1      32.556  26.211  21.999  1.00  0.00    -0.248 OA
ATOM     13  H   UNL A   1      31.823  24.485  23.289  1.00  0.00     0.166 HD
BRANCH   9  14
ATOM     14  C   UNL A   1      32.776  28.308  24.810  1.00  0.00     0.085 A 
ATOM     15  C   UNL A   1      31.701  29.187  24.537  1.00  0.00     0.142 A 
ATOM     16  C   UNL A   1      31.402  30.264  25.378  1.00  0.00     0.048 A 
ATOM     17  C   UNL A   1      32.166  30.457  26.525  1.00  0.00     0.004 A 
ATOM     18  C   UNL A   1      33.444  28.447  26.018  1.00  0.00     0.030 A 
ATOM     19  C   UNL A   1      33.171  29.542  26.852  1.00  0.00     0.002 A 
BRANCH  15  20
ATOM     20  O   UNL A   1      31.205  29.192  23.256  1.00  0.00    -0.492 OA
BRANCH  20  21
ATOM     21  C   UNL A   1      29.786  29.265  23.172  1.00  0.00     0.226 C 
ATOM     22  C   UNL A   1      29.279  27.853  23.418  1.00  0.00     0.049 C 
ENDBRANCH  20  21
ENDBRANCH  15  20
ENDBRANCH   9  14
ENDBRANCH   6   8
BRANCH   6  23
ATOM     23  C   UNL A   1      31.365  23.376  25.446  1.00  0.00     0.037 C 
ATOM     24  C   UNL A   1      30.307  23.216  26.532  1.00  0.00     0.007 C 
ENDBRANCH   6  23
ENDBRANCH   4   6
ENDBRANCH   3   4
ENDBRANCH   2   3
ENDBRANCH   1   2
BRANCH   1  25
ATOM     25  O   UNL A   1      36.115  21.001  24.928  1.00  0.00    -0.374 OA
BRANCH  25  26
ATOM     26  C   UNL A   1      37.509  20.932  24.683  1.00  0.00     0.202 C 
BRANCH  26  27
ATOM     27  C   UNL A   1      38.626  21.367  25.657  1.00  0.00     0.261 C 
BRANCH  27  28
ATOM     28  O   UNL A   1      39.246  20.369  26.471  1.00  0.00    -0.460 OA
BRANCH  28  29
ATOM     29  C   UNL A   1      40.531  20.080  26.161  1.00  0.00     0.338 C 
ATOM     30  O   UNL A   1      40.936  19.166  25.467  1.00  0.00    -0.246 OA
BRANCH  29  31
ATOM     31  C   UNL A   1      41.391  21.191  26.626  1.00  0.00     0.060 A 
ATOM     32  C   UNL A   1      41.459  21.431  28.005  1.00  0.00     0.016 A 
ATOM     33  C   UNL A   1      42.051  22.028  25.725  1.00  0.00     0.016 A 
ATOM     34  C   UNL A   1      42.110  22.563  28.487  1.00  0.00     0.010 A 
ATOM     35  C   UNL A   1      42.677  23.184  26.204  1.00  0.00     0.010 A 
ATOM     36  C   UNL A   1      42.646  23.485  27.579  1.00  0.00    -0.014 A 
BRANCH  36  37
ATOM     37  C   UNL A   1      42.851  24.880  28.039  1.00  0.00     0.031 A 
ATOM     38  C   UNL A   1      44.272  25.333  28.268  1.00  0.00     0.074 A 
ATOM     39  C   UNL A   1      41.836  25.747  28.178  1.00  0.00     0.049 A 
ATOM     40  N   UNL A   1      44.721  26.489  28.682  1.00  0.00    -0.248 NA
ATOM     41  C   UNL A   1      45.330  24.346  27.980  1.00  0.00     0.031 C 
ATOM     42  C   UNL A   1      40.428  25.465  27.909  1.00  0.00     0.029 A 
ATOM     43  N   UNL A   1      41.847  27.060  28.580  1.00  0.00    -0.354 N 
ATOM     44  C   UNL A   1      46.105  26.366  28.705  1.00  0.00     0.074 A 
ATOM     45  C   UNL A   1      46.424  25.020  28.289  1.00  0.00     0.031 C 
ATOM     46  C   UNL A   1      39.707  26.572  28.162  1.00  0.00     0.029 A 
ATOM     47  C   UNL A   1      40.599  27.628  28.640  1.00  0.00     0.049 A 
ATOM     48  H   UNL A   1      42.672  27.547  28.806  1.00  0.00     0.167 HD
ATOM     49  C   UNL A   1      47.035  27.292  29.036  1.00  0.00     0.031 A 
ATOM     50  C   UNL A   1      40.225  28.855  29.051  1.00  0.00     0.031 A 
ATOM     51  C   UNL A   1      46.728  28.626  29.465  1.00  0.00     0.049 A 
ATOM     52  C   UNL A   1      41.273  29.836  29.515  1.00  0.00     0.074 A 
ATOM     53  C   UNL A   1      47.599  29.630  29.850  1.00  0.00     0.029 A 
ATOM     54  N   UNL A   1      45.447  29.142  29.565  1.00  0.00    -0.354 N 
ATOM     55  N   UNL A   1      42.577  29.704  29.544  1.00  0.00    -0.248 NA
ATOM     56  C   UNL A   1      40.791  31.139  29.998  1.00  0.00     0.031 C 
ATOM     57  C   UNL A   1      46.841  30.743  30.223  1.00  0.00     0.029 A 
ATOM     58  C   UNL A   1      45.502  30.447  30.020  1.00  0.00     0.049 A 
ATOM     59  H   UNL A   1      44.621  28.653  29.345  1.00  0.00     0.167 HD
ATOM     60  C   UNL A   1      43.071  30.916  30.014  1.00  0.00     0.074 A 
ATOM     61  C   UNL A   1      41.928  31.773  30.247  1.00  0.00     0.031 C 
ATOM     62  C   UNL A   1      44.355  31.288  30.231  1.00  0.00     0.031 A 
BRANCH  49  63
ATOM     63  C   UNL A   1      48.474  26.872  28.977  1.00  0.00    -0.014 A 
ATOM     64  C   UNL A   1      49.094  26.250  30.073  1.00  0.00     0.009 A 
ATOM     65  C   UNL A   1      49.212  27.078  27.802  1.00  0.00     0.009 A 
ATOM     66  C   UNL A   1      50.433  25.863  29.998  1.00  0.00     0.001 A 
ATOM     67  C   UNL A   1      50.544  26.668  27.722  1.00  0.00     0.001 A 
ATOM     68  C   UNL A   1      51.155  26.067  28.822  1.00  0.00     0.000 A 
ENDBRANCH  49  63
BRANCH  50  69
ATOM     69  C   UNL A   1      38.787  29.233  29.084  1.00  0.00    -0.014 A 
ATOM     70  C   UNL A   1      38.025  29.063  30.251  1.00  0.00     0.009 A 
ATOM     71  C   UNL A   1      38.156  29.713  27.925  1.00  0.00     0.009 A 
ATOM     72  C   UNL A   1      36.654  29.331  30.245  1.00  0.00     0.001 A 
ATOM     73  C   UNL A   1      36.791  30.008  27.931  1.00  0.00     0.001 A 
ATOM     74  C   UNL A   1      36.039  29.805  29.087  1.00  0.00     0.000 A 
ENDBRANCH  50  69
BRANCH  62  75
ATOM     75  C   UNL A   1      44.600  32.697  30.693  1.00  0.00    -0.014 A 
ATOM     76  C   UNL A   1      44.682  33.015  32.057  1.00  0.00     0.009 A 
ATOM     77  C   UNL A   1      44.799  33.710  29.742  1.00  0.00     0.009 A 
ATOM     78  C   UNL A   1      44.928  34.330  32.459  1.00  0.00     0.001 A 
ATOM     79  C   UNL A   1      45.071  35.017  30.147  1.00  0.00     0.001 A 
ATOM     80  C   UNL A   1      45.125  35.328  31.505  1.00  0.00     0.000 A 
ENDBRANCH  62  75
ENDBRANCH  36  37
ENDBRANCH  29  31
ENDBRANCH  28  29
ENDBRANCH  27  28
ENDBRANCH  26  27
ENDBRANCH  25  26
ENDBRANCH   1  25
TORSDOF 19
ENDMDL
MODEL 3
REMARK VINA RESULT:      -9.4      1.885      2.569
REMARK SMILES CCOc1ccccc1NC(=O)N[C@@](C)(CC)C(=O)OCCOCCOC(=O)c1ccc(-c2c3nc(c(-c4ccccc4)c4ccc([nH]4)c(-c4ccccc4)c4nc(c(-c5ccccc5)c5ccc2[nH]5)C=C4)C=C3)cc1
REMARK SMILES IDX 22 1 21 2 20 3 18 4 19 5 14 6 15 7 13 8 10 9 11 10 12 12
REMARK SMILES IDX 9 14 4 15 5 16 6 17 8 18 7 19 3 20 2 21 1 22 16 23 17 24
REMARK SMILES IDX 23 25 24 26 25 27 26 28 27 29 28 30 29 31 30 32 76 33 31 34
REMARK SMILES IDX 75 35 32 36 33 37 34 38 69 39 35 40 74 41 68 42 70 43 36 44
REMARK SMILES IDX 73 45 67 46 66 47 37 49 59 50 44 51 58 52 45 53 48 54 57 55
REMARK SMILES IDX 71 56 46 57 47 58 56 60 72 61 49 62 38 63 39 64 43 65 40 66
REMARK SMILES IDX 42 67 41 68 60 69 61 70 65 71 62 72 64 73 63 74 50 75 51 76
REMARK SMILES IDX 55 77 52 78 54 79 53 80
REMARK H PARENT 10 11 13 13 70 48 48 59
REMARK Flexibility Score: inf
ROOT
ATOM      1  C   UNL A   1      32.764  29.489  26.810  1.00  0.00     0.202 C 
ENDROOT
BRANCH   1   2
ATOM      2  C   UNL A   1      33.173  28.020  26.722  1.00  0.00     0.261 C 
BRANCH   2   3
ATOM      3  O   UNL A   1      32.346  27.031  26.106  1.00  0.00    -0.462 OA
BRANCH   3   4
ATOM      4  C   UNL A   1      32.972  26.473  25.032  1.00  0.00     0.331 C 
ATOM      5  O   UNL A   1      34.085  26.835  24.659  1.00  0.00    -0.249 OA
BRANCH   4   6
ATOM      6  C   UNL A   1      32.227  25.282  24.381  1.00  0.00     0.136 C 
ATOM      7  C   UNL A   1      32.996  24.356  23.426  1.00  0.00     0.047 C 
BRANCH   6   8
ATOM      8  N   UNL A   1      31.709  24.453  25.514  1.00  0.00    -0.322 N 
ATOM      9  N   UNL A   1      33.578  23.650  26.756  1.00  0.00    -0.305 N 
ATOM     10  C   UNL A   1      32.259  23.712  26.503  1.00  0.00     0.320 C 
ATOM     11  H   UNL A   1      33.784  23.964  27.667  1.00  0.00     0.172 HD
ATOM     12  O   UNL A   1      31.476  23.298  27.365  1.00  0.00    -0.248 OA
ATOM     13  H   UNL A   1      30.725  24.444  25.549  1.00  0.00     0.166 HD
BRANCH   9  14
ATOM     14  C   UNL A   1      34.744  23.256  26.073  1.00  0.00     0.085 A 
ATOM     15  C   UNL A   1      34.824  21.896  25.691  1.00  0.00     0.142 A 
ATOM     16  C   UNL A   1      35.998  21.352  25.162  1.00  0.00     0.048 A 
ATOM     17  C   UNL A   1      37.105  22.177  24.985  1.00  0.00     0.004 A 
ATOM     18  C   UNL A   1      35.815  24.084  25.775  1.00  0.00     0.030 A 
ATOM     19  C   UNL A   1      37.008  23.540  25.274  1.00  0.00     0.002 A 
BRANCH  15  20
ATOM     20  O   UNL A   1      33.869  21.046  26.192  1.00  0.00    -0.492 OA
BRANCH  20  21
ATOM     21  C   UNL A   1      33.437  20.040  25.283  1.00  0.00     0.226 C 
ATOM     22  C   UNL A   1      32.444  20.716  24.351  1.00  0.00     0.049 C 
ENDBRANCH  20  21
ENDBRANCH  15  20
ENDBRANCH   9  14
ENDBRANCH   6   8
BRANCH   6  23
ATOM     23  C   UNL A   1      31.020  25.855  23.550  1.00  0.00     0.037 C 
ATOM     24  C   UNL A   1      31.330  26.543  22.226  1.00  0.00     0.007 C 
ENDBRANCH   6  23
ENDBRANCH   4   6
ENDBRANCH   3   4
ENDBRANCH   2   3
ENDBRANCH   1   2
BRANCH   1  25
ATOM     25  O   UNL A   1      33.508  30.299  27.685  1.00  0.00    -0.374 OA
BRANCH  25  26
ATOM     26  C   UNL A   1      33.515  31.713  27.581  1.00  0.00     0.202 C 
BRANCH  26  27
ATOM     27  C   UNL A   1      34.066  32.699  28.634  1.00  0.00     0.261 C 
BRANCH  27  28
ATOM     28  O   UNL A   1      35.442  32.598  29.008  1.00  0.00    -0.460 OA
BRANCH  28  29
ATOM     29  C   UNL A   1      35.693  31.868  30.119  1.00  0.00     0.338 C 
ATOM     30  O   UNL A   1      35.137  31.951  31.199  1.00  0.00    -0.246 OA
BRANCH  29  31
ATOM     31  C   UNL A   1      36.624  30.774  29.766  1.00  0.00     0.060 A 
ATOM     32  C   UNL A   1      37.330  30.155  30.807  1.00  0.00     0.016 A 
ATOM     33  C   UNL A   1      36.861  30.418  28.437  1.00  0.00     0.016 A 
ATOM     34  C   UNL A   1      38.342  29.244  30.521  1.00  0.00     0.010 A 
ATOM     35  C   UNL A   1      37.900  29.528  28.146  1.00  0.00     0.010 A 
ATOM     36  C   UNL A   1      38.684  28.995  29.186  1.00  0.00    -0.014 A 
BRANCH  36  37
ATOM     37  C   UNL A   1      40.042  28.469  28.900  1.00  0.00     0.031 A 
ATOM     38  C   UNL A   1      41.199  29.426  29.043  1.00  0.00     0.074 A 
ATOM     39  C   UNL A   1      40.264  27.179  28.601  1.00  0.00     0.049 A 
ATOM     40  N   UNL A   1      42.475  29.225  28.838  1.00  0.00    -0.248 NA
ATOM     41  C   UNL A   1      40.870  30.793  29.486  1.00  0.00     0.031 C 
ATOM     42  C   UNL A   1      39.247  26.134  28.514  1.00  0.00     0.029 A 
ATOM     43  N   UNL A   1      41.441  26.531  28.320  1.00  0.00    -0.354 N 
ATOM     44  C   UNL A   1      43.095  30.436  29.126  1.00  0.00     0.074 A 
ATOM     45  C   UNL A   1      42.058  31.372  29.494  1.00  0.00     0.031 C 
ATOM     46  C   UNL A   1      39.845  24.972  28.192  1.00  0.00     0.029 A 
ATOM     47  C   UNL A   1      41.279  25.201  28.020  1.00  0.00     0.049 A 
ATOM     48  H   UNL A   1      42.318  26.977  28.331  1.00  0.00     0.167 HD
ATOM     49  C   UNL A   1      44.411  30.744  29.095  1.00  0.00     0.031 A 
ATOM     50  C   UNL A   1      42.187  24.284  27.634  1.00  0.00     0.031 A 
ATOM     51  C   UNL A   1      45.447  29.826  28.716  1.00  0.00     0.049 A 
ATOM     52  C   UNL A   1      43.637  24.680  27.506  1.00  0.00     0.074 A 
ATOM     53  C   UNL A   1      46.809  30.052  28.625  1.00  0.00     0.029 A 
ATOM     54  N   UNL A   1      45.232  28.504  28.365  1.00  0.00    -0.354 N 
ATOM     55  N   UNL A   1      44.209  25.830  27.768  1.00  0.00    -0.248 NA
ATOM     56  C   UNL A   1      44.566  23.643  27.032  1.00  0.00     0.031 C 
ATOM     57  C   UNL A   1      47.415  28.875  28.179  1.00  0.00     0.029 A 
ATOM     58  C   UNL A   1      46.436  27.904  28.042  1.00  0.00     0.049 A 
ATOM     59  H   UNL A   1      44.354  28.059  28.348  1.00  0.00     0.167 HD
ATOM     60  C   UNL A   1      45.565  25.645  27.525  1.00  0.00     0.074 A 
ATOM     61  C   UNL A   1      45.732  24.269  27.105  1.00  0.00     0.031 C 
ATOM     62  C   UNL A   1      46.583  26.531  27.642  1.00  0.00     0.031 A 
BRANCH  49  63
ATOM     63  C   UNL A   1      44.796  32.150  29.450  1.00  0.00    -0.014 A 
ATOM     64  C   UNL A   1      44.525  33.219  28.580  1.00  0.00     0.009 A 
ATOM     65  C   UNL A   1      45.415  32.413  30.681  1.00  0.00     0.009 A 
ATOM     66  C   UNL A   1      44.888  34.521  28.930  1.00  0.00     0.001 A 
ATOM     67  C   UNL A   1      45.754  33.719  31.038  1.00  0.00     0.001 A 
ATOM     68  C   UNL A   1      45.496  34.770  30.160  1.00  0.00     0.000 A 
ENDBRANCH  49  63
BRANCH  50  69
ATOM     69  C   UNL A   1      41.763  22.898  27.301  1.00  0.00    -0.014 A 
ATOM     70  C   UNL A   1      42.238  21.803  28.041  1.00  0.00     0.009 A 
ATOM     71  C   UNL A   1      40.925  22.661  26.200  1.00  0.00     0.009 A 
ATOM     72  C   UNL A   1      41.911  20.499  27.661  1.00  0.00     0.001 A 
ATOM     73  C   UNL A   1      40.576  21.358  25.842  1.00  0.00     0.001 A 
ATOM     74  C   UNL A   1      41.079  20.277  26.565  1.00  0.00     0.000 A 
ENDBRANCH  50  69
BRANCH  62  75
ATOM     75  C   UNL A   1      47.972  26.031  27.364  1.00  0.00    -0.014 A 
ATOM     76  C   UNL A   1      48.595  26.253  26.127  1.00  0.00     0.009 A 
ATOM     77  C   UNL A   1      48.684  25.371  28.378  1.00  0.00     0.009 A 
ATOM     78  C   UNL A   1      49.895  25.792  25.901  1.00  0.00     0.001 A 
ATOM     79  C   UNL A   1      49.991  24.936  28.159  1.00  0.00     0.001 A 
ATOM     80  C   UNL A   1      50.592  25.138  26.917  1.00  0.00     0.000 A 
ENDBRANCH  62  75
ENDBRANCH  36  37
ENDBRANCH  29  31
ENDBRANCH  28  29
ENDBRANCH  27  28
ENDBRANCH  26  27
ENDBRANCH  25  26
ENDBRANCH   1  25
TORSDOF 19
ENDMDL
