MODEL 1
REMARK VINA RESULT:      -9.9      0.000      0.000
REMARK SMILES C[C@@H]1[C@@H](C(=O)OCCOCCOC(=O)c2ccc(-c3c4nc(c(-c5ccccc5)c5ccc([nH]5)c(-c5ccccc5)c5nc(c(-c6ccccc6)c6ccc3[nH]6)C=C5)C=C4)cc2)CCN1C(=O)C[NH2+]C1CCCC1
REMARK SMILES IDX 8 1 7 2 6 3 4 4 5 5 3 6 1 7 2 8 65 9 63 10 64 11 66 12 67 13
REMARK SMILES IDX 68 14 69 15 70 18 71 19 74 20 72 21 73 22 9 23 10 24 11 25
REMARK SMILES IDX 12 26 13 27 14 28 15 29 16 30 62 31 17 32 61 33 18 34 19 35
REMARK SMILES IDX 20 36 55 37 21 38 60 39 54 40 56 41 22 42 59 43 53 44 52 45
REMARK SMILES IDX 23 47 45 48 30 49 44 50 31 51 34 52 43 53 57 54 32 55 33 56
REMARK SMILES IDX 42 58 58 59 35 60 24 61 25 62 29 63 26 64 28 65 27 66 46 67
REMARK SMILES IDX 47 68 51 69 48 70 50 71 49 72 36 73 37 74 41 75 38 76 40 77
REMARK SMILES IDX 39 78
REMARK H PARENT 69 16 69 17 56 46 34 57
REMARK Flexibility Score: inf
ROOT
ATOM      1  C   UNL A   1      37.041  21.948  24.350  1.00  0.00     0.202 C 
ENDROOT
BRANCH   1   2
ATOM      2  C   UNL A   1      36.543  22.992  23.348  1.00  0.00     0.261 C 
BRANCH   2   3
ATOM      3  O   UNL A   1      35.515  23.828  23.901  1.00  0.00    -0.463 OA
BRANCH   3   4
ATOM      4  C   UNL A   1      34.368  23.862  23.162  1.00  0.00     0.311 C 
ATOM      5  O   UNL A   1      34.246  23.357  22.055  1.00  0.00    -0.252 OA
BRANCH   4   6
ATOM      6  C   UNL A   1      33.259  24.571  23.931  1.00  0.00     0.123 C 
ATOM      7  C   UNL A   1      32.715  25.262  26.334  1.00  0.00     0.032 C 
ATOM      8  C   UNL A   1      33.409  24.250  25.424  1.00  0.00     0.096 C 
ATOM      9  N   UNL A   1      32.778  22.931  25.523  1.00  0.00    -0.334 N 
ATOM     10  C   UNL A   1      31.896  23.983  23.586  1.00  0.00     0.039 C 
ATOM     11  C   UNL A   1      31.851  22.707  24.421  1.00  0.00     0.121 C 
BRANCH   9  12
ATOM     12  C   UNL A   1      33.204  21.858  26.284  1.00  0.00     0.277 C 
ATOM     13  O   UNL A   1      33.181  21.907  27.518  1.00  0.00    -0.268 OA
BRANCH  12  14
ATOM     14  C   UNL A   1      33.766  20.613  25.579  1.00  0.00     0.362 C 
BRANCH  14  15
ATOM     15  N   UNL A   1      33.176  19.370  26.097  1.00  0.00    -0.336 N 
ATOM     16  H   UNL A   1      32.333  19.602  26.623  1.00  0.00     0.346 HD
ATOM     17  H   UNL A   1      33.875  18.919  26.687  1.00  0.00     0.346 HD
BRANCH  15  18
ATOM     18  C   UNL A   1      32.823  18.436  25.040  1.00  0.00     0.182 C 
ATOM     19  C   UNL A   1      32.514  19.081  23.692  1.00  0.00     0.065 C 
ATOM     20  C   UNL A   1      33.991  17.516  24.682  1.00  0.00     0.065 C 
ATOM     21  C   UNL A   1      32.587  17.907  22.721  1.00  0.00     0.006 C 
ATOM     22  C   UNL A   1      33.600  16.932  23.325  1.00  0.00     0.006 C 
ENDBRANCH  15  18
ENDBRANCH  14  15
ENDBRANCH  12  14
ENDBRANCH   9  12
ENDBRANCH   4   6
ENDBRANCH   3   4
ENDBRANCH   2   3
ENDBRANCH   1   2
BRANCH   1  23
ATOM     23  O   UNL A   1      37.560  22.419  25.589  1.00  0.00    -0.374 OA
BRANCH  23  24
ATOM     24  C   UNL A   1      38.824  21.921  26.028  1.00  0.00     0.202 C 
BRANCH  24  25
ATOM     25  C   UNL A   1      39.321  20.609  25.409  1.00  0.00     0.261 C 
BRANCH  25  26
ATOM     26  O   UNL A   1      40.129  19.845  26.324  1.00  0.00    -0.460 OA
BRANCH  26  27
ATOM     27  C   UNL A   1      41.456  19.864  26.056  1.00  0.00     0.338 C 
ATOM     28  O   UNL A   1      42.084  19.077  25.361  1.00  0.00    -0.246 OA
BRANCH  27  29
ATOM     29  C   UNL A   1      42.061  21.104  26.572  1.00  0.00     0.060 A 
ATOM     30  C   UNL A   1      41.955  21.353  27.947  1.00  0.00     0.016 A 
ATOM     31  C   UNL A   1      42.632  22.051  25.720  1.00  0.00     0.016 A 
ATOM     32  C   UNL A   1      42.374  22.573  28.470  1.00  0.00     0.010 A 
ATOM     33  C   UNL A   1      43.041  23.281  26.244  1.00  0.00     0.010 A 
ATOM     34  C   UNL A   1      42.878  23.561  27.613  1.00  0.00    -0.014 A 
BRANCH  34  35
ATOM     35  C   UNL A   1      43.079  24.934  28.131  1.00  0.00     0.031 A 
ATOM     36  C   UNL A   1      44.470  25.380  28.490  1.00  0.00     0.074 A 
ATOM     37  C   UNL A   1      42.046  25.787  28.242  1.00  0.00     0.049 A 
ATOM     38  N   UNL A   1      44.875  26.531  28.961  1.00  0.00    -0.248 NA
ATOM     39  C   UNL A   1      45.547  24.398  28.287  1.00  0.00     0.031 C 
ATOM     40  C   UNL A   1      40.661  25.491  27.881  1.00  0.00     0.029 A 
ATOM     41  N   UNL A   1      42.011  27.083  28.692  1.00  0.00    -0.354 N 
ATOM     42  C   UNL A   1      46.251  26.412  29.114  1.00  0.00     0.074 A 
ATOM     43  C   UNL A   1      46.608  25.069  28.713  1.00  0.00     0.031 C 
ATOM     44  C   UNL A   1      39.907  26.576  28.131  1.00  0.00     0.029 A 
ATOM     45  C   UNL A   1      40.752  27.629  28.691  1.00  0.00     0.049 A 
ATOM     46  H   UNL A   1      42.811  27.573  28.987  1.00  0.00     0.167 HD
ATOM     47  C   UNL A   1      47.139  27.338  29.545  1.00  0.00     0.031 A 
ATOM     48  C   UNL A   1      40.327  28.836  29.112  1.00  0.00     0.031 A 
ATOM     49  C   UNL A   1      46.788  28.669  29.959  1.00  0.00     0.049 A 
ATOM     50  C   UNL A   1      41.324  29.821  29.662  1.00  0.00     0.074 A 
ATOM     51  C   UNL A   1      47.618  29.683  30.403  1.00  0.00     0.029 A 
ATOM     52  N   UNL A   1      45.495  29.168  29.987  1.00  0.00    -0.354 N 
ATOM     53  N   UNL A   1      42.624  29.702  29.782  1.00  0.00    -0.248 NA
ATOM     54  C   UNL A   1      40.791  31.108  30.130  1.00  0.00     0.031 C 
ATOM     55  C   UNL A   1      46.821  30.781  30.746  1.00  0.00     0.029 A 
ATOM     56  C   UNL A   1      45.501  30.467  30.466  1.00  0.00     0.049 A 
ATOM     57  H   UNL A   1      44.691  28.672  29.707  1.00  0.00     0.167 HD
ATOM     58  C   UNL A   1      43.067  30.908  30.312  1.00  0.00     0.074 A 
ATOM     59  C   UNL A   1      41.899  31.747  30.480  1.00  0.00     0.031 C 
ATOM     60  C   UNL A   1      44.329  31.287  30.629  1.00  0.00     0.031 A 
BRANCH  47  61
ATOM     61  C   UNL A   1      48.581  26.925  29.622  1.00  0.00    -0.014 A 
ATOM     62  C   UNL A   1      49.099  26.299  30.767  1.00  0.00     0.009 A 
ATOM     63  C   UNL A   1      49.426  27.140  28.522  1.00  0.00     0.009 A 
ATOM     64  C   UNL A   1      50.444  25.926  30.821  1.00  0.00     0.001 A 
ATOM     65  C   UNL A   1      50.764  26.743  28.570  1.00  0.00     0.001 A 
ATOM     66  C   UNL A   1      51.273  26.145  29.721  1.00  0.00     0.000 A 
ENDBRANCH  47  61
BRANCH  48  67
ATOM     67  C   UNL A   1      38.884  29.181  29.049  1.00  0.00    -0.014 A 
ATOM     68  C   UNL A   1      38.327  29.719  27.879  1.00  0.00     0.009 A 
ATOM     69  C   UNL A   1      38.061  28.990  30.169  1.00  0.00     0.009 A 
ATOM     70  C   UNL A   1      36.978  30.080  27.841  1.00  0.00     0.001 A 
ATOM     71  C   UNL A   1      36.706  29.328  30.119  1.00  0.00     0.001 A 
ATOM     72  C   UNL A   1      36.169  29.881  28.959  1.00  0.00     0.000 A 
ENDBRANCH  48  67
BRANCH  60  73
ATOM     73  C   UNL A   1      44.516  32.681  31.159  1.00  0.00    -0.014 A 
ATOM     74  C   UNL A   1      44.738  33.764  30.296  1.00  0.00     0.009 A 
ATOM     75  C   UNL A   1      44.427  32.917  32.539  1.00  0.00     0.009 A 
ATOM     76  C   UNL A   1      44.897  35.053  30.808  1.00  0.00     0.001 A 
ATOM     77  C   UNL A   1      44.559  34.210  33.047  1.00  0.00     0.001 A 
ATOM     78  C   UNL A   1      44.803  35.275  32.182  1.00  0.00     0.000 A 
ENDBRANCH  60  73
ENDBRANCH  34  35
ENDBRANCH  27  29
ENDBRANCH  26  27
ENDBRANCH  25  26
ENDBRANCH  24  25
ENDBRANCH  23  24
ENDBRANCH   1  23
TORSDOF 18
ENDMDL
MODEL 2
REMARK VINA RESULT:      -9.7      5.021      9.681
REMARK SMILES C[C@@H]1[C@@H](C(=O)OCCOCCOC(=O)c2ccc(-c3c4nc(c(-c5ccccc5)c5ccc([nH]5)c(-c5ccccc5)c5nc(c(-c6ccccc6)c6ccc3[nH]6)C=C5)C=C4)cc2)CCN1C(=O)C[NH2+]C1CCCC1
REMARK SMILES IDX 8 1 7 2 6 3 4 4 5 5 3 6 1 7 2 8 65 9 63 10 64 11 66 12 67 13
REMARK SMILES IDX 68 14 69 15 70 18 71 19 74 20 72 21 73 22 9 23 10 24 11 25
REMARK SMILES IDX 12 26 13 27 14 28 15 29 16 30 62 31 17 32 61 33 18 34 19 35
REMARK SMILES IDX 20 36 55 37 21 38 60 39 54 40 56 41 22 42 59 43 53 44 52 45
REMARK SMILES IDX 23 47 45 48 30 49 44 50 31 51 34 52 43 53 57 54 32 55 33 56
REMARK SMILES IDX 42 58 58 59 35 60 24 61 25 62 29 63 26 64 28 65 27 66 46 67
REMARK SMILES IDX 47 68 51 69 48 70 50 71 49 72 36 73 37 74 41 75 38 76 40 77
REMARK SMILES IDX 39 78
REMARK H PARENT 69 16 69 17 56 46 34 57
REMARK Flexibility Score: inf
ROOT
ATOM      1  C   UNL A   1      32.264  29.190  26.418  1.00  0.00     0.202 C 
ENDROOT
BRANCH   1   2
ATOM      2  C   UNL A   1      33.697  29.179  25.880  1.00  0.00     0.261 C 
BRANCH   2   3
ATOM      3  O   UNL A   1      33.992  27.980  25.147  1.00  0.00    -0.463 OA
BRANCH   3   4
ATOM      4  C   UNL A   1      33.801  28.091  23.800  1.00  0.00     0.311 C 
ATOM      5  O   UNL A   1      33.862  29.143  23.180  1.00  0.00    -0.252 OA
BRANCH   4   6
ATOM      6  C   UNL A   1      33.551  26.720  23.183  1.00  0.00     0.123 C 
ATOM      7  C   UNL A   1      32.086  25.656  21.375  1.00  0.00     0.032 C 
ATOM      8  C   UNL A   1      32.214  26.751  22.432  1.00  0.00     0.096 C 
ATOM      9  N   UNL A   1      31.245  26.557  23.514  1.00  0.00    -0.334 N 
ATOM     10  C   UNL A   1      33.316  25.671  24.265  1.00  0.00     0.039 C 
ATOM     11  C   UNL A   1      31.864  25.911  24.664  1.00  0.00     0.121 C 
BRANCH   9  12
ATOM     12  C   UNL A   1      30.023  27.187  23.662  1.00  0.00     0.277 C 
ATOM     13  O   UNL A   1      28.995  26.535  23.876  1.00  0.00    -0.268 OA
BRANCH  12  14
ATOM     14  C   UNL A   1      29.939  28.713  23.500  1.00  0.00     0.362 C 
BRANCH  14  15
ATOM     15  N   UNL A   1      29.265  29.102  22.253  1.00  0.00    -0.336 N 
ATOM     16  H   UNL A   1      28.301  28.769  22.285  1.00  0.00     0.346 HD
ATOM     17  H   UNL A   1      29.781  28.685  21.479  1.00  0.00     0.346 HD
BRANCH  15  18
ATOM     18  C   UNL A   1      29.253  30.541  22.050  1.00  0.00     0.182 C 
ATOM     19  C   UNL A   1      28.133  31.052  21.146  1.00  0.00     0.065 C 
ATOM     20  C   UNL A   1      28.968  31.296  23.349  1.00  0.00     0.065 C 
ATOM     21  C   UNL A   1      28.109  32.549  21.436  1.00  0.00     0.006 C 
ATOM     22  C   UNL A   1      28.576  32.698  22.886  1.00  0.00     0.006 C 
ENDBRANCH  15  18
ENDBRANCH  14  15
ENDBRANCH  12  14
ENDBRANCH   9  12
ENDBRANCH   4   6
ENDBRANCH   3   4
ENDBRANCH   2   3
ENDBRANCH   1   2
BRANCH   1  23
ATOM     23  O   UNL A   1      31.825  30.363  27.097  1.00  0.00    -0.374 OA
BRANCH  23  24
ATOM     24  C   UNL A   1      31.345  31.457  26.316  1.00  0.00     0.202 C 
BRANCH  24  25
ATOM     25  C   UNL A   1      31.510  32.866  26.896  1.00  0.00     0.261 C 
BRANCH  25  26
ATOM     26  O   UNL A   1      32.868  33.337  26.810  1.00  0.00    -0.460 OA
BRANCH  26  27
ATOM     27  C   UNL A   1      33.389  33.777  27.980  1.00  0.00     0.338 C 
ATOM     28  O   UNL A   1      32.865  34.530  28.789  1.00  0.00    -0.246 OA
BRANCH  27  29
ATOM     29  C   UNL A   1      34.646  33.068  28.274  1.00  0.00     0.060 A 
ATOM     30  C   UNL A   1      34.569  31.692  28.531  1.00  0.00     0.016 A 
ATOM     31  C   UNL A   1      35.860  33.748  28.395  1.00  0.00     0.016 A 
ATOM     32  C   UNL A   1      35.698  30.999  28.959  1.00  0.00     0.010 A 
ATOM     33  C   UNL A   1      36.989  33.053  28.839  1.00  0.00     0.010 A 
ATOM     34  C   UNL A   1      36.903  31.685  29.159  1.00  0.00    -0.014 A 
BRANCH  34  35
ATOM     35  C   UNL A   1      38.018  31.002  29.853  1.00  0.00     0.031 A 
ATOM     36  C   UNL A   1      38.254  31.291  31.311  1.00  0.00     0.074 A 
ATOM     37  C   UNL A   1      38.786  30.106  29.210  1.00  0.00     0.049 A 
ATOM     38  N   UNL A   1      39.169  30.812  32.113  1.00  0.00    -0.248 NA
ATOM     39  C   UNL A   1      37.333  32.246  31.948  1.00  0.00     0.031 C 
ATOM     40  C   UNL A   1      38.628  29.703  27.814  1.00  0.00     0.029 A 
ATOM     41  N   UNL A   1      39.856  29.371  29.656  1.00  0.00    -0.354 N 
ATOM     42  C   UNL A   1      38.938  31.407  33.347  1.00  0.00     0.074 A 
ATOM     43  C   UNL A   1      37.814  32.304  33.182  1.00  0.00     0.031 C 
ATOM     44  C   UNL A   1      39.575  28.795  27.515  1.00  0.00     0.029 A 
ATOM     45  C   UNL A   1      40.416  28.575  28.689  1.00  0.00     0.049 A 
ATOM     46  H   UNL A   1      40.188  29.412  30.582  1.00  0.00     0.167 HD
ATOM     47  C   UNL A   1      39.596  31.222  34.515  1.00  0.00     0.031 A 
ATOM     48  C   UNL A   1      41.496  27.773  28.742  1.00  0.00     0.031 A 
ATOM     49  C   UNL A   1      40.723  30.344  34.681  1.00  0.00     0.049 A 
ATOM     50  C   UNL A   1      42.261  27.645  30.032  1.00  0.00     0.074 A 
ATOM     51  C   UNL A   1      41.452  30.081  35.827  1.00  0.00     0.029 A 
ATOM     52  N   UNL A   1      41.288  29.590  33.664  1.00  0.00    -0.354 N 
ATOM     53  N   UNL A   1      42.018  28.197  31.196  1.00  0.00    -0.248 NA
ATOM     54  C   UNL A   1      43.447  26.776  30.013  1.00  0.00     0.031 C 
ATOM     55  C   UNL A   1      42.490  29.204  35.493  1.00  0.00     0.029 A 
ATOM     56  C   UNL A   1      42.374  28.882  34.151  1.00  0.00     0.049 A 
ATOM     57  H   UNL A   1      40.966  29.562  32.734  1.00  0.00     0.167 HD
ATOM     58  C   UNL A   1      43.003  27.722  32.054  1.00  0.00     0.074 A 
ATOM     59  C   UNL A   1      43.839  26.828  31.279  1.00  0.00     0.031 C 
ATOM     60  C   UNL A   1      43.196  27.999  33.366  1.00  0.00     0.031 A 
BRANCH  47  61
ATOM     61  C   UNL A   1      39.131  32.016  35.702  1.00  0.00    -0.014 A 
ATOM     62  C   UNL A   1      38.215  31.481  36.621  1.00  0.00     0.009 A 
ATOM     63  C   UNL A   1      39.636  33.307  35.916  1.00  0.00     0.009 A 
ATOM     64  C   UNL A   1      37.791  32.237  37.717  1.00  0.00     0.001 A 
ATOM     65  C   UNL A   1      39.229  34.051  37.025  1.00  0.00     0.001 A 
ATOM     66  C   UNL A   1      38.302  33.519  37.919  1.00  0.00     0.000 A 
ENDBRANCH  47  61
BRANCH  48  67
ATOM     67  C   UNL A   1      41.937  27.038  27.529  1.00  0.00    -0.014 A 
ATOM     68  C   UNL A   1      42.812  27.635  26.608  1.00  0.00     0.009 A 
ATOM     69  C   UNL A   1      41.468  25.740  27.278  1.00  0.00     0.009 A 
ATOM     70  C   UNL A   1      43.189  26.953  25.448  1.00  0.00     0.001 A 
ATOM     71  C   UNL A   1      41.867  25.051  26.131  1.00  0.00     0.001 A 
ATOM     72  C   UNL A   1      42.720  25.660  25.213  1.00  0.00     0.000 A 
ENDBRANCH  48  67
BRANCH  60  73
ATOM     73  C   UNL A   1      44.336  27.303  34.056  1.00  0.00    -0.014 A 
ATOM     74  C   UNL A   1      45.596  27.908  34.171  1.00  0.00     0.009 A 
ATOM     75  C   UNL A   1      44.130  26.042  34.635  1.00  0.00     0.009 A 
ATOM     76  C   UNL A   1      46.638  27.250  34.826  1.00  0.00     0.001 A 
ATOM     77  C   UNL A   1      45.165  25.397  35.313  1.00  0.00     0.001 A 
ATOM     78  C   UNL A   1      46.420  25.997  35.401  1.00  0.00     0.000 A 
ENDBRANCH  60  73
ENDBRANCH  34  35
ENDBRANCH  27  29
ENDBRANCH  26  27
ENDBRANCH  25  26
ENDBRANCH  24  25
ENDBRANCH  23  24
ENDBRANCH   1  23
TORSDOF 18
ENDMDL
MODEL 3
REMARK VINA RESULT:      -9.7      0.888      6.022
REMARK SMILES C[C@@H]1[C@@H](C(=O)OCCOCCOC(=O)c2ccc(-c3c4nc(c(-c5ccccc5)c5ccc([nH]5)c(-c5ccccc5)c5nc(c(-c6ccccc6)c6ccc3[nH]6)C=C5)C=C4)cc2)CCN1C(=O)C[NH2+]C1CCCC1
REMARK SMILES IDX 8 1 7 2 6 3 4 4 5 5 3 6 1 7 2 8 65 9 63 10 64 11 66 12 67 13
REMARK SMILES IDX 68 14 69 15 70 18 71 19 74 20 72 21 73 22 9 23 10 24 11 25
REMARK SMILES IDX 12 26 13 27 14 28 15 29 16 30 62 31 17 32 61 33 18 34 19 35
REMARK SMILES IDX 20 36 55 37 21 38 60 39 54 40 56 41 22 42 59 43 53 44 52 45
REMARK SMILES IDX 23 47 45 48 30 49 44 50 31 51 34 52 43 53 57 54 32 55 33 56
REMARK SMILES IDX 42 58 58 59 35 60 24 61 25 62 29 63 26 64 28 65 27 66 46 67
REMARK SMILES IDX 47 68 51 69 48 70 50 71 49 72 36 73 37 74 41 75 38 76 40 77
REMARK SMILES IDX 39 78
REMARK H PARENT 69 16 69 17 56 46 34 57
REMARK Flexibility Score: inf
ROOT
ATOM      1  C   UNL A   1      36.865  23.638  25.165  1.00  0.00     0.202 C 
ENDROOT
BRANCH   1   2
ATOM      2  C   UNL A   1      35.742  23.711  24.128  1.00  0.00     0.261 C 
BRANCH   2   3
ATOM      3  O   UNL A   1      34.837  24.796  24.383  1.00  0.00    -0.463 OA
BRANCH   3   4
ATOM      4  C   UNL A   1      33.848  24.926  23.451  1.00  0.00     0.311 C 
ATOM      5  O   UNL A   1      34.017  24.809  22.245  1.00  0.00    -0.252 OA
BRANCH   4   6
ATOM      6  C   UNL A   1      32.508  25.186  24.129  1.00  0.00     0.123 C 
ATOM      7  C   UNL A   1      31.484  25.108  26.472  1.00  0.00     0.032 C 
ATOM      8  C   UNL A   1      32.514  24.519  25.511  1.00  0.00     0.096 C 
ATOM      9  N   UNL A   1      32.198  23.126  25.186  1.00  0.00    -0.334 N 
ATOM     10  C   UNL A   1      31.381  24.461  23.401  1.00  0.00     0.039 C 
ATOM     11  C   UNL A   1      31.515  23.027  23.903  1.00  0.00     0.121 C 
BRANCH   9  12
ATOM     12  C   UNL A   1      32.750  21.992  25.754  1.00  0.00     0.277 C 
ATOM     13  O   UNL A   1      33.648  22.079  26.598  1.00  0.00    -0.268 OA
BRANCH  12  14
ATOM     14  C   UNL A   1      32.273  20.609  25.284  1.00  0.00     0.362 C 
BRANCH  14  15
ATOM     15  N   UNL A   1      32.906  19.518  26.040  1.00  0.00    -0.336 N 
ATOM     16  H   UNL A   1      32.295  19.260  26.815  1.00  0.00     0.346 HD
ATOM     17  H   UNL A   1      33.810  19.855  26.370  1.00  0.00     0.346 HD
BRANCH  15  18
ATOM     18  C   UNL A   1      33.145  18.339  25.225  1.00  0.00     0.182 C 
ATOM     19  C   UNL A   1      32.279  18.239  23.972  1.00  0.00     0.065 C 
ATOM     20  C   UNL A   1      34.553  18.339  24.627  1.00  0.00     0.065 C 
ATOM     21  C   UNL A   1      32.999  17.185  23.136  1.00  0.00     0.006 C 
ATOM     22  C   UNL A   1      34.480  17.304  23.505  1.00  0.00     0.006 C 
ENDBRANCH  15  18
ENDBRANCH  14  15
ENDBRANCH  12  14
ENDBRANCH   9  12
ENDBRANCH   4   6
ENDBRANCH   3   4
ENDBRANCH   2   3
ENDBRANCH   1   2
BRANCH   1  23
ATOM     23  O   UNL A   1      37.265  22.347  25.614  1.00  0.00    -0.374 OA
BRANCH  23  24
ATOM     24  C   UNL A   1      37.362  21.297  24.653  1.00  0.00     0.202 C 
BRANCH  24  25
ATOM     25  C   UNL A   1      38.265  20.106  24.996  1.00  0.00     0.261 C 
BRANCH  25  26
ATOM     26  O   UNL A   1      38.972  20.295  26.236  1.00  0.00    -0.460 OA
BRANCH  26  27
ATOM     27  C   UNL A   1      40.282  19.954  26.197  1.00  0.00     0.338 C 
ATOM     28  O   UNL A   1      40.768  18.925  25.749  1.00  0.00    -0.246 OA
BRANCH  27  29
ATOM     29  C   UNL A   1      41.116  21.096  26.610  1.00  0.00     0.060 A 
ATOM     30  C   UNL A   1      41.166  21.400  27.977  1.00  0.00     0.016 A 
ATOM     31  C   UNL A   1      41.757  21.911  25.675  1.00  0.00     0.016 A 
ATOM     32  C   UNL A   1      41.815  22.553  28.411  1.00  0.00     0.010 A 
ATOM     33  C   UNL A   1      42.397  23.075  26.111  1.00  0.00     0.010 A 
ATOM     34  C   UNL A   1      42.396  23.420  27.476  1.00  0.00    -0.014 A 
BRANCH  34  35
ATOM     35  C   UNL A   1      42.854  24.757  27.915  1.00  0.00     0.031 A 
ATOM     36  C   UNL A   1      41.828  25.821  28.201  1.00  0.00     0.074 A 
ATOM     37  C   UNL A   1      44.161  25.013  28.098  1.00  0.00     0.049 A 
ATOM     38  N   UNL A   1      42.004  27.056  28.592  1.00  0.00    -0.248 NA
ATOM     39  C   UNL A   1      40.419  25.437  28.025  1.00  0.00     0.031 C 
ATOM     40  C   UNL A   1      45.246  24.055  27.902  1.00  0.00     0.029 A 
ATOM     41  N   UNL A   1      44.792  26.166  28.493  1.00  0.00    -0.354 N 
ATOM     42  C   UNL A   1      40.729  27.599  28.706  1.00  0.00     0.074 A 
ATOM     43  C   UNL A   1      39.792  26.568  28.316  1.00  0.00     0.031 C 
ATOM     44  C   UNL A   1      46.415  24.663  28.173  1.00  0.00     0.029 A 
ATOM     45  C   UNL A   1      46.159  26.055  28.534  1.00  0.00     0.049 A 
ATOM     46  H   UNL A   1      44.310  26.992  28.724  1.00  0.00     0.167 HD
ATOM     47  C   UNL A   1      40.369  28.842  29.104  1.00  0.00     0.031 A 
ATOM     48  C   UNL A   1      47.098  26.979  28.815  1.00  0.00     0.031 A 
ATOM     49  C   UNL A   1      41.297  29.874  29.479  1.00  0.00     0.049 A 
ATOM     50  C   UNL A   1      46.676  28.378  29.178  1.00  0.00     0.074 A 
ATOM     51  C   UNL A   1      41.029  31.163  29.905  1.00  0.00     0.029 A 
ATOM     52  N   UNL A   1      42.676  29.735  29.463  1.00  0.00    -0.354 N 
ATOM     53  N   UNL A   1      45.468  28.870  29.302  1.00  0.00    -0.248 NA
ATOM     54  C   UNL A   1      47.751  29.344  29.445  1.00  0.00     0.031 C 
ATOM     55  C   UNL A   1      42.248  31.820  30.101  1.00  0.00     0.029 A 
ATOM     56  C   UNL A   1      43.273  30.925  29.846  1.00  0.00     0.049 A 
ATOM     57  H   UNL A   1      43.159  28.914  29.215  1.00  0.00     0.167 HD
ATOM     58  C   UNL A   1      45.636  30.195  29.688  1.00  0.00     0.074 A 
ATOM     59  C   UNL A   1      47.063  30.424  29.788  1.00  0.00     0.031 C 
ATOM     60  C   UNL A   1      44.694  31.136  29.939  1.00  0.00     0.031 A 
BRANCH  47  61
ATOM     61  C   UNL A   1      38.902  29.161  29.121  1.00  0.00    -0.014 A 
ATOM     62  C   UNL A   1      38.139  29.014  30.290  1.00  0.00     0.009 A 
ATOM     63  C   UNL A   1      38.281  29.641  27.958  1.00  0.00     0.009 A 
ATOM     64  C   UNL A   1      36.774  29.313  30.284  1.00  0.00     0.001 A 
ATOM     65  C   UNL A   1      36.922  29.962  27.962  1.00  0.00     0.001 A 
ATOM     66  C   UNL A   1      36.169  29.790  29.122  1.00  0.00     0.000 A 
ENDBRANCH  47  61
BRANCH  48  67
ATOM     67  C   UNL A   1      48.538  26.621  28.748  1.00  0.00    -0.014 A 
ATOM     68  C   UNL A   1      49.201  26.107  29.872  1.00  0.00     0.009 A 
ATOM     69  C   UNL A   1      49.260  26.811  27.560  1.00  0.00     0.009 A 
ATOM     70  C   UNL A   1      50.566  25.812  29.813  1.00  0.00     0.001 A 
ATOM     71  C   UNL A   1      50.618  26.490  27.496  1.00  0.00     0.001 A 
ATOM     72  C   UNL A   1      51.272  26.000  28.625  1.00  0.00     0.000 A 
ENDBRANCH  48  67
BRANCH  60  73
ATOM     73  C   UNL A   1      45.175  32.491  30.378  1.00  0.00    -0.014 A 
ATOM     74  C   UNL A   1      45.375  32.788  31.734  1.00  0.00     0.009 A 
ATOM     75  C   UNL A   1      45.471  33.467  29.415  1.00  0.00     0.009 A 
ATOM     76  C   UNL A   1      45.833  34.049  32.120  1.00  0.00     0.001 A 
ATOM     77  C   UNL A   1      45.955  34.718  29.801  1.00  0.00     0.001 A 
ATOM     78  C   UNL A   1      46.127  35.011  31.153  1.00  0.00     0.000 A 
ENDBRANCH  60  73
ENDBRANCH  34  35
ENDBRANCH  27  29
ENDBRANCH  26  27
ENDBRANCH  25  26
ENDBRANCH  24  25
ENDBRANCH  23  24
ENDBRANCH   1  23
TORSDOF 18
ENDMDL
