MODEL 1
REMARK VINA RESULT:      -9.8      0.000      0.000
REMARK SMILES CC[C@@](C)([NH2+]Cc1ccc(C(N)=O)cc1F)C(=O)OCCOCCOC(=O)c1ccc(-c2c3nc(c(-c4ccccc4)c4ccc([nH]4)c(-c4ccccc4)c4nc(c(-c5ccccc5)c5ccc2[nH]5)C=C4)C=C3)cc1
REMARK SMILES IDX 21 1 20 2 19 3 17 4 18 5 3 6 4 7 2 8 1 9 5 10 6 13 7 14 8 15
REMARK SMILES IDX 15 16 9 17 14 18 16 19 10 20 11 21 12 22 13 23 22 26 23 27
REMARK SMILES IDX 24 28 25 29 26 30 27 31 28 32 29 33 75 34 30 35 74 36 31 37
REMARK SMILES IDX 32 38 33 39 68 40 34 41 73 42 67 43 69 44 35 45 72 46 66 47
REMARK SMILES IDX 65 48 36 50 58 51 43 52 57 53 44 54 47 55 56 56 70 57 45 58
REMARK SMILES IDX 46 59 55 61 71 62 48 63 37 64 38 65 42 66 39 67 41 68 40 69
REMARK SMILES IDX 59 70 60 71 64 72 61 73 63 74 62 75 49 76 50 77 54 78 51 79
REMARK SMILES IDX 53 80 52 81
REMARK H PARENT 5 11 5 12 12 24 12 25 69 49 47 60
REMARK Flexibility Score: inf
ROOT
ATOM      1  C   UNL A   1      35.038  33.461  28.268  1.00  0.00     0.202 C 
ENDROOT
BRANCH   1   2
ATOM      2  C   UNL A   1      34.396  32.128  28.660  1.00  0.00     0.261 C 
BRANCH   2   3
ATOM      3  O   UNL A   1      33.978  31.445  27.471  1.00  0.00    -0.459 OA
BRANCH   3   4
ATOM      4  C   UNL A   1      34.414  30.178  27.277  1.00  0.00     0.367 C 
ATOM      5  O   UNL A   1      35.467  29.755  27.742  1.00  0.00    -0.245 OA
BRANCH   4   6
ATOM      6  C   UNL A   1      33.427  29.310  26.438  1.00  0.00     0.191 C 
ATOM      7  C   UNL A   1      33.833  27.823  26.511  1.00  0.00     0.092 C 
BRANCH   6   8
ATOM      8  C   UNL A   1      32.004  29.434  27.082  1.00  0.00     0.077 C 
ATOM      9  C   UNL A   1      31.418  28.149  27.668  1.00  0.00     0.011 C 
ENDBRANCH   6   8
BRANCH   6  10
ATOM     10  N   UNL A   1      33.222  29.725  25.013  1.00  0.00    -0.329 N 
ATOM     11  H   UNL A   1      34.046  29.404  24.504  1.00  0.00     0.347 HD
ATOM     12  H   UNL A   1      33.045  30.725  25.112  1.00  0.00     0.347 HD
BRANCH  10  13
ATOM     13  C   UNL A   1      32.062  29.298  24.218  1.00  0.00     0.301 C 
BRANCH  13  14
ATOM     14  C   UNL A   1      32.166  27.955  23.549  1.00  0.00     0.042 A 
ATOM     15  C   UNL A   1      33.240  27.649  22.699  1.00  0.00     0.013 A 
ATOM     16  C   UNL A   1      31.205  26.965  23.778  1.00  0.00     0.132 A 
ATOM     17  C   UNL A   1      33.438  26.345  22.245  1.00  0.00     0.014 A 
ATOM     18  C   UNL A   1      31.360  25.673  23.285  1.00  0.00     0.053 A 
ATOM     19  F   UNL A   1      30.115  27.246  24.507  1.00  0.00    -0.206 F 
ATOM     20  C   UNL A   1      32.517  25.347  22.575  1.00  0.00     0.042 A 
BRANCH  20  21
ATOM     21  C   UNL A   1      32.758  23.932  22.214  1.00  0.00     0.248 C 
ATOM     22  N   UNL A   1      31.885  23.014  22.730  1.00  0.00    -0.366 N 
ATOM     23  O   UNL A   1      33.654  23.608  21.447  1.00  0.00    -0.270 OA
ATOM     24  H   UNL A   1      31.174  23.304  23.346  1.00  0.00     0.159 HD
ATOM     25  H   UNL A   1      31.970  22.064  22.487  1.00  0.00     0.159 HD
ENDBRANCH  20  21
ENDBRANCH  13  14
ENDBRANCH  10  13
ENDBRANCH   6  10
ENDBRANCH   4   6
ENDBRANCH   3   4
ENDBRANCH   2   3
ENDBRANCH   1   2
BRANCH   1  26
ATOM     26  O   UNL A   1      34.141  34.468  27.793  1.00  0.00    -0.374 OA
BRANCH  26  27
ATOM     27  C   UNL A   1      34.171  35.737  28.451  1.00  0.00     0.202 C 
BRANCH  27  28
ATOM     28  C   UNL A   1      32.921  36.150  29.233  1.00  0.00     0.261 C 
BRANCH  28  29
ATOM     29  O   UNL A   1      32.580  35.212  30.267  1.00  0.00    -0.460 OA
BRANCH  29  30
ATOM     30  C   UNL A   1      32.729  35.678  31.525  1.00  0.00     0.338 C 
ATOM     31  O   UNL A   1      31.997  36.457  32.127  1.00  0.00    -0.246 OA
BRANCH  30  32
ATOM     32  C   UNL A   1      33.845  34.982  32.180  1.00  0.00     0.060 A 
ATOM     33  C   UNL A   1      35.137  35.491  31.995  1.00  0.00     0.016 A 
ATOM     34  C   UNL A   1      33.636  33.804  32.900  1.00  0.00     0.016 A 
ATOM     35  C   UNL A   1      36.237  34.796  32.492  1.00  0.00     0.010 A 
ATOM     36  C   UNL A   1      34.740  33.104  33.387  1.00  0.00     0.010 A 
ATOM     37  C   UNL A   1      36.045  33.578  33.154  1.00  0.00    -0.014 A 
BRANCH  37  38
ATOM     38  C   UNL A   1      37.197  32.707  33.473  1.00  0.00     0.031 A 
ATOM     39  C   UNL A   1      37.945  32.939  34.753  1.00  0.00     0.074 A 
ATOM     40  C   UNL A   1      37.599  31.756  32.614  1.00  0.00     0.049 A 
ATOM     41  N   UNL A   1      39.067  32.413  35.168  1.00  0.00    -0.248 NA
ATOM     42  C   UNL A   1      37.350  33.911  35.686  1.00  0.00     0.031 C 
ATOM     43  C   UNL A   1      36.930  31.409  31.363  1.00  0.00     0.029 A 
ATOM     44  N   UNL A   1      38.694  30.931  32.659  1.00  0.00    -0.354 N 
ATOM     45  C   UNL A   1      39.331  33.010  36.394  1.00  0.00     0.074 A 
ATOM     46  C   UNL A   1      38.259  33.949  36.647  1.00  0.00     0.031 C 
ATOM     47  C   UNL A   1      37.650  30.462  30.737  1.00  0.00     0.029 A 
ATOM     48  C   UNL A   1      38.848  30.175  31.523  1.00  0.00     0.049 A 
ATOM     49  H   UNL A   1      39.308  30.886  33.427  1.00  0.00     0.167 HD
ATOM     50  C   UNL A   1      40.376  32.800  37.228  1.00  0.00     0.031 A 
ATOM     51  C   UNL A   1      39.865  29.378  31.141  1.00  0.00     0.031 A 
ATOM     52  C   UNL A   1      41.447  31.878  36.959  1.00  0.00     0.049 A 
ATOM     53  C   UNL A   1      41.052  29.207  32.048  1.00  0.00     0.074 A 
ATOM     54  C   UNL A   1      42.538  31.567  37.751  1.00  0.00     0.029 A 
ATOM     55  N   UNL A   1      41.568  31.130  35.797  1.00  0.00    -0.354 N 
ATOM     56  N   UNL A   1      41.283  29.751  33.219  1.00  0.00    -0.248 NA
ATOM     57  C   UNL A   1      42.116  28.305  31.585  1.00  0.00     0.031 C 
ATOM     58  C   UNL A   1      43.353  30.680  37.040  1.00  0.00     0.029 A 
ATOM     59  C   UNL A   1      42.732  30.383  35.835  1.00  0.00     0.049 A 
ATOM     60  H   UNL A   1      40.920  31.130  35.055  1.00  0.00     0.167 HD
ATOM     61  C   UNL A   1      42.501  29.237  33.646  1.00  0.00     0.074 A 
ATOM     62  C   UNL A   1      42.958  28.334  32.610  1.00  0.00     0.031 C 
ATOM     63  C   UNL A   1      43.175  29.487  34.796  1.00  0.00     0.031 A 
BRANCH  50  64
ATOM     64  C   UNL A   1      40.436  33.635  38.478  1.00  0.00    -0.014 A 
ATOM     65  C   UNL A   1      41.079  34.884  38.503  1.00  0.00     0.009 A 
ATOM     66  C   UNL A   1      39.843  33.156  39.656  1.00  0.00     0.009 A 
ATOM     67  C   UNL A   1      41.171  35.608  39.694  1.00  0.00     0.001 A 
ATOM     68  C   UNL A   1      39.907  33.898  40.838  1.00  0.00     0.001 A 
ATOM     69  C   UNL A   1      40.584  35.115  40.859  1.00  0.00     0.000 A 
ENDBRANCH  50  64
BRANCH  51  70
ATOM     70  C   UNL A   1      39.804  28.712  29.815  1.00  0.00    -0.014 A 
ATOM     71  C   UNL A   1      40.283  29.357  28.666  1.00  0.00     0.009 A 
ATOM     72  C   UNL A   1      39.299  27.406  29.701  1.00  0.00     0.009 A 
ATOM     73  C   UNL A   1      40.252  28.709  27.428  1.00  0.00     0.001 A 
ATOM     74  C   UNL A   1      39.295  26.751  28.468  1.00  0.00     0.001 A 
ATOM     75  C   UNL A   1      39.766  27.405  27.332  1.00  0.00     0.000 A 
ENDBRANCH  51  70
BRANCH  63  76
ATOM     76  C   UNL A   1      44.459  28.739  35.027  1.00  0.00    -0.014 A 
ATOM     77  C   UNL A   1      45.701  29.279  34.661  1.00  0.00     0.009 A 
ATOM     78  C   UNL A   1      44.425  27.502  35.690  1.00  0.00     0.009 A 
ATOM     79  C   UNL A   1      46.881  28.584  34.936  1.00  0.00     0.001 A 
ATOM     80  C   UNL A   1      45.608  26.823  35.991  1.00  0.00     0.001 A 
ATOM     81  C   UNL A   1      46.834  27.362  35.607  1.00  0.00     0.000 A 
ENDBRANCH  63  76
ENDBRANCH  37  38
ENDBRANCH  30  32
ENDBRANCH  29  30
ENDBRANCH  28  29
ENDBRANCH  27  28
ENDBRANCH  26  27
ENDBRANCH   1  26
TORSDOF 19
ENDMDL
MODEL 2
REMARK VINA RESULT:      -9.5      4.776      7.132
REMARK SMILES CC[C@@](C)([NH2+]Cc1ccc(C(N)=O)cc1F)C(=O)OCCOCCOC(=O)c1ccc(-c2c3nc(c(-c4ccccc4)c4ccc([nH]4)c(-c4ccccc4)c4nc(c(-c5ccccc5)c5ccc2[nH]5)C=C4)C=C3)cc1
REMARK SMILES IDX 21 1 20 2 19 3 17 4 18 5 3 6 4 7 2 8 1 9 5 10 6 13 7 14 8 15
REMARK SMILES IDX 15 16 9 17 14 18 16 19 10 20 11 21 12 22 13 23 22 26 23 27
REMARK SMILES IDX 24 28 25 29 26 30 27 31 28 32 29 33 75 34 30 35 74 36 31 37
REMARK SMILES IDX 32 38 33 39 68 40 34 41 73 42 67 43 69 44 35 45 72 46 66 47
REMARK SMILES IDX 65 48 36 50 58 51 43 52 57 53 44 54 47 55 56 56 70 57 45 58
REMARK SMILES IDX 46 59 55 61 71 62 48 63 37 64 38 65 42 66 39 67 41 68 40 69
REMARK SMILES IDX 59 70 60 71 64 72 61 73 63 74 62 75 49 76 50 77 54 78 51 79
REMARK SMILES IDX 53 80 52 81
REMARK H PARENT 5 11 5 12 12 24 12 25 69 49 47 60
REMARK Flexibility Score: inf
ROOT
ATOM      1  C   UNL A   1      34.494  34.515  30.340  1.00  0.00     0.202 C 
ENDROOT
BRANCH   1   2
ATOM      2  C   UNL A   1      34.010  33.711  29.131  1.00  0.00     0.261 C 
BRANCH   2   3
ATOM      3  O   UNL A   1      34.412  32.344  29.290  1.00  0.00    -0.459 OA
BRANCH   3   4
ATOM      4  C   UNL A   1      35.309  31.838  28.411  1.00  0.00     0.367 C 
ATOM      5  O   UNL A   1      35.832  32.509  27.528  1.00  0.00    -0.245 OA
BRANCH   4   6
ATOM      6  C   UNL A   1      35.631  30.333  28.661  1.00  0.00     0.191 C 
ATOM      7  C   UNL A   1      37.019  29.984  28.084  1.00  0.00     0.092 C 
BRANCH   6   8
ATOM      8  C   UNL A   1      35.702  30.101  30.209  1.00  0.00     0.077 C 
ATOM      9  C   UNL A   1      36.872  29.255  30.709  1.00  0.00     0.011 C 
ENDBRANCH   6   8
BRANCH   6  10
ATOM     10  N   UNL A   1      34.607  29.345  28.188  1.00  0.00    -0.329 N 
ATOM     11  H   UNL A   1      33.746  29.575  28.683  1.00  0.00     0.347 HD
ATOM     12  H   UNL A   1      35.077  28.458  28.372  1.00  0.00     0.347 HD
BRANCH  10  13
ATOM     13  C   UNL A   1      34.238  29.197  26.774  1.00  0.00     0.301 C 
BRANCH  13  14
ATOM     14  C   UNL A   1      33.318  28.055  26.439  1.00  0.00     0.042 A 
ATOM     15  C   UNL A   1      33.780  26.933  25.733  1.00  0.00     0.013 A 
ATOM     16  C   UNL A   1      31.980  28.070  26.848  1.00  0.00     0.132 A 
ATOM     17  C   UNL A   1      32.982  25.797  25.602  1.00  0.00     0.014 A 
ATOM     18  C   UNL A   1      31.155  26.963  26.675  1.00  0.00     0.053 A 
ATOM     19  F   UNL A   1      31.474  29.160  27.441  1.00  0.00    -0.206 F 
ATOM     20  C   UNL A   1      31.681  25.799  26.112  1.00  0.00     0.042 A 
BRANCH  20  21
ATOM     21  C   UNL A   1      30.851  24.574  26.100  1.00  0.00     0.248 C 
ATOM     22  N   UNL A   1      29.616  24.668  26.680  1.00  0.00    -0.366 N 
ATOM     23  O   UNL A   1      31.226  23.549  25.548  1.00  0.00    -0.270 OA
ATOM     24  H   UNL A   1      29.341  25.506  27.117  1.00  0.00     0.159 HD
ATOM     25  H   UNL A   1      29.003  23.898  26.661  1.00  0.00     0.159 HD
ENDBRANCH  20  21
ENDBRANCH  13  14
ENDBRANCH  10  13
ENDBRANCH   6  10
ENDBRANCH   4   6
ENDBRANCH   3   4
ENDBRANCH   2   3
ENDBRANCH   1   2
BRANCH   1  26
ATOM     26  O   UNL A   1      33.583  34.598  31.438  1.00  0.00    -0.374 OA
BRANCH  26  27
ATOM     27  C   UNL A   1      34.040  34.129  32.708  1.00  0.00     0.202 C 
BRANCH  27  28
ATOM     28  C   UNL A   1      34.905  32.866  32.719  1.00  0.00     0.261 C 
BRANCH  28  29
ATOM     29  O   UNL A   1      36.094  33.016  33.513  1.00  0.00    -0.460 OA
BRANCH  29  30
ATOM     30  C   UNL A   1      37.076  33.737  32.932  1.00  0.00     0.338 C 
ATOM     31  O   UNL A   1      37.320  34.930  33.083  1.00  0.00    -0.246 OA
BRANCH  30  32
ATOM     32  C   UNL A   1      37.964  32.843  32.177  1.00  0.00     0.060 A 
ATOM     33  C   UNL A   1      38.749  31.932  32.897  1.00  0.00     0.016 A 
ATOM     34  C   UNL A   1      38.082  32.949  30.790  1.00  0.00     0.016 A 
ATOM     35  C   UNL A   1      39.694  31.153  32.236  1.00  0.00     0.010 A 
ATOM     36  C   UNL A   1      39.038  32.174  30.131  1.00  0.00     0.010 A 
ATOM     37  C   UNL A   1      39.870  31.301  30.856  1.00  0.00    -0.014 A 
BRANCH  37  38
ATOM     38  C   UNL A   1      41.022  30.671  30.174  1.00  0.00     0.031 A 
ATOM     39  C   UNL A   1      42.250  31.495  29.919  1.00  0.00     0.074 A 
ATOM     40  C   UNL A   1      40.957  29.398  29.747  1.00  0.00     0.049 A 
ATOM     41  N   UNL A   1      43.310  31.210  29.209  1.00  0.00    -0.248 NA
ATOM     42  C   UNL A   1      42.276  32.830  30.539  1.00  0.00     0.031 C 
ATOM     43  C   UNL A   1      39.839  28.487  29.973  1.00  0.00     0.029 A 
ATOM     44  N   UNL A   1      41.850  28.669  29.003  1.00  0.00    -0.354 N 
ATOM     45  C   UNL A   1      44.116  32.340  29.271  1.00  0.00     0.074 A 
ATOM     46  C   UNL A   1      43.415  33.318  30.073  1.00  0.00     0.031 C 
ATOM     47  C   UNL A   1      40.096  27.326  29.348  1.00  0.00     0.029 A 
ATOM     48  C   UNL A   1      41.373  27.433  28.645  1.00  0.00     0.049 A 
ATOM     49  H   UNL A   1      42.742  28.999  28.752  1.00  0.00     0.167 HD
ATOM     50  C   UNL A   1      45.327  32.545  28.701  1.00  0.00     0.031 A 
ATOM     51  C   UNL A   1      41.886  26.513  27.806  1.00  0.00     0.031 A 
ATOM     52  C   UNL A   1      46.009  31.572  27.888  1.00  0.00     0.049 A 
ATOM     53  C   UNL A   1      43.201  26.783  27.127  1.00  0.00     0.074 A 
ATOM     54  C   UNL A   1      47.252  31.667  27.289  1.00  0.00     0.029 A 
ATOM     55  N   UNL A   1      45.492  30.331  27.547  1.00  0.00    -0.354 N 
ATOM     56  N   UNL A   1      43.973  27.839  27.211  1.00  0.00    -0.248 NA
ATOM     57  C   UNL A   1      43.720  25.729  26.244  1.00  0.00     0.031 C 
ATOM     58  C   UNL A   1      47.460  30.509  26.533  1.00  0.00     0.029 A 
ATOM     59  C   UNL A   1      46.377  29.662  26.719  1.00  0.00     0.049 A 
ATOM     60  H   UNL A   1      44.625  29.977  27.851  1.00  0.00     0.167 HD
ATOM     61  C   UNL A   1      45.080  27.568  26.417  1.00  0.00     0.074 A 
ATOM     62  C   UNL A   1      44.882  26.244  25.863  1.00  0.00     0.031 C 
ATOM     63  C   UNL A   1      46.166  28.344  26.176  1.00  0.00     0.031 A 
BRANCH  50  64
ATOM     64  C   UNL A   1      45.955  33.898  28.891  1.00  0.00    -0.014 A 
ATOM     65  C   UNL A   1      46.800  34.176  29.977  1.00  0.00     0.009 A 
ATOM     66  C   UNL A   1      45.685  34.919  27.966  1.00  0.00     0.009 A 
ATOM     67  C   UNL A   1      47.318  35.460  30.161  1.00  0.00     0.001 A 
ATOM     68  C   UNL A   1      46.231  36.193  28.133  1.00  0.00     0.001 A 
ATOM     69  C   UNL A   1      47.035  36.467  29.237  1.00  0.00     0.000 A 
ENDBRANCH  50  64
BRANCH  51  70
ATOM     70  C   UNL A   1      41.125  25.265  27.545  1.00  0.00    -0.014 A 
ATOM     71  C   UNL A   1      40.031  25.262  26.668  1.00  0.00     0.009 A 
ATOM     72  C   UNL A   1      41.515  24.058  28.147  1.00  0.00     0.009 A 
ATOM     73  C   UNL A   1      39.341  24.076  26.404  1.00  0.00     0.001 A 
ATOM     74  C   UNL A   1      40.841  22.870  27.860  1.00  0.00     0.001 A 
ATOM     75  C   UNL A   1      39.751  22.881  26.993  1.00  0.00     0.000 A 
ENDBRANCH  51  70
BRANCH  63  76
ATOM     76  C   UNL A   1      47.254  27.769  25.312  1.00  0.00    -0.014 A 
ATOM     77  C   UNL A   1      48.301  27.009  25.856  1.00  0.00     0.009 A 
ATOM     78  C   UNL A   1      47.187  27.933  23.919  1.00  0.00     0.009 A 
ATOM     79  C   UNL A   1      49.269  26.443  25.023  1.00  0.00     0.001 A 
ATOM     80  C   UNL A   1      48.139  27.342  23.087  1.00  0.00     0.001 A 
ATOM     81  C   UNL A   1      49.183  26.603  23.639  1.00  0.00     0.000 A 
ENDBRANCH  63  76
ENDBRANCH  37  38
ENDBRANCH  30  32
ENDBRANCH  29  30
ENDBRANCH  28  29
ENDBRANCH  27  28
ENDBRANCH  26  27
ENDBRANCH   1  26
TORSDOF 19
ENDMDL
MODEL 3
REMARK VINA RESULT:      -9.5      2.489      6.907
REMARK SMILES CC[C@@](C)([NH2+]Cc1ccc(C(N)=O)cc1F)C(=O)OCCOCCOC(=O)c1ccc(-c2c3nc(c(-c4ccccc4)c4ccc([nH]4)c(-c4ccccc4)c4nc(c(-c5ccccc5)c5ccc2[nH]5)C=C4)C=C3)cc1
REMARK SMILES IDX 21 1 20 2 19 3 17 4 18 5 3 6 4 7 2 8 1 9 5 10 6 13 7 14 8 15
REMARK SMILES IDX 15 16 9 17 14 18 16 19 10 20 11 21 12 22 13 23 22 26 23 27
REMARK SMILES IDX 24 28 25 29 26 30 27 31 28 32 29 33 75 34 30 35 74 36 31 37
REMARK SMILES IDX 32 38 33 39 68 40 34 41 73 42 67 43 69 44 35 45 72 46 66 47
REMARK SMILES IDX 65 48 36 50 58 51 43 52 57 53 44 54 47 55 56 56 70 57 45 58
REMARK SMILES IDX 46 59 55 61 71 62 48 63 37 64 38 65 42 66 39 67 41 68 40 69
REMARK SMILES IDX 59 70 60 71 64 72 61 73 63 74 62 75 49 76 50 77 54 78 51 79
REMARK SMILES IDX 53 80 52 81
REMARK H PARENT 5 11 5 12 12 24 12 25 69 49 47 60
REMARK Flexibility Score: inf
ROOT
ATOM      1  C   UNL A   1      33.896  29.495  26.450  1.00  0.00     0.202 C 
ENDROOT
BRANCH   1   2
ATOM      2  C   UNL A   1      33.345  28.067  26.406  1.00  0.00     0.261 C 
BRANCH   2   3
ATOM      3  O   UNL A   1      32.414  27.960  25.322  1.00  0.00    -0.459 OA
BRANCH   3   4
ATOM      4  C   UNL A   1      32.688  27.076  24.332  1.00  0.00     0.367 C 
ATOM      5  O   UNL A   1      33.749  27.069  23.716  1.00  0.00    -0.245 OA
BRANCH   4   6
ATOM      6  C   UNL A   1      31.537  26.053  24.087  1.00  0.00     0.191 C 
ATOM      7  C   UNL A   1      32.121  24.665  23.751  1.00  0.00     0.092 C 
BRANCH   6   8
ATOM      8  C   UNL A   1      30.727  25.904  25.420  1.00  0.00     0.077 C 
ATOM      9  C   UNL A   1      31.173  24.780  26.354  1.00  0.00     0.011 C 
ENDBRANCH   6   8
BRANCH   6  10
ATOM     10  N   UNL A   1      30.505  26.444  23.073  1.00  0.00    -0.329 N 
ATOM     11  H   UNL A   1      30.302  25.600  22.538  1.00  0.00     0.347 HD
ATOM     12  H   UNL A   1      30.955  27.237  22.616  1.00  0.00     0.347 HD
BRANCH  10  13
ATOM     13  C   UNL A   1      29.203  27.016  23.441  1.00  0.00     0.301 C 
BRANCH  13  14
ATOM     14  C   UNL A   1      28.953  28.438  23.021  1.00  0.00     0.042 A 
ATOM     15  C   UNL A   1      29.986  29.235  22.504  1.00  0.00     0.013 A 
ATOM     16  C   UNL A   1      27.674  28.997  23.110  1.00  0.00     0.132 A 
ATOM     17  C   UNL A   1      29.709  30.476  21.932  1.00  0.00     0.014 A 
ATOM     18  C   UNL A   1      27.393  30.257  22.594  1.00  0.00     0.053 A 
ATOM     19  F   UNL A   1      26.679  28.304  23.685  1.00  0.00    -0.206 F 
ATOM     20  C   UNL A   1      28.402  30.968  21.940  1.00  0.00     0.042 A 
BRANCH  20  21
ATOM     21  C   UNL A   1      28.050  32.222  21.237  1.00  0.00     0.248 C 
ATOM     22  N   UNL A   1      27.762  32.113  19.904  1.00  0.00    -0.366 N 
ATOM     23  O   UNL A   1      27.964  33.289  21.828  1.00  0.00    -0.270 OA
ATOM     24  H   UNL A   1      27.840  31.241  19.453  1.00  0.00     0.159 HD
ATOM     25  H   UNL A   1      27.477  32.907  19.396  1.00  0.00     0.159 HD
ENDBRANCH  20  21
ENDBRANCH  13  14
ENDBRANCH  10  13
ENDBRANCH   6  10
ENDBRANCH   4   6
ENDBRANCH   3   4
ENDBRANCH   2   3
ENDBRANCH   1   2
BRANCH   1  26
ATOM     26  O   UNL A   1      33.196  30.406  27.298  1.00  0.00    -0.374 OA
BRANCH  26  27
ATOM     27  C   UNL A   1      32.101  31.127  26.729  1.00  0.00     0.202 C 
BRANCH  27  28
ATOM     28  C   UNL A   1      31.962  32.604  27.108  1.00  0.00     0.261 C 
BRANCH  28  29
ATOM     29  O   UNL A   1      33.233  33.249  27.297  1.00  0.00    -0.460 OA
BRANCH  29  30
ATOM     30  C   UNL A   1      33.257  34.173  28.282  1.00  0.00     0.338 C 
ATOM     31  O   UNL A   1      32.395  35.002  28.553  1.00  0.00    -0.246 OA
BRANCH  30  32
ATOM     32  C   UNL A   1      34.433  33.953  29.135  1.00  0.00     0.060 A 
ATOM     33  C   UNL A   1      35.699  34.205  28.589  1.00  0.00     0.016 A 
ATOM     34  C   UNL A   1      34.301  33.433  30.424  1.00  0.00     0.016 A 
ATOM     35  C   UNL A   1      36.846  33.893  29.315  1.00  0.00     0.010 A 
ATOM     36  C   UNL A   1      35.451  33.111  31.145  1.00  0.00     0.010 A 
ATOM     37  C   UNL A   1      36.725  33.307  30.580  1.00  0.00    -0.014 A 
BRANCH  37  38
ATOM     38  C   UNL A   1      37.911  32.747  31.264  1.00  0.00     0.031 A 
ATOM     39  C   UNL A   1      38.563  31.522  30.691  1.00  0.00     0.074 A 
ATOM     40  C   UNL A   1      38.372  33.292  32.402  1.00  0.00     0.049 A 
ATOM     41  N   UNL A   1      39.506  30.769  31.195  1.00  0.00    -0.248 NA
ATOM     42  C   UNL A   1      38.071  31.079  29.376  1.00  0.00     0.031 C 
ATOM     43  C   UNL A   1      37.851  34.504  33.030  1.00  0.00     0.029 A 
ATOM     44  N   UNL A   1      39.367  32.869  33.245  1.00  0.00    -0.354 N 
ATOM     45  C   UNL A   1      39.700  29.746  30.275  1.00  0.00     0.074 A 
ATOM     46  C   UNL A   1      38.766  29.967  29.193  1.00  0.00     0.031 C 
ATOM     47  C   UNL A   1      38.509  34.709  34.182  1.00  0.00     0.029 A 
ATOM     48  C   UNL A   1      39.462  33.620  34.390  1.00  0.00     0.049 A 
ATOM     49  H   UNL A   1      39.954  32.104  33.049  1.00  0.00     0.167 HD
ATOM     50  C   UNL A   1      40.571  28.712  30.334  1.00  0.00     0.031 A 
ATOM     51  C   UNL A   1      40.199  33.423  35.500  1.00  0.00     0.031 A 
ATOM     52  C   UNL A   1      41.483  28.490  31.425  1.00  0.00     0.049 A 
ATOM     53  C   UNL A   1      41.114  32.232  35.579  1.00  0.00     0.074 A 
ATOM     54  C   UNL A   1      42.429  27.491  31.569  1.00  0.00     0.029 A 
ATOM     55  N   UNL A   1      41.549  29.273  32.568  1.00  0.00    -0.354 N 
ATOM     56  N   UNL A   1      41.315  31.284  34.696  1.00  0.00    -0.248 NA
ATOM     57  C   UNL A   1      41.910  32.088  36.807  1.00  0.00     0.031 C 
ATOM     58  C   UNL A   1      43.022  27.631  32.828  1.00  0.00     0.029 A 
ATOM     59  C   UNL A   1      42.496  28.761  33.437  1.00  0.00     0.049 A 
ATOM     60  H   UNL A   1      41.003  30.076  32.734  1.00  0.00     0.167 HD
ATOM     61  C   UNL A   1      42.279  30.448  35.244  1.00  0.00     0.074 A 
ATOM     62  C   UNL A   1      42.626  31.004  36.537  1.00  0.00     0.031 C 
ATOM     63  C   UNL A   1      42.831  29.325  34.721  1.00  0.00     0.031 A 
BRANCH  50  64
ATOM     64  C   UNL A   1      40.526  27.712  29.211  1.00  0.00    -0.014 A 
ATOM     65  C   UNL A   1      39.660  26.607  29.240  1.00  0.00     0.009 A 
ATOM     66  C   UNL A   1      41.377  27.877  28.107  1.00  0.00     0.009 A 
ATOM     67  C   UNL A   1      39.686  25.662  28.211  1.00  0.00     0.001 A 
ATOM     68  C   UNL A   1      41.376  26.949  27.064  1.00  0.00     0.001 A 
ATOM     69  C   UNL A   1      40.542  25.834  27.124  1.00  0.00     0.000 A 
ENDBRANCH  50  64
BRANCH  51  70
ATOM     70  C   UNL A   1      40.067  34.372  36.636  1.00  0.00    -0.014 A 
ATOM     71  C   UNL A   1      39.187  34.104  37.694  1.00  0.00     0.009 A 
ATOM     72  C   UNL A   1      40.852  35.535  36.682  1.00  0.00     0.009 A 
ATOM     73  C   UNL A   1      39.094  34.986  38.774  1.00  0.00     0.001 A 
ATOM     74  C   UNL A   1      40.777  36.400  37.775  1.00  0.00     0.001 A 
ATOM     75  C   UNL A   1      39.893  36.128  38.818  1.00  0.00     0.000 A 
ENDBRANCH  51  70
BRANCH  63  76
ATOM     76  C   UNL A   1      43.907  28.642  35.518  1.00  0.00    -0.014 A 
ATOM     77  C   UNL A   1      43.609  27.622  36.434  1.00  0.00     0.009 A 
ATOM     78  C   UNL A   1      45.252  28.978  35.290  1.00  0.00     0.009 A 
ATOM     79  C   UNL A   1      44.635  26.969  37.121  1.00  0.00     0.001 A 
ATOM     80  C   UNL A   1      46.276  28.304  35.956  1.00  0.00     0.001 A 
ATOM     81  C   UNL A   1      45.967  27.304  36.877  1.00  0.00     0.000 A 
ENDBRANCH  63  76
ENDBRANCH  37  38
ENDBRANCH  30  32
ENDBRANCH  29  30
ENDBRANCH  28  29
ENDBRANCH  27  28
ENDBRANCH  26  27
ENDBRANCH   1  26
TORSDOF 19
ENDMDL
