MODEL 1
REMARK VINA RESULT:      -9.4      0.000      0.000
REMARK SMILES C[C@@H](NC(=O)C(C)(C)C)C(=O)N[C@H](C)C(=O)OCCOCCOC(=O)c1ccc(-c2c3nc(c(-c4ccccc4)c4ccc([nH]4)c(-c4ccccc4)c4nc(c(-c5ccccc5)c5ccc2[nH]5)C=C4)C=C3)cc1
REMARK SMILES IDX 19 1 18 2 17 3 15 4 16 5 13 6 14 7 12 8 10 9 11 10 2 12 1 13
REMARK SMILES IDX 3 14 4 15 5 17 6 18 7 19 8 20 9 21 20 22 21 23 22 24 23 25
REMARK SMILES IDX 24 26 25 27 26 28 27 29 73 30 28 31 72 32 29 33 30 34 31 35
REMARK SMILES IDX 66 36 32 37 71 38 65 39 67 40 33 41 70 42 64 43 63 44 34 46
REMARK SMILES IDX 56 47 41 48 55 49 42 50 45 51 54 52 68 53 43 54 44 55 53 57
REMARK SMILES IDX 69 58 46 59 35 60 36 61 40 62 37 63 39 64 38 65 57 66 58 67
REMARK SMILES IDX 62 68 59 69 61 70 60 71 47 72 48 73 52 74 49 75 51 76 50 77
REMARK H PARENT 12 11 3 16 67 45 45 56
REMARK Flexibility Score: inf
ROOT
ATOM      1  C   UNL A   1      34.526  32.605  29.254  1.00  0.00     0.202 C 
ENDROOT
BRANCH   1   2
ATOM      2  C   UNL A   1      34.941  31.810  28.017  1.00  0.00     0.261 C 
BRANCH   2   3
ATOM      3  O   UNL A   1      33.760  31.308  27.350  1.00  0.00    -0.462 OA
BRANCH   3   4
ATOM      4  C   UNL A   1      33.830  30.033  26.872  1.00  0.00     0.328 C 
ATOM      5  O   UNL A   1      34.640  29.195  27.243  1.00  0.00    -0.250 OA
BRANCH   4   6
ATOM      6  C   UNL A   1      32.788  29.782  25.765  1.00  0.00     0.189 C 
ATOM      7  C   UNL A   1      31.523  30.620  25.893  1.00  0.00     0.043 C 
BRANCH   6   8
ATOM      8  N   UNL A   1      33.166  29.611  24.358  1.00  0.00    -0.341 N 
ATOM      9  C   UNL A   1      32.905  28.670  23.415  1.00  0.00     0.242 C 
ATOM     10  O   UNL A   1      33.757  28.516  22.534  1.00  0.00    -0.273 OA
ATOM     11  H   UNL A   1      33.738  30.339  24.024  1.00  0.00     0.164 HD
BRANCH   9  12
ATOM     12  C   UNL A   1      31.660  27.780  23.429  1.00  0.00     0.168 C 
ATOM     13  C   UNL A   1      30.668  28.301  22.382  1.00  0.00     0.041 C 
BRANCH  12  14
ATOM     14  N   UNL A   1      31.904  26.347  23.267  1.00  0.00    -0.344 N 
ATOM     15  C   UNL A   1      32.045  25.307  24.130  1.00  0.00     0.226 C 
ATOM     16  H   UNL A   1      31.984  26.077  22.324  1.00  0.00     0.164 HD
ATOM     17  O   UNL A   1      31.808  24.203  23.620  1.00  0.00    -0.275 OA
BRANCH  15  18
ATOM     18  C   UNL A   1      32.508  25.418  25.604  1.00  0.00     0.041 C 
ATOM     19  C   UNL A   1      32.441  24.067  26.335  1.00  0.00     0.021 C 
ATOM     20  C   UNL A   1      33.903  26.041  25.743  1.00  0.00     0.021 C 
ATOM     21  C   UNL A   1      31.511  26.346  26.344  1.00  0.00     0.021 C 
ENDBRANCH  15  18
ENDBRANCH  12  14
ENDBRANCH   9  12
ENDBRANCH   6   8
ENDBRANCH   4   6
ENDBRANCH   3   4
ENDBRANCH   2   3
ENDBRANCH   1   2
BRANCH   1  22
ATOM     22  O   UNL A   1      34.936  33.974  29.264  1.00  0.00    -0.374 OA
BRANCH  22  23
ATOM     23  C   UNL A   1      34.116  34.911  28.576  1.00  0.00     0.202 C 
BRANCH  23  24
ATOM     24  C   UNL A   1      33.116  35.691  29.439  1.00  0.00     0.261 C 
BRANCH  24  25
ATOM     25  O   UNL A   1      32.610  34.955  30.568  1.00  0.00    -0.460 OA
BRANCH  25  26
ATOM     26  C   UNL A   1      32.795  35.585  31.755  1.00  0.00     0.338 C 
ATOM     27  O   UNL A   1      32.126  36.495  32.219  1.00  0.00    -0.246 OA
BRANCH  26  28
ATOM     28  C   UNL A   1      33.907  34.993  32.521  1.00  0.00     0.060 A 
ATOM     29  C   UNL A   1      35.132  35.669  32.504  1.00  0.00     0.016 A 
ATOM     30  C   UNL A   1      33.815  33.706  33.061  1.00  0.00     0.016 A 
ATOM     31  C   UNL A   1      36.288  35.032  32.952  1.00  0.00     0.010 A 
ATOM     32  C   UNL A   1      34.979  33.068  33.510  1.00  0.00     0.010 A 
ATOM     33  C   UNL A   1      36.228  33.708  33.407  1.00  0.00    -0.014 A 
BRANCH  33  34
ATOM     34  C   UNL A   1      37.490  32.950  33.611  1.00  0.00     0.031 A 
ATOM     35  C   UNL A   1      38.267  33.139  34.889  1.00  0.00     0.074 A 
ATOM     36  C   UNL A   1      37.918  32.060  32.698  1.00  0.00     0.049 A 
ATOM     37  N   UNL A   1      39.379  32.562  35.277  1.00  0.00    -0.248 NA
ATOM     38  C   UNL A   1      37.717  34.099  35.858  1.00  0.00     0.031 C 
ATOM     39  C   UNL A   1      37.236  31.737  31.447  1.00  0.00     0.029 A 
ATOM     40  N   UNL A   1      39.031  31.257  32.695  1.00  0.00    -0.354 N 
ATOM     41  C   UNL A   1      39.663  33.097  36.529  1.00  0.00     0.074 A 
ATOM     42  C   UNL A   1      38.626  34.062  36.822  1.00  0.00     0.031 C 
ATOM     43  C   UNL A   1      37.942  30.795  30.798  1.00  0.00     0.029 A 
ATOM     44  C   UNL A   1      39.140  30.474  31.573  1.00  0.00     0.049 A 
ATOM     45  H   UNL A   1      39.689  31.244  33.428  1.00  0.00     0.167 HD
ATOM     46  C   UNL A   1      40.691  32.808  37.364  1.00  0.00     0.031 A 
ATOM     47  C   UNL A   1      40.102  29.606  31.205  1.00  0.00     0.031 A 
ATOM     48  C   UNL A   1      41.731  31.855  37.079  1.00  0.00     0.049 A 
ATOM     49  C   UNL A   1      41.283  29.372  32.108  1.00  0.00     0.074 A 
ATOM     50  C   UNL A   1      42.798  31.478  37.878  1.00  0.00     0.029 A 
ATOM     51  N   UNL A   1      41.842  31.138  35.899  1.00  0.00    -0.354 N 
ATOM     52  N   UNL A   1      41.524  29.863  33.299  1.00  0.00    -0.248 NA
ATOM     53  C   UNL A   1      42.323  28.460  31.610  1.00  0.00     0.031 C 
ATOM     54  C   UNL A   1      43.586  30.574  37.157  1.00  0.00     0.029 A 
ATOM     55  C   UNL A   1      42.979  30.347  35.933  1.00  0.00     0.049 A 
ATOM     56  H   UNL A   1      41.208  31.184  35.149  1.00  0.00     0.167 HD
ATOM     57  C   UNL A   1      42.726  29.296  33.707  1.00  0.00     0.074 A 
ATOM     58  C   UNL A   1      43.159  28.418  32.639  1.00  0.00     0.031 C 
ATOM     59  C   UNL A   1      43.405  29.481  34.865  1.00  0.00     0.031 A 
BRANCH  46  60
ATOM     60  C   UNL A   1      40.759  33.568  38.660  1.00  0.00    -0.014 A 
ATOM     61  C   UNL A   1      40.131  33.092  39.822  1.00  0.00     0.009 A 
ATOM     62  C   UNL A   1      41.486  34.768  38.722  1.00  0.00     0.009 A 
ATOM     63  C   UNL A   1      40.198  33.823  41.011  1.00  0.00     0.001 A 
ATOM     64  C   UNL A   1      41.573  35.482  39.918  1.00  0.00     0.001 A 
ATOM     65  C   UNL A   1      40.921  35.016  41.058  1.00  0.00     0.000 A 
ENDBRANCH  46  60
BRANCH  47  66
ATOM     66  C   UNL A   1      39.997  28.889  29.908  1.00  0.00    -0.014 A 
ATOM     67  C   UNL A   1      40.416  29.502  28.719  1.00  0.00     0.009 A 
ATOM     68  C   UNL A   1      39.458  27.593  29.853  1.00  0.00     0.009 A 
ATOM     69  C   UNL A   1      40.280  28.840  27.496  1.00  0.00     0.001 A 
ATOM     70  C   UNL A   1      39.348  26.924  28.632  1.00  0.00     0.001 A 
ATOM     71  C   UNL A   1      39.751  27.550  27.455  1.00  0.00     0.000 A 
ENDBRANCH  47  66
BRANCH  59  72
ATOM     72  C   UNL A   1      44.672  28.694  35.056  1.00  0.00    -0.014 A 
ATOM     73  C   UNL A   1      45.924  29.236  34.727  1.00  0.00     0.009 A 
ATOM     74  C   UNL A   1      44.613  27.405  35.608  1.00  0.00     0.009 A 
ATOM     75  C   UNL A   1      47.089  28.489  34.920  1.00  0.00     0.001 A 
ATOM     76  C   UNL A   1      45.781  26.671  35.824  1.00  0.00     0.001 A 
ATOM     77  C   UNL A   1      47.017  27.210  35.471  1.00  0.00     0.000 A 
ENDBRANCH  59  72
ENDBRANCH  33  34
ENDBRANCH  26  28
ENDBRANCH  25  26
ENDBRANCH  24  25
ENDBRANCH  23  24
ENDBRANCH  22  23
ENDBRANCH   1  22
TORSDOF 18
ENDMDL
MODEL 2
REMARK VINA RESULT:      -9.1      5.341     10.429
REMARK SMILES C[C@@H](NC(=O)C(C)(C)C)C(=O)N[C@H](C)C(=O)OCCOCCOC(=O)c1ccc(-c2c3nc(c(-c4ccccc4)c4ccc([nH]4)c(-c4ccccc4)c4nc(c(-c5ccccc5)c5ccc2[nH]5)C=C4)C=C3)cc1
REMARK SMILES IDX 19 1 18 2 17 3 15 4 16 5 13 6 14 7 12 8 10 9 11 10 2 12 1 13
REMARK SMILES IDX 3 14 4 15 5 17 6 18 7 19 8 20 9 21 20 22 21 23 22 24 23 25
REMARK SMILES IDX 24 26 25 27 26 28 27 29 73 30 28 31 72 32 29 33 30 34 31 35
REMARK SMILES IDX 66 36 32 37 71 38 65 39 67 40 33 41 70 42 64 43 63 44 34 46
REMARK SMILES IDX 56 47 41 48 55 49 42 50 45 51 54 52 68 53 43 54 44 55 53 57
REMARK SMILES IDX 69 58 46 59 35 60 36 61 40 62 37 63 39 64 38 65 57 66 58 67
REMARK SMILES IDX 62 68 59 69 61 70 60 71 47 72 48 73 52 74 49 75 51 76 50 77
REMARK H PARENT 12 11 3 16 67 45 45 56
REMARK Flexibility Score: inf
ROOT
ATOM      1  C   UNL A   1      36.634  22.689  25.267  1.00  0.00     0.202 C 
ENDROOT
BRANCH   1   2
ATOM      2  C   UNL A   1      35.779  23.648  24.441  1.00  0.00     0.261 C 
BRANCH   2   3
ATOM      3  O   UNL A   1      34.383  23.308  24.601  1.00  0.00    -0.462 OA
BRANCH   3   4
ATOM      4  C   UNL A   1      33.518  23.854  23.700  1.00  0.00     0.328 C 
ATOM      5  O   UNL A   1      33.784  24.796  22.964  1.00  0.00    -0.250 OA
BRANCH   4   6
ATOM      6  C   UNL A   1      32.137  23.173  23.748  1.00  0.00     0.189 C 
ATOM      7  C   UNL A   1      32.060  21.861  22.979  1.00  0.00     0.043 C 
BRANCH   6   8
ATOM      8  N   UNL A   1      31.337  23.111  24.976  1.00  0.00    -0.341 N 
ATOM      9  C   UNL A   1      30.973  24.021  25.915  1.00  0.00     0.242 C 
ATOM     10  O   UNL A   1      30.771  23.590  27.056  1.00  0.00    -0.273 OA
ATOM     11  H   UNL A   1      30.988  22.210  25.161  1.00  0.00     0.164 HD
BRANCH   9  12
ATOM     12  C   UNL A   1      30.861  25.522  25.641  1.00  0.00     0.168 C 
ATOM     13  C   UNL A   1      29.529  25.797  24.934  1.00  0.00     0.041 C 
BRANCH  12  14
ATOM     14  N   UNL A   1      31.038  26.393  26.803  1.00  0.00    -0.344 N 
ATOM     15  C   UNL A   1      31.612  27.610  26.996  1.00  0.00     0.226 C 
ATOM     16  H   UNL A   1      30.657  26.014  27.627  1.00  0.00     0.164 HD
ATOM     17  O   UNL A   1      31.189  28.205  27.997  1.00  0.00    -0.275 OA
BRANCH  15  18
ATOM     18  C   UNL A   1      32.731  28.225  26.119  1.00  0.00     0.041 C 
ATOM     19  C   UNL A   1      32.202  28.699  24.754  1.00  0.00     0.021 C 
ATOM     20  C   UNL A   1      33.490  29.354  26.828  1.00  0.00     0.021 C 
ATOM     21  C   UNL A   1      33.756  27.105  25.806  1.00  0.00     0.021 C 
ENDBRANCH  15  18
ENDBRANCH  12  14
ENDBRANCH   9  12
ENDBRANCH   6   8
ENDBRANCH   4   6
ENDBRANCH   3   4
ENDBRANCH   2   3
ENDBRANCH   1   2
BRANCH   1  22
ATOM     22  O   UNL A   1      36.562  21.317  24.877  1.00  0.00    -0.374 OA
BRANCH  22  23
ATOM     23  C   UNL A   1      37.778  20.581  24.828  1.00  0.00     0.202 C 
BRANCH  23  24
ATOM     24  C   UNL A   1      38.900  21.075  25.749  1.00  0.00     0.261 C 
BRANCH  24  25
ATOM     25  O   UNL A   1      39.551  20.034  26.501  1.00  0.00    -0.460 OA
BRANCH  25  26
ATOM     26  C   UNL A   1      40.854  19.855  26.169  1.00  0.00     0.338 C 
ATOM     27  O   UNL A   1      41.334  18.918  25.551  1.00  0.00    -0.246 OA
BRANCH  26  28
ATOM     28  C   UNL A   1      41.687  20.998  26.585  1.00  0.00     0.060 A 
ATOM     29  C   UNL A   1      41.731  21.298  27.951  1.00  0.00     0.016 A 
ATOM     30  C   UNL A   1      42.233  21.880  25.648  1.00  0.00     0.016 A 
ATOM     31  C   UNL A   1      42.249  22.519  28.382  1.00  0.00     0.010 A 
ATOM     32  C   UNL A   1      42.753  23.106  26.084  1.00  0.00     0.010 A 
ATOM     33  C   UNL A   1      42.714  23.453  27.447  1.00  0.00    -0.014 A 
BRANCH  33  34
ATOM     34  C   UNL A   1      42.995  24.844  27.887  1.00  0.00     0.031 A 
ATOM     35  C   UNL A   1      44.425  25.300  28.026  1.00  0.00     0.074 A 
ATOM     36  C   UNL A   1      41.995  25.716  28.108  1.00  0.00     0.049 A 
ATOM     37  N   UNL A   1      44.891  26.475  28.374  1.00  0.00    -0.248 NA
ATOM     38  C   UNL A   1      45.465  24.304  27.728  1.00  0.00     0.031 C 
ATOM     39  C   UNL A   1      40.570  25.426  27.956  1.00  0.00     0.029 A 
ATOM     40  N   UNL A   1      42.034  27.031  28.500  1.00  0.00    -0.354 N 
ATOM     41  C   UNL A   1      46.277  26.354  28.346  1.00  0.00     0.074 A 
ATOM     42  C   UNL A   1      46.574  24.988  27.974  1.00  0.00     0.031 C 
ATOM     43  C   UNL A   1      39.869  26.536  28.244  1.00  0.00     0.029 A 
ATOM     44  C   UNL A   1      40.792  27.601  28.631  1.00  0.00     0.049 A 
ATOM     45  H   UNL A   1      42.872  27.518  28.671  1.00  0.00     0.167 HD
ATOM     46  C   UNL A   1      47.219  27.295  28.599  1.00  0.00     0.031 A 
ATOM     47  C   UNL A   1      40.438  28.838  29.029  1.00  0.00     0.031 A 
ATOM     48  C   UNL A   1      46.933  28.654  28.975  1.00  0.00     0.049 A 
ATOM     49  C   UNL A   1      41.502  29.838  29.396  1.00  0.00     0.074 A 
ATOM     50  C   UNL A   1      47.824  29.685  29.225  1.00  0.00     0.029 A 
ATOM     51  N   UNL A   1      45.662  29.169  29.167  1.00  0.00    -0.354 N 
ATOM     52  N   UNL A   1      42.806  29.719  29.339  1.00  0.00    -0.248 NA
ATOM     53  C   UNL A   1      41.038  31.146  29.883  1.00  0.00     0.031 C 
ATOM     54  C   UNL A   1      47.092  30.809  29.624  1.00  0.00     0.029 A 
ATOM     55  C   UNL A   1      45.744  30.493  29.567  1.00  0.00     0.049 A 
ATOM     56  H   UNL A   1      44.824  28.670  29.038  1.00  0.00     0.167 HD
ATOM     57  C   UNL A   1      43.317  30.943  29.750  1.00  0.00     0.074 A 
ATOM     58  C   UNL A   1      42.183  31.794  30.047  1.00  0.00     0.031 C 
ATOM     59  C   UNL A   1      44.612  31.331  29.865  1.00  0.00     0.031 A 
BRANCH  46  60
ATOM     60  C   UNL A   1      48.658  26.869  28.513  1.00  0.00    -0.014 A 
ATOM     61  C   UNL A   1      49.339  26.360  29.631  1.00  0.00     0.009 A 
ATOM     62  C   UNL A   1      49.334  26.954  27.285  1.00  0.00     0.009 A 
ATOM     63  C   UNL A   1      50.680  25.982  29.528  1.00  0.00     0.001 A 
ATOM     64  C   UNL A   1      50.666  26.550  27.180  1.00  0.00     0.001 A 
ATOM     65  C   UNL A   1      51.341  26.075  28.303  1.00  0.00     0.000 A 
ENDBRANCH  46  60
BRANCH  47  66
ATOM     66  C   UNL A   1      39.002  29.209  29.111  1.00  0.00    -0.014 A 
ATOM     67  C   UNL A   1      38.283  29.017  30.299  1.00  0.00     0.009 A 
ATOM     68  C   UNL A   1      38.338  29.738  27.992  1.00  0.00     0.009 A 
ATOM     69  C   UNL A   1      36.923  29.330  30.361  1.00  0.00     0.001 A 
ATOM     70  C   UNL A   1      36.986  30.075  28.065  1.00  0.00     0.001 A 
ATOM     71  C   UNL A   1      36.278  29.863  29.246  1.00  0.00     0.000 A 
ENDBRANCH  47  66
BRANCH  59  72
ATOM     72  C   UNL A   1      44.873  32.746  30.298  1.00  0.00    -0.014 A 
ATOM     73  C   UNL A   1      44.944  33.793  29.366  1.00  0.00     0.009 A 
ATOM     74  C   UNL A   1      45.012  33.042  31.663  1.00  0.00     0.009 A 
ATOM     75  C   UNL A   1      45.181  35.102  29.791  1.00  0.00     0.001 A 
ATOM     76  C   UNL A   1      45.221  34.354  32.088  1.00  0.00     0.001 A 
ATOM     77  C   UNL A   1      45.315  35.383  31.151  1.00  0.00     0.000 A 
ENDBRANCH  59  72
ENDBRANCH  33  34
ENDBRANCH  26  28
ENDBRANCH  25  26
ENDBRANCH  24  25
ENDBRANCH  23  24
ENDBRANCH  22  23
ENDBRANCH   1  22
TORSDOF 18
ENDMDL
MODEL 3
REMARK VINA RESULT:      -9.1      0.743      6.022
REMARK SMILES C[C@@H](NC(=O)C(C)(C)C)C(=O)N[C@H](C)C(=O)OCCOCCOC(=O)c1ccc(-c2c3nc(c(-c4ccccc4)c4ccc([nH]4)c(-c4ccccc4)c4nc(c(-c5ccccc5)c5ccc2[nH]5)C=C4)C=C3)cc1
REMARK SMILES IDX 19 1 18 2 17 3 15 4 16 5 13 6 14 7 12 8 10 9 11 10 2 12 1 13
REMARK SMILES IDX 3 14 4 15 5 17 6 18 7 19 8 20 9 21 20 22 21 23 22 24 23 25
REMARK SMILES IDX 24 26 25 27 26 28 27 29 73 30 28 31 72 32 29 33 30 34 31 35
REMARK SMILES IDX 66 36 32 37 71 38 65 39 67 40 33 41 70 42 64 43 63 44 34 46
REMARK SMILES IDX 56 47 41 48 55 49 42 50 45 51 54 52 68 53 43 54 44 55 53 57
REMARK SMILES IDX 69 58 46 59 35 60 36 61 40 62 37 63 39 64 38 65 57 66 58 67
REMARK SMILES IDX 62 68 59 69 61 70 60 71 47 72 48 73 52 74 49 75 51 76 50 77
REMARK H PARENT 12 11 3 16 67 45 45 56
REMARK Flexibility Score: inf
ROOT
ATOM      1  C   UNL A   1      34.511  32.307  29.131  1.00  0.00     0.202 C 
ENDROOT
BRANCH   1   2
ATOM      2  C   UNL A   1      34.473  31.838  27.678  1.00  0.00     0.261 C 
BRANCH   2   3
ATOM      3  O   UNL A   1      33.573  30.712  27.559  1.00  0.00    -0.462 OA
BRANCH   3   4
ATOM      4  C   UNL A   1      33.945  29.727  26.694  1.00  0.00     0.328 C 
ATOM      5  O   UNL A   1      34.970  29.066  26.793  1.00  0.00    -0.250 OA
BRANCH   4   6
ATOM      6  C   UNL A   1      32.937  29.570  25.540  1.00  0.00     0.189 C 
ATOM      7  C   UNL A   1      31.661  30.385  25.707  1.00  0.00     0.043 C 
BRANCH   6   8
ATOM      8  N   UNL A   1      33.356  29.532  24.135  1.00  0.00    -0.341 N 
ATOM      9  C   UNL A   1      33.473  28.547  23.208  1.00  0.00     0.242 C 
ATOM     10  O   UNL A   1      34.323  28.713  22.326  1.00  0.00    -0.273 OA
ATOM     11  H   UNL A   1      33.611  30.417  23.786  1.00  0.00     0.164 HD
BRANCH   9  12
ATOM     12  C   UNL A   1      32.658  27.252  23.241  1.00  0.00     0.168 C 
ATOM     13  C   UNL A   1      31.212  27.568  22.841  1.00  0.00     0.041 C 
BRANCH  12  14
ATOM     14  N   UNL A   1      33.199  26.143  22.456  1.00  0.00    -0.344 N 
ATOM     15  C   UNL A   1      33.443  24.830  22.714  1.00  0.00     0.226 C 
ATOM     16  H   UNL A   1      33.440  26.405  21.538  1.00  0.00     0.164 HD
ATOM     17  O   UNL A   1      33.490  24.126  21.696  1.00  0.00    -0.275 OA
BRANCH  15  18
ATOM     18  C   UNL A   1      33.701  24.222  24.114  1.00  0.00     0.041 C 
ATOM     19  C   UNL A   1      34.417  22.864  24.033  1.00  0.00     0.021 C 
ATOM     20  C   UNL A   1      34.455  25.178  25.048  1.00  0.00     0.021 C 
ATOM     21  C   UNL A   1      32.323  23.932  24.765  1.00  0.00     0.021 C 
ENDBRANCH  15  18
ENDBRANCH  12  14
ENDBRANCH   9  12
ENDBRANCH   6   8
ENDBRANCH   4   6
ENDBRANCH   3   4
ENDBRANCH   2   3
ENDBRANCH   1   2
BRANCH   1  22
ATOM     22  O   UNL A   1      35.024  33.625  29.332  1.00  0.00    -0.374 OA
BRANCH  22  23
ATOM     23  C   UNL A   1      34.432  34.683  28.587  1.00  0.00     0.202 C 
BRANCH  23  24
ATOM     24  C   UNL A   1      33.403  35.539  29.335  1.00  0.00     0.261 C 
BRANCH  24  25
ATOM     25  O   UNL A   1      32.774  34.873  30.446  1.00  0.00    -0.460 OA
BRANCH  25  26
ATOM     26  C   UNL A   1      32.886  35.546  31.618  1.00  0.00     0.338 C 
ATOM     27  O   UNL A   1      32.199  36.480  31.999  1.00  0.00    -0.246 OA
BRANCH  26  28
ATOM     28  C   UNL A   1      33.934  34.971  32.481  1.00  0.00     0.060 A 
ATOM     29  C   UNL A   1      35.136  35.679  32.591  1.00  0.00     0.016 A 
ATOM     30  C   UNL A   1      33.826  33.675  32.993  1.00  0.00     0.016 A 
ATOM     31  C   UNL A   1      36.261  35.065  33.142  1.00  0.00     0.010 A 
ATOM     32  C   UNL A   1      34.958  33.060  33.545  1.00  0.00     0.010 A 
ATOM     33  C   UNL A   1      36.193  33.734  33.572  1.00  0.00    -0.014 A 
BRANCH  33  34
ATOM     34  C   UNL A   1      37.450  33.006  33.888  1.00  0.00     0.031 A 
ATOM     35  C   UNL A   1      37.997  32.011  32.897  1.00  0.00     0.074 A 
ATOM     36  C   UNL A   1      38.133  33.263  35.018  1.00  0.00     0.049 A 
ATOM     37  N   UNL A   1      39.086  31.285  32.965  1.00  0.00    -0.248 NA
ATOM     38  C   UNL A   1      37.217  31.813  31.666  1.00  0.00     0.031 C 
ATOM     39  C   UNL A   1      37.749  34.240  36.035  1.00  0.00     0.029 A 
ATOM     40  N   UNL A   1      39.303  32.723  35.490  1.00  0.00    -0.354 N 
ATOM     41  C   UNL A   1      39.115  30.539  31.792  1.00  0.00     0.074 A 
ATOM     42  C   UNL A   1      37.924  30.878  31.045  1.00  0.00     0.031 C 
ATOM     43  C   UNL A   1      38.675  34.236  37.011  1.00  0.00     0.029 A 
ATOM     44  C   UNL A   1      39.695  33.236  36.701  1.00  0.00     0.049 A 
ATOM     45  H   UNL A   1      39.813  32.034  35.006  1.00  0.00     0.167 HD
ATOM     46  C   UNL A   1      40.052  29.655  31.368  1.00  0.00     0.031 A 
ATOM     47  C   UNL A   1      40.750  32.926  37.480  1.00  0.00     0.031 A 
ATOM     48  C   UNL A   1      41.236  29.305  32.106  1.00  0.00     0.049 A 
ATOM     49  C   UNL A   1      41.725  31.872  37.031  1.00  0.00     0.074 A 
ATOM     50  C   UNL A   1      42.255  28.439  31.743  1.00  0.00     0.029 A 
ATOM     51  N   UNL A   1      41.556  29.795  33.362  1.00  0.00    -0.354 N 
ATOM     52  N   UNL A   1      41.756  31.196  35.909  1.00  0.00    -0.248 NA
ATOM     53  C   UNL A   1      42.815  31.543  37.962  1.00  0.00     0.031 C 
ATOM     54  C   UNL A   1      43.162  28.361  32.805  1.00  0.00     0.029 A 
ATOM     55  C   UNL A   1      42.738  29.222  33.805  1.00  0.00     0.049 A 
ATOM     56  H   UNL A   1      41.024  30.451  33.865  1.00  0.00     0.167 HD
ATOM     57  C   UNL A   1      42.882  30.385  35.984  1.00  0.00     0.074 A 
ATOM     58  C   UNL A   1      43.512  30.660  37.259  1.00  0.00     0.031 C 
ATOM     59  C   UNL A   1      43.355  29.497  35.075  1.00  0.00     0.031 A 
BRANCH  46  60
ATOM     60  C   UNL A   1      39.807  28.971  30.052  1.00  0.00    -0.014 A 
ATOM     61  C   UNL A   1      39.217  27.698  29.985  1.00  0.00     0.009 A 
ATOM     62  C   UNL A   1      40.149  29.624  28.857  1.00  0.00     0.009 A 
ATOM     63  C   UNL A   1      39.011  27.079  28.751  1.00  0.00     0.001 A 
ATOM     64  C   UNL A   1      39.917  29.014  27.623  1.00  0.00     0.001 A 
ATOM     65  C   UNL A   1      39.359  27.738  27.571  1.00  0.00     0.000 A 
ENDBRANCH  46  60
BRANCH  47  66
ATOM     66  C   UNL A   1      40.942  33.621  38.779  1.00  0.00    -0.014 A 
ATOM     67  C   UNL A   1      41.719  34.785  38.856  1.00  0.00     0.009 A 
ATOM     68  C   UNL A   1      40.364  33.109  39.952  1.00  0.00     0.009 A 
ATOM     69  C   UNL A   1      41.930  35.414  40.086  1.00  0.00     0.001 A 
ATOM     70  C   UNL A   1      40.555  33.755  41.175  1.00  0.00     0.001 A 
ATOM     71  C   UNL A   1      41.344  34.901  41.242  1.00  0.00     0.000 A 
ENDBRANCH  47  66
BRANCH  59  72
ATOM     72  C   UNL A   1      44.634  28.783  35.410  1.00  0.00    -0.014 A 
ATOM     73  C   UNL A   1      44.628  27.538  36.059  1.00  0.00     0.009 A 
ATOM     74  C   UNL A   1      45.864  29.346  35.035  1.00  0.00     0.009 A 
ATOM     75  C   UNL A   1      45.829  26.889  36.354  1.00  0.00     0.001 A 
ATOM     76  C   UNL A   1      47.062  28.682  35.306  1.00  0.00     0.001 A 
ATOM     77  C   UNL A   1      47.044  27.459  35.974  1.00  0.00     0.000 A 
ENDBRANCH  59  72
ENDBRANCH  33  34
ENDBRANCH  26  28
ENDBRANCH  25  26
ENDBRANCH  24  25
ENDBRANCH  23  24
ENDBRANCH  22  23
ENDBRANCH   1  22
TORSDOF 18
ENDMDL
