MODEL 1
REMARK VINA RESULT:      -9.5      0.000      0.000
REMARK SMILES CCC[C@@]1(C(=O)N[C@@](C)(C(=O)OCCOCCOC(=O)c2ccc(-c3c4nc(c(-c5ccccc5)c5ccc([nH]5)c(-c5ccccc5)c5nc(c(-c6ccccc6)c6ccc3[nH]6)C=C5)C=C4)cc2)C(F)(F)F)CC[NH2+]C1
REMARK SMILES IDX 14 1 13 2 12 3 10 4 11 5 8 6 9 7 7 8 5 9 6 10 4 12 73 13
REMARK SMILES IDX 76 14 74 15 75 16 3 19 2 20 1 21 69 22 70 23 71 24 72 25
REMARK SMILES IDX 15 26 16 27 17 28 18 29 19 30 20 31 21 32 22 33 68 34 23 35
REMARK SMILES IDX 67 36 24 37 25 38 26 39 61 40 27 41 66 42 60 43 62 44 28 45
REMARK SMILES IDX 65 46 59 47 58 48 29 50 51 51 36 52 50 53 37 54 40 55 49 56
REMARK SMILES IDX 63 57 38 58 39 59 48 61 64 62 41 63 30 64 31 65 35 66 32 67
REMARK SMILES IDX 34 68 33 69 52 70 53 71 57 72 54 73 56 74 55 75 42 76 43 77
REMARK SMILES IDX 47 78 44 79 46 80 45 81
REMARK H PARENT 7 11 75 17 75 18 62 49 40 60
REMARK Flexibility Score: inf
ROOT
ATOM      1  C   UNL A   1      37.327  23.274  25.385  1.00  0.00     0.202 C 
ENDROOT
BRANCH   1   2
ATOM      2  C   UNL A   1      35.881  23.537  25.821  1.00  0.00     0.261 C 
BRANCH   2   3
ATOM      3  O   UNL A   1      35.005  23.834  24.718  1.00  0.00    -0.461 OA
BRANCH   3   4
ATOM      4  C   UNL A   1      34.074  22.870  24.453  1.00  0.00     0.341 C 
ATOM      5  O   UNL A   1      34.170  21.720  24.867  1.00  0.00    -0.249 OA
BRANCH   4   6
ATOM      6  C   UNL A   1      32.930  23.360  23.539  1.00  0.00     0.231 C 
ATOM      7  C   UNL A   1      32.639  22.196  22.578  1.00  0.00     0.058 C 
BRANCH   6   8
ATOM      8  N   UNL A   1      33.356  24.539  22.694  1.00  0.00    -0.332 N 
ATOM      9  C   UNL A   1      33.413  25.882  22.627  1.00  0.00     0.233 C 
ATOM     10  O   UNL A   1      33.775  26.229  21.485  1.00  0.00    -0.274 OA
ATOM     11  H   UNL A   1      33.748  24.184  21.863  1.00  0.00     0.164 HD
BRANCH   9  12
ATOM     12  C   UNL A   1      33.024  27.011  23.641  1.00  0.00     0.103 C 
ATOM     13  C   UNL A   1      31.471  26.961  23.766  1.00  0.00     0.084 C 
ATOM     14  C   UNL A   1      33.135  28.468  23.209  1.00  0.00     0.277 C 
ATOM     15  C   UNL A   1      30.956  27.845  22.633  1.00  0.00     0.261 C 
ATOM     16  N   UNL A   1      32.093  28.656  22.201  1.00  0.00    -0.345 N 
ATOM     17  H   UNL A   1      31.827  29.638  22.148  1.00  0.00     0.346 HD
ATOM     18  H   UNL A   1      32.419  28.377  21.275  1.00  0.00     0.346 HD
BRANCH  12  19
ATOM     19  C   UNL A   1      33.730  26.685  24.984  1.00  0.00     0.023 C 
BRANCH  19  20
ATOM     20  C   UNL A   1      33.137  27.185  26.318  1.00  0.00    -0.002 C 
ATOM     21  C   UNL A   1      33.584  28.565  26.784  1.00  0.00     0.004 C 
ENDBRANCH  19  20
ENDBRANCH  12  19
ENDBRANCH   9  12
ENDBRANCH   6   8
BRANCH   6  22
ATOM     22  C   UNL A   1      31.768  23.542  24.506  1.00  0.00     0.422 C 
ATOM     23  F   UNL A   1      30.749  24.226  23.943  1.00  0.00    -0.168 F 
ATOM     24  F   UNL A   1      31.298  22.334  24.908  1.00  0.00    -0.168 F 
ATOM     25  F   UNL A   1      32.110  24.194  25.638  1.00  0.00    -0.168 F 
ENDBRANCH   6  22
ENDBRANCH   4   6
ENDBRANCH   3   4
ENDBRANCH   2   3
ENDBRANCH   1   2
BRANCH   1  26
ATOM     26  O   UNL A   1      37.934  22.058  25.794  1.00  0.00    -0.374 OA
BRANCH  26  27
ATOM     27  C   UNL A   1      37.802  20.924  24.937  1.00  0.00     0.202 C 
BRANCH  27  28
ATOM     28  C   UNL A   1      38.834  19.790  25.054  1.00  0.00     0.261 C 
BRANCH  28  29
ATOM     29  O   UNL A   1      39.550  19.774  26.299  1.00  0.00    -0.460 OA
BRANCH  29  30
ATOM     30  C   UNL A   1      40.899  19.716  26.170  1.00  0.00     0.338 C 
ATOM     31  O   UNL A   1      41.567  18.856  25.624  1.00  0.00    -0.246 OA
BRANCH  30  32
ATOM     32  C   UNL A   1      41.480  20.985  26.634  1.00  0.00     0.060 A 
ATOM     33  C   UNL A   1      41.385  21.290  27.998  1.00  0.00     0.016 A 
ATOM     34  C   UNL A   1      42.037  21.890  25.732  1.00  0.00     0.016 A 
ATOM     35  C   UNL A   1      41.838  22.517  28.467  1.00  0.00     0.010 A 
ATOM     36  C   UNL A   1      42.475  23.130  26.202  1.00  0.00     0.010 A 
ATOM     37  C   UNL A   1      42.356  23.455  27.565  1.00  0.00    -0.014 A 
BRANCH  37  38
ATOM     38  C   UNL A   1      42.650  24.828  28.031  1.00  0.00     0.031 A 
ATOM     39  C   UNL A   1      44.066  25.191  28.376  1.00  0.00     0.074 A 
ATOM     40  C   UNL A   1      41.667  25.739  28.127  1.00  0.00     0.049 A 
ATOM     41  N   UNL A   1      44.539  26.310  28.856  1.00  0.00    -0.248 NA
ATOM     42  C   UNL A   1      45.083  24.151  28.151  1.00  0.00     0.031 C 
ATOM     43  C   UNL A   1      40.267  25.514  27.768  1.00  0.00     0.029 A 
ATOM     44  N   UNL A   1      41.698  27.037  28.566  1.00  0.00    -0.354 N 
ATOM     45  C   UNL A   1      45.905  26.108  29.004  1.00  0.00     0.074 A 
ATOM     46  C   UNL A   1      46.182  24.750  28.585  1.00  0.00     0.031 C 
ATOM     47  C   UNL A   1      39.570  26.637  28.012  1.00  0.00     0.029 A 
ATOM     48  C   UNL A   1      40.465  27.640  28.582  1.00  0.00     0.049 A 
ATOM     49  H   UNL A   1      42.526  27.494  28.843  1.00  0.00     0.167 HD
ATOM     50  C   UNL A   1      46.844  26.976  29.447  1.00  0.00     0.031 A 
ATOM     51  C   UNL A   1      40.099  28.854  29.035  1.00  0.00     0.031 A 
ATOM     52  C   UNL A   1      46.557  28.318  29.878  1.00  0.00     0.049 A 
ATOM     53  C   UNL A   1      41.147  29.768  29.610  1.00  0.00     0.074 A 
ATOM     54  C   UNL A   1      47.438  29.285  30.329  1.00  0.00     0.029 A 
ATOM     55  N   UNL A   1      45.290  28.878  29.920  1.00  0.00    -0.354 N 
ATOM     56  N   UNL A   1      42.441  29.577  29.721  1.00  0.00    -0.248 NA
ATOM     57  C   UNL A   1      40.687  31.067  30.120  1.00  0.00     0.031 C 
ATOM     58  C   UNL A   1      46.695  30.407  30.707  1.00  0.00     0.029 A 
ATOM     59  C   UNL A   1      45.360  30.164  30.426  1.00  0.00     0.049 A 
ATOM     60  H   UNL A   1      44.463  28.427  29.633  1.00  0.00     0.167 HD
ATOM     61  C   UNL A   1      42.950  30.740  30.286  1.00  0.00     0.074 A 
ATOM     62  C   UNL A   1      41.829  31.635  30.481  1.00  0.00     0.031 C 
ATOM     63  C   UNL A   1      44.231  31.040  30.614  1.00  0.00     0.031 A 
BRANCH  50  64
ATOM     64  C   UNL A   1      48.261  26.483  29.534  1.00  0.00    -0.014 A 
ATOM     65  C   UNL A   1      49.156  26.632  28.462  1.00  0.00     0.009 A 
ATOM     66  C   UNL A   1      48.717  25.888  30.720  1.00  0.00     0.009 A 
ATOM     67  C   UNL A   1      50.468  26.164  28.566  1.00  0.00     0.001 A 
ATOM     68  C   UNL A   1      50.037  25.448  30.833  1.00  0.00     0.001 A 
ATOM     69  C   UNL A   1      50.909  25.578  29.753  1.00  0.00     0.000 A 
ENDBRANCH  50  64
BRANCH  51  70
ATOM     70  C   UNL A   1      38.670  29.264  28.997  1.00  0.00    -0.014 A 
ATOM     71  C   UNL A   1      38.129  29.878  27.859  1.00  0.00     0.009 A 
ATOM     72  C   UNL A   1      37.842  29.054  30.112  1.00  0.00     0.009 A 
ATOM     73  C   UNL A   1      36.796  30.297  27.845  1.00  0.00     0.001 A 
ATOM     74  C   UNL A   1      36.501  29.445  30.086  1.00  0.00     0.001 A 
ATOM     75  C   UNL A   1      35.983  30.075  28.956  1.00  0.00     0.000 A 
ENDBRANCH  51  70
BRANCH  63  76
ATOM     76  C   UNL A   1      44.495  32.405  31.185  1.00  0.00    -0.014 A 
ATOM     77  C   UNL A   1      44.498  32.629  32.571  1.00  0.00     0.009 A 
ATOM     78  C   UNL A   1      44.803  33.470  30.324  1.00  0.00     0.009 A 
ATOM     79  C   UNL A   1      44.775  33.899  33.080  1.00  0.00     0.001 A 
ATOM     80  C   UNL A   1      45.111  34.731  30.837  1.00  0.00     0.001 A 
ATOM     81  C   UNL A   1      45.088  34.946  32.213  1.00  0.00     0.000 A 
ENDBRANCH  63  76
ENDBRANCH  37  38
ENDBRANCH  30  32
ENDBRANCH  29  30
ENDBRANCH  28  29
ENDBRANCH  27  28
ENDBRANCH  26  27
ENDBRANCH   1  26
TORSDOF 19
ENDMDL
MODEL 2
REMARK VINA RESULT:      -9.3      1.099      6.002
REMARK SMILES CCC[C@@]1(C(=O)N[C@@](C)(C(=O)OCCOCCOC(=O)c2ccc(-c3c4nc(c(-c5ccccc5)c5ccc([nH]5)c(-c5ccccc5)c5nc(c(-c6ccccc6)c6ccc3[nH]6)C=C5)C=C4)cc2)C(F)(F)F)CC[NH2+]C1
REMARK SMILES IDX 14 1 13 2 12 3 10 4 11 5 8 6 9 7 7 8 5 9 6 10 4 12 73 13
REMARK SMILES IDX 76 14 74 15 75 16 3 19 2 20 1 21 69 22 70 23 71 24 72 25
REMARK SMILES IDX 15 26 16 27 17 28 18 29 19 30 20 31 21 32 22 33 68 34 23 35
REMARK SMILES IDX 67 36 24 37 25 38 26 39 61 40 27 41 66 42 60 43 62 44 28 45
REMARK SMILES IDX 65 46 59 47 58 48 29 50 51 51 36 52 50 53 37 54 40 55 49 56
REMARK SMILES IDX 63 57 38 58 39 59 48 61 64 62 41 63 30 64 31 65 35 66 32 67
REMARK SMILES IDX 34 68 33 69 52 70 53 71 57 72 54 73 56 74 55 75 42 76 43 77
REMARK SMILES IDX 47 78 44 79 46 80 45 81
REMARK H PARENT 7 11 75 17 75 18 62 49 40 60
REMARK Flexibility Score: inf
ROOT
ATOM      1  C   UNL A   1      37.274  22.938  25.582  1.00  0.00     0.202 C 
ENDROOT
BRANCH   1   2
ATOM      2  C   UNL A   1      36.206  23.978  25.223  1.00  0.00     0.261 C 
BRANCH   2   3
ATOM      3  O   UNL A   1      35.212  23.474  24.313  1.00  0.00    -0.461 OA
BRANCH   3   4
ATOM      4  C   UNL A   1      33.974  23.296  24.861  1.00  0.00     0.341 C 
ATOM      5  O   UNL A   1      33.769  23.333  26.070  1.00  0.00    -0.249 OA
BRANCH   4   6
ATOM      6  C   UNL A   1      32.880  22.988  23.815  1.00  0.00     0.231 C 
ATOM      7  C   UNL A   1      33.509  23.310  22.450  1.00  0.00     0.058 C 
BRANCH   6   8
ATOM      8  N   UNL A   1      31.681  23.896  23.978  1.00  0.00    -0.332 N 
ATOM      9  C   UNL A   1      31.280  25.167  24.169  1.00  0.00     0.233 C 
ATOM     10  O   UNL A   1      30.052  25.190  24.382  1.00  0.00    -0.274 OA
ATOM     11  H   UNL A   1      30.873  23.335  23.922  1.00  0.00     0.164 HD
BRANCH   9  12
ATOM     12  C   UNL A   1      32.062  26.521  24.268  1.00  0.00     0.103 C 
ATOM     13  C   UNL A   1      31.030  27.639  23.932  1.00  0.00     0.084 C 
ATOM     14  C   UNL A   1      33.082  26.870  23.191  1.00  0.00     0.277 C 
ATOM     15  C   UNL A   1      31.068  27.765  22.411  1.00  0.00     0.261 C 
ATOM     16  N   UNL A   1      32.301  27.110  21.979  1.00  0.00    -0.345 N 
ATOM     17  H   UNL A   1      32.818  27.714  21.341  1.00  0.00     0.346 HD
ATOM     18  H   UNL A   1      32.107  26.238  21.485  1.00  0.00     0.346 HD
BRANCH  12  19
ATOM     19  C   UNL A   1      32.598  26.636  25.721  1.00  0.00     0.023 C 
BRANCH  19  20
ATOM     20  C   UNL A   1      33.875  27.449  26.017  1.00  0.00    -0.002 C 
ATOM     21  C   UNL A   1      33.687  28.938  26.281  1.00  0.00     0.004 C 
ENDBRANCH  19  20
ENDBRANCH  12  19
ENDBRANCH   9  12
ENDBRANCH   6   8
BRANCH   6  22
ATOM     22  C   UNL A   1      32.678  21.486  23.956  1.00  0.00     0.422 C 
ATOM     23  F   UNL A   1      33.831  20.851  24.256  1.00  0.00    -0.168 F 
ATOM     24  F   UNL A   1      31.779  21.223  24.937  1.00  0.00    -0.168 F 
ATOM     25  F   UNL A   1      32.180  20.906  22.842  1.00  0.00    -0.168 F 
ENDBRANCH   6  22
ENDBRANCH   4   6
ENDBRANCH   3   4
ENDBRANCH   2   3
ENDBRANCH   1   2
BRANCH   1  26
ATOM     26  O   UNL A   1      36.872  21.580  25.684  1.00  0.00    -0.374 OA
BRANCH  26  27
ATOM     27  C   UNL A   1      37.357  20.664  24.702  1.00  0.00     0.202 C 
BRANCH  27  28
ATOM     28  C   UNL A   1      38.538  19.751  25.069  1.00  0.00     0.261 C 
BRANCH  28  29
ATOM     29  O   UNL A   1      39.253  20.160  26.246  1.00  0.00    -0.460 OA
BRANCH  29  30
ATOM     30  C   UNL A   1      40.587  19.916  26.206  1.00  0.00     0.338 C 
ATOM     31  O   UNL A   1      41.161  18.945  25.749  1.00  0.00    -0.246 OA
BRANCH  30  32
ATOM     32  C   UNL A   1      41.307  21.122  26.641  1.00  0.00     0.060 A 
ATOM     33  C   UNL A   1      41.363  21.394  28.013  1.00  0.00     0.016 A 
ATOM     34  C   UNL A   1      41.849  22.007  25.710  1.00  0.00     0.016 A 
ATOM     35  C   UNL A   1      41.954  22.569  28.464  1.00  0.00     0.010 A 
ATOM     36  C   UNL A   1      42.426  23.195  26.163  1.00  0.00     0.010 A 
ATOM     37  C   UNL A   1      42.460  23.489  27.538  1.00  0.00    -0.014 A 
BRANCH  37  38
ATOM     38  C   UNL A   1      42.904  24.821  28.003  1.00  0.00     0.031 A 
ATOM     39  C   UNL A   1      41.871  25.873  28.290  1.00  0.00     0.074 A 
ATOM     40  C   UNL A   1      44.211  25.079  28.181  1.00  0.00     0.049 A 
ATOM     41  N   UNL A   1      42.037  27.118  28.649  1.00  0.00    -0.248 NA
ATOM     42  C   UNL A   1      40.464  25.465  28.152  1.00  0.00     0.031 C 
ATOM     43  C   UNL A   1      45.297  24.118  27.986  1.00  0.00     0.029 A 
ATOM     44  N   UNL A   1      44.846  26.234  28.559  1.00  0.00    -0.354 N 
ATOM     45  C   UNL A   1      40.758  27.648  28.767  1.00  0.00     0.074 A 
ATOM     46  C   UNL A   1      39.828  26.596  28.419  1.00  0.00     0.031 C 
ATOM     47  C   UNL A   1      46.467  24.729  28.236  1.00  0.00     0.029 A 
ATOM     48  C   UNL A   1      46.215  26.130  28.566  1.00  0.00     0.049 A 
ATOM     49  H   UNL A   1      44.367  27.059  28.802  1.00  0.00     0.167 HD
ATOM     50  C   UNL A   1      40.393  28.899  29.135  1.00  0.00     0.031 A 
ATOM     51  C   UNL A   1      47.155  27.068  28.784  1.00  0.00     0.031 A 
ATOM     52  C   UNL A   1      41.326  29.944  29.463  1.00  0.00     0.049 A 
ATOM     53  C   UNL A   1      46.725  28.475  29.101  1.00  0.00     0.074 A 
ATOM     54  C   UNL A   1      41.061  31.242  29.864  1.00  0.00     0.029 A 
ATOM     55  N   UNL A   1      42.705  29.811  29.417  1.00  0.00    -0.354 N 
ATOM     56  N   UNL A   1      45.514  28.959  29.237  1.00  0.00    -0.248 NA
ATOM     57  C   UNL A   1      47.793  29.465  29.298  1.00  0.00     0.031 C 
ATOM     58  C   UNL A   1      42.279  31.913  29.996  1.00  0.00     0.029 A 
ATOM     59  C   UNL A   1      43.305  31.015  29.745  1.00  0.00     0.049 A 
ATOM     60  H   UNL A   1      43.186  28.985  29.184  1.00  0.00     0.167 HD
ATOM     61  C   UNL A   1      45.674  30.301  29.561  1.00  0.00     0.074 A 
ATOM     62  C   UNL A   1      47.100  30.550  29.616  1.00  0.00     0.031 C 
ATOM     63  C   UNL A   1      44.727  31.243  29.793  1.00  0.00     0.031 A 
BRANCH  50  64
ATOM     64  C   UNL A   1      38.924  29.217  29.154  1.00  0.00    -0.014 A 
ATOM     65  C   UNL A   1      38.249  29.632  27.995  1.00  0.00     0.009 A 
ATOM     66  C   UNL A   1      38.198  29.067  30.346  1.00  0.00     0.009 A 
ATOM     67  C   UNL A   1      36.883  29.922  28.039  1.00  0.00     0.001 A 
ATOM     68  C   UNL A   1      36.828  29.329  30.380  1.00  0.00     0.001 A 
ATOM     69  C   UNL A   1      36.173  29.765  29.230  1.00  0.00     0.000 A 
ENDBRANCH  50  64
BRANCH  51  70
ATOM     70  C   UNL A   1      48.596  26.718  28.678  1.00  0.00    -0.014 A 
ATOM     71  C   UNL A   1      49.279  26.849  27.461  1.00  0.00     0.009 A 
ATOM     72  C   UNL A   1      49.293  26.235  29.798  1.00  0.00     0.009 A 
ATOM     73  C   UNL A   1      50.624  26.480  27.360  1.00  0.00     0.001 A 
ATOM     74  C   UNL A   1      50.645  25.896  29.703  1.00  0.00     0.001 A 
ATOM     75  C   UNL A   1      51.306  26.010  28.481  1.00  0.00     0.000 A 
ENDBRANCH  51  70
BRANCH  63  76
ATOM     76  C   UNL A   1      45.200  32.621  30.162  1.00  0.00    -0.014 A 
ATOM     77  C   UNL A   1      45.387  33.614  29.188  1.00  0.00     0.009 A 
ATOM     78  C   UNL A   1      45.405  32.946  31.512  1.00  0.00     0.009 A 
ATOM     79  C   UNL A   1      45.799  34.896  29.557  1.00  0.00     0.001 A 
ATOM     80  C   UNL A   1      45.786  34.236  31.881  1.00  0.00     0.001 A 
ATOM     81  C   UNL A   1      45.991  35.208  30.903  1.00  0.00     0.000 A 
ENDBRANCH  63  76
ENDBRANCH  37  38
ENDBRANCH  30  32
ENDBRANCH  29  30
ENDBRANCH  28  29
ENDBRANCH  27  28
ENDBRANCH  26  27
ENDBRANCH   1  26
TORSDOF 19
ENDMDL
MODEL 3
REMARK VINA RESULT:      -9.3      2.965      8.023
REMARK SMILES CCC[C@@]1(C(=O)N[C@@](C)(C(=O)OCCOCCOC(=O)c2ccc(-c3c4nc(c(-c5ccccc5)c5ccc([nH]5)c(-c5ccccc5)c5nc(c(-c6ccccc6)c6ccc3[nH]6)C=C5)C=C4)cc2)C(F)(F)F)CC[NH2+]C1
REMARK SMILES IDX 14 1 13 2 12 3 10 4 11 5 8 6 9 7 7 8 5 9 6 10 4 12 73 13
REMARK SMILES IDX 76 14 74 15 75 16 3 19 2 20 1 21 69 22 70 23 71 24 72 25
REMARK SMILES IDX 15 26 16 27 17 28 18 29 19 30 20 31 21 32 22 33 68 34 23 35
REMARK SMILES IDX 67 36 24 37 25 38 26 39 61 40 27 41 66 42 60 43 62 44 28 45
REMARK SMILES IDX 65 46 59 47 58 48 29 50 51 51 36 52 50 53 37 54 40 55 49 56
REMARK SMILES IDX 63 57 38 58 39 59 48 61 64 62 41 63 30 64 31 65 35 66 32 67
REMARK SMILES IDX 34 68 33 69 52 70 53 71 57 72 54 73 56 74 55 75 42 76 43 77
REMARK SMILES IDX 47 78 44 79 46 80 45 81
REMARK H PARENT 7 11 75 17 75 18 62 49 40 60
REMARK Flexibility Score: inf
ROOT
ATOM      1  C   UNL A   1      33.188  30.474  27.221  1.00  0.00     0.202 C 
ENDROOT
BRANCH   1   2
ATOM      2  C   UNL A   1      31.778  30.097  26.752  1.00  0.00     0.261 C 
BRANCH   2   3
ATOM      3  O   UNL A   1      31.611  28.683  26.548  1.00  0.00    -0.461 OA
BRANCH   3   4
ATOM      4  C   UNL A   1      31.532  28.301  25.239  1.00  0.00     0.341 C 
ATOM      5  O   UNL A   1      30.952  28.964  24.385  1.00  0.00    -0.249 OA
BRANCH   4   6
ATOM      6  C   UNL A   1      32.192  26.933  24.960  1.00  0.00     0.231 C 
ATOM      7  C   UNL A   1      31.648  26.480  23.595  1.00  0.00     0.058 C 
BRANCH   6   8
ATOM      8  N   UNL A   1      31.770  25.893  25.974  1.00  0.00    -0.332 N 
ATOM      9  C   UNL A   1      31.982  24.640  26.421  1.00  0.00     0.233 C 
ATOM     10  O   UNL A   1      31.106  24.340  27.256  1.00  0.00    -0.274 OA
ATOM     11  H   UNL A   1      31.058  26.288  26.528  1.00  0.00     0.164 HD
BRANCH   9  12
ATOM     12  C   UNL A   1      33.014  23.532  26.016  1.00  0.00     0.103 C 
ATOM     13  C   UNL A   1      32.804  23.286  24.492  1.00  0.00     0.084 C 
ATOM     14  C   UNL A   1      32.781  22.098  26.476  1.00  0.00     0.277 C 
ATOM     15  C   UNL A   1      31.695  22.240  24.410  1.00  0.00     0.261 C 
ATOM     16  N   UNL A   1      31.605  21.639  25.740  1.00  0.00    -0.345 N 
ATOM     17  H   UNL A   1      31.607  20.622  25.670  1.00  0.00     0.346 HD
ATOM     18  H   UNL A   1      30.742  21.910  26.213  1.00  0.00     0.346 HD
BRANCH  12  19
ATOM     19  C   UNL A   1      34.429  24.085  26.331  1.00  0.00     0.023 C 
BRANCH  19  20
ATOM     20  C   UNL A   1      35.570  23.933  25.304  1.00  0.00    -0.002 C 
ATOM     21  C   UNL A   1      36.478  22.720  25.472  1.00  0.00     0.004 C 
ENDBRANCH  19  20
ENDBRANCH  12  19
ENDBRANCH   9  12
ENDBRANCH   6   8
BRANCH   6  22
ATOM     22  C   UNL A   1      33.670  27.277  24.845  1.00  0.00     0.422 C 
ATOM     23  F   UNL A   1      34.310  27.144  26.027  1.00  0.00    -0.168 F 
ATOM     24  F   UNL A   1      34.272  26.464  23.941  1.00  0.00    -0.168 F 
ATOM     25  F   UNL A   1      33.894  28.536  24.409  1.00  0.00    -0.168 F 
ENDBRANCH   6  22
ENDBRANCH   4   6
ENDBRANCH   3   4
ENDBRANCH   2   3
ENDBRANCH   1   2
BRANCH   1  26
ATOM     26  O   UNL A   1      33.409  31.806  27.661  1.00  0.00    -0.374 OA
BRANCH  26  27
ATOM     27  C   UNL A   1      34.692  32.129  28.195  1.00  0.00     0.202 C 
BRANCH  27  28
ATOM     28  C   UNL A   1      34.851  32.225  29.721  1.00  0.00     0.261 C 
BRANCH  28  29
ATOM     29  O   UNL A   1      36.212  32.148  30.175  1.00  0.00    -0.460 OA
BRANCH  29  30
ATOM     30  C   UNL A   1      36.490  31.061  30.937  1.00  0.00     0.338 C 
ATOM     31  O   UNL A   1      35.816  30.574  31.827  1.00  0.00    -0.246 OA
BRANCH  30  32
ATOM     32  C   UNL A   1      37.686  30.394  30.402  1.00  0.00     0.060 A 
ATOM     33  C   UNL A   1      38.646  29.938  31.314  1.00  0.00     0.016 A 
ATOM     34  C   UNL A   1      37.892  30.288  29.027  1.00  0.00     0.016 A 
ATOM     35  C   UNL A   1      39.833  29.383  30.852  1.00  0.00     0.010 A 
ATOM     36  C   UNL A   1      39.094  29.747  28.565  1.00  0.00     0.010 A 
ATOM     37  C   UNL A   1      40.075  29.314  29.474  1.00  0.00    -0.014 A 
BRANCH  37  38
ATOM     38  C   UNL A   1      41.414  28.911  28.989  1.00  0.00     0.031 A 
ATOM     39  C   UNL A   1      41.630  27.493  28.547  1.00  0.00     0.074 A 
ATOM     40  C   UNL A   1      42.414  29.807  28.931  1.00  0.00     0.049 A 
ATOM     41  N   UNL A   1      42.728  26.911  28.143  1.00  0.00    -0.248 NA
ATOM     42  C   UNL A   1      40.450  26.613  28.563  1.00  0.00     0.031 C 
ATOM     43  C   UNL A   1      42.304  31.223  29.282  1.00  0.00     0.029 A 
ATOM     44  N   UNL A   1      43.724  29.652  28.559  1.00  0.00    -0.354 N 
ATOM     45  C   UNL A   1      42.377  25.595  27.870  1.00  0.00     0.074 A 
ATOM     46  C   UNL A   1      40.969  25.458  28.176  1.00  0.00     0.031 C 
ATOM     47  C   UNL A   1      43.504  31.805  29.120  1.00  0.00     0.029 A 
ATOM     48  C   UNL A   1      44.471  30.796  28.695  1.00  0.00     0.049 A 
ATOM     49  H   UNL A   1      44.095  28.803  28.228  1.00  0.00     0.167 HD
ATOM     50  C   UNL A   1      43.158  24.592  27.404  1.00  0.00     0.031 A 
ATOM     51  C   UNL A   1      45.792  30.996  28.524  1.00  0.00     0.031 A 
ATOM     52  C   UNL A   1      44.561  24.734  27.119  1.00  0.00     0.049 A 
ATOM     53  C   UNL A   1      46.657  29.842  28.094  1.00  0.00     0.074 A 
ATOM     54  C   UNL A   1      45.440  23.784  26.628  1.00  0.00     0.029 A 
ATOM     55  N   UNL A   1      45.290  25.896  27.310  1.00  0.00    -0.354 N 
ATOM     56  N   UNL A   1      46.311  28.608  27.814  1.00  0.00    -0.248 NA
ATOM     57  C   UNL A   1      48.096  30.108  27.956  1.00  0.00     0.031 C 
ATOM     58  C   UNL A   1      46.715  24.355  26.584  1.00  0.00     0.029 A 
ATOM     59  C   UNL A   1      46.618  25.679  26.983  1.00  0.00     0.049 A 
ATOM     60  H   UNL A   1      44.919  26.750  27.632  1.00  0.00     0.167 HD
ATOM     61  C   UNL A   1      47.481  27.960  27.439  1.00  0.00     0.074 A 
ATOM     62  C   UNL A   1      48.544  28.941  27.515  1.00  0.00     0.031 C 
ATOM     63  C   UNL A   1      47.662  26.669  27.066  1.00  0.00     0.031 A 
BRANCH  50  64
ATOM     64  C   UNL A   1      42.521  23.243  27.222  1.00  0.00    -0.014 A 
ATOM     65  C   UNL A   1      41.965  22.855  25.993  1.00  0.00     0.009 A 
ATOM     66  C   UNL A   1      42.507  22.333  28.290  1.00  0.00     0.009 A 
ATOM     67  C   UNL A   1      41.378  21.596  25.848  1.00  0.00     0.001 A 
ATOM     68  C   UNL A   1      41.947  21.064  28.135  1.00  0.00     0.001 A 
ATOM     69  C   UNL A   1      41.374  20.700  26.918  1.00  0.00     0.000 A 
ENDBRANCH  50  64
BRANCH  51  70
ATOM     70  C   UNL A   1      46.384  32.333  28.792  1.00  0.00    -0.014 A 
ATOM     71  C   UNL A   1      46.787  32.694  30.086  1.00  0.00     0.009 A 
ATOM     72  C   UNL A   1      46.537  33.263  27.751  1.00  0.00     0.009 A 
ATOM     73  C   UNL A   1      47.307  33.967  30.337  1.00  0.00     0.001 A 
ATOM     74  C   UNL A   1      47.084  34.523  27.998  1.00  0.00     0.001 A 
ATOM     75  C   UNL A   1      47.460  34.878  29.292  1.00  0.00     0.000 A 
ENDBRANCH  51  70
BRANCH  63  76
ATOM     76  C   UNL A   1      49.051  26.250  26.676  1.00  0.00    -0.014 A 
ATOM     77  C   UNL A   1      49.537  26.453  25.375  1.00  0.00     0.009 A 
ATOM     78  C   UNL A   1      49.906  25.698  27.644  1.00  0.00     0.009 A 
ATOM     79  C   UNL A   1      50.842  26.083  25.044  1.00  0.00     0.001 A 
ATOM     80  C   UNL A   1      51.220  25.358  27.318  1.00  0.00     0.001 A 
ATOM     81  C   UNL A   1      51.684  25.543  26.017  1.00  0.00     0.000 A 
ENDBRANCH  63  76
ENDBRANCH  37  38
ENDBRANCH  30  32
ENDBRANCH  29  30
ENDBRANCH  28  29
ENDBRANCH  27  28
ENDBRANCH  26  27
ENDBRANCH   1  26
TORSDOF 19
ENDMDL
