MODEL 1
REMARK VINA RESULT:      -9.6      0.000      0.000
REMARK SMILES CC(C)=CC[C@@]1(C(=O)OCCOCCOC(=O)c2ccc(-c3c4nc(c(-c5ccccc5)c5ccc([nH]5)c(-c5ccccc5)c5nc(c(-c6ccccc6)c6ccc3[nH]6)C=C5)C=C4)cc2)CCC[C@H](C)C1
REMARK SMILES IDX 12 1 11 2 10 3 9 4 7 5 8 6 6 7 66 8 71 9 67 10 69 11 68 12
REMARK SMILES IDX 70 13 5 14 4 15 1 16 2 17 3 18 13 19 14 20 15 21 16 22 17 23
REMARK SMILES IDX 18 24 19 25 65 26 20 27 64 28 21 29 22 30 23 31 58 32 24 33
REMARK SMILES IDX 63 34 57 35 59 36 25 37 62 38 56 39 55 40 26 42 48 43 33 44
REMARK SMILES IDX 47 45 34 46 37 47 46 48 60 49 35 50 36 51 45 53 61 54 38 55
REMARK SMILES IDX 27 56 28 57 32 58 29 59 31 60 30 61 49 62 50 63 54 64 51 65
REMARK SMILES IDX 53 66 52 67 39 68 40 69 44 70 41 71 43 72 42 73
REMARK H PARENT 59 41 37 52
REMARK Flexibility Score: inf
ROOT
ATOM      1  O   UNL A   1      32.046  28.828  26.730  1.00  0.00    -0.374 OA
ENDROOT
BRANCH   1   2
ATOM      2  C   UNL A   1      31.591  27.960  25.691  1.00  0.00     0.202 C 
BRANCH   2   3
ATOM      3  C   UNL A   1      30.908  26.684  26.182  1.00  0.00     0.261 C 
BRANCH   3   4
ATOM      4  O   UNL A   1      31.315  25.551  25.391  1.00  0.00    -0.463 OA
BRANCH   4   5
ATOM      5  C   UNL A   1      31.786  24.490  26.088  1.00  0.00     0.312 C 
ATOM      6  O   UNL A   1      31.413  24.193  27.219  1.00  0.00    -0.252 OA
BRANCH   5   7
ATOM      7  C   UNL A   1      32.868  23.698  25.340  1.00  0.00     0.072 C 
ATOM      8  C   UNL A   1      33.589  24.689  24.389  1.00  0.00     0.019 C 
ATOM      9  C   UNL A   1      32.084  22.647  24.509  1.00  0.00     0.022 C 
ATOM     10  C   UNL A   1      34.411  24.006  23.301  1.00  0.00     0.001 C 
ATOM     11  C   UNL A   1      32.934  21.954  23.434  1.00  0.00    -0.013 C 
ATOM     12  C   UNL A   1      33.578  22.995  22.514  1.00  0.00     0.003 C 
ATOM     13  C   UNL A   1      32.087  20.943  22.661  1.00  0.00     0.007 C 
BRANCH   7  14
ATOM     14  C   UNL A   1      33.856  22.919  26.251  1.00  0.00     0.046 C 
BRANCH  14  15
ATOM     15  C   UNL A   1      35.286  23.366  26.375  1.00  0.00    -0.027 C 
ATOM     16  C   UNL A   1      36.369  21.348  25.282  1.00  0.00     0.039 C 
ATOM     17  C   UNL A   1      36.362  22.734  25.869  1.00  0.00    -0.080 C 
ATOM     18  C   UNL A   1      37.670  23.469  25.785  1.00  0.00     0.039 C 
ENDBRANCH  14  15
ENDBRANCH   7  14
ENDBRANCH   5   7
ENDBRANCH   4   5
ENDBRANCH   3   4
ENDBRANCH   2   3
ENDBRANCH   1   2
BRANCH   1  19
ATOM     19  C   UNL A   1      31.889  30.225  26.479  1.00  0.00     0.202 C 
BRANCH  19  20
ATOM     20  C   UNL A   1      32.844  31.124  27.271  1.00  0.00     0.261 C 
BRANCH  20  21
ATOM     21  O   UNL A   1      33.970  30.386  27.772  1.00  0.00    -0.460 OA
BRANCH  21  22
ATOM     22  C   UNL A   1      34.807  31.073  28.593  1.00  0.00     0.338 C 
ATOM     23  O   UNL A   1      34.554  32.050  29.264  1.00  0.00    -0.246 OA
BRANCH  22  24
ATOM     24  C   UNL A   1      36.086  30.335  28.672  1.00  0.00     0.060 A 
ATOM     25  C   UNL A   1      36.416  29.671  29.856  1.00  0.00     0.016 A 
ATOM     26  C   UNL A   1      36.962  30.306  27.590  1.00  0.00     0.016 A 
ATOM     27  C   UNL A   1      37.653  29.033  29.975  1.00  0.00     0.010 A 
ATOM     28  C   UNL A   1      38.153  29.584  27.674  1.00  0.00     0.010 A 
ATOM     29  C   UNL A   1      38.553  29.020  28.897  1.00  0.00    -0.014 A 
BRANCH  29  30
ATOM     30  C   UNL A   1      39.981  28.645  29.106  1.00  0.00     0.031 A 
ATOM     31  C   UNL A   1      40.437  27.266  28.675  1.00  0.00     0.074 A 
ATOM     32  C   UNL A   1      40.877  29.504  29.629  1.00  0.00     0.049 A 
ATOM     33  N   UNL A   1      41.624  26.716  28.757  1.00  0.00    -0.248 NA
ATOM     34  C   UNL A   1      39.411  26.374  28.106  1.00  0.00     0.031 C 
ATOM     35  C   UNL A   1      40.589  30.859  30.100  1.00  0.00     0.029 A 
ATOM     36  N   UNL A   1      42.227  29.358  29.840  1.00  0.00    -0.354 N 
ATOM     37  C   UNL A   1      41.467  25.416  28.285  1.00  0.00     0.074 A 
ATOM     38  C   UNL A   1      40.065  25.232  27.999  1.00  0.00     0.031 C 
ATOM     39  C   UNL A   1      41.735  31.431  30.513  1.00  0.00     0.029 A 
ATOM     40  C   UNL A   1      42.832  30.478  30.362  1.00  0.00     0.049 A 
ATOM     41  H   UNL A   1      42.717  28.528  29.637  1.00  0.00     0.167 HD
ATOM     42  C   UNL A   1      42.403  24.464  28.062  1.00  0.00     0.031 A 
ATOM     43  C   UNL A   1      44.122  30.709  30.674  1.00  0.00     0.031 A 
ATOM     44  C   UNL A   1      43.806  24.646  28.298  1.00  0.00     0.049 A 
ATOM     45  C   UNL A   1      45.152  29.636  30.421  1.00  0.00     0.074 A 
ATOM     46  C   UNL A   1      44.844  23.764  28.057  1.00  0.00     0.029 A 
ATOM     47  N   UNL A   1      44.370  25.798  28.820  1.00  0.00    -0.354 N 
ATOM     48  N   UNL A   1      44.993  28.432  29.924  1.00  0.00    -0.248 NA
ATOM     49  C   UNL A   1      46.546  29.968  30.751  1.00  0.00     0.031 C 
ATOM     50  C   UNL A   1      46.033  24.364  28.484  1.00  0.00     0.029 A 
ATOM     51  C   UNL A   1      45.741  25.645  28.923  1.00  0.00     0.049 A 
ATOM     52  H   UNL A   1      43.870  26.606  29.081  1.00  0.00     0.167 HD
ATOM     53  C   UNL A   1      46.269  27.884  29.840  1.00  0.00     0.074 A 
ATOM     54  C   UNL A   1      47.189  28.890  30.326  1.00  0.00     0.031 C 
ATOM     55  C   UNL A   1      46.647  26.660  29.396  1.00  0.00     0.031 A 
BRANCH  42  56
ATOM     56  C   UNL A   1      41.925  23.136  27.534  1.00  0.00    -0.014 A 
ATOM     57  C   UNL A   1      41.414  22.147  28.392  1.00  0.00     0.009 A 
ATOM     58  C   UNL A   1      41.984  22.873  26.157  1.00  0.00     0.009 A 
ATOM     59  C   UNL A   1      41.024  20.905  27.888  1.00  0.00     0.001 A 
ATOM     60  C   UNL A   1      41.556  21.645  25.652  1.00  0.00     0.001 A 
ATOM     61  C   UNL A   1      41.089  20.656  26.518  1.00  0.00     0.000 A 
ENDBRANCH  42  56
BRANCH  43  62
ATOM     62  C   UNL A   1      44.537  32.025  31.234  1.00  0.00    -0.014 A 
ATOM     63  C   UNL A   1      44.937  33.071  30.385  1.00  0.00     0.009 A 
ATOM     64  C   UNL A   1      44.571  32.232  32.621  1.00  0.00     0.009 A 
ATOM     65  C   UNL A   1      45.396  34.280  30.915  1.00  0.00     0.001 A 
ATOM     66  C   UNL A   1      45.000  33.454  33.147  1.00  0.00     0.001 A 
ATOM     67  C   UNL A   1      45.423  34.472  32.295  1.00  0.00     0.000 A 
ENDBRANCH  43  62
BRANCH  55  68
ATOM     68  C   UNL A   1      48.121  26.363  29.344  1.00  0.00    -0.014 A 
ATOM     69  C   UNL A   1      48.866  26.520  28.165  1.00  0.00     0.009 A 
ATOM     70  C   UNL A   1      48.780  25.951  30.513  1.00  0.00     0.009 A 
ATOM     71  C   UNL A   1      50.232  26.223  28.149  1.00  0.00     0.001 A 
ATOM     72  C   UNL A   1      50.150  25.690  30.503  1.00  0.00     0.001 A 
ATOM     73  C   UNL A   1      50.872  25.812  29.318  1.00  0.00     0.000 A 
ENDBRANCH  55  68
ENDBRANCH  29  30
ENDBRANCH  22  24
ENDBRANCH  21  22
ENDBRANCH  20  21
ENDBRANCH  19  20
ENDBRANCH   1  19
TORSDOF 16
ENDMDL
MODEL 2
REMARK VINA RESULT:      -9.5      3.277      6.612
REMARK SMILES CC(C)=CC[C@@]1(C(=O)OCCOCCOC(=O)c2ccc(-c3c4nc(c(-c5ccccc5)c5ccc([nH]5)c(-c5ccccc5)c5nc(c(-c6ccccc6)c6ccc3[nH]6)C=C5)C=C4)cc2)CCC[C@H](C)C1
REMARK SMILES IDX 12 1 11 2 10 3 9 4 7 5 8 6 6 7 66 8 71 9 67 10 69 11 68 12
REMARK SMILES IDX 70 13 5 14 4 15 1 16 2 17 3 18 13 19 14 20 15 21 16 22 17 23
REMARK SMILES IDX 18 24 19 25 65 26 20 27 64 28 21 29 22 30 23 31 58 32 24 33
REMARK SMILES IDX 63 34 57 35 59 36 25 37 62 38 56 39 55 40 26 42 48 43 33 44
REMARK SMILES IDX 47 45 34 46 37 47 46 48 60 49 35 50 36 51 45 53 61 54 38 55
REMARK SMILES IDX 27 56 28 57 32 58 29 59 31 60 30 61 49 62 50 63 54 64 51 65
REMARK SMILES IDX 53 66 52 67 39 68 40 69 44 70 41 71 43 72 42 73
REMARK H PARENT 59 41 37 52
REMARK Flexibility Score: inf
ROOT
ATOM      1  O   UNL A   1      31.207  29.368  24.280  1.00  0.00    -0.374 OA
ENDROOT
BRANCH   1   2
ATOM      2  C   UNL A   1      31.813  28.465  23.355  1.00  0.00     0.202 C 
BRANCH   2   3
ATOM      3  C   UNL A   1      30.983  27.220  23.045  1.00  0.00     0.261 C 
BRANCH   3   4
ATOM      4  O   UNL A   1      31.451  26.091  23.806  1.00  0.00    -0.463 OA
BRANCH   4   5
ATOM      5  C   UNL A   1      32.235  25.216  23.133  1.00  0.00     0.312 C 
ATOM      6  O   UNL A   1      32.330  25.182  21.910  1.00  0.00    -0.252 OA
BRANCH   5   7
ATOM      7  C   UNL A   1      32.981  24.234  24.049  1.00  0.00     0.072 C 
ATOM      8  C   UNL A   1      33.429  25.024  25.305  1.00  0.00     0.019 C 
ATOM      9  C   UNL A   1      34.225  23.798  23.230  1.00  0.00     0.022 C 
ATOM     10  C   UNL A   1      34.505  24.318  26.123  1.00  0.00     0.001 C 
ATOM     11  C   UNL A   1      35.287  23.068  24.066  1.00  0.00    -0.013 C 
ATOM     12  C   UNL A   1      35.705  23.928  25.262  1.00  0.00     0.003 C 
ATOM     13  C   UNL A   1      36.477  22.682  23.187  1.00  0.00     0.007 C 
BRANCH   7  14
ATOM     14  C   UNL A   1      32.191  22.944  24.404  1.00  0.00     0.046 C 
BRANCH  14  15
ATOM     15  C   UNL A   1      32.322  21.715  23.548  1.00  0.00    -0.027 C 
ATOM     16  C   UNL A   1      33.192  20.144  25.341  1.00  0.00     0.039 C 
ATOM     17  C   UNL A   1      32.660  20.483  23.975  1.00  0.00    -0.080 C 
ATOM     18  C   UNL A   1      32.423  19.305  23.072  1.00  0.00     0.039 C 
ENDBRANCH  14  15
ENDBRANCH   7  14
ENDBRANCH   5   7
ENDBRANCH   4   5
ENDBRANCH   3   4
ENDBRANCH   2   3
ENDBRANCH   1   2
BRANCH   1  19
ATOM     19  C   UNL A   1      31.849  29.469  25.552  1.00  0.00     0.202 C 
BRANCH  19  20
ATOM     20  C   UNL A   1      31.867  30.883  26.144  1.00  0.00     0.261 C 
BRANCH  20  21
ATOM     21  O   UNL A   1      32.569  30.921  27.398  1.00  0.00    -0.460 OA
BRANCH  21  22
ATOM     22  C   UNL A   1      33.384  31.991  27.584  1.00  0.00     0.338 C 
ATOM     23  O   UNL A   1      33.077  33.164  27.616  1.00  0.00    -0.246 OA
BRANCH  22  24
ATOM     24  C   UNL A   1      34.737  31.491  27.908  1.00  0.00     0.060 A 
ATOM     25  C   UNL A   1      34.954  30.112  27.975  1.00  0.00     0.016 A 
ATOM     26  C   UNL A   1      35.786  32.374  28.155  1.00  0.00     0.016 A 
ATOM     27  C   UNL A   1      36.207  29.623  28.355  1.00  0.00     0.010 A 
ATOM     28  C   UNL A   1      37.061  31.883  28.435  1.00  0.00     0.010 A 
ATOM     29  C   UNL A   1      37.262  30.506  28.630  1.00  0.00    -0.014 A 
BRANCH  29  30
ATOM     30  C   UNL A   1      38.483  30.032  29.344  1.00  0.00     0.031 A 
ATOM     31  C   UNL A   1      38.637  30.367  30.813  1.00  0.00     0.074 A 
ATOM     32  C   UNL A   1      39.425  29.289  28.733  1.00  0.00     0.049 A 
ATOM     33  N   UNL A   1      39.608  30.066  31.641  1.00  0.00    -0.248 NA
ATOM     34  C   UNL A   1      37.570  31.178  31.425  1.00  0.00     0.031 C 
ATOM     35  C   UNL A   1      39.424  28.895  27.324  1.00  0.00     0.029 A 
ATOM     36  N   UNL A   1      40.571  28.721  29.236  1.00  0.00    -0.354 N 
ATOM     37  C   UNL A   1      39.277  30.681  32.845  1.00  0.00     0.074 A 
ATOM     38  C   UNL A   1      38.069  31.435  32.621  1.00  0.00     0.031 C 
ATOM     39  C   UNL A   1      40.498  28.121  27.085  1.00  0.00     0.029 A 
ATOM     40  C   UNL A   1      41.279  27.987  28.313  1.00  0.00     0.049 A 
ATOM     41  H   UNL A   1      40.860  28.830  30.171  1.00  0.00     0.167 HD
ATOM     42  C   UNL A   1      39.890  30.598  34.049  1.00  0.00     0.031 A 
ATOM     43  C   UNL A   1      42.419  27.281  28.447  1.00  0.00     0.031 A 
ATOM     44  C   UNL A   1      41.066  29.815  34.299  1.00  0.00     0.049 A 
ATOM     45  C   UNL A   1      43.090  27.201  29.795  1.00  0.00     0.074 A 
ATOM     46  C   UNL A   1      41.736  29.621  35.494  1.00  0.00     0.029 A 
ATOM     47  N   UNL A   1      41.741  29.084  33.335  1.00  0.00    -0.354 N 
ATOM     48  N   UNL A   1      42.734  27.745  30.934  1.00  0.00    -0.248 NA
ATOM     49  C   UNL A   1      44.311  26.385  29.877  1.00  0.00     0.031 C 
ATOM     50  C   UNL A   1      42.850  28.814  35.241  1.00  0.00     0.029 A 
ATOM     51  C   UNL A   1      42.830  28.449  33.905  1.00  0.00     0.049 A 
ATOM     52  H   UNL A   1      41.485  29.026  32.386  1.00  0.00     0.167 HD
ATOM     53  C   UNL A   1      43.659  27.300  31.874  1.00  0.00     0.074 A 
ATOM     54  C   UNL A   1      44.583  26.433  31.174  1.00  0.00     0.031 C 
ATOM     55  C   UNL A   1      43.734  27.578  33.199  1.00  0.00     0.031 A 
BRANCH  42  56
ATOM     56  C   UNL A   1      39.288  31.382  35.185  1.00  0.00    -0.014 A 
ATOM     57  C   UNL A   1      39.656  32.716  35.431  1.00  0.00     0.009 A 
ATOM     58  C   UNL A   1      38.337  30.778  36.021  1.00  0.00     0.009 A 
ATOM     59  C   UNL A   1      39.124  33.409  36.520  1.00  0.00     0.001 A 
ATOM     60  C   UNL A   1      37.777  31.486  37.085  1.00  0.00     0.001 A 
ATOM     61  C   UNL A   1      38.180  32.795  37.343  1.00  0.00     0.000 A 
ENDBRANCH  42  56
BRANCH  43  62
ATOM     62  C   UNL A   1      42.997  26.557  27.280  1.00  0.00    -0.014 A 
ATOM     63  C   UNL A   1      42.644  25.223  27.019  1.00  0.00     0.009 A 
ATOM     64  C   UNL A   1      43.932  27.184  26.443  1.00  0.00     0.009 A 
ATOM     65  C   UNL A   1      43.243  24.522  25.968  1.00  0.00     0.001 A 
ATOM     66  C   UNL A   1      44.505  26.491  25.373  1.00  0.00     0.001 A 
ATOM     67  C   UNL A   1      44.170  25.158  25.144  1.00  0.00     0.000 A 
ENDBRANCH  43  62
BRANCH  55  68
ATOM     68  C   UNL A   1      44.806  26.886  33.995  1.00  0.00    -0.014 A 
ATOM     69  C   UNL A   1      46.068  27.465  34.199  1.00  0.00     0.009 A 
ATOM     70  C   UNL A   1      44.528  25.641  34.584  1.00  0.00     0.009 A 
ATOM     71  C   UNL A   1      47.045  26.788  34.933  1.00  0.00     0.001 A 
ATOM     72  C   UNL A   1      45.493  24.984  35.347  1.00  0.00     0.001 A 
ATOM     73  C   UNL A   1      46.755  25.551  35.510  1.00  0.00     0.000 A 
ENDBRANCH  55  68
ENDBRANCH  29  30
ENDBRANCH  22  24
ENDBRANCH  21  22
ENDBRANCH  20  21
ENDBRANCH  19  20
ENDBRANCH   1  19
TORSDOF 16
ENDMDL
MODEL 3
REMARK VINA RESULT:      -9.3      2.830      7.015
REMARK SMILES CC(C)=CC[C@@]1(C(=O)OCCOCCOC(=O)c2ccc(-c3c4nc(c(-c5ccccc5)c5ccc([nH]5)c(-c5ccccc5)c5nc(c(-c6ccccc6)c6ccc3[nH]6)C=C5)C=C4)cc2)CCC[C@H](C)C1
REMARK SMILES IDX 12 1 11 2 10 3 9 4 7 5 8 6 6 7 66 8 71 9 67 10 69 11 68 12
REMARK SMILES IDX 70 13 5 14 4 15 1 16 2 17 3 18 13 19 14 20 15 21 16 22 17 23
REMARK SMILES IDX 18 24 19 25 65 26 20 27 64 28 21 29 22 30 23 31 58 32 24 33
REMARK SMILES IDX 63 34 57 35 59 36 25 37 62 38 56 39 55 40 26 42 48 43 33 44
REMARK SMILES IDX 47 45 34 46 37 47 46 48 60 49 35 50 36 51 45 53 61 54 38 55
REMARK SMILES IDX 27 56 28 57 32 58 29 59 31 60 30 61 49 62 50 63 54 64 51 65
REMARK SMILES IDX 53 66 52 67 39 68 40 69 44 70 41 71 43 72 42 73
REMARK H PARENT 59 41 37 52
REMARK Flexibility Score: inf
ROOT
ATOM      1  O   UNL A   1      34.445  20.086  24.926  1.00  0.00    -0.374 OA
ENDROOT
BRANCH   1   2
ATOM      2  C   UNL A   1      33.064  20.407  24.752  1.00  0.00     0.202 C 
BRANCH   2   3
ATOM      3  C   UNL A   1      32.803  21.783  24.143  1.00  0.00     0.261 C 
BRANCH   3   4
ATOM      4  O   UNL A   1      31.808  22.496  24.902  1.00  0.00    -0.463 OA
BRANCH   4   5
ATOM      5  C   UNL A   1      32.286  23.379  25.811  1.00  0.00     0.312 C 
ATOM      6  O   UNL A   1      32.632  23.073  26.948  1.00  0.00    -0.252 OA
BRANCH   5   7
ATOM      7  C   UNL A   1      32.328  24.825  25.295  1.00  0.00     0.072 C 
ATOM      8  C   UNL A   1      33.818  25.191  25.068  1.00  0.00     0.019 C 
ATOM      9  C   UNL A   1      31.749  25.675  26.457  1.00  0.00     0.022 C 
ATOM     10  C   UNL A   1      34.069  26.690  24.937  1.00  0.00     0.001 C 
ATOM     11  C   UNL A   1      31.991  27.183  26.296  1.00  0.00    -0.013 C 
ATOM     12  C   UNL A   1      33.486  27.465  26.117  1.00  0.00     0.003 C 
ATOM     13  C   UNL A   1      31.396  27.943  27.482  1.00  0.00     0.007 C 
BRANCH   7  14
ATOM     14  C   UNL A   1      31.449  25.098  24.044  1.00  0.00     0.046 C 
BRANCH  14  15
ATOM     15  C   UNL A   1      30.166  25.872  24.173  1.00  0.00    -0.027 C 
ATOM     16  C   UNL A   1      30.824  27.862  22.743  1.00  0.00     0.039 C 
ATOM     17  C   UNL A   1      29.861  27.016  23.532  1.00  0.00    -0.080 C 
ATOM     18  C   UNL A   1      28.433  27.482  23.505  1.00  0.00     0.039 C 
ENDBRANCH  14  15
ENDBRANCH   7  14
ENDBRANCH   5   7
ENDBRANCH   4   5
ENDBRANCH   3   4
ENDBRANCH   2   3
ENDBRANCH   1   2
BRANCH   1  19
ATOM     19  C   UNL A   1      35.355  21.176  24.773  1.00  0.00     0.202 C 
BRANCH  19  20
ATOM     20  C   UNL A   1      36.540  21.156  25.744  1.00  0.00     0.261 C 
BRANCH  20  21
ATOM     21  O   UNL A   1      37.734  21.668  25.129  1.00  0.00    -0.460 OA
BRANCH  21  22
ATOM     22  C   UNL A   1      38.894  21.407  25.788  1.00  0.00     0.338 C 
ATOM     23  O   UNL A   1      39.564  20.398  25.742  1.00  0.00    -0.246 OA
BRANCH  22  24
ATOM     24  C   UNL A   1      39.320  22.642  26.479  1.00  0.00     0.060 A 
ATOM     25  C   UNL A   1      38.577  23.812  26.302  1.00  0.00     0.016 A 
ATOM     26  C   UNL A   1      40.453  22.653  27.290  1.00  0.00     0.016 A 
ATOM     27  C   UNL A   1      39.009  25.006  26.886  1.00  0.00     0.010 A 
ATOM     28  C   UNL A   1      40.826  23.822  27.954  1.00  0.00     0.010 A 
ATOM     29  C   UNL A   1      40.163  25.030  27.685  1.00  0.00    -0.014 A 
BRANCH  29  30
ATOM     30  C   UNL A   1      40.815  26.325  28.036  1.00  0.00     0.031 A 
ATOM     31  C   UNL A   1      42.180  26.628  27.453  1.00  0.00     0.074 A 
ATOM     32  C   UNL A   1      40.213  27.240  28.820  1.00  0.00     0.049 A 
ATOM     33  N   UNL A   1      42.942  27.682  27.615  1.00  0.00    -0.248 NA
ATOM     34  C   UNL A   1      42.784  25.590  26.599  1.00  0.00     0.031 C 
ATOM     35  C   UNL A   1      38.907  27.089  29.463  1.00  0.00     0.029 A 
ATOM     36  N   UNL A   1      40.628  28.494  29.200  1.00  0.00    -0.354 N 
ATOM     37  C   UNL A   1      44.113  27.409  26.916  1.00  0.00     0.074 A 
ATOM     38  C   UNL A   1      43.999  26.067  26.400  1.00  0.00     0.031 C 
ATOM     39  C   UNL A   1      38.614  28.221  30.128  1.00  0.00     0.029 A 
ATOM     40  C   UNL A   1      39.720  29.166  29.984  1.00  0.00     0.049 A 
ATOM     41  H   UNL A   1      41.496  28.876  28.935  1.00  0.00     0.167 HD
ATOM     42  C   UNL A   1      45.178  28.210  26.677  1.00  0.00     0.031 A 
ATOM     43  C   UNL A   1      39.771  30.403  30.515  1.00  0.00     0.031 A 
ATOM     44  C   UNL A   1      45.287  29.563  27.143  1.00  0.00     0.049 A 
ATOM     45  C   UNL A   1      40.966  31.281  30.241  1.00  0.00     0.074 A 
ATOM     46  C   UNL A   1      46.300  30.476  26.913  1.00  0.00     0.029 A 
ATOM     47  N   UNL A   1      44.339  30.200  27.927  1.00  0.00    -0.354 N 
ATOM     48  N   UNL A   1      42.041  31.025  29.533  1.00  0.00    -0.248 NA
ATOM     49  C   UNL A   1      40.941  32.631  30.822  1.00  0.00     0.031 C 
ATOM     50  C   UNL A   1      45.990  31.652  27.604  1.00  0.00     0.029 A 
ATOM     51  C   UNL A   1      44.750  31.492  28.203  1.00  0.00     0.049 A 
ATOM     52  H   UNL A   1      43.499  29.794  28.242  1.00  0.00     0.167 HD
ATOM     53  C   UNL A   1      42.794  32.195  29.547  1.00  0.00     0.074 A 
ATOM     54  C   UNL A   1      42.047  33.163  30.323  1.00  0.00     0.031 C 
ATOM     55  C   UNL A   1      43.992  32.449  28.965  1.00  0.00     0.031 A 
BRANCH  42  56
ATOM     56  C   UNL A   1      46.311  27.630  25.871  1.00  0.00    -0.014 A 
ATOM     57  C   UNL A   1      47.277  26.795  26.459  1.00  0.00     0.009 A 
ATOM     58  C   UNL A   1      46.412  27.921  24.502  1.00  0.00     0.009 A 
ATOM     59  C   UNL A   1      48.347  26.309  25.705  1.00  0.00     0.001 A 
ATOM     60  C   UNL A   1      47.461  27.401  23.742  1.00  0.00     0.001 A 
ATOM     61  C   UNL A   1      48.435  26.607  24.346  1.00  0.00     0.000 A 
ENDBRANCH  42  56
BRANCH  43  62
ATOM     62  C   UNL A   1      38.642  30.915  31.341  1.00  0.00    -0.014 A 
ATOM     63  C   UNL A   1      37.581  31.618  30.747  1.00  0.00     0.009 A 
ATOM     64  C   UNL A   1      38.637  30.734  32.733  1.00  0.00     0.009 A 
ATOM     65  C   UNL A   1      36.561  32.162  31.533  1.00  0.00     0.001 A 
ATOM     66  C   UNL A   1      37.597  31.250  33.512  1.00  0.00     0.001 A 
ATOM     67  C   UNL A   1      36.568  31.973  32.914  1.00  0.00     0.000 A 
ENDBRANCH  43  62
BRANCH  55  68
ATOM     68  C   UNL A   1      44.540  33.845  29.081  1.00  0.00    -0.014 A 
ATOM     69  C   UNL A   1      45.401  34.218  30.125  1.00  0.00     0.009 A 
ATOM     70  C   UNL A   1      44.212  34.796  28.101  1.00  0.00     0.009 A 
ATOM     71  C   UNL A   1      45.881  35.528  30.210  1.00  0.00     0.001 A 
ATOM     72  C   UNL A   1      44.722  36.092  28.168  1.00  0.00     0.001 A 
ATOM     73  C   UNL A   1      45.544  36.461  29.229  1.00  0.00     0.000 A 
ENDBRANCH  55  68
ENDBRANCH  29  30
ENDBRANCH  22  24
ENDBRANCH  21  22
ENDBRANCH  20  21
ENDBRANCH  19  20
ENDBRANCH   1  19
TORSDOF 16
ENDMDL
