MODEL 1
REMARK VINA RESULT:     -10.2      0.000      0.000
REMARK SMILES CCCn1cc(Br)cc1C(=O)NC[C@H]1CC[C@@H](C(=O)OCCOCCOC(=O)c2ccc(-c3c4nc(c(-c5ccccc5)c5ccc([nH]5)c(-c5ccccc5)c5nc(c(-c6ccccc6)c6ccc3[nH]6)C=C5)C=C4)cc2)O1
REMARK SMILES IDX 21 1 20 2 18 3 19 4 17 5 14 6 15 7 77 8 16 9 13 10 12 11
REMARK SMILES IDX 10 12 11 13 9 15 4 16 5 17 6 18 8 19 7 20 3 21 2 22 1 23
REMARK SMILES IDX 22 24 23 25 24 26 25 27 26 28 27 29 28 30 29 31 30 32 76 33
REMARK SMILES IDX 31 34 75 35 32 36 33 37 34 38 69 39 35 40 74 41 68 42 70 43
REMARK SMILES IDX 36 44 73 45 67 46 66 47 37 49 59 50 44 51 58 52 45 53 48 54
REMARK SMILES IDX 57 55 71 56 46 57 47 58 56 60 72 61 49 62 38 63 39 64 43 65
REMARK SMILES IDX 40 66 42 67 41 68 60 69 61 70 65 71 62 72 64 73 63 74 50 75
REMARK SMILES IDX 51 76 55 77 52 78 54 79 53 80
REMARK H PARENT 12 14 70 48 48 59
REMARK Flexibility Score: inf
ROOT
ATOM      1  C   UNL A   1      38.591  22.127  26.257  1.00  0.00     0.261 C 
ENDROOT
BRANCH   1   2
ATOM      2  O   UNL A   1      37.801  21.855  25.090  1.00  0.00    -0.461 OA
BRANCH   2   3
ATOM      3  C   UNL A   1      36.891  22.816  24.796  1.00  0.00     0.335 C 
ATOM      4  O   UNL A   1      36.926  23.967  25.225  1.00  0.00    -0.249 OA
BRANCH   3   5
ATOM      5  C   UNL A   1      35.857  22.317  23.809  1.00  0.00     0.228 C 
ATOM      6  C   UNL A   1      33.725  21.885  24.635  1.00  0.00     0.138 C 
ATOM      7  C   UNL A   1      33.561  22.787  23.413  1.00  0.00     0.037 C 
ATOM      8  O   UNL A   1      35.046  21.356  24.511  1.00  0.00    -0.361 OA
ATOM      9  C   UNL A   1      34.932  23.427  23.311  1.00  0.00     0.047 C 
BRANCH   6  10
ATOM     10  C   UNL A   1      33.517  22.737  25.899  1.00  0.00     0.148 C 
BRANCH  10  11
ATOM     11  N   UNL A   1      32.204  23.063  26.369  1.00  0.00    -0.348 N 
ATOM     12  C   UNL A   1      31.518  24.263  26.311  1.00  0.00     0.268 C 
ATOM     13  O   UNL A   1      30.389  24.221  26.813  1.00  0.00    -0.268 OA
ATOM     14  H   UNL A   1      31.715  22.321  26.795  1.00  0.00     0.163 HD
BRANCH  12  15
ATOM     15  C   UNL A   1      32.052  25.537  25.781  1.00  0.00     0.108 A 
ATOM     16  N   UNL A   1      31.981  26.213  24.552  1.00  0.00    -0.342 N 
ATOM     17  C   UNL A   1      32.812  27.312  24.578  1.00  0.00     0.102 A 
ATOM     18  C   UNL A   1      33.262  27.474  25.855  1.00  0.00     0.036 A 
ATOM     19  C   UNL A   1      32.795  26.394  26.608  1.00  0.00     0.049 A 
ATOM     20  Br  UNL A   1      34.343  28.854  26.505  1.00  0.00    -0.049 Br
BRANCH  16  21
ATOM     21  C   UNL A   1      31.238  25.840  23.364  1.00  0.00     0.122 C 
BRANCH  21  22
ATOM     22  C   UNL A   1      31.583  26.408  21.986  1.00  0.00     0.018 C 
ATOM     23  C   UNL A   1      32.693  25.696  21.233  1.00  0.00     0.006 C 
ENDBRANCH  21  22
ENDBRANCH  16  21
ENDBRANCH  12  15
ENDBRANCH  10  11
ENDBRANCH   6  10
ENDBRANCH   3   5
ENDBRANCH   2   3
ENDBRANCH   1   2
BRANCH   1  24
ATOM     24  C   UNL A   1      40.029  21.649  26.083  1.00  0.00     0.202 C 
BRANCH  24  25
ATOM     25  O   UNL A   1      40.638  20.855  27.101  1.00  0.00    -0.374 OA
BRANCH  25  26
ATOM     26  C   UNL A   1      42.024  20.544  27.098  1.00  0.00     0.202 C 
BRANCH  26  27
ATOM     27  C   UNL A   1      42.526  19.386  26.246  1.00  0.00     0.261 C 
BRANCH  27  28
ATOM     28  O   UNL A   1      42.910  19.809  24.949  1.00  0.00    -0.460 OA
BRANCH  28  29
ATOM     29  C   UNL A   1      44.239  19.790  24.760  1.00  0.00     0.338 C 
ATOM     30  O   UNL A   1      44.974  18.786  24.737  1.00  0.00    -0.246 OA
BRANCH  29  31
ATOM     31  C   UNL A   1      44.762  21.148  24.724  1.00  0.00     0.060 A 
ATOM     32  C   UNL A   1      45.778  21.420  25.644  1.00  0.00     0.016 A 
ATOM     33  C   UNL A   1      43.963  22.155  24.164  1.00  0.00     0.016 A 
ATOM     34  C   UNL A   1      45.770  22.643  26.259  1.00  0.00     0.010 A 
ATOM     35  C   UNL A   1      43.936  23.368  24.802  1.00  0.00     0.010 A 
ATOM     36  C   UNL A   1      44.764  23.545  25.909  1.00  0.00    -0.014 A 
BRANCH  36  37
ATOM     37  C   UNL A   1      44.588  24.701  26.749  1.00  0.00     0.031 A 
ATOM     38  C   UNL A   1      45.717  25.640  26.691  1.00  0.00     0.074 A 
ATOM     39  C   UNL A   1      43.448  24.927  27.424  1.00  0.00     0.049 A 
ATOM     40  N   UNL A   1      46.600  25.873  27.602  1.00  0.00    -0.248 NA
ATOM     41  C   UNL A   1      45.996  26.256  25.386  1.00  0.00     0.031 C 
ATOM     42  C   UNL A   1      42.164  24.232  27.292  1.00  0.00     0.029 A 
ATOM     43  N   UNL A   1      43.175  25.929  28.297  1.00  0.00    -0.354 N 
ATOM     44  C   UNL A   1      47.450  26.816  27.040  1.00  0.00     0.074 A 
ATOM     45  C   UNL A   1      47.173  26.829  25.628  1.00  0.00     0.031 C 
ATOM     46  C   UNL A   1      41.200  24.980  27.879  1.00  0.00     0.029 A 
ATOM     47  C   UNL A   1      41.825  26.122  28.528  1.00  0.00     0.049 A 
ATOM     48  H   UNL A   1      43.876  26.470  28.728  1.00  0.00     0.167 HD
ATOM     49  C   UNL A   1      48.100  27.732  27.806  1.00  0.00     0.031 A 
ATOM     50  C   UNL A   1      41.272  27.199  29.135  1.00  0.00     0.031 A 
ATOM     51  C   UNL A   1      48.092  27.366  29.199  1.00  0.00     0.049 A 
ATOM     52  C   UNL A   1      42.347  27.906  29.871  1.00  0.00     0.074 A 
ATOM     53  C   UNL A   1      48.600  26.324  29.946  1.00  0.00     0.029 A 
ATOM     54  N   UNL A   1      47.148  27.984  29.985  1.00  0.00    -0.354 N 
ATOM     55  N   UNL A   1      42.936  27.426  30.929  1.00  0.00    -0.248 NA
ATOM     56  C   UNL A   1      43.061  28.983  29.201  1.00  0.00     0.031 C 
ATOM     57  C   UNL A   1      47.659  26.119  30.996  1.00  0.00     0.029 A 
ATOM     58  C   UNL A   1      46.636  27.061  30.856  1.00  0.00     0.049 A 
ATOM     59  H   UNL A   1      46.885  28.930  29.931  1.00  0.00     0.167 HD
ATOM     60  C   UNL A   1      44.259  27.829  30.814  1.00  0.00     0.074 A 
ATOM     61  C   UNL A   1      44.245  28.891  29.814  1.00  0.00     0.031 C 
ATOM     62  C   UNL A   1      45.269  27.066  31.330  1.00  0.00     0.031 A 
BRANCH  49  63
ATOM     63  C   UNL A   1      48.324  29.155  27.354  1.00  0.00    -0.014 A 
ATOM     64  C   UNL A   1      49.629  29.672  27.403  1.00  0.00     0.009 A 
ATOM     65  C   UNL A   1      47.287  30.089  27.148  1.00  0.00     0.009 A 
ATOM     66  C   UNL A   1      49.871  31.049  27.331  1.00  0.00     0.001 A 
ATOM     67  C   UNL A   1      47.527  31.458  27.028  1.00  0.00     0.001 A 
ATOM     68  C   UNL A   1      48.817  31.941  27.151  1.00  0.00     0.000 A 
ENDBRANCH  49  63
BRANCH  50  69
ATOM     69  C   UNL A   1      39.954  27.816  28.884  1.00  0.00    -0.014 A 
ATOM     70  C   UNL A   1      38.991  27.881  29.901  1.00  0.00     0.009 A 
ATOM     71  C   UNL A   1      39.738  28.578  27.722  1.00  0.00     0.009 A 
ATOM     72  C   UNL A   1      37.868  28.709  29.773  1.00  0.00     0.001 A 
ATOM     73  C   UNL A   1      38.615  29.401  27.592  1.00  0.00     0.001 A 
ATOM     74  C   UNL A   1      37.689  29.479  28.625  1.00  0.00     0.000 A 
ENDBRANCH  50  69
BRANCH  62  75
ATOM     75  C   UNL A   1      44.880  25.954  32.273  1.00  0.00    -0.014 A 
ATOM     76  C   UNL A   1      44.586  24.652  31.833  1.00  0.00     0.009 A 
ATOM     77  C   UNL A   1      44.954  26.193  33.652  1.00  0.00     0.009 A 
ATOM     78  C   UNL A   1      44.341  23.626  32.751  1.00  0.00     0.001 A 
ATOM     79  C   UNL A   1      44.731  25.164  34.569  1.00  0.00     0.001 A 
ATOM     80  C   UNL A   1      44.419  23.882  34.119  1.00  0.00     0.000 A 
ENDBRANCH  62  75
ENDBRANCH  36  37
ENDBRANCH  29  31
ENDBRANCH  28  29
ENDBRANCH  27  28
ENDBRANCH  26  27
ENDBRANCH  25  26
ENDBRANCH  24  25
ENDBRANCH   1  24
TORSDOF 19
ENDMDL
MODEL 2
REMARK VINA RESULT:      -9.6      3.098      7.354
REMARK SMILES CCCn1cc(Br)cc1C(=O)NC[C@H]1CC[C@@H](C(=O)OCCOCCOC(=O)c2ccc(-c3c4nc(c(-c5ccccc5)c5ccc([nH]5)c(-c5ccccc5)c5nc(c(-c6ccccc6)c6ccc3[nH]6)C=C5)C=C4)cc2)O1
REMARK SMILES IDX 21 1 20 2 18 3 19 4 17 5 14 6 15 7 77 8 16 9 13 10 12 11
REMARK SMILES IDX 10 12 11 13 9 15 4 16 5 17 6 18 8 19 7 20 3 21 2 22 1 23
REMARK SMILES IDX 22 24 23 25 24 26 25 27 26 28 27 29 28 30 29 31 30 32 76 33
REMARK SMILES IDX 31 34 75 35 32 36 33 37 34 38 69 39 35 40 74 41 68 42 70 43
REMARK SMILES IDX 36 44 73 45 67 46 66 47 37 49 59 50 44 51 58 52 45 53 48 54
REMARK SMILES IDX 57 55 71 56 46 57 47 58 56 60 72 61 49 62 38 63 39 64 43 65
REMARK SMILES IDX 40 66 42 67 41 68 60 69 61 70 65 71 62 72 64 73 63 74 50 75
REMARK SMILES IDX 51 76 55 77 52 78 54 79 53 80
REMARK H PARENT 12 14 70 48 48 59
REMARK Flexibility Score: inf
ROOT
ATOM      1  C   UNL A   1      31.811  28.925  27.382  1.00  0.00     0.261 C 
ENDROOT
BRANCH   1   2
ATOM      2  O   UNL A   1      32.482  27.742  26.922  1.00  0.00    -0.461 OA
BRANCH   2   3
ATOM      3  C   UNL A   1      31.678  26.853  26.290  1.00  0.00     0.335 C 
ATOM      4  O   UNL A   1      30.708  26.299  26.803  1.00  0.00    -0.249 OA
BRANCH   3   5
ATOM      5  C   UNL A   1      32.078  26.676  24.840  1.00  0.00     0.228 C 
ATOM      6  C   UNL A   1      32.160  24.499  24.022  1.00  0.00     0.138 C 
ATOM      7  C   UNL A   1      31.311  25.315  23.049  1.00  0.00     0.037 C 
ATOM      8  O   UNL A   1      32.876  25.478  24.776  1.00  0.00    -0.361 OA
ATOM      9  C   UNL A   1      30.877  26.481  23.917  1.00  0.00     0.047 C 
BRANCH   6  10
ATOM     10  C   UNL A   1      31.221  23.628  24.875  1.00  0.00     0.148 C 
BRANCH  10  11
ATOM     11  N   UNL A   1      31.507  23.355  26.252  1.00  0.00    -0.348 N 
ATOM     12  C   UNL A   1      32.541  22.625  26.810  1.00  0.00     0.268 C 
ATOM     13  O   UNL A   1      32.508  22.570  28.045  1.00  0.00    -0.268 OA
ATOM     14  H   UNL A   1      30.874  23.746  26.897  1.00  0.00     0.163 HD
BRANCH  12  15
ATOM     15  C   UNL A   1      33.581  21.888  26.059  1.00  0.00     0.108 A 
ATOM     16  N   UNL A   1      33.592  20.774  25.204  1.00  0.00    -0.342 N 
ATOM     17  C   UNL A   1      34.894  20.432  24.906  1.00  0.00     0.102 A 
ATOM     18  C   UNL A   1      35.711  21.413  25.383  1.00  0.00     0.036 A 
ATOM     19  C   UNL A   1      34.917  22.321  26.087  1.00  0.00     0.049 A 
ATOM     20  Br  UNL A   1      37.567  21.531  25.186  1.00  0.00    -0.049 Br
BRANCH  16  21
ATOM     21  C   UNL A   1      32.465  19.998  24.726  1.00  0.00     0.122 C 
BRANCH  21  22
ATOM     22  C   UNL A   1      32.554  18.484  24.528  1.00  0.00     0.018 C 
ATOM     23  C   UNL A   1      32.648  18.006  23.088  1.00  0.00     0.006 C 
ENDBRANCH  21  22
ENDBRANCH  16  21
ENDBRANCH  12  15
ENDBRANCH  10  11
ENDBRANCH   6  10
ENDBRANCH   3   5
ENDBRANCH   2   3
ENDBRANCH   1   2
BRANCH   1  24
ATOM     24  C   UNL A   1      32.347  30.175  26.693  1.00  0.00     0.202 C 
BRANCH  24  25
ATOM     25  O   UNL A   1      32.768  31.289  27.480  1.00  0.00    -0.374 OA
BRANCH  25  26
ATOM     26  C   UNL A   1      34.138  31.629  27.650  1.00  0.00     0.202 C 
BRANCH  26  27
ATOM     27  C   UNL A   1      35.188  30.526  27.616  1.00  0.00     0.261 C 
BRANCH  27  28
ATOM     28  O   UNL A   1      36.479  31.013  27.938  1.00  0.00    -0.460 OA
BRANCH  28  29
ATOM     29  C   UNL A   1      37.079  30.311  28.914  1.00  0.00     0.338 C 
ATOM     30  O   UNL A   1      37.074  30.571  30.130  1.00  0.00    -0.246 OA
BRANCH  29  31
ATOM     31  C   UNL A   1      37.888  29.244  28.340  1.00  0.00     0.060 A 
ATOM     32  C   UNL A   1      38.247  28.226  29.227  1.00  0.00     0.016 A 
ATOM     33  C   UNL A   1      38.607  29.510  27.167  1.00  0.00     0.016 A 
ATOM     34  C   UNL A   1      39.508  27.705  29.121  1.00  0.00     0.010 A 
ATOM     35  C   UNL A   1      39.881  29.012  27.080  1.00  0.00     0.010 A 
ATOM     36  C   UNL A   1      40.342  28.208  28.120  1.00  0.00    -0.014 A 
BRANCH  36  37
ATOM     37  C   UNL A   1      41.741  27.870  28.191  1.00  0.00     0.031 A 
ATOM     38  C   UNL A   1      42.066  26.598  27.533  1.00  0.00     0.074 A 
ATOM     39  C   UNL A   1      42.651  28.707  28.718  1.00  0.00     0.049 A 
ATOM     40  N   UNL A   1      42.398  25.481  28.087  1.00  0.00    -0.248 NA
ATOM     41  C   UNL A   1      41.810  26.519  26.087  1.00  0.00     0.031 C 
ATOM     42  C   UNL A   1      42.478  30.113  29.096  1.00  0.00     0.029 A 
ATOM     43  N   UNL A   1      43.976  28.490  28.909  1.00  0.00    -0.354 N 
ATOM     44  C   UNL A   1      42.573  24.598  27.031  1.00  0.00     0.074 A 
ATOM     45  C   UNL A   1      41.978  25.216  25.875  1.00  0.00     0.031 C 
ATOM     46  C   UNL A   1      43.699  30.678  29.247  1.00  0.00     0.029 A 
ATOM     47  C   UNL A   1      44.714  29.645  29.103  1.00  0.00     0.049 A 
ATOM     48  H   UNL A   1      44.377  27.591  28.909  1.00  0.00     0.167 HD
ATOM     49  C   UNL A   1      43.458  23.568  27.106  1.00  0.00     0.031 A 
ATOM     50  C   UNL A   1      46.064  29.739  29.054  1.00  0.00     0.031 A 
ATOM     51  C   UNL A   1      43.862  23.309  28.464  1.00  0.00     0.049 A 
ATOM     52  C   UNL A   1      46.619  28.371  29.186  1.00  0.00     0.074 A 
ATOM     53  C   UNL A   1      43.229  22.901  29.618  1.00  0.00     0.029 A 
ATOM     54  N   UNL A   1      45.071  23.837  28.849  1.00  0.00    -0.354 N 
ATOM     55  N   UNL A   1      46.559  27.668  30.280  1.00  0.00    -0.248 NA
ATOM     56  C   UNL A   1      46.894  27.609  27.976  1.00  0.00     0.031 C 
ATOM     57  C   UNL A   1      43.914  23.562  30.679  1.00  0.00     0.029 A 
ATOM     58  C   UNL A   1      44.949  24.320  30.124  1.00  0.00     0.049 A 
ATOM     59  H   UNL A   1      45.888  23.862  28.302  1.00  0.00     0.167 HD
ATOM     60  C   UNL A   1      46.363  26.362  29.856  1.00  0.00     0.074 A 
ATOM     61  C   UNL A   1      46.715  26.369  28.440  1.00  0.00     0.031 C 
ATOM     62  C   UNL A   1      45.662  25.476  30.624  1.00  0.00     0.031 A 
BRANCH  49  63
ATOM     63  C   UNL A   1      44.287  23.122  25.925  1.00  0.00    -0.014 A 
ATOM     64  C   UNL A   1      44.337  21.750  25.626  1.00  0.00     0.009 A 
ATOM     65  C   UNL A   1      45.230  23.941  25.271  1.00  0.00     0.009 A 
ATOM     66  C   UNL A   1      45.324  21.224  24.785  1.00  0.00     0.001 A 
ATOM     67  C   UNL A   1      46.186  23.428  24.395  1.00  0.00     0.001 A 
ATOM     68  C   UNL A   1      46.253  22.063  24.176  1.00  0.00     0.000 A 
ENDBRANCH  49  63
BRANCH  50  69
ATOM     69  C   UNL A   1      46.887  30.882  28.611  1.00  0.00    -0.014 A 
ATOM     70  C   UNL A   1      48.012  31.279  29.346  1.00  0.00     0.009 A 
ATOM     71  C   UNL A   1      46.719  31.419  27.321  1.00  0.00     0.009 A 
ATOM     72  C   UNL A   1      48.957  32.155  28.794  1.00  0.00     0.001 A 
ATOM     73  C   UNL A   1      47.658  32.297  26.773  1.00  0.00     0.001 A 
ATOM     74  C   UNL A   1      48.786  32.651  27.504  1.00  0.00     0.000 A 
ENDBRANCH  50  69
BRANCH  62  75
ATOM     75  C   UNL A   1      45.382  25.872  32.052  1.00  0.00    -0.014 A 
ATOM     76  C   UNL A   1      44.211  26.548  32.439  1.00  0.00     0.009 A 
ATOM     77  C   UNL A   1      46.256  25.424  33.053  1.00  0.00     0.009 A 
ATOM     78  C   UNL A   1      43.942  26.795  33.788  1.00  0.00     0.001 A 
ATOM     79  C   UNL A   1      45.975  25.652  34.401  1.00  0.00     0.001 A 
ATOM     80  C   UNL A   1      44.822  26.341  34.769  1.00  0.00     0.000 A 
ENDBRANCH  62  75
ENDBRANCH  36  37
ENDBRANCH  29  31
ENDBRANCH  28  29
ENDBRANCH  27  28
ENDBRANCH  26  27
ENDBRANCH  25  26
ENDBRANCH  24  25
ENDBRANCH   1  24
TORSDOF 19
ENDMDL
MODEL 3
REMARK VINA RESULT:      -9.3      1.502      2.068
REMARK SMILES CCCn1cc(Br)cc1C(=O)NC[C@H]1CC[C@@H](C(=O)OCCOCCOC(=O)c2ccc(-c3c4nc(c(-c5ccccc5)c5ccc([nH]5)c(-c5ccccc5)c5nc(c(-c6ccccc6)c6ccc3[nH]6)C=C5)C=C4)cc2)O1
REMARK SMILES IDX 21 1 20 2 18 3 19 4 17 5 14 6 15 7 77 8 16 9 13 10 12 11
REMARK SMILES IDX 10 12 11 13 9 15 4 16 5 17 6 18 8 19 7 20 3 21 2 22 1 23
REMARK SMILES IDX 22 24 23 25 24 26 25 27 26 28 27 29 28 30 29 31 30 32 76 33
REMARK SMILES IDX 31 34 75 35 32 36 33 37 34 38 69 39 35 40 74 41 68 42 70 43
REMARK SMILES IDX 36 44 73 45 67 46 66 47 37 49 59 50 44 51 58 52 45 53 48 54
REMARK SMILES IDX 57 55 71 56 46 57 47 58 56 60 72 61 49 62 38 63 39 64 43 65
REMARK SMILES IDX 40 66 42 67 41 68 60 69 61 70 65 71 62 72 64 73 63 74 50 75
REMARK SMILES IDX 51 76 55 77 52 78 54 79 53 80
REMARK H PARENT 12 14 70 48 48 59
REMARK Flexibility Score: inf
ROOT
ATOM      1  C   UNL A   1      38.447  22.997  25.776  1.00  0.00     0.261 C 
ENDROOT
BRANCH   1   2
ATOM      2  O   UNL A   1      37.017  22.888  25.841  1.00  0.00    -0.461 OA
BRANCH   2   3
ATOM      3  C   UNL A   1      36.473  22.101  24.881  1.00  0.00     0.335 C 
ATOM      4  O   UNL A   1      36.658  22.240  23.674  1.00  0.00    -0.249 OA
BRANCH   3   5
ATOM      5  C   UNL A   1      35.658  20.975  25.482  1.00  0.00     0.228 C 
ATOM      6  C   UNL A   1      33.657  21.553  26.520  1.00  0.00     0.138 C 
ATOM      7  C   UNL A   1      33.345  20.428  25.533  1.00  0.00     0.037 C 
ATOM      8  O   UNL A   1      35.073  21.491  26.694  1.00  0.00    -0.361 OA
ATOM      9  C   UNL A   1      34.516  20.523  24.574  1.00  0.00     0.047 C 
BRANCH   6  10
ATOM     10  C   UNL A   1      33.166  22.880  25.915  1.00  0.00     0.148 C 
BRANCH  10  11
ATOM     11  N   UNL A   1      33.887  24.101  26.119  1.00  0.00    -0.348 N 
ATOM     12  C   UNL A   1      33.794  25.304  25.442  1.00  0.00     0.268 C 
ATOM     13  O   UNL A   1      34.563  26.177  25.860  1.00  0.00    -0.268 OA
ATOM     14  H   UNL A   1      34.546  24.082  26.850  1.00  0.00     0.163 HD
BRANCH  12  15
ATOM     15  C   UNL A   1      32.931  25.570  24.270  1.00  0.00     0.108 A 
ATOM     16  N   UNL A   1      31.610  26.010  24.083  1.00  0.00    -0.342 N 
ATOM     17  C   UNL A   1      31.279  25.930  22.748  1.00  0.00     0.102 A 
ATOM     18  C   UNL A   1      32.411  25.639  22.046  1.00  0.00     0.036 A 
ATOM     19  C   UNL A   1      33.438  25.424  22.968  1.00  0.00     0.049 A 
ATOM     20  Br  UNL A   1      32.584  25.503  20.189  1.00  0.00    -0.049 Br
BRANCH  16  21
ATOM     21  C   UNL A   1      30.653  26.426  25.089  1.00  0.00     0.122 C 
BRANCH  21  22
ATOM     22  C   UNL A   1      31.095  27.038  26.419  1.00  0.00     0.018 C 
ATOM     23  C   UNL A   1      31.709  28.426  26.341  1.00  0.00     0.006 C 
ENDBRANCH  21  22
ENDBRANCH  16  21
ENDBRANCH  12  15
ENDBRANCH  10  11
ENDBRANCH   6  10
ENDBRANCH   3   5
ENDBRANCH   2   3
ENDBRANCH   1   2
BRANCH   1  24
ATOM     24  C   UNL A   1      39.122  21.650  26.017  1.00  0.00     0.202 C 
BRANCH  24  25
ATOM     25  O   UNL A   1      40.531  21.595  26.235  1.00  0.00    -0.374 OA
BRANCH  25  26
ATOM     26  C   UNL A   1      41.160  20.500  26.885  1.00  0.00     0.202 C 
BRANCH  26  27
ATOM     27  C   UNL A   1      42.484  19.973  26.345  1.00  0.00     0.261 C 
BRANCH  27  28
ATOM     28  O   UNL A   1      42.860  20.618  25.140  1.00  0.00    -0.460 OA
BRANCH  28  29
ATOM     29  C   UNL A   1      44.188  20.628  24.940  1.00  0.00     0.338 C 
ATOM     30  O   UNL A   1      44.930  19.638  24.815  1.00  0.00    -0.246 OA
BRANCH  29  31
ATOM     31  C   UNL A   1      44.699  21.989  25.031  1.00  0.00     0.060 A 
ATOM     32  C   UNL A   1      45.622  22.211  26.056  1.00  0.00     0.016 A 
ATOM     33  C   UNL A   1      43.948  23.023  24.455  1.00  0.00     0.016 A 
ATOM     34  C   UNL A   1      45.545  23.397  26.736  1.00  0.00     0.010 A 
ATOM     35  C   UNL A   1      43.849  24.197  25.155  1.00  0.00     0.010 A 
ATOM     36  C   UNL A   1      44.567  24.314  26.344  1.00  0.00    -0.014 A 
BRANCH  36  37
ATOM     37  C   UNL A   1      44.303  25.420  27.227  1.00  0.00     0.031 A 
ATOM     38  C   UNL A   1      45.369  26.430  27.230  1.00  0.00     0.074 A 
ATOM     39  C   UNL A   1      43.139  25.542  27.889  1.00  0.00     0.049 A 
ATOM     40  N   UNL A   1      46.220  26.681  28.167  1.00  0.00    -0.248 NA
ATOM     41  C   UNL A   1      45.629  27.118  25.957  1.00  0.00     0.031 C 
ATOM     42  C   UNL A   1      41.905  24.773  27.703  1.00  0.00     0.029 A 
ATOM     43  N   UNL A   1      42.787  26.487  28.797  1.00  0.00    -0.354 N 
ATOM     44  C   UNL A   1      47.016  27.700  27.661  1.00  0.00     0.074 A 
ATOM     45  C   UNL A   1      46.762  27.755  26.245  1.00  0.00     0.031 C 
ATOM     46  C   UNL A   1      40.885  25.431  28.302  1.00  0.00     0.029 A 
ATOM     47  C   UNL A   1      41.424  26.582  29.010  1.00  0.00     0.049 A 
ATOM     48  H   UNL A   1      43.445  27.053  29.263  1.00  0.00     0.167 HD
ATOM     49  C   UNL A   1      47.592  28.623  28.477  1.00  0.00     0.031 A 
ATOM     50  C   UNL A   1      40.792  27.595  29.650  1.00  0.00     0.031 A 
ATOM     51  C   UNL A   1      47.585  28.198  29.853  1.00  0.00     0.049 A 
ATOM     52  C   UNL A   1      41.806  28.338  30.435  1.00  0.00     0.074 A 
ATOM     53  C   UNL A   1      48.146  27.160  30.565  1.00  0.00     0.029 A 
ATOM     54  N   UNL A   1      46.589  28.720  30.645  1.00  0.00    -0.354 N 
ATOM     55  N   UNL A   1      42.408  27.853  31.483  1.00  0.00    -0.248 NA
ATOM     56  C   UNL A   1      42.460  29.486  29.824  1.00  0.00     0.031 C 
ATOM     57  C   UNL A   1      47.204  26.850  31.588  1.00  0.00     0.029 A 
ATOM     58  C   UNL A   1      46.124  27.730  31.468  1.00  0.00     0.049 A 
ATOM     59  H   UNL A   1      46.266  29.649  30.625  1.00  0.00     0.167 HD
ATOM     60  C   UNL A   1      43.703  28.344  31.411  1.00  0.00     0.074 A 
ATOM     61  C   UNL A   1      43.636  29.444  30.455  1.00  0.00     0.031 C 
ATOM     62  C   UNL A   1      44.751  27.626  31.914  1.00  0.00     0.031 A 
BRANCH  49  63
ATOM     63  C   UNL A   1      47.730  30.076  28.088  1.00  0.00    -0.014 A 
ATOM     64  C   UNL A   1      46.560  30.810  27.829  1.00  0.00     0.009 A 
ATOM     65  C   UNL A   1      48.945  30.675  27.697  1.00  0.00     0.009 A 
ATOM     66  C   UNL A   1      46.603  32.032  27.149  1.00  0.00     0.001 A 
ATOM     67  C   UNL A   1      48.997  31.915  27.060  1.00  0.00     0.001 A 
ATOM     68  C   UNL A   1      47.821  32.580  26.758  1.00  0.00     0.000 A 
ENDBRANCH  49  63
BRANCH  50  69
ATOM     69  C   UNL A   1      39.441  28.136  29.399  1.00  0.00    -0.014 A 
ATOM     70  C   UNL A   1      38.516  28.259  30.446  1.00  0.00     0.009 A 
ATOM     71  C   UNL A   1      39.149  28.778  28.182  1.00  0.00     0.009 A 
ATOM     72  C   UNL A   1      37.355  29.029  30.289  1.00  0.00     0.001 A 
ATOM     73  C   UNL A   1      37.989  29.542  28.025  1.00  0.00     0.001 A 
ATOM     74  C   UNL A   1      37.101  29.681  29.085  1.00  0.00     0.000 A 
ENDBRANCH  50  69
BRANCH  62  75
ATOM     75  C   UNL A   1      44.421  26.453  32.802  1.00  0.00    -0.014 A 
ATOM     76  C   UNL A   1      43.873  26.602  34.089  1.00  0.00     0.009 A 
ATOM     77  C   UNL A   1      44.533  25.161  32.270  1.00  0.00     0.009 A 
ATOM     78  C   UNL A   1      43.479  25.486  34.831  1.00  0.00     0.001 A 
ATOM     79  C   UNL A   1      44.118  24.047  33.003  1.00  0.00     0.001 A 
ATOM     80  C   UNL A   1      43.596  24.209  34.285  1.00  0.00     0.000 A 
ENDBRANCH  62  75
ENDBRANCH  36  37
ENDBRANCH  29  31
ENDBRANCH  28  29
ENDBRANCH  27  28
ENDBRANCH  26  27
ENDBRANCH  25  26
ENDBRANCH  24  25
ENDBRANCH   1  24
TORSDOF 19
ENDMDL
