MODEL 1
REMARK VINA RESULT:      -8.2      0.000      0.000
REMARK SMILES CC(C)(C)c1ccc(OCC(=O)N/N=C/c2ccc(C(=O)OCCOCCOC(=O)c3ccc(-c4c5nc(c(-c6ccccc6)c6ccc([nH]6)c(-c6ccccc6)c6nc(c(-c7ccccc7)c7ccc4[nH]7)C=C6)C=C5)cc3)cc2)cc1
REMARK SMILES IDX 23 1 22 2 20 3 21 4 19 5 16 6 17 7 80 8 18 9 79 10 15 11
REMARK SMILES IDX 14 12 13 13 11 14 12 15 10 17 9 18 8 19 5 20 6 21 82 22 7 23
REMARK SMILES IDX 81 24 2 25 1 26 3 27 4 28 24 29 25 30 26 31 27 32 28 33
REMARK SMILES IDX 29 34 30 35 31 36 32 37 78 38 33 39 77 40 34 41 35 42 36 43
REMARK SMILES IDX 71 44 37 45 76 46 70 47 72 48 38 49 75 50 69 51 68 52 39 54
REMARK SMILES IDX 61 55 46 56 60 57 47 58 50 59 59 60 73 61 48 62 49 63 58 65
REMARK SMILES IDX 74 66 51 67 40 68 41 69 45 70 42 71 44 72 43 73 62 74 63 75
REMARK SMILES IDX 67 76 64 77 66 78 65 79 52 80 53 81 57 82 54 83 56 84 55 85
REMARK H PARENT 13 16 72 53 50 64
REMARK Flexibility Score: inf
ROOT
ATOM      1  C   UNL A   1      35.325  35.159  32.813  1.00  0.00     0.261 C 
ENDROOT
BRANCH   1   2
ATOM      2  O   UNL A   1      35.567  33.797  33.204  1.00  0.00    -0.460 OA
BRANCH   2   3
ATOM      3  C   UNL A   1      35.963  33.636  34.488  1.00  0.00     0.338 C 
ATOM      4  O   UNL A   1      35.425  34.092  35.487  1.00  0.00    -0.246 OA
BRANCH   3   5
ATOM      5  C   UNL A   1      37.068  32.655  34.557  1.00  0.00     0.060 A 
ATOM      6  C   UNL A   1      39.213  30.903  34.783  1.00  0.00    -0.005 A 
ATOM      7  C   UNL A   1      39.131  32.000  35.644  1.00  0.00     0.010 A 
ATOM      8  C   UNL A   1      38.226  30.660  33.825  1.00  0.00     0.010 A 
ATOM      9  C   UNL A   1      38.067  32.886  35.515  1.00  0.00     0.016 A 
ATOM     10  C   UNL A   1      37.135  31.530  33.724  1.00  0.00     0.016 A 
BRANCH   6  11
ATOM     11  C   UNL A   1      40.383  30.023  34.917  1.00  0.00     0.141 C 
ATOM     12  N   UNL A   1      40.439  29.142  35.853  1.00  0.00    -0.181 NA
BRANCH  12  13
ATOM     13  N   UNL A   1      41.449  28.231  35.945  1.00  0.00    -0.244 N 
ATOM     14  C   UNL A   1      42.766  28.286  36.318  1.00  0.00     0.277 C 
ATOM     15  O   UNL A   1      43.427  27.239  36.251  1.00  0.00    -0.269 OA
ATOM     16  H   UNL A   1      41.166  27.325  35.683  1.00  0.00     0.193 HD
BRANCH  14  17
ATOM     17  C   UNL A   1      43.435  29.556  36.838  1.00  0.00     0.331 C 
BRANCH  17  18
ATOM     18  O   UNL A   1      42.618  30.462  37.561  1.00  0.00    -0.484 OA
BRANCH  18  19
ATOM     19  C   UNL A   1      43.127  31.702  37.823  1.00  0.00     0.120 A 
ATOM     20  C   UNL A   1      44.392  34.220  38.183  1.00  0.00    -0.042 A 
ATOM     21  C   UNL A   1      45.033  33.169  37.504  1.00  0.00     0.008 A 
ATOM     22  C   UNL A   1      43.110  33.965  38.690  1.00  0.00     0.008 A 
ATOM     23  C   UNL A   1      44.406  31.932  37.322  1.00  0.00     0.047 A 
ATOM     24  C   UNL A   1      42.483  32.725  38.510  1.00  0.00     0.047 A 
BRANCH  20  25
ATOM     25  C   UNL A   1      45.083  35.586  38.334  1.00  0.00    -0.013 C 
ATOM     26  C   UNL A   1      46.263  35.470  39.322  1.00  0.00     0.016 C 
ATOM     27  C   UNL A   1      44.149  36.699  38.861  1.00  0.00     0.016 C 
ATOM     28  C   UNL A   1      45.612  36.051  36.960  1.00  0.00     0.016 C 
ENDBRANCH  20  25
ENDBRANCH  18  19
ENDBRANCH  17  18
ENDBRANCH  14  17
ENDBRANCH  12  13
ENDBRANCH   6  11
ENDBRANCH   3   5
ENDBRANCH   2   3
ENDBRANCH   1   2
BRANCH   1  29
ATOM     29  C   UNL A   1      33.824  35.454  32.732  1.00  0.00     0.202 C 
BRANCH  29  30
ATOM     30  O   UNL A   1      33.467  36.814  32.486  1.00  0.00    -0.374 OA
BRANCH  30  31
ATOM     31  C   UNL A   1      33.230  37.184  31.126  1.00  0.00     0.202 C 
BRANCH  31  32
ATOM     32  C   UNL A   1      32.541  36.128  30.253  1.00  0.00     0.261 C 
BRANCH  32  33
ATOM     33  O   UNL A   1      33.322  35.816  29.084  1.00  0.00    -0.460 OA
BRANCH  33  34
ATOM     34  C   UNL A   1      33.193  34.548  28.630  1.00  0.00     0.338 C 
ATOM     35  O   UNL A   1      32.260  34.079  27.993  1.00  0.00    -0.246 OA
BRANCH  34  36
ATOM     36  C   UNL A   1      34.448  33.809  28.848  1.00  0.00     0.060 A 
ATOM     37  C   UNL A   1      34.488  32.903  29.916  1.00  0.00     0.016 A 
ATOM     38  C   UNL A   1      35.585  34.039  28.070  1.00  0.00     0.016 A 
ATOM     39  C   UNL A   1      35.680  32.260  30.243  1.00  0.00     0.010 A 
ATOM     40  C   UNL A   1      36.783  33.400  28.404  1.00  0.00     0.010 A 
ATOM     41  C   UNL A   1      36.843  32.535  29.513  1.00  0.00    -0.014 A 
BRANCH  41  42
ATOM     42  C   UNL A   1      38.149  32.030  30.002  1.00  0.00     0.031 A 
ATOM     43  C   UNL A   1      38.649  30.701  29.509  1.00  0.00     0.074 A 
ATOM     44  C   UNL A   1      38.896  32.759  30.850  1.00  0.00     0.049 A 
ATOM     45  N   UNL A   1      39.749  30.062  29.817  1.00  0.00    -0.248 NA
ATOM     46  C   UNL A   1      37.795  29.997  28.538  1.00  0.00     0.031 C 
ATOM     47  C   UNL A   1      38.545  34.082  31.365  1.00  0.00     0.029 A 
ATOM     48  N   UNL A   1      40.110  32.482  31.427  1.00  0.00    -0.354 N 
ATOM     49  C   UNL A   1      39.715  28.880  29.086  1.00  0.00     0.074 A 
ATOM     50  C   UNL A   1      38.475  28.877  28.342  1.00  0.00     0.031 C 
ATOM     51  C   UNL A   1      39.522  34.499  32.189  1.00  0.00     0.029 A 
ATOM     52  C   UNL A   1      40.548  33.462  32.282  1.00  0.00     0.049 A 
ATOM     53  H   UNL A   1      40.617  31.657  31.246  1.00  0.00     0.167 HD
ATOM     54  C   UNL A   1      40.637  27.890  29.035  1.00  0.00     0.031 A 
ATOM     55  C   UNL A   1      41.643  33.509  33.065  1.00  0.00     0.031 A 
ATOM     56  C   UNL A   1      41.865  27.885  29.783  1.00  0.00     0.049 A 
ATOM     57  C   UNL A   1      42.613  32.358  33.050  1.00  0.00     0.074 A 
ATOM     58  C   UNL A   1      42.870  26.932  29.785  1.00  0.00     0.029 A 
ATOM     59  N   UNL A   1      42.251  28.877  30.670  1.00  0.00    -0.354 N 
ATOM     60  N   UNL A   1      42.583  31.259  32.335  1.00  0.00    -0.248 NA
ATOM     61  C   UNL A   1      43.775  32.461  33.947  1.00  0.00     0.031 C 
ATOM     62  C   UNL A   1      43.839  27.322  30.716  1.00  0.00     0.029 A 
ATOM     63  C   UNL A   1      43.466  28.547  31.248  1.00  0.00     0.049 A 
ATOM     64  H   UNL A   1      41.739  29.695  30.860  1.00  0.00     0.167 HD
ATOM     65  C   UNL A   1      43.732  30.555  32.673  1.00  0.00     0.074 A 
ATOM     66  C   UNL A   1      44.444  31.357  33.647  1.00  0.00     0.031 C 
ATOM     67  C   UNL A   1      44.161  29.353  32.216  1.00  0.00     0.031 A 
BRANCH  54  68
ATOM     68  C   UNL A   1      40.330  26.708  28.159  1.00  0.00    -0.014 A 
ATOM     69  C   UNL A   1      39.522  25.653  28.612  1.00  0.00     0.009 A 
ATOM     70  C   UNL A   1      40.833  26.664  26.849  1.00  0.00     0.009 A 
ATOM     71  C   UNL A   1      39.251  24.563  27.781  1.00  0.00     0.001 A 
ATOM     72  C   UNL A   1      40.538  25.587  26.011  1.00  0.00     0.001 A 
ATOM     73  C   UNL A   1      39.756  24.533  26.481  1.00  0.00     0.000 A 
ENDBRANCH  54  68
BRANCH  55  74
ATOM     74  C   UNL A   1      41.876  34.680  33.949  1.00  0.00    -0.014 A 
ATOM     75  C   UNL A   1      42.615  35.784  33.497  1.00  0.00     0.009 A 
ATOM     76  C   UNL A   1      41.375  34.690  35.261  1.00  0.00     0.009 A 
ATOM     77  C   UNL A   1      42.869  36.862  34.349  1.00  0.00     0.001 A 
ATOM     78  C   UNL A   1      41.607  35.781  36.100  1.00  0.00     0.001 A 
ATOM     79  C   UNL A   1      42.361  36.862  35.648  1.00  0.00     0.000 A 
ENDBRANCH  55  74
BRANCH  67  80
ATOM     80  C   UNL A   1      45.478  28.847  32.736  1.00  0.00    -0.014 A 
ATOM     81  C   UNL A   1      45.542  27.813  33.682  1.00  0.00     0.009 A 
ATOM     82  C   UNL A   1      46.674  29.388  32.236  1.00  0.00     0.009 A 
ATOM     83  C   UNL A   1      46.778  27.352  34.141  1.00  0.00     0.001 A 
ATOM     84  C   UNL A   1      47.908  28.905  32.674  1.00  0.00     0.001 A 
ATOM     85  C   UNL A   1      47.959  27.894  33.633  1.00  0.00     0.000 A 
ENDBRANCH  67  80
ENDBRANCH  41  42
ENDBRANCH  34  36
ENDBRANCH  33  34
ENDBRANCH  32  33
ENDBRANCH  31  32
ENDBRANCH  30  31
ENDBRANCH  29  30
ENDBRANCH   1  29
TORSDOF 20
ENDMDL
MODEL 2
REMARK VINA RESULT:      -7.9      5.049     11.360
REMARK SMILES CC(C)(C)c1ccc(OCC(=O)N/N=C/c2ccc(C(=O)OCCOCCOC(=O)c3ccc(-c4c5nc(c(-c6ccccc6)c6ccc([nH]6)c(-c6ccccc6)c6nc(c(-c7ccccc7)c7ccc4[nH]7)C=C6)C=C5)cc3)cc2)cc1
REMARK SMILES IDX 23 1 22 2 20 3 21 4 19 5 16 6 17 7 80 8 18 9 79 10 15 11
REMARK SMILES IDX 14 12 13 13 11 14 12 15 10 17 9 18 8 19 5 20 6 21 82 22 7 23
REMARK SMILES IDX 81 24 2 25 1 26 3 27 4 28 24 29 25 30 26 31 27 32 28 33
REMARK SMILES IDX 29 34 30 35 31 36 32 37 78 38 33 39 77 40 34 41 35 42 36 43
REMARK SMILES IDX 71 44 37 45 76 46 70 47 72 48 38 49 75 50 69 51 68 52 39 54
REMARK SMILES IDX 61 55 46 56 60 57 47 58 50 59 59 60 73 61 48 62 49 63 58 65
REMARK SMILES IDX 74 66 51 67 40 68 41 69 45 70 42 71 44 72 43 73 62 74 63 75
REMARK SMILES IDX 67 76 64 77 66 78 65 79 52 80 53 81 57 82 54 83 56 84 55 85
REMARK H PARENT 13 16 72 53 50 64
REMARK Flexibility Score: inf
ROOT
ATOM      1  C   UNL A   1      33.162  34.559  28.631  1.00  0.00     0.261 C 
ENDROOT
BRANCH   1   2
ATOM      2  O   UNL A   1      33.698  33.255  28.908  1.00  0.00    -0.460 OA
BRANCH   2   3
ATOM      3  C   UNL A   1      34.515  32.759  27.949  1.00  0.00     0.338 C 
ATOM      4  O   UNL A   1      35.485  33.311  27.452  1.00  0.00    -0.246 OA
BRANCH   3   5
ATOM      5  C   UNL A   1      34.185  31.340  27.688  1.00  0.00     0.060 A 
ATOM      6  C   UNL A   1      33.422  28.713  27.208  1.00  0.00    -0.005 A 
ATOM      7  C   UNL A   1      32.450  29.715  27.227  1.00  0.00     0.010 A 
ATOM      8  C   UNL A   1      34.772  29.010  27.406  1.00  0.00     0.010 A 
ATOM      9  C   UNL A   1      32.832  31.027  27.487  1.00  0.00     0.016 A 
ATOM     10  C   UNL A   1      35.160  30.335  27.627  1.00  0.00     0.016 A 
BRANCH   6  11
ATOM     11  C   UNL A   1      32.966  27.333  26.984  1.00  0.00     0.141 C 
ATOM     12  N   UNL A   1      31.710  27.055  26.937  1.00  0.00    -0.181 NA
BRANCH  12  13
ATOM     13  N   UNL A   1      31.244  25.815  26.619  1.00  0.00    -0.244 N 
ATOM     14  C   UNL A   1      31.131  25.095  25.458  1.00  0.00     0.277 C 
ATOM     15  O   UNL A   1      30.613  23.971  25.526  1.00  0.00    -0.269 OA
ATOM     16  H   UNL A   1      30.911  25.323  27.404  1.00  0.00     0.193 HD
BRANCH  14  17
ATOM     17  C   UNL A   1      31.640  25.600  24.110  1.00  0.00     0.331 C 
BRANCH  17  18
ATOM     18  O   UNL A   1      32.038  26.959  24.042  1.00  0.00    -0.484 OA
BRANCH  18  19
ATOM     19  C   UNL A   1      31.082  27.884  23.729  1.00  0.00     0.120 A 
ATOM     20  C   UNL A   1      29.294  30.003  23.112  1.00  0.00    -0.042 A 
ATOM     21  C   UNL A   1      30.558  30.252  23.675  1.00  0.00     0.008 A 
ATOM     22  C   UNL A   1      28.948  28.663  22.887  1.00  0.00     0.008 A 
ATOM     23  C   UNL A   1      31.440  29.207  23.972  1.00  0.00     0.047 A 
ATOM     24  C   UNL A   1      29.829  27.616  23.187  1.00  0.00     0.047 A 
BRANCH  20  25
ATOM     25  C   UNL A   1      28.357  31.170  22.754  1.00  0.00    -0.013 C 
ATOM     26  C   UNL A   1      27.845  31.005  21.308  1.00  0.00     0.016 C 
ATOM     27  C   UNL A   1      29.031  32.558  22.850  1.00  0.00     0.016 C 
ATOM     28  C   UNL A   1      27.155  31.181  23.724  1.00  0.00     0.016 C 
ENDBRANCH  20  25
ENDBRANCH  18  19
ENDBRANCH  17  18
ENDBRANCH  14  17
ENDBRANCH  12  13
ENDBRANCH   6  11
ENDBRANCH   3   5
ENDBRANCH   2   3
ENDBRANCH   1   2
BRANCH   1  29
ATOM     29  C   UNL A   1      33.534  35.557  29.731  1.00  0.00     0.202 C 
BRANCH  29  30
ATOM     30  O   UNL A   1      32.886  35.369  30.989  1.00  0.00    -0.374 OA
BRANCH  30  31
ATOM     31  C   UNL A   1      33.639  35.696  32.160  1.00  0.00     0.202 C 
BRANCH  31  32
ATOM     32  C   UNL A   1      34.254  34.511  32.915  1.00  0.00     0.261 C 
BRANCH  32  33
ATOM     33  O   UNL A   1      35.463  34.052  32.282  1.00  0.00    -0.460 OA
BRANCH  33  34
ATOM     34  C   UNL A   1      35.464  32.747  31.925  1.00  0.00     0.338 C 
ATOM     35  O   UNL A   1      34.495  32.010  31.800  1.00  0.00    -0.246 OA
BRANCH  34  36
ATOM     36  C   UNL A   1      36.819  32.342  31.512  1.00  0.00     0.060 A 
ATOM     37  C   UNL A   1      37.253  32.737  30.240  1.00  0.00     0.016 A 
ATOM     38  C   UNL A   1      37.627  31.540  32.321  1.00  0.00     0.016 A 
ATOM     39  C   UNL A   1      38.478  32.289  29.750  1.00  0.00     0.010 A 
ATOM     40  C   UNL A   1      38.852  31.084  31.824  1.00  0.00     0.010 A 
ATOM     41  C   UNL A   1      39.266  31.428  30.524  1.00  0.00    -0.014 A 
BRANCH  41  42
ATOM     42  C   UNL A   1      40.449  30.774  29.914  1.00  0.00     0.031 A 
ATOM     43  C   UNL A   1      41.744  31.533  29.838  1.00  0.00     0.074 A 
ATOM     44  C   UNL A   1      40.380  29.509  29.461  1.00  0.00     0.049 A 
ATOM     45  N   UNL A   1      42.893  31.164  29.331  1.00  0.00    -0.248 NA
ATOM     46  C   UNL A   1      41.745  32.889  30.410  1.00  0.00     0.031 C 
ATOM     47  C   UNL A   1      39.197  28.653  29.518  1.00  0.00     0.029 A 
ATOM     48  N   UNL A   1      41.335  28.729  28.860  1.00  0.00    -0.354 N 
ATOM     49  C   UNL A   1      43.750  32.243  29.516  1.00  0.00     0.074 A 
ATOM     50  C   UNL A   1      42.982  33.290  30.154  1.00  0.00     0.031 C 
ATOM     51  C   UNL A   1      39.496  27.463  28.968  1.00  0.00     0.029 A 
ATOM     52  C   UNL A   1      40.879  27.488  28.494  1.00  0.00     0.049 A 
ATOM     53  H   UNL A   1      42.260  29.031  28.706  1.00  0.00     0.167 HD
ATOM     54  C   UNL A   1      45.059  32.350  29.188  1.00  0.00     0.031 A 
ATOM     55  C   UNL A   1      41.500  26.491  27.833  1.00  0.00     0.031 A 
ATOM     56  C   UNL A   1      45.821  31.315  28.543  1.00  0.00     0.049 A 
ATOM     57  C   UNL A   1      42.933  26.666  27.409  1.00  0.00     0.074 A 
ATOM     58  C   UNL A   1      47.159  31.325  28.185  1.00  0.00     0.029 A 
ATOM     59  N   UNL A   1      45.311  30.089  28.150  1.00  0.00    -0.354 N 
ATOM     60  N   UNL A   1      43.739  27.680  27.613  1.00  0.00    -0.248 NA
ATOM     61  C   UNL A   1      43.545  25.550  26.670  1.00  0.00     0.031 C 
ATOM     62  C   UNL A   1      47.443  30.125  27.526  1.00  0.00     0.029 A 
ATOM     63  C   UNL A   1      46.298  29.343  27.527  1.00  0.00     0.049 A 
ATOM     64  H   UNL A   1      44.384  29.791  28.294  1.00  0.00     0.167 HD
ATOM     65  C   UNL A   1      44.958  27.315  27.053  1.00  0.00     0.074 A 
ATOM     66  C   UNL A   1      44.789  25.981  26.514  1.00  0.00     0.031 C 
ATOM     67  C   UNL A   1      46.115  28.019  26.994  1.00  0.00     0.031 A 
BRANCH  54  68
ATOM     68  C   UNL A   1      45.742  33.653  29.496  1.00  0.00    -0.014 A 
ATOM     69  C   UNL A   1      46.403  33.862  30.716  1.00  0.00     0.009 A 
ATOM     70  C   UNL A   1      45.749  34.677  28.536  1.00  0.00     0.009 A 
ATOM     71  C   UNL A   1      47.029  35.082  30.981  1.00  0.00     0.001 A 
ATOM     72  C   UNL A   1      46.399  35.886  28.792  1.00  0.00     0.001 A 
ATOM     73  C   UNL A   1      47.030  36.091  30.018  1.00  0.00     0.000 A 
ENDBRANCH  54  68
BRANCH  55  74
ATOM     74  C   UNL A   1      40.765  25.240  27.511  1.00  0.00    -0.014 A 
ATOM     75  C   UNL A   1      41.123  24.024  28.112  1.00  0.00     0.009 A 
ATOM     76  C   UNL A   1      39.712  25.254  26.582  1.00  0.00     0.009 A 
ATOM     77  C   UNL A   1      40.457  22.844  27.770  1.00  0.00     0.001 A 
ATOM     78  C   UNL A   1      39.031  24.079  26.264  1.00  0.00     0.001 A 
ATOM     79  C   UNL A   1      39.410  22.872  26.851  1.00  0.00     0.000 A 
ENDBRANCH  55  74
BRANCH  67  80
ATOM     80  C   UNL A   1      47.299  27.348  26.356  1.00  0.00    -0.014 A 
ATOM     81  C   UNL A   1      47.541  27.448  24.978  1.00  0.00     0.009 A 
ATOM     82  C   UNL A   1      48.211  26.642  27.157  1.00  0.00     0.009 A 
ATOM     83  C   UNL A   1      48.654  26.826  24.410  1.00  0.00     0.001 A 
ATOM     84  C   UNL A   1      49.339  26.046  26.592  1.00  0.00     0.001 A 
ATOM     85  C   UNL A   1      49.555  26.130  25.217  1.00  0.00     0.000 A 
ENDBRANCH  67  80
ENDBRANCH  41  42
ENDBRANCH  34  36
ENDBRANCH  33  34
ENDBRANCH  32  33
ENDBRANCH  31  32
ENDBRANCH  30  31
ENDBRANCH  29  30
ENDBRANCH   1  29
TORSDOF 20
ENDMDL
MODEL 3
REMARK VINA RESULT:      -7.9      5.163     10.146
REMARK SMILES CC(C)(C)c1ccc(OCC(=O)N/N=C/c2ccc(C(=O)OCCOCCOC(=O)c3ccc(-c4c5nc(c(-c6ccccc6)c6ccc([nH]6)c(-c6ccccc6)c6nc(c(-c7ccccc7)c7ccc4[nH]7)C=C6)C=C5)cc3)cc2)cc1
REMARK SMILES IDX 23 1 22 2 20 3 21 4 19 5 16 6 17 7 80 8 18 9 79 10 15 11
REMARK SMILES IDX 14 12 13 13 11 14 12 15 10 17 9 18 8 19 5 20 6 21 82 22 7 23
REMARK SMILES IDX 81 24 2 25 1 26 3 27 4 28 24 29 25 30 26 31 27 32 28 33
REMARK SMILES IDX 29 34 30 35 31 36 32 37 78 38 33 39 77 40 34 41 35 42 36 43
REMARK SMILES IDX 71 44 37 45 76 46 70 47 72 48 38 49 75 50 69 51 68 52 39 54
REMARK SMILES IDX 61 55 46 56 60 57 47 58 50 59 59 60 73 61 48 62 49 63 58 65
REMARK SMILES IDX 74 66 51 67 40 68 41 69 45 70 42 71 44 72 43 73 62 74 63 75
REMARK SMILES IDX 67 76 64 77 66 78 65 79 52 80 53 81 57 82 54 83 56 84 55 85
REMARK H PARENT 13 16 72 53 50 64
REMARK Flexibility Score: inf
ROOT
ATOM      1  C   UNL A   1      32.270  29.365  25.297  1.00  0.00     0.261 C 
ENDROOT
BRANCH   1   2
ATOM      2  O   UNL A   1      32.929  28.804  26.444  1.00  0.00    -0.460 OA
BRANCH   2   3
ATOM      3  C   UNL A   1      32.272  27.776  27.032  1.00  0.00     0.338 C 
ATOM      4  O   UNL A   1      31.264  27.845  27.720  1.00  0.00    -0.246 OA
BRANCH   3   5
ATOM      5  C   UNL A   1      32.840  26.487  26.578  1.00  0.00     0.060 A 
ATOM      6  C   UNL A   1      33.796  23.998  25.798  1.00  0.00    -0.005 A 
ATOM      7  C   UNL A   1      32.555  24.087  26.433  1.00  0.00     0.010 A 
ATOM      8  C   UNL A   1      34.556  25.140  25.532  1.00  0.00     0.010 A 
ATOM      9  C   UNL A   1      32.087  25.333  26.839  1.00  0.00     0.016 A 
ATOM     10  C   UNL A   1      34.066  26.395  25.905  1.00  0.00     0.016 A 
BRANCH   6  11
ATOM     11  C   UNL A   1      34.276  22.656  25.436  1.00  0.00     0.141 C 
ATOM     12  N   UNL A   1      33.784  21.609  25.999  1.00  0.00    -0.181 NA
BRANCH  12  13
ATOM     13  N   UNL A   1      34.115  20.344  25.613  1.00  0.00    -0.244 N 
ATOM     14  C   UNL A   1      33.555  19.412  24.778  1.00  0.00     0.277 C 
ATOM     15  O   UNL A   1      34.123  18.315  24.679  1.00  0.00    -0.269 OA
ATOM     16  H   UNL A   1      34.949  20.027  26.031  1.00  0.00     0.193 HD
BRANCH  14  17
ATOM     17  C   UNL A   1      32.300  19.679  23.952  1.00  0.00     0.331 C 
BRANCH  17  18
ATOM     18  O   UNL A   1      32.469  20.403  22.744  1.00  0.00    -0.484 OA
BRANCH  18  19
ATOM     19  C   UNL A   1      32.240  21.750  22.777  1.00  0.00     0.120 A 
ATOM     20  C   UNL A   1      31.971  24.575  22.653  1.00  0.00    -0.042 A 
ATOM     21  C   UNL A   1      33.072  23.919  22.077  1.00  0.00     0.008 A 
ATOM     22  C   UNL A   1      31.021  23.777  23.306  1.00  0.00     0.008 A 
ATOM     23  C   UNL A   1      33.200  22.527  22.133  1.00  0.00     0.047 A 
ATOM     24  C   UNL A   1      31.151  22.382  23.366  1.00  0.00     0.047 A 
BRANCH  20  25
ATOM     25  C   UNL A   1      31.829  26.103  22.541  1.00  0.00    -0.013 C 
ATOM     26  C   UNL A   1      31.288  26.478  21.146  1.00  0.00     0.016 C 
ATOM     27  C   UNL A   1      33.158  26.866  22.742  1.00  0.00     0.016 C 
ATOM     28  C   UNL A   1      30.849  26.609  23.622  1.00  0.00     0.016 C 
ENDBRANCH  20  25
ENDBRANCH  18  19
ENDBRANCH  17  18
ENDBRANCH  14  17
ENDBRANCH  12  13
ENDBRANCH   6  11
ENDBRANCH   3   5
ENDBRANCH   2   3
ENDBRANCH   1   2
BRANCH   1  29
ATOM     29  C   UNL A   1      31.373  30.542  25.695  1.00  0.00     0.202 C 
BRANCH  29  30
ATOM     30  O   UNL A   1      31.785  31.280  26.846  1.00  0.00    -0.374 OA
BRANCH  30  31
ATOM     31  C   UNL A   1      31.563  32.692  26.821  1.00  0.00     0.202 C 
BRANCH  31  32
ATOM     32  C   UNL A   1      32.714  33.561  27.343  1.00  0.00     0.261 C 
BRANCH  32  33
ATOM     33  O   UNL A   1      32.373  34.197  28.589  1.00  0.00    -0.460 OA
BRANCH  33  34
ATOM     34  C   UNL A   1      33.336  34.991  29.111  1.00  0.00     0.338 C 
ATOM     35  O   UNL A   1      33.224  36.154  29.474  1.00  0.00    -0.246 OA
BRANCH  34  36
ATOM     36  C   UNL A   1      34.552  34.199  29.367  1.00  0.00     0.060 A 
ATOM     37  C   UNL A   1      34.495  33.238  30.385  1.00  0.00     0.016 A 
ATOM     38  C   UNL A   1      35.743  34.432  28.676  1.00  0.00     0.016 A 
ATOM     39  C   UNL A   1      35.644  32.539  30.750  1.00  0.00     0.010 A 
ATOM     40  C   UNL A   1      36.897  33.736  29.050  1.00  0.00     0.010 A 
ATOM     41  C   UNL A   1      36.859  32.813  30.111  1.00  0.00    -0.014 A 
BRANCH  41  42
ATOM     42  C   UNL A   1      38.115  32.240  30.653  1.00  0.00     0.031 A 
ATOM     43  C   UNL A   1      38.660  30.975  30.051  1.00  0.00     0.074 A 
ATOM     44  C   UNL A   1      38.779  32.854  31.649  1.00  0.00     0.049 A 
ATOM     45  N   UNL A   1      39.727  30.293  30.379  1.00  0.00    -0.248 NA
ATOM     46  C   UNL A   1      37.901  30.403  28.927  1.00  0.00     0.031 C 
ATOM     47  C   UNL A   1      38.380  34.107  32.286  1.00  0.00     0.029 A 
ATOM     48  N   UNL A   1      39.934  32.496  32.297  1.00  0.00    -0.354 N 
ATOM     49  C   UNL A   1      39.763  29.209  29.510  1.00  0.00     0.074 A 
ATOM     50  C   UNL A   1      38.597  29.307  28.660  1.00  0.00     0.031 C 
ATOM     51  C   UNL A   1      39.276  34.412  33.241  1.00  0.00     0.029 A 
ATOM     52  C   UNL A   1      40.290  33.362  33.301  1.00  0.00     0.049 A 
ATOM     53  H   UNL A   1      40.458  31.695  32.065  1.00  0.00     0.167 HD
ATOM     54  C   UNL A   1      40.687  28.222  29.424  1.00  0.00     0.031 A 
ATOM     55  C   UNL A   1      41.308  33.302  34.182  1.00  0.00     0.031 A 
ATOM     56  C   UNL A   1      41.840  28.115  30.276  1.00  0.00     0.049 A 
ATOM     57  C   UNL A   1      42.277  32.153  34.117  1.00  0.00     0.074 A 
ATOM     58  C   UNL A   1      42.842  27.159  30.255  1.00  0.00     0.029 A 
ATOM     59  N   UNL A   1      42.142  28.988  31.308  1.00  0.00    -0.354 N 
ATOM     60  N   UNL A   1      42.315  31.149  33.274  1.00  0.00    -0.248 NA
ATOM     61  C   UNL A   1      43.350  32.135  35.122  1.00  0.00     0.031 C 
ATOM     62  C   UNL A   1      43.720  27.424  31.311  1.00  0.00     0.029 A 
ATOM     63  C   UNL A   1      43.298  28.579  31.951  1.00  0.00     0.049 A 
ATOM     64  H   UNL A   1      41.613  29.783  31.549  1.00  0.00     0.167 HD
ATOM     65  C   UNL A   1      43.428  30.397  33.629  1.00  0.00     0.074 A 
ATOM     66  C   UNL A   1      44.046  31.068  34.754  1.00  0.00     0.031 C 
ATOM     67  C   UNL A   1      43.900  29.255  33.071  1.00  0.00     0.031 A 
BRANCH  54  68
ATOM     68  C   UNL A   1      40.464  27.158  28.386  1.00  0.00    -0.014 A 
ATOM     69  C   UNL A   1      41.006  27.269  27.097  1.00  0.00     0.009 A 
ATOM     70  C   UNL A   1      39.725  26.011  28.716  1.00  0.00     0.009 A 
ATOM     71  C   UNL A   1      40.784  26.268  26.148  1.00  0.00     0.001 A 
ATOM     72  C   UNL A   1      39.527  24.999  27.774  1.00  0.00     0.001 A 
ATOM     73  C   UNL A   1      40.049  25.133  26.489  1.00  0.00     0.000 A 
ENDBRANCH  54  68
BRANCH  55  74
ATOM     74  C   UNL A   1      41.457  34.356  35.220  1.00  0.00    -0.014 A 
ATOM     75  C   UNL A   1      42.184  35.525  34.955  1.00  0.00     0.009 A 
ATOM     76  C   UNL A   1      40.885  34.185  36.491  1.00  0.00     0.009 A 
ATOM     77  C   UNL A   1      42.359  36.490  35.950  1.00  0.00     0.001 A 
ATOM     78  C   UNL A   1      41.037  35.164  37.474  1.00  0.00     0.001 A 
ATOM     79  C   UNL A   1      41.781  36.312  37.206  1.00  0.00     0.000 A 
ENDBRANCH  55  74
BRANCH  67  80
ATOM     80  C   UNL A   1      45.164  28.677  33.644  1.00  0.00    -0.014 A 
ATOM     81  C   UNL A   1      45.130  27.717  34.667  1.00  0.00     0.009 A 
ATOM     82  C   UNL A   1      46.406  29.070  33.120  1.00  0.00     0.009 A 
ATOM     83  C   UNL A   1      46.317  27.187  35.175  1.00  0.00     0.001 A 
ATOM     84  C   UNL A   1      47.589  28.516  33.609  1.00  0.00     0.001 A 
ATOM     85  C   UNL A   1      47.545  27.582  34.643  1.00  0.00     0.000 A 
ENDBRANCH  67  80
ENDBRANCH  41  42
ENDBRANCH  34  36
ENDBRANCH  33  34
ENDBRANCH  32  33
ENDBRANCH  31  32
ENDBRANCH  30  31
ENDBRANCH  29  30
ENDBRANCH   1  29
TORSDOF 20
ENDMDL
