MODEL 1
REMARK VINA RESULT:     -10.3      0.000      0.000
REMARK SMILES C[C@@H]1[C@@H](C(=O)OCCOCCOC(=O)c2ccc(-c3c4nc(c(-c5ccccc5)c5ccc([nH]5)c(-c5ccccc5)c5nc(c(-c6ccccc6)c6ccc3[nH]6)C=C5)C=C4)cc2)CCN1C(=O)N1CC[N@H+]2CCCC[C@@H]2C1
REMARK SMILES IDX 9 1 8 2 7 3 6 4 4 5 5 6 3 7 1 8 2 9 65 10 63 11 64 12 66 13
REMARK SMILES IDX 67 14 68 15 69 16 77 17 70 18 76 19 71 20 75 21 72 22 74 24
REMARK SMILES IDX 73 25 10 26 11 27 12 28 13 29 14 30 15 31 16 32 62 33 17 34
REMARK SMILES IDX 61 35 18 36 19 37 20 38 55 39 21 40 60 41 54 42 56 43 22 44
REMARK SMILES IDX 59 45 53 46 52 47 23 49 45 50 30 51 44 52 31 53 34 54 43 55
REMARK SMILES IDX 57 56 32 57 33 58 42 60 58 61 35 62 24 63 25 64 29 65 26 66
REMARK SMILES IDX 28 67 27 68 46 69 47 70 51 71 48 72 50 73 49 74 36 75 37 76
REMARK SMILES IDX 41 77 38 78 40 79 39 80
REMARK H PARENT 71 23 56 48 34 59
REMARK Flexibility Score: inf
ROOT
ATOM      1  O   UNL A   1      37.854  21.835  25.704  1.00  0.00    -0.374 OA
ENDROOT
BRANCH   1   2
ATOM      2  C   UNL A   1      37.348  23.046  25.143  1.00  0.00     0.202 C 
BRANCH   2   3
ATOM      3  C   UNL A   1      35.996  23.539  25.668  1.00  0.00     0.261 C 
BRANCH   3   4
ATOM      4  O   UNL A   1      34.941  22.609  25.376  1.00  0.00    -0.463 OA
BRANCH   4   5
ATOM      5  C   UNL A   1      33.708  22.996  25.813  1.00  0.00     0.311 C 
ATOM      6  O   UNL A   1      33.505  23.930  26.575  1.00  0.00    -0.252 OA
BRANCH   5   7
ATOM      7  C   UNL A   1      32.629  22.194  25.103  1.00  0.00     0.123 C 
ATOM      8  C   UNL A   1      32.239  20.999  22.925  1.00  0.00     0.032 C 
ATOM      9  C   UNL A   1      32.878  22.223  23.589  1.00  0.00     0.098 C 
ATOM     10  N   UNL A   1      32.260  23.494  23.188  1.00  0.00    -0.321 N 
ATOM     11  C   UNL A   1      31.243  22.812  25.236  1.00  0.00     0.039 C 
ATOM     12  C   UNL A   1      31.221  23.876  24.143  1.00  0.00     0.122 C 
BRANCH  10  13
ATOM     13  C   UNL A   1      32.918  24.525  22.524  1.00  0.00     0.320 C 
ATOM     14  O   UNL A   1      33.485  24.340  21.446  1.00  0.00    -0.248 OA
BRANCH  13  15
ATOM     15  N   UNL A   1      32.819  25.781  23.067  1.00  0.00    -0.313 N 
ATOM     16  C   UNL A   1      32.104  26.830  22.348  1.00  0.00     0.183 C 
ATOM     17  C   UNL A   1      33.720  26.291  24.087  1.00  0.00     0.186 C 
ATOM     18  C   UNL A   1      31.393  27.789  23.332  1.00  0.00     0.284 C 
ATOM     19  C   UNL A   1      32.941  27.147  25.104  1.00  0.00     0.203 C 
ATOM     20  N   UNL A   1      32.266  28.286  24.428  1.00  0.00    -0.330 N 
ATOM     21  C   UNL A   1      33.885  27.651  26.202  1.00  0.00     0.067 C 
ATOM     22  C   UNL A   1      31.481  29.077  25.387  1.00  0.00     0.262 C 
ATOM     23  H   UNL A   1      32.983  28.892  24.030  1.00  0.00     0.348 HD
ATOM     24  C   UNL A   1      33.124  28.493  27.220  1.00  0.00     0.012 C 
ATOM     25  C   UNL A   1      32.357  29.612  26.522  1.00  0.00     0.062 C 
ENDBRANCH  13  15
ENDBRANCH  10  13
ENDBRANCH   5   7
ENDBRANCH   4   5
ENDBRANCH   3   4
ENDBRANCH   2   3
ENDBRANCH   1   2
BRANCH   1  26
ATOM     26  C   UNL A   1      37.744  20.644  24.926  1.00  0.00     0.202 C 
BRANCH  26  27
ATOM     27  C   UNL A   1      38.861  19.606  25.084  1.00  0.00     0.261 C 
BRANCH  27  28
ATOM     28  O   UNL A   1      39.624  19.818  26.286  1.00  0.00    -0.460 OA
BRANCH  28  29
ATOM     29  C   UNL A   1      40.965  19.754  26.121  1.00  0.00     0.338 C 
ATOM     30  O   UNL A   1      41.601  18.888  25.533  1.00  0.00    -0.246 OA
BRANCH  29  31
ATOM     31  C   UNL A   1      41.595  20.996  26.601  1.00  0.00     0.060 A 
ATOM     32  C   UNL A   1      41.574  21.238  27.981  1.00  0.00     0.016 A 
ATOM     33  C   UNL A   1      42.121  21.944  25.720  1.00  0.00     0.016 A 
ATOM     34  C   UNL A   1      42.029  22.453  28.484  1.00  0.00     0.010 A 
ATOM     35  C   UNL A   1      42.567  23.171  26.226  1.00  0.00     0.010 A 
ATOM     36  C   UNL A   1      42.487  23.443  27.604  1.00  0.00    -0.014 A 
BRANCH  36  37
ATOM     37  C   UNL A   1      42.729  24.813  28.117  1.00  0.00     0.031 A 
ATOM     38  C   UNL A   1      44.131  25.215  28.484  1.00  0.00     0.074 A 
ATOM     39  C   UNL A   1      41.724  25.699  28.216  1.00  0.00     0.049 A 
ATOM     40  N   UNL A   1      44.570  26.355  28.954  1.00  0.00    -0.248 NA
ATOM     41  C   UNL A   1      45.177  24.198  28.295  1.00  0.00     0.031 C 
ATOM     42  C   UNL A   1      40.331  25.447  27.847  1.00  0.00     0.029 A 
ATOM     43  N   UNL A   1      41.727  26.998  28.659  1.00  0.00    -0.354 N 
ATOM     44  C   UNL A   1      45.939  26.191  29.119  1.00  0.00     0.074 A 
ATOM     45  C   UNL A   1      46.255  24.834  28.727  1.00  0.00     0.031 C 
ATOM     46  C   UNL A   1      39.612  26.558  28.084  1.00  0.00     0.029 A 
ATOM     47  C   UNL A   1      40.486  27.585  28.647  1.00  0.00     0.049 A 
ATOM     48  H   UNL A   1      42.541  27.464  28.958  1.00  0.00     0.167 HD
ATOM     49  C   UNL A   1      46.854  27.090  29.553  1.00  0.00     0.031 A 
ATOM     50  C   UNL A   1      40.099  28.808  29.058  1.00  0.00     0.031 A 
ATOM     51  C   UNL A   1      46.543  28.434  29.957  1.00  0.00     0.049 A 
ATOM     52  C   UNL A   1      41.123  29.762  29.610  1.00  0.00     0.074 A 
ATOM     53  C   UNL A   1      47.403  29.423  30.400  1.00  0.00     0.029 A 
ATOM     54  N   UNL A   1      45.267  28.975  29.972  1.00  0.00    -0.354 N 
ATOM     55  N   UNL A   1      42.417  29.602  29.741  1.00  0.00    -0.248 NA
ATOM     56  C   UNL A   1      40.629  31.070  30.067  1.00  0.00     0.031 C 
ATOM     57  C   UNL A   1      46.640  30.548  30.732  1.00  0.00     0.029 A 
ATOM     58  C   UNL A   1      45.313  30.276  30.443  1.00  0.00     0.049 A 
ATOM     59  H   UNL A   1      44.450  28.504  29.689  1.00  0.00     0.167 HD
ATOM     60  C   UNL A   1      42.896  30.795  30.268  1.00  0.00     0.074 A 
ATOM     61  C   UNL A   1      41.755  31.674  30.422  1.00  0.00     0.031 C 
ATOM     62  C   UNL A   1      44.168  31.136  30.592  1.00  0.00     0.031 A 
BRANCH  49  63
ATOM     63  C   UNL A   1      48.282  26.630  29.644  1.00  0.00    -0.014 A 
ATOM     64  C   UNL A   1      49.202  26.903  28.621  1.00  0.00     0.009 A 
ATOM     65  C   UNL A   1      48.717  25.937  30.785  1.00  0.00     0.009 A 
ATOM     66  C   UNL A   1      50.524  26.463  28.724  1.00  0.00     0.001 A 
ATOM     67  C   UNL A   1      50.046  25.522  30.897  1.00  0.00     0.001 A 
ATOM     68  C   UNL A   1      50.945  25.778  29.864  1.00  0.00     0.000 A 
ENDBRANCH  49  63
BRANCH  50  69
ATOM     69  C   UNL A   1      38.667  29.198  28.981  1.00  0.00    -0.014 A 
ATOM     70  C   UNL A   1      38.138  29.749  27.805  1.00  0.00     0.009 A 
ATOM     71  C   UNL A   1      37.829  29.041  30.095  1.00  0.00     0.009 A 
ATOM     72  C   UNL A   1      36.802  30.155  27.754  1.00  0.00     0.001 A 
ATOM     73  C   UNL A   1      36.488  29.423  30.033  1.00  0.00     0.001 A 
ATOM     74  C   UNL A   1      35.978  29.988  28.867  1.00  0.00     0.000 A 
ENDBRANCH  50  69
BRANCH  62  75
ATOM     75  C   UNL A   1      44.396  32.526  31.114  1.00  0.00    -0.014 A 
ATOM     76  C   UNL A   1      44.638  33.600  30.244  1.00  0.00     0.009 A 
ATOM     77  C   UNL A   1      44.325  32.770  32.494  1.00  0.00     0.009 A 
ATOM     78  C   UNL A   1      44.836  34.887  30.752  1.00  0.00     0.001 A 
ATOM     79  C   UNL A   1      44.497  34.060  32.996  1.00  0.00     0.001 A 
ATOM     80  C   UNL A   1      44.760  35.115  32.126  1.00  0.00     0.000 A 
ENDBRANCH  62  75
ENDBRANCH  36  37
ENDBRANCH  29  31
ENDBRANCH  28  29
ENDBRANCH  27  28
ENDBRANCH  26  27
ENDBRANCH   1  26
TORSDOF 16
ENDMDL
MODEL 2
REMARK VINA RESULT:     -10.2      4.086      9.014
REMARK SMILES C[C@@H]1[C@@H](C(=O)OCCOCCOC(=O)c2ccc(-c3c4nc(c(-c5ccccc5)c5ccc([nH]5)c(-c5ccccc5)c5nc(c(-c6ccccc6)c6ccc3[nH]6)C=C5)C=C4)cc2)CCN1C(=O)N1CC[N@H+]2CCCC[C@@H]2C1
REMARK SMILES IDX 9 1 8 2 7 3 6 4 4 5 5 6 3 7 1 8 2 9 65 10 63 11 64 12 66 13
REMARK SMILES IDX 67 14 68 15 69 16 77 17 70 18 76 19 71 20 75 21 72 22 74 24
REMARK SMILES IDX 73 25 10 26 11 27 12 28 13 29 14 30 15 31 16 32 62 33 17 34
REMARK SMILES IDX 61 35 18 36 19 37 20 38 55 39 21 40 60 41 54 42 56 43 22 44
REMARK SMILES IDX 59 45 53 46 52 47 23 49 45 50 30 51 44 52 31 53 34 54 43 55
REMARK SMILES IDX 57 56 32 57 33 58 42 60 58 61 35 62 24 63 25 64 29 65 26 66
REMARK SMILES IDX 28 67 27 68 46 69 47 70 51 71 48 72 50 73 49 74 36 75 37 76
REMARK SMILES IDX 41 77 38 78 40 79 39 80
REMARK H PARENT 71 23 56 48 34 59
REMARK Flexibility Score: inf
ROOT
ATOM      1  O   UNL A   1      32.944  30.957  27.138  1.00  0.00    -0.374 OA
ENDROOT
BRANCH   1   2
ATOM      2  C   UNL A   1      32.675  29.559  27.234  1.00  0.00     0.202 C 
BRANCH   2   3
ATOM      3  C   UNL A   1      33.778  28.608  26.758  1.00  0.00     0.261 C 
BRANCH   3   4
ATOM      4  O   UNL A   1      33.316  27.741  25.709  1.00  0.00    -0.463 OA
BRANCH   4   5
ATOM      5  C   UNL A   1      32.591  28.366  24.737  1.00  0.00     0.311 C 
ATOM      6  O   UNL A   1      33.005  29.289  24.050  1.00  0.00    -0.252 OA
BRANCH   5   7
ATOM      7  C   UNL A   1      31.263  27.653  24.538  1.00  0.00     0.123 C 
ATOM      8  C   UNL A   1      30.267  25.352  24.732  1.00  0.00     0.032 C 
ATOM      9  C   UNL A   1      31.511  26.152  24.332  1.00  0.00     0.098 C 
ATOM     10  N   UNL A   1      31.819  26.074  22.897  1.00  0.00    -0.321 N 
ATOM     11  C   UNL A   1      30.553  28.064  23.254  1.00  0.00     0.039 C 
ATOM     12  C   UNL A   1      31.217  27.201  22.187  1.00  0.00     0.122 C 
BRANCH  10  13
ATOM     13  C   UNL A   1      32.988  25.541  22.361  1.00  0.00     0.320 C 
ATOM     14  O   UNL A   1      33.620  26.127  21.480  1.00  0.00    -0.248 OA
BRANCH  13  15
ATOM     15  N   UNL A   1      33.467  24.388  22.928  1.00  0.00    -0.313 N 
ATOM     16  C   UNL A   1      34.695  24.419  23.715  1.00  0.00     0.183 C 
ATOM     17  C   UNL A   1      33.107  23.056  22.470  1.00  0.00     0.186 C 
ATOM     18  C   UNL A   1      34.635  23.396  24.874  1.00  0.00     0.284 C 
ATOM     19  C   UNL A   1      32.951  22.104  23.671  1.00  0.00     0.203 C 
ATOM     20  N   UNL A   1      34.211  22.033  24.456  1.00  0.00    -0.330 N 
ATOM     21  C   UNL A   1      32.533  20.710  23.190  1.00  0.00     0.067 C 
ATOM     22  C   UNL A   1      34.051  21.165  25.632  1.00  0.00     0.262 C 
ATOM     23  H   UNL A   1      34.935  21.630  23.861  1.00  0.00     0.348 HD
ATOM     24  C   UNL A   1      32.366  19.761  24.371  1.00  0.00     0.012 C 
ATOM     25  C   UNL A   1      33.626  19.751  25.230  1.00  0.00     0.062 C 
ENDBRANCH  13  15
ENDBRANCH  10  13
ENDBRANCH   5   7
ENDBRANCH   4   5
ENDBRANCH   3   4
ENDBRANCH   2   3
ENDBRANCH   1   2
BRANCH   1  26
ATOM     26  C   UNL A   1      31.852  31.826  26.844  1.00  0.00     0.202 C 
BRANCH  26  27
ATOM     27  C   UNL A   1      32.134  33.332  26.881  1.00  0.00     0.261 C 
BRANCH  27  28
ATOM     28  O   UNL A   1      32.186  33.836  28.228  1.00  0.00    -0.460 OA
BRANCH  28  29
ATOM     29  C   UNL A   1      33.292  34.559  28.518  1.00  0.00     0.338 C 
ATOM     30  O   UNL A   1      33.361  35.768  28.706  1.00  0.00    -0.246 OA
BRANCH  29  31
ATOM     31  C   UNL A   1      34.434  33.664  28.769  1.00  0.00     0.060 A 
ATOM     32  C   UNL A   1      34.197  32.518  29.540  1.00  0.00     0.016 A 
ATOM     33  C   UNL A   1      35.724  33.973  28.334  1.00  0.00     0.016 A 
ATOM     34  C   UNL A   1      35.258  31.704  29.926  1.00  0.00     0.010 A 
ATOM     35  C   UNL A   1      36.792  33.161  28.733  1.00  0.00     0.010 A 
ATOM     36  C   UNL A   1      36.567  32.047  29.562  1.00  0.00    -0.014 A 
BRANCH  36  37
ATOM     37  C   UNL A   1      37.704  31.327  30.183  1.00  0.00     0.031 A 
ATOM     38  C   UNL A   1      38.021  31.580  31.631  1.00  0.00     0.074 A 
ATOM     39  C   UNL A   1      38.419  30.432  29.481  1.00  0.00     0.049 A 
ATOM     40  N   UNL A   1      38.968  31.066  32.375  1.00  0.00    -0.248 NA
ATOM     41  C   UNL A   1      37.153  32.537  32.337  1.00  0.00     0.031 C 
ATOM     42  C   UNL A   1      38.182  30.064  28.086  1.00  0.00     0.029 A 
ATOM     43  N   UNL A   1      39.495  29.667  29.855  1.00  0.00    -0.354 N 
ATOM     44  C   UNL A   1      38.813  31.639  33.630  1.00  0.00     0.074 A 
ATOM     45  C   UNL A   1      37.700  32.560  33.543  1.00  0.00     0.031 C 
ATOM     46  C   UNL A   1      39.091  29.144  27.719  1.00  0.00     0.029 A 
ATOM     47  C   UNL A   1      39.989  28.883  28.842  1.00  0.00     0.049 A 
ATOM     48  H   UNL A   1      39.877  29.681  30.762  1.00  0.00     0.167 HD
ATOM     49  C   UNL A   1      39.528  31.415  34.758  1.00  0.00     0.031 A 
ATOM     50  C   UNL A   1      41.055  28.059  28.822  1.00  0.00     0.031 A 
ATOM     51  C   UNL A   1      40.643  30.513  34.845  1.00  0.00     0.049 A 
ATOM     52  C   UNL A   1      41.882  27.888  30.067  1.00  0.00     0.074 A 
ATOM     53  C   UNL A   1      41.424  30.209  35.947  1.00  0.00     0.029 A 
ATOM     54  N   UNL A   1      41.139  29.771  33.786  1.00  0.00    -0.354 N 
ATOM     55  N   UNL A   1      41.712  28.418  31.253  1.00  0.00    -0.248 NA
ATOM     56  C   UNL A   1      43.048  26.996  29.968  1.00  0.00     0.031 C 
ATOM     57  C   UNL A   1      42.426  29.321  35.541  1.00  0.00     0.029 A 
ATOM     58  C   UNL A   1      42.234  29.031  34.200  1.00  0.00     0.049 A 
ATOM     59  H   UNL A   1      40.769  29.770  32.874  1.00  0.00     0.167 HD
ATOM     60  C   UNL A   1      42.729  27.906  32.049  1.00  0.00     0.074 A 
ATOM     61  C   UNL A   1      43.505  27.013  31.213  1.00  0.00     0.031 C 
ATOM     62  C   UNL A   1      42.996  28.149  33.355  1.00  0.00     0.031 A 
BRANCH  49  63
ATOM     63  C   UNL A   1      39.141  32.193  35.984  1.00  0.00    -0.014 A 
ATOM     64  C   UNL A   1      39.708  33.446  36.262  1.00  0.00     0.009 A 
ATOM     65  C   UNL A   1      38.171  31.676  36.857  1.00  0.00     0.009 A 
ATOM     66  C   UNL A   1      39.336  34.151  37.409  1.00  0.00     0.001 A 
ATOM     67  C   UNL A   1      37.782  32.395  37.989  1.00  0.00     0.001 A 
ATOM     68  C   UNL A   1      38.370  33.627  38.268  1.00  0.00     0.000 A 
ENDBRANCH  49  63
BRANCH  50  69
ATOM     69  C   UNL A   1      41.416  27.344  27.571  1.00  0.00    -0.014 A 
ATOM     70  C   UNL A   1      40.926  26.054  27.317  1.00  0.00     0.009 A 
ATOM     71  C   UNL A   1      42.273  27.941  26.634  1.00  0.00     0.009 A 
ATOM     72  C   UNL A   1      41.306  25.369  26.160  1.00  0.00     0.001 A 
ATOM     73  C   UNL A   1      42.629  27.265  25.466  1.00  0.00     0.001 A 
ATOM     74  C   UNL A   1      42.153  25.977  25.234  1.00  0.00     0.000 A 
ENDBRANCH  50  69
BRANCH  62  75
ATOM     75  C   UNL A   1      44.154  27.415  33.969  1.00  0.00    -0.014 A 
ATOM     76  C   UNL A   1      43.993  26.140  34.532  1.00  0.00     0.009 A 
ATOM     77  C   UNL A   1      45.434  27.992  33.944  1.00  0.00     0.009 A 
ATOM     78  C   UNL A   1      45.087  25.471  35.087  1.00  0.00     0.001 A 
ATOM     79  C   UNL A   1      46.529  27.311  34.476  1.00  0.00     0.001 A 
ATOM     80  C   UNL A   1      46.353  26.055  35.054  1.00  0.00     0.000 A 
ENDBRANCH  62  75
ENDBRANCH  36  37
ENDBRANCH  29  31
ENDBRANCH  28  29
ENDBRANCH  27  28
ENDBRANCH  26  27
ENDBRANCH   1  26
TORSDOF 16
ENDMDL
MODEL 3
REMARK VINA RESULT:     -10.1      2.273      3.926
REMARK SMILES C[C@@H]1[C@@H](C(=O)OCCOCCOC(=O)c2ccc(-c3c4nc(c(-c5ccccc5)c5ccc([nH]5)c(-c5ccccc5)c5nc(c(-c6ccccc6)c6ccc3[nH]6)C=C5)C=C4)cc2)CCN1C(=O)N1CC[N@H+]2CCCC[C@@H]2C1
REMARK SMILES IDX 9 1 8 2 7 3 6 4 4 5 5 6 3 7 1 8 2 9 65 10 63 11 64 12 66 13
REMARK SMILES IDX 67 14 68 15 69 16 77 17 70 18 76 19 71 20 75 21 72 22 74 24
REMARK SMILES IDX 73 25 10 26 11 27 12 28 13 29 14 30 15 31 16 32 62 33 17 34
REMARK SMILES IDX 61 35 18 36 19 37 20 38 55 39 21 40 60 41 54 42 56 43 22 44
REMARK SMILES IDX 59 45 53 46 52 47 23 49 45 50 30 51 44 52 31 53 34 54 43 55
REMARK SMILES IDX 57 56 32 57 33 58 42 60 58 61 35 62 24 63 25 64 29 65 26 66
REMARK SMILES IDX 28 67 27 68 46 69 47 70 51 71 48 72 50 73 49 74 36 75 37 76
REMARK SMILES IDX 41 77 38 78 40 79 39 80
REMARK H PARENT 71 23 56 48 34 59
REMARK Flexibility Score: inf
ROOT
ATOM      1  O   UNL A   1      35.152  22.472  25.076  1.00  0.00    -0.374 OA
ENDROOT
BRANCH   1   2
ATOM      2  C   UNL A   1      35.114  23.622  25.919  1.00  0.00     0.202 C 
BRANCH   2   3
ATOM      3  C   UNL A   1      33.747  24.284  26.125  1.00  0.00     0.261 C 
BRANCH   3   4
ATOM      4  O   UNL A   1      33.836  25.716  26.067  1.00  0.00    -0.463 OA
BRANCH   4   5
ATOM      5  C   UNL A   1      32.723  26.371  26.505  1.00  0.00     0.311 C 
ATOM      6  O   UNL A   1      31.691  25.821  26.861  1.00  0.00    -0.252 OA
BRANCH   5   7
ATOM      7  C   UNL A   1      33.007  27.860  26.622  1.00  0.00     0.123 C 
ATOM      8  C   UNL A   1      31.775  30.040  26.868  1.00  0.00     0.032 C 
ATOM      9  C   UNL A   1      31.760  28.655  26.211  1.00  0.00     0.098 C 
ATOM     10  N   UNL A   1      31.880  28.702  24.747  1.00  0.00    -0.321 N 
ATOM     11  C   UNL A   1      34.064  28.345  25.639  1.00  0.00     0.039 C 
ATOM     12  C   UNL A   1      33.279  28.559  24.349  1.00  0.00     0.122 C 
BRANCH  10  13
ATOM     13  C   UNL A   1      30.918  28.240  23.854  1.00  0.00     0.320 C 
ATOM     14  O   UNL A   1      29.928  28.915  23.565  1.00  0.00    -0.248 OA
BRANCH  13  15
ATOM     15  N   UNL A   1      31.170  27.048  23.225  1.00  0.00    -0.313 N 
ATOM     16  C   UNL A   1      31.703  27.039  21.867  1.00  0.00     0.183 C 
ATOM     17  C   UNL A   1      30.559  25.788  23.614  1.00  0.00     0.186 C 
ATOM     18  C   UNL A   1      32.652  25.836  21.653  1.00  0.00     0.284 C 
ATOM     19  C   UNL A   1      31.580  24.641  23.489  1.00  0.00     0.203 C 
ATOM     20  N   UNL A   1      32.087  24.535  22.096  1.00  0.00    -0.330 N 
ATOM     21  C   UNL A   1      30.947  23.319  23.938  1.00  0.00     0.067 C 
ATOM     22  C   UNL A   1      33.099  23.474  21.983  1.00  0.00     0.262 C 
ATOM     23  H   UNL A   1      31.304  24.290  21.490  1.00  0.00     0.348 HD
ATOM     24  C   UNL A   1      31.951  22.177  23.827  1.00  0.00     0.012 C 
ATOM     25  C   UNL A   1      32.540  22.118  22.422  1.00  0.00     0.062 C 
ENDBRANCH  13  15
ENDBRANCH  10  13
ENDBRANCH   5   7
ENDBRANCH   4   5
ENDBRANCH   3   4
ENDBRANCH   2   3
ENDBRANCH   1   2
BRANCH   1  26
ATOM     26  C   UNL A   1      35.618  21.247  25.641  1.00  0.00     0.202 C 
BRANCH  26  27
ATOM     27  C   UNL A   1      36.925  20.677  25.080  1.00  0.00     0.261 C 
BRANCH  27  28
ATOM     28  O   UNL A   1      37.984  21.651  25.089  1.00  0.00    -0.460 OA
BRANCH  28  29
ATOM     29  C   UNL A   1      38.993  21.380  25.949  1.00  0.00     0.338 C 
ATOM     30  O   UNL A   1      39.584  20.316  26.089  1.00  0.00    -0.246 OA
BRANCH  29  31
ATOM     31  C   UNL A   1      39.445  22.617  26.607  1.00  0.00     0.060 A 
ATOM     32  C   UNL A   1      38.805  23.810  26.246  1.00  0.00     0.016 A 
ATOM     33  C   UNL A   1      40.523  22.629  27.495  1.00  0.00     0.016 A 
ATOM     34  C   UNL A   1      39.275  25.028  26.728  1.00  0.00     0.010 A 
ATOM     35  C   UNL A   1      41.002  23.855  27.970  1.00  0.00     0.010 A 
ATOM     36  C   UNL A   1      40.404  25.060  27.557  1.00  0.00    -0.014 A 
BRANCH  36  37
ATOM     37  C   UNL A   1      41.046  26.362  27.858  1.00  0.00     0.031 A 
ATOM     38  C   UNL A   1      42.407  26.651  27.286  1.00  0.00     0.074 A 
ATOM     39  C   UNL A   1      40.412  27.289  28.596  1.00  0.00     0.049 A 
ATOM     40  N   UNL A   1      43.153  27.718  27.422  1.00  0.00    -0.248 NA
ATOM     41  C   UNL A   1      43.004  25.599  26.447  1.00  0.00     0.031 C 
ATOM     42  C   UNL A   1      39.073  27.148  29.166  1.00  0.00     0.029 A 
ATOM     43  N   UNL A   1      40.817  28.540  28.988  1.00  0.00    -0.354 N 
ATOM     44  C   UNL A   1      44.307  27.464  26.691  1.00  0.00     0.074 A 
ATOM     45  C   UNL A   1      44.176  26.134  26.137  1.00  0.00     0.031 C 
ATOM     46  C   UNL A   1      38.769  28.271  29.841  1.00  0.00     0.029 A 
ATOM     47  C   UNL A   1      39.901  29.193  29.774  1.00  0.00     0.049 A 
ATOM     48  H   UNL A   1      41.684  28.931  28.732  1.00  0.00     0.167 HD
ATOM     49  C   UNL A   1      45.378  28.268  26.493  1.00  0.00     0.031 A 
ATOM     50  C   UNL A   1      39.975  30.392  30.382  1.00  0.00     0.031 A 
ATOM     51  C   UNL A   1      45.519  29.584  27.053  1.00  0.00     0.049 A 
ATOM     52  C   UNL A   1      41.210  31.234  30.211  1.00  0.00     0.074 A 
ATOM     53  C   UNL A   1      46.562  30.481  26.900  1.00  0.00     0.029 A 
ATOM     54  N   UNL A   1      44.587  30.191  27.880  1.00  0.00    -0.354 N 
ATOM     55  N   UNL A   1      42.284  30.993  29.500  1.00  0.00    -0.248 NA
ATOM     56  C   UNL A   1      41.238  32.520  30.925  1.00  0.00     0.031 C 
ATOM     57  C   UNL A   1      46.285  31.611  27.676  1.00  0.00     0.029 A 
ATOM     58  C   UNL A   1      45.044  31.439  28.268  1.00  0.00     0.049 A 
ATOM     59  H   UNL A   1      43.728  29.794  28.151  1.00  0.00     0.167 HD
ATOM     60  C   UNL A   1      43.103  32.104  29.657  1.00  0.00     0.074 A 
ATOM     61  C   UNL A   1      42.395  33.026  30.522  1.00  0.00     0.031 C 
ATOM     62  C   UNL A   1      44.328  32.343  29.130  1.00  0.00     0.031 A 
BRANCH  49  63
ATOM     63  C   UNL A   1      46.501  27.724  25.657  1.00  0.00    -0.014 A 
ATOM     64  C   UNL A   1      46.570  27.972  24.277  1.00  0.00     0.009 A 
ATOM     65  C   UNL A   1      47.522  26.976  26.265  1.00  0.00     0.009 A 
ATOM     66  C   UNL A   1      47.622  27.455  23.518  1.00  0.00     0.001 A 
ATOM     67  C   UNL A   1      48.585  26.482  25.508  1.00  0.00     0.001 A 
ATOM     68  C   UNL A   1      48.630  26.715  24.135  1.00  0.00     0.000 A 
ENDBRANCH  49  63
BRANCH  50  69
ATOM     69  C   UNL A   1      38.850  30.866  31.230  1.00  0.00    -0.014 A 
ATOM     70  C   UNL A   1      37.828  31.657  30.685  1.00  0.00     0.009 A 
ATOM     71  C   UNL A   1      38.807  30.546  32.595  1.00  0.00     0.009 A 
ATOM     72  C   UNL A   1      36.797  32.136  31.497  1.00  0.00     0.001 A 
ATOM     73  C   UNL A   1      37.762  31.004  33.399  1.00  0.00     0.001 A 
ATOM     74  C   UNL A   1      36.763  31.805  32.852  1.00  0.00     0.000 A 
ENDBRANCH  50  69
BRANCH  62  75
ATOM     75  C   UNL A   1      44.968  33.665  29.448  1.00  0.00    -0.014 A 
ATOM     76  C   UNL A   1      44.737  34.797  28.651  1.00  0.00     0.009 A 
ATOM     77  C   UNL A   1      45.779  33.789  30.587  1.00  0.00     0.009 A 
ATOM     78  C   UNL A   1      45.332  36.019  28.972  1.00  0.00     0.001 A 
ATOM     79  C   UNL A   1      46.352  35.016  30.920  1.00  0.00     0.001 A 
ATOM     80  C   UNL A   1      46.135  36.128  30.108  1.00  0.00     0.000 A 
ENDBRANCH  62  75
ENDBRANCH  36  37
ENDBRANCH  29  31
ENDBRANCH  28  29
ENDBRANCH  27  28
ENDBRANCH  26  27
ENDBRANCH   1  26
TORSDOF 16
ENDMDL
