MODEL 1
REMARK VINA RESULT:     -10.8      0.000      0.000
REMARK SMILES O=C(C[C@H]1C[C@H]2CC[C@@H](C1)N2C(=O)c1c[nH]c(=O)[nH]1)OCCOCCOC(=O)c1ccc(-c2c3nc(c(-c4ccccc4)c4ccc([nH]4)c(-c4ccccc4)c4nc(c(-c5ccccc5)c5ccc2[nH]5)C=C4)C=C3)cc1
REMARK SMILES IDX 22 1 21 2 20 3 2 4 1 5 3 6 4 7 5 8 10 9 6 10 9 11 7 12 11 13
REMARK SMILES IDX 8 14 12 15 13 16 14 17 15 18 19 19 16 20 17 21 18 24 23 25
REMARK SMILES IDX 24 26 25 27 26 28 27 29 28 30 29 31 30 32 76 33 31 34 75 35
REMARK SMILES IDX 32 36 33 37 34 38 69 39 35 40 74 41 68 42 70 43 36 44 73 45
REMARK SMILES IDX 67 46 66 47 37 49 59 50 44 51 58 52 45 53 48 54 57 55 71 56
REMARK SMILES IDX 46 57 47 58 56 60 72 61 49 62 38 63 39 64 43 65 40 66 42 67
REMARK SMILES IDX 41 68 60 69 61 70 65 71 62 72 64 73 63 74 50 75 51 76 55 77
REMARK SMILES IDX 52 78 54 79 53 80
REMARK H PARENT 19 22 16 23 70 48 48 59
REMARK Flexibility Score: inf
ROOT
ATOM      1  C   UNL A   1      32.502  29.692  25.874  1.00  0.00     0.202 C 
ENDROOT
BRANCH   1   2
ATOM      2  C   UNL A   1      31.390  28.862  25.204  1.00  0.00     0.261 C 
BRANCH   2   3
ATOM      3  O   UNL A   1      30.876  29.191  23.899  1.00  0.00    -0.463 OA
BRANCH   3   4
ATOM      4  C   UNL A   1      30.302  28.258  23.121  1.00  0.00     0.306 C 
ATOM      5  O   UNL A   1      29.912  28.511  21.984  1.00  0.00    -0.252 OA
BRANCH   4   6
ATOM      6  C   UNL A   1      30.258  26.846  23.689  1.00  0.00     0.126 C 
BRANCH   6   7
ATOM      7  C   UNL A   1      31.204  25.744  23.168  1.00  0.00     0.004 C 
ATOM      8  C   UNL A   1      32.682  25.812  23.646  1.00  0.00     0.029 C 
ATOM      9  C   UNL A   1      30.574  24.345  23.455  1.00  0.00     0.029 C 
ATOM     10  C   UNL A   1      33.084  24.896  24.809  1.00  0.00     0.086 C 
ATOM     11  C   UNL A   1      31.173  23.605  24.668  1.00  0.00     0.086 C 
ATOM     12  C   UNL A   1      32.339  25.179  26.110  1.00  0.00     0.027 C 
ATOM     13  N   UNL A   1      32.614  23.574  24.485  1.00  0.00    -0.331 N 
ATOM     14  C   UNL A   1      31.022  24.404  25.973  1.00  0.00     0.027 C 
BRANCH  13  15
ATOM     15  C   UNL A   1      33.468  22.546  24.194  1.00  0.00     0.272 C 
ATOM     16  O   UNL A   1      34.432  22.664  23.440  1.00  0.00    -0.267 OA
BRANCH  15  17
ATOM     17  C   UNL A   1      33.250  21.260  24.885  1.00  0.00     0.125 A 
ATOM     18  C   UNL A   1      33.462  20.940  26.169  1.00  0.00     0.119 A 
ATOM     19  N   UNL A   1      32.683  20.181  24.250  1.00  0.00    -0.302 N 
ATOM     20  N   UNL A   1      33.066  19.640  26.361  1.00  0.00    -0.312 N 
ATOM     21  C   UNL A   1      32.561  19.127  25.156  1.00  0.00     0.323 A 
ATOM     22  H   UNL A   1      32.408  20.155  23.305  1.00  0.00     0.172 HD
ATOM     23  H   UNL A   1      33.126  19.145  27.210  1.00  0.00     0.171 HD
ATOM     24  O   UNL A   1      32.118  18.014  24.954  1.00  0.00    -0.248 OA
ENDBRANCH  15  17
ENDBRANCH  13  15
ENDBRANCH   6   7
ENDBRANCH   4   6
ENDBRANCH   3   4
ENDBRANCH   2   3
ENDBRANCH   1   2
BRANCH   1  25
ATOM     25  O   UNL A   1      32.088  30.562  26.917  1.00  0.00    -0.374 OA
BRANCH  25  26
ATOM     26  C   UNL A   1      31.379  31.730  26.479  1.00  0.00     0.202 C 
BRANCH  26  27
ATOM     27  C   UNL A   1      32.010  33.029  26.983  1.00  0.00     0.261 C 
BRANCH  27  28
ATOM     28  O   UNL A   1      32.996  32.730  27.977  1.00  0.00    -0.460 OA
BRANCH  28  29
ATOM     29  C   UNL A   1      34.043  33.596  28.012  1.00  0.00     0.338 C 
ATOM     30  O   UNL A   1      34.000  34.803  27.961  1.00  0.00    -0.246 OA
BRANCH  29  31
ATOM     31  C   UNL A   1      35.281  32.831  28.303  1.00  0.00     0.060 A 
ATOM     32  C   UNL A   1      35.166  31.440  28.427  1.00  0.00     0.016 A 
ATOM     33  C   UNL A   1      36.533  33.448  28.416  1.00  0.00     0.016 A 
ATOM     34  C   UNL A   1      36.284  30.674  28.744  1.00  0.00     0.010 A 
ATOM     35  C   UNL A   1      37.656  32.681  28.719  1.00  0.00     0.010 A 
ATOM     36  C   UNL A   1      37.520  31.301  28.943  1.00  0.00    -0.014 A 
BRANCH  36  37
ATOM     37  C   UNL A   1      38.601  30.563  29.633  1.00  0.00     0.031 A 
ATOM     38  C   UNL A   1      38.748  30.764  31.116  1.00  0.00     0.074 A 
ATOM     39  C   UNL A   1      39.401  29.712  28.970  1.00  0.00     0.049 A 
ATOM     40  N   UNL A   1      39.593  30.215  31.950  1.00  0.00    -0.248 NA
ATOM     41  C   UNL A   1      37.818  31.719  31.745  1.00  0.00     0.031 C 
ATOM     42  C   UNL A   1      39.329  29.415  27.541  1.00  0.00     0.029 A 
ATOM     43  N   UNL A   1      40.433  28.934  29.427  1.00  0.00    -0.354 N 
ATOM     44  C   UNL A   1      39.303  30.768  33.193  1.00  0.00     0.074 A 
ATOM     45  C   UNL A   1      38.237  31.723  32.998  1.00  0.00     0.031 C 
ATOM     46  C   UNL A   1      40.272  28.504  27.239  1.00  0.00     0.029 A 
ATOM     47  C   UNL A   1      41.026  28.177  28.448  1.00  0.00     0.049 A 
ATOM     48  H   UNL A   1      40.720  28.919  30.369  1.00  0.00     0.167 HD
ATOM     49  C   UNL A   1      39.865  30.495  34.392  1.00  0.00     0.031 A 
ATOM     50  C   UNL A   1      42.060  27.319  28.526  1.00  0.00     0.031 A 
ATOM     51  C   UNL A   1      40.929  29.550  34.578  1.00  0.00     0.049 A 
ATOM     52  C   UNL A   1      42.705  27.071  29.865  1.00  0.00     0.074 A 
ATOM     53  C   UNL A   1      41.559  29.180  35.753  1.00  0.00     0.029 A 
ATOM     54  N   UNL A   1      41.524  28.827  33.555  1.00  0.00    -0.354 N 
ATOM     55  N   UNL A   1      42.398  27.569  31.040  1.00  0.00    -0.248 NA
ATOM     56  C   UNL A   1      43.829  26.124  29.889  1.00  0.00     0.031 C 
ATOM     57  C   UNL A   1      42.577  28.274  35.431  1.00  0.00     0.029 A 
ATOM     58  C   UNL A   1      42.532  28.029  34.067  1.00  0.00     0.049 A 
ATOM     59  H   UNL A   1      41.269  28.876  32.606  1.00  0.00     0.167 HD
ATOM     60  C   UNL A   1      43.259  26.962  31.947  1.00  0.00     0.074 A 
ATOM     61  C   UNL A   1      44.095  26.057  31.186  1.00  0.00     0.031 C 
ATOM     62  C   UNL A   1      43.347  27.131  33.290  1.00  0.00     0.031 A 
BRANCH  49  63
ATOM     63  C   UNL A   1      39.360  31.267  35.579  1.00  0.00    -0.014 A 
ATOM     64  C   UNL A   1      38.250  30.829  36.322  1.00  0.00     0.009 A 
ATOM     65  C   UNL A   1      40.003  32.455  35.958  1.00  0.00     0.009 A 
ATOM     66  C   UNL A   1      37.772  31.588  37.393  1.00  0.00     0.001 A 
ATOM     67  C   UNL A   1      39.543  33.193  37.049  1.00  0.00     0.001 A 
ATOM     68  C   UNL A   1      38.421  32.767  37.758  1.00  0.00     0.000 A 
ENDBRANCH  49  63
BRANCH  50  69
ATOM     69  C   UNL A   1      42.541  26.612  27.311  1.00  0.00    -0.014 A 
ATOM     70  C   UNL A   1      41.994  25.373  26.941  1.00  0.00     0.009 A 
ATOM     71  C   UNL A   1      43.566  27.160  26.525  1.00  0.00     0.009 A 
ATOM     72  C   UNL A   1      42.484  24.685  25.828  1.00  0.00     0.001 A 
ATOM     73  C   UNL A   1      44.035  26.483  25.396  1.00  0.00     0.001 A 
ATOM     74  C   UNL A   1      43.500  25.242  25.055  1.00  0.00     0.000 A 
ENDBRANCH  50  69
BRANCH  62  75
ATOM     75  C   UNL A   1      44.338  26.274  34.028  1.00  0.00    -0.014 A 
ATOM     76  C   UNL A   1      43.951  25.093  34.680  1.00  0.00     0.009 A 
ATOM     77  C   UNL A   1      45.693  26.645  34.038  1.00  0.00     0.009 A 
ATOM     78  C   UNL A   1      44.895  24.325  35.366  1.00  0.00     0.001 A 
ATOM     79  C   UNL A   1      46.639  25.858  34.695  1.00  0.00     0.001 A 
ATOM     80  C   UNL A   1      46.238  24.706  35.370  1.00  0.00     0.000 A 
ENDBRANCH  62  75
ENDBRANCH  36  37
ENDBRANCH  29  31
ENDBRANCH  28  29
ENDBRANCH  27  28
ENDBRANCH  26  27
ENDBRANCH  25  26
ENDBRANCH   1  25
TORSDOF 17
ENDMDL
MODEL 2
REMARK VINA RESULT:     -10.7      2.683      8.497
REMARK SMILES O=C(C[C@H]1C[C@H]2CC[C@@H](C1)N2C(=O)c1c[nH]c(=O)[nH]1)OCCOCCOC(=O)c1ccc(-c2c3nc(c(-c4ccccc4)c4ccc([nH]4)c(-c4ccccc4)c4nc(c(-c5ccccc5)c5ccc2[nH]5)C=C4)C=C3)cc1
REMARK SMILES IDX 22 1 21 2 20 3 2 4 1 5 3 6 4 7 5 8 10 9 6 10 9 11 7 12 11 13
REMARK SMILES IDX 8 14 12 15 13 16 14 17 15 18 19 19 16 20 17 21 18 24 23 25
REMARK SMILES IDX 24 26 25 27 26 28 27 29 28 30 29 31 30 32 76 33 31 34 75 35
REMARK SMILES IDX 32 36 33 37 34 38 69 39 35 40 74 41 68 42 70 43 36 44 73 45
REMARK SMILES IDX 67 46 66 47 37 49 59 50 44 51 58 52 45 53 48 54 57 55 71 56
REMARK SMILES IDX 46 57 47 58 56 60 72 61 49 62 38 63 39 64 43 65 40 66 42 67
REMARK SMILES IDX 41 68 60 69 61 70 65 71 62 72 64 73 63 74 50 75 51 76 55 77
REMARK SMILES IDX 52 78 54 79 53 80
REMARK H PARENT 19 22 16 23 70 48 48 59
REMARK Flexibility Score: inf
ROOT
ATOM      1  C   UNL A   1      40.860  20.652  26.496  1.00  0.00     0.202 C 
ENDROOT
BRANCH   1   2
ATOM      2  C   UNL A   1      39.976  21.855  26.116  1.00  0.00     0.261 C 
BRANCH   2   3
ATOM      3  O   UNL A   1      38.565  21.886  26.407  1.00  0.00    -0.463 OA
BRANCH   3   4
ATOM      4  C   UNL A   1      37.660  21.478  25.503  1.00  0.00     0.306 C 
ATOM      5  O   UNL A   1      37.826  20.465  24.828  1.00  0.00    -0.252 OA
BRANCH   4   6
ATOM      6  C   UNL A   1      36.368  22.282  25.438  1.00  0.00     0.126 C 
BRANCH   6   7
ATOM      7  C   UNL A   1      36.225  23.492  24.492  1.00  0.00     0.004 C 
ATOM      8  C   UNL A   1      35.564  23.220  23.111  1.00  0.00     0.029 C 
ATOM      9  C   UNL A   1      35.512  24.657  25.248  1.00  0.00     0.029 C 
ATOM     10  C   UNL A   1      34.079  23.578  22.963  1.00  0.00     0.086 C 
ATOM     11  C   UNL A   1      34.019  24.831  24.903  1.00  0.00     0.086 C 
ATOM     12  C   UNL A   1      33.156  22.794  23.892  1.00  0.00     0.027 C 
ATOM     13  N   UNL A   1      33.919  24.921  23.457  1.00  0.00    -0.331 N 
ATOM     14  C   UNL A   1      33.197  23.569  25.215  1.00  0.00     0.027 C 
BRANCH  13  15
ATOM     15  C   UNL A   1      33.614  25.970  22.634  1.00  0.00     0.272 C 
ATOM     16  O   UNL A   1      33.551  25.869  21.409  1.00  0.00    -0.267 OA
BRANCH  15  17
ATOM     17  C   UNL A   1      33.276  27.260  23.267  1.00  0.00     0.125 A 
ATOM     18  C   UNL A   1      34.061  28.319  23.507  1.00  0.00     0.119 A 
ATOM     19  N   UNL A   1      31.990  27.571  23.639  1.00  0.00    -0.302 N 
ATOM     20  N   UNL A   1      33.292  29.307  24.069  1.00  0.00    -0.312 N 
ATOM     21  C   UNL A   1      31.964  28.862  24.165  1.00  0.00     0.323 A 
ATOM     22  H   UNL A   1      31.210  26.976  23.550  1.00  0.00     0.172 HD
ATOM     23  H   UNL A   1      33.620  30.189  24.360  1.00  0.00     0.171 HD
ATOM     24  O   UNL A   1      31.011  29.472  24.607  1.00  0.00    -0.248 OA
ENDBRANCH  15  17
ENDBRANCH  13  15
ENDBRANCH   6   7
ENDBRANCH   4   6
ENDBRANCH   3   4
ENDBRANCH   2   3
ENDBRANCH   1   2
BRANCH   1  25
ATOM     25  O   UNL A   1      42.097  20.544  25.807  1.00  0.00    -0.374 OA
BRANCH  25  26
ATOM     26  C   UNL A   1      43.102  21.479  26.228  1.00  0.00     0.202 C 
BRANCH  26  27
ATOM     27  C   UNL A   1      43.809  22.156  25.053  1.00  0.00     0.261 C 
BRANCH  27  28
ATOM     28  O   UNL A   1      43.182  23.412  24.774  1.00  0.00    -0.460 OA
BRANCH  28  29
ATOM     29  C   UNL A   1      43.929  24.501  25.098  1.00  0.00     0.338 C 
ATOM     30  O   UNL A   1      45.008  24.811  24.650  1.00  0.00    -0.246 OA
BRANCH  29  31
ATOM     31  C   UNL A   1      43.128  25.377  25.989  1.00  0.00     0.060 A 
ATOM     32  C   UNL A   1      43.546  26.707  26.134  1.00  0.00     0.016 A 
ATOM     33  C   UNL A   1      41.973  24.926  26.640  1.00  0.00     0.016 A 
ATOM     34  C   UNL A   1      42.862  27.563  26.990  1.00  0.00     0.010 A 
ATOM     35  C   UNL A   1      41.279  25.787  27.488  1.00  0.00     0.010 A 
ATOM     36  C   UNL A   1      41.758  27.088  27.710  1.00  0.00    -0.014 A 
BRANCH  36  37
ATOM     37  C   UNL A   1      41.269  27.858  28.874  1.00  0.00     0.031 A 
ATOM     38  C   UNL A   1      42.028  27.727  30.166  1.00  0.00     0.074 A 
ATOM     39  C   UNL A   1      40.211  28.677  28.777  1.00  0.00     0.049 A 
ATOM     40  N   UNL A   1      41.821  28.315  31.316  1.00  0.00    -0.248 NA
ATOM     41  C   UNL A   1      43.176  26.802  30.163  1.00  0.00     0.031 C 
ATOM     42  C   UNL A   1      39.420  28.908  27.570  1.00  0.00     0.029 A 
ATOM     43  N   UNL A   1      39.624  29.477  29.724  1.00  0.00    -0.354 N 
ATOM     44  C   UNL A   1      42.801  27.821  32.170  1.00  0.00     0.074 A 
ATOM     45  C   UNL A   1      43.574  26.857  31.422  1.00  0.00     0.031 C 
ATOM     46  C   UNL A   1      38.455  29.804  27.846  1.00  0.00     0.029 A 
ATOM     47  C   UNL A   1      38.548  30.187  29.253  1.00  0.00     0.049 A 
ATOM     48  H   UNL A   1      39.945  29.537  30.653  1.00  0.00     0.167 HD
ATOM     49  C   UNL A   1      43.044  28.149  33.459  1.00  0.00     0.031 A 
ATOM     50  C   UNL A   1      37.735  31.049  29.893  1.00  0.00     0.031 A 
ATOM     51  C   UNL A   1      42.268  29.103  34.200  1.00  0.00     0.049 A 
ATOM     52  C   UNL A   1      37.994  31.360  31.344  1.00  0.00     0.074 A 
ATOM     53  C   UNL A   1      42.439  29.528  35.505  1.00  0.00     0.029 A 
ATOM     54  N   UNL A   1      41.166  29.778  33.696  1.00  0.00    -0.354 N 
ATOM     55  N   UNL A   1      38.947  30.918  32.131  1.00  0.00    -0.248 NA
ATOM     56  C   UNL A   1      37.074  32.308  31.988  1.00  0.00     0.031 C 
ATOM     57  C   UNL A   1      41.403  30.419  35.809  1.00  0.00     0.029 A 
ATOM     58  C   UNL A   1      40.631  30.599  34.672  1.00  0.00     0.049 A 
ATOM     59  H   UNL A   1      40.816  29.685  32.781  1.00  0.00     0.167 HD
ATOM     60  C   UNL A   1      38.767  31.566  33.347  1.00  0.00     0.074 A 
ATOM     61  C   UNL A   1      37.619  32.435  33.190  1.00  0.00     0.031 C 
ATOM     62  C   UNL A   1      39.490  31.460  34.490  1.00  0.00     0.031 A 
BRANCH  49  63
ATOM     63  C   UNL A   1      44.172  27.433  34.150  1.00  0.00    -0.014 A 
ATOM     64  C   UNL A   1      45.487  27.926  34.112  1.00  0.00     0.009 A 
ATOM     65  C   UNL A   1      43.913  26.244  34.847  1.00  0.00     0.009 A 
ATOM     66  C   UNL A   1      46.525  27.218  34.724  1.00  0.00     0.001 A 
ATOM     67  C   UNL A   1      44.946  25.556  35.485  1.00  0.00     0.001 A 
ATOM     68  C   UNL A   1      46.253  26.036  35.412  1.00  0.00     0.000 A 
ENDBRANCH  49  63
BRANCH  50  69
ATOM     69  C   UNL A   1      36.612  31.699  29.167  1.00  0.00    -0.014 A 
ATOM     70  C   UNL A   1      36.741  33.008  28.677  1.00  0.00     0.009 A 
ATOM     71  C   UNL A   1      35.397  31.023  28.981  1.00  0.00     0.009 A 
ATOM     72  C   UNL A   1      35.667  33.637  28.042  1.00  0.00     0.001 A 
ATOM     73  C   UNL A   1      34.334  31.644  28.320  1.00  0.00     0.001 A 
ATOM     74  C   UNL A   1      34.467  32.953  27.860  1.00  0.00     0.000 A 
ENDBRANCH  50  69
BRANCH  62  75
ATOM     75  C   UNL A   1      39.100  32.352  35.636  1.00  0.00    -0.014 A 
ATOM     76  C   UNL A   1      38.188  31.936  36.617  1.00  0.00     0.009 A 
ATOM     77  C   UNL A   1      39.687  33.624  35.747  1.00  0.00     0.009 A 
ATOM     78  C   UNL A   1      37.838  32.794  37.663  1.00  0.00     0.001 A 
ATOM     79  C   UNL A   1      39.362  34.465  36.811  1.00  0.00     0.001 A 
ATOM     80  C   UNL A   1      38.427  34.055  37.761  1.00  0.00     0.000 A 
ENDBRANCH  62  75
ENDBRANCH  36  37
ENDBRANCH  29  31
ENDBRANCH  28  29
ENDBRANCH  27  28
ENDBRANCH  26  27
ENDBRANCH  25  26
ENDBRANCH   1  25
TORSDOF 17
ENDMDL
MODEL 3
REMARK VINA RESULT:     -10.5      3.964      8.128
REMARK SMILES O=C(C[C@H]1C[C@H]2CC[C@@H](C1)N2C(=O)c1c[nH]c(=O)[nH]1)OCCOCCOC(=O)c1ccc(-c2c3nc(c(-c4ccccc4)c4ccc([nH]4)c(-c4ccccc4)c4nc(c(-c5ccccc5)c5ccc2[nH]5)C=C4)C=C3)cc1
REMARK SMILES IDX 22 1 21 2 20 3 2 4 1 5 3 6 4 7 5 8 10 9 6 10 9 11 7 12 11 13
REMARK SMILES IDX 8 14 12 15 13 16 14 17 15 18 19 19 16 20 17 21 18 24 23 25
REMARK SMILES IDX 24 26 25 27 26 28 27 29 28 30 29 31 30 32 76 33 31 34 75 35
REMARK SMILES IDX 32 36 33 37 34 38 69 39 35 40 74 41 68 42 70 43 36 44 73 45
REMARK SMILES IDX 67 46 66 47 37 49 59 50 44 51 58 52 45 53 48 54 57 55 71 56
REMARK SMILES IDX 46 57 47 58 56 60 72 61 49 62 38 63 39 64 43 65 40 66 42 67
REMARK SMILES IDX 41 68 60 69 61 70 65 71 62 72 64 73 63 74 50 75 51 76 55 77
REMARK SMILES IDX 52 78 54 79 53 80
REMARK H PARENT 19 22 16 23 70 48 48 59
REMARK Flexibility Score: inf
ROOT
ATOM      1  C   UNL A   1      35.124  22.196  25.823  1.00  0.00     0.202 C 
ENDROOT
BRANCH   1   2
ATOM      2  C   UNL A   1      33.878  21.839  26.657  1.00  0.00     0.261 C 
BRANCH   2   3
ATOM      3  O   UNL A   1      33.031  22.853  27.232  1.00  0.00    -0.463 OA
BRANCH   3   4
ATOM      4  C   UNL A   1      31.785  23.059  26.777  1.00  0.00     0.306 C 
ATOM      5  O   UNL A   1      30.815  23.095  27.531  1.00  0.00    -0.252 OA
BRANCH   4   6
ATOM      6  C   UNL A   1      31.654  23.351  25.288  1.00  0.00     0.126 C 
BRANCH   6   7
ATOM      7  C   UNL A   1      31.368  24.777  24.774  1.00  0.00     0.004 C 
ATOM      8  C   UNL A   1      31.875  25.951  25.659  1.00  0.00     0.029 C 
ATOM      9  C   UNL A   1      31.876  24.908  23.304  1.00  0.00     0.029 C 
ATOM     10  C   UNL A   1      33.194  26.618  25.247  1.00  0.00     0.086 C 
ATOM     11  C   UNL A   1      33.219  25.649  23.150  1.00  0.00     0.086 C 
ATOM     12  C   UNL A   1      34.399  25.683  25.277  1.00  0.00     0.027 C 
ATOM     13  N   UNL A   1      33.093  26.919  23.843  1.00  0.00    -0.331 N 
ATOM     14  C   UNL A   1      34.357  24.961  23.923  1.00  0.00     0.027 C 
BRANCH  13  15
ATOM     15  C   UNL A   1      33.016  28.202  23.375  1.00  0.00     0.272 C 
ATOM     16  O   UNL A   1      34.000  28.849  23.018  1.00  0.00    -0.267 OA
BRANCH  15  17
ATOM     17  C   UNL A   1      31.674  28.798  23.228  1.00  0.00     0.125 A 
ATOM     18  C   UNL A   1      30.862  29.303  24.167  1.00  0.00     0.119 A 
ATOM     19  N   UNL A   1      31.093  28.985  21.996  1.00  0.00    -0.302 N 
ATOM     20  N   UNL A   1      29.737  29.788  23.549  1.00  0.00    -0.312 N 
ATOM     21  C   UNL A   1      29.854  29.603  22.163  1.00  0.00     0.323 A 
ATOM     22  H   UNL A   1      31.488  28.724  21.133  1.00  0.00     0.172 HD
ATOM     23  H   UNL A   1      28.969  30.201  24.007  1.00  0.00     0.171 HD
ATOM     24  O   UNL A   1      29.051  29.916  21.306  1.00  0.00    -0.248 OA
ENDBRANCH  15  17
ENDBRANCH  13  15
ENDBRANCH   6   7
ENDBRANCH   4   6
ENDBRANCH   3   4
ENDBRANCH   2   3
ENDBRANCH   1   2
BRANCH   1  25
ATOM     25  O   UNL A   1      36.260  21.365  26.013  1.00  0.00    -0.374 OA
BRANCH  25  26
ATOM     26  C   UNL A   1      36.521  20.451  24.938  1.00  0.00     0.202 C 
BRANCH  26  27
ATOM     27  C   UNL A   1      37.976  19.980  24.902  1.00  0.00     0.261 C 
BRANCH  27  28
ATOM     28  O   UNL A   1      38.738  20.698  25.879  1.00  0.00    -0.460 OA
BRANCH  28  29
ATOM     29  C   UNL A   1      40.010  20.247  26.046  1.00  0.00     0.338 C 
ATOM     30  O   UNL A   1      40.455  19.170  25.727  1.00  0.00    -0.246 OA
BRANCH  29  31
ATOM     31  C   UNL A   1      40.849  21.369  26.539  1.00  0.00     0.060 A 
ATOM     32  C   UNL A   1      40.893  21.583  27.923  1.00  0.00     0.016 A 
ATOM     33  C   UNL A   1      41.605  22.172  25.677  1.00  0.00     0.016 A 
ATOM     34  C   UNL A   1      41.626  22.646  28.441  1.00  0.00     0.010 A 
ATOM     35  C   UNL A   1      42.351  23.229  26.195  1.00  0.00     0.010 A 
ATOM     36  C   UNL A   1      42.312  23.503  27.572  1.00  0.00    -0.014 A 
BRANCH  36  37
ATOM     37  C   UNL A   1      42.769  24.819  28.068  1.00  0.00     0.031 A 
ATOM     38  C   UNL A   1      41.728  25.883  28.288  1.00  0.00     0.074 A 
ATOM     39  C   UNL A   1      44.061  25.051  28.352  1.00  0.00     0.049 A 
ATOM     40  N   UNL A   1      41.867  27.102  28.740  1.00  0.00    -0.248 NA
ATOM     41  C   UNL A   1      40.340  25.523  27.946  1.00  0.00     0.031 C 
ATOM     42  C   UNL A   1      45.150  24.087  28.209  1.00  0.00     0.029 A 
ATOM     43  N   UNL A   1      44.670  26.182  28.831  1.00  0.00    -0.354 N 
ATOM     44  C   UNL A   1      40.591  27.654  28.723  1.00  0.00     0.074 A 
ATOM     45  C   UNL A   1      39.700  26.655  28.179  1.00  0.00     0.031 C 
ATOM     46  C   UNL A   1      46.298  24.666  28.605  1.00  0.00     0.029 A 
ATOM     47  C   UNL A   1      46.024  26.045  29.005  1.00  0.00     0.049 A 
ATOM     48  H   UNL A   1      44.182  27.013  29.030  1.00  0.00     0.167 HD
ATOM     49  C   UNL A   1      40.193  28.878  29.136  1.00  0.00     0.031 A 
ATOM     50  C   UNL A   1      46.935  26.937  29.439  1.00  0.00     0.031 A 
ATOM     51  C   UNL A   1      41.084  29.869  29.671  1.00  0.00     0.049 A 
ATOM     52  C   UNL A   1      46.475  28.313  29.844  1.00  0.00     0.074 A 
ATOM     53  C   UNL A   1      40.785  31.135  30.140  1.00  0.00     0.029 A 
ATOM     54  N   UNL A   1      42.455  29.703  29.801  1.00  0.00    -0.354 N 
ATOM     55  N   UNL A   1      45.261  28.811  29.862  1.00  0.00    -0.248 NA
ATOM     56  C   UNL A   1      47.513  29.243  30.310  1.00  0.00     0.031 C 
ATOM     57  C   UNL A   1      41.986  31.757  30.502  1.00  0.00     0.029 A 
ATOM     58  C   UNL A   1      43.021  30.852  30.322  1.00  0.00     0.049 A 
ATOM     59  H   UNL A   1      42.950  28.888  29.558  1.00  0.00     0.167 HD
ATOM     60  C   UNL A   1      45.384  30.095  30.382  1.00  0.00     0.074 A 
ATOM     61  C   UNL A   1      46.789  30.294  30.671  1.00  0.00     0.031 C 
ATOM     62  C   UNL A   1      44.422  31.024  30.608  1.00  0.00     0.031 A 
BRANCH  49  63
ATOM     63  C   UNL A   1      38.736  29.216  28.982  1.00  0.00    -0.014 A 
ATOM     64  C   UNL A   1      38.226  29.738  27.781  1.00  0.00     0.009 A 
ATOM     65  C   UNL A   1      37.860  29.013  30.058  1.00  0.00     0.009 A 
ATOM     66  C   UNL A   1      36.877  30.086  27.678  1.00  0.00     0.001 A 
ATOM     67  C   UNL A   1      36.506  29.332  29.941  1.00  0.00     0.001 A 
ATOM     68  C   UNL A   1      36.018  29.880  28.756  1.00  0.00     0.000 A 
ENDBRANCH  49  63
BRANCH  50  69
ATOM     69  C   UNL A   1      48.369  26.558  29.536  1.00  0.00    -0.014 A 
ATOM     70  C   UNL A   1      49.254  26.834  28.481  1.00  0.00     0.009 A 
ATOM     71  C   UNL A   1      48.857  25.898  30.673  1.00  0.00     0.009 A 
ATOM     72  C   UNL A   1      50.589  26.430  28.553  1.00  0.00     0.001 A 
ATOM     73  C   UNL A   1      50.200  25.521  30.754  1.00  0.00     0.001 A 
ATOM     74  C   UNL A   1      51.062  25.778  29.690  1.00  0.00     0.000 A 
ENDBRANCH  50  69
BRANCH  62  75
ATOM     75  C   UNL A   1      44.849  32.312  31.255  1.00  0.00    -0.014 A 
ATOM     76  C   UNL A   1      44.885  32.461  32.650  1.00  0.00     0.009 A 
ATOM     77  C   UNL A   1      45.254  33.387  30.446  1.00  0.00     0.009 A 
ATOM     78  C   UNL A   1      45.275  33.675  33.220  1.00  0.00     0.001 A 
ATOM     79  C   UNL A   1      45.676  34.587  31.017  1.00  0.00     0.001 A 
ATOM     80  C   UNL A   1      45.674  34.735  32.404  1.00  0.00     0.000 A 
ENDBRANCH  62  75
ENDBRANCH  36  37
ENDBRANCH  29  31
ENDBRANCH  28  29
ENDBRANCH  27  28
ENDBRANCH  26  27
ENDBRANCH  25  26
ENDBRANCH   1  25
TORSDOF 17
ENDMDL
