MODEL 1
REMARK VINA RESULT:      -9.0      0.000      0.000
REMARK SMILES CSc1nc(N)cc(Nc2cccc(C(=O)OCCOCCOC(=O)c3ccc(-c4c5nc(c(-c6ccccc6)c6ccc([nH]6)c(-c6ccccc6)c6nc(c(-c7ccccc7)c7ccc4[nH]7)C=C6)C=C5)cc3)c2)n1
REMARK SMILES IDX 19 1 18 2 17 3 15 4 16 5 14 6 10 7 11 8 74 9 12 10 13 11
REMARK SMILES IDX 9 12 8 14 3 15 4 16 75 17 5 18 7 19 2 20 1 21 6 22 20 25
REMARK SMILES IDX 21 26 22 27 23 28 24 29 25 30 26 31 27 32 73 33 28 34 72 35
REMARK SMILES IDX 29 36 30 37 31 38 66 39 32 40 71 41 65 42 67 43 33 44 70 45
REMARK SMILES IDX 64 46 63 47 34 49 56 50 41 51 55 52 42 53 45 54 54 55 68 56
REMARK SMILES IDX 43 57 44 58 53 60 69 61 46 62 35 63 36 64 40 65 37 66 39 67
REMARK SMILES IDX 38 68 57 69 58 70 62 71 59 72 61 73 60 74 47 75 48 76 52 77
REMARK SMILES IDX 49 78 51 79 50 80
REMARK H PARENT 9 13 6 23 6 24 67 48 45 59
REMARK Flexibility Score: inf
ROOT
ATOM      1  C   UNL A   1      45.837  20.261  24.702  1.00  0.00     0.202 C 
ENDROOT
BRANCH   1   2
ATOM      2  C   UNL A   1      45.762  21.415  25.707  1.00  0.00     0.261 C 
BRANCH   2   3
ATOM      3  O   UNL A   1      46.571  22.518  25.262  1.00  0.00    -0.460 OA
BRANCH   3   4
ATOM      4  C   UNL A   1      45.951  23.415  24.460  1.00  0.00     0.338 C 
ATOM      5  O   UNL A   1      45.136  23.176  23.580  1.00  0.00    -0.246 OA
BRANCH   4   6
ATOM      6  C   UNL A   1      46.254  24.787  24.925  1.00  0.00     0.062 A 
ATOM      7  C   UNL A   1      47.819  26.538  25.565  1.00  0.00     0.040 A 
ATOM      8  C   UNL A   1      46.727  27.374  25.843  1.00  0.00     0.026 A 
ATOM      9  C   UNL A   1      47.565  25.227  25.135  1.00  0.00     0.041 A 
ATOM     10  C   UNL A   1      45.415  26.931  25.651  1.00  0.00     0.003 A 
ATOM     11  C   UNL A   1      45.179  25.645  25.176  1.00  0.00     0.016 A 
BRANCH   7  12
ATOM     12  N   UNL A   1      49.124  27.068  25.627  1.00  0.00    -0.340 N 
ATOM     13  H   UNL A   1      49.419  27.403  26.504  1.00  0.00     0.168 HD
BRANCH  12  14
ATOM     14  C   UNL A   1      50.054  27.172  24.572  1.00  0.00     0.137 A 
ATOM     15  C   UNL A   1      50.601  27.853  22.451  1.00  0.00     0.191 A 
ATOM     16  N   UNL A   1      51.840  27.357  22.517  1.00  0.00    -0.206 NA
ATOM     17  N   UNL A   1      49.700  27.790  23.436  1.00  0.00    -0.205 NA
ATOM     18  C   UNL A   1      52.182  26.763  23.662  1.00  0.00     0.130 A 
ATOM     19  C   UNL A   1      51.309  26.620  24.718  1.00  0.00     0.093 A 
BRANCH  15  20
ATOM     20  S   UNL A   1      50.110  28.623  20.928  1.00  0.00    -0.090 SA
ATOM     21  C   UNL A   1      51.211  30.061  20.958  1.00  0.00     0.094 C 
ENDBRANCH  15  20
BRANCH  18  22
ATOM     22  N   UNL A   1      53.459  26.237  23.721  1.00  0.00    -0.383 N 
ATOM     23  H   UNL A   1      53.609  25.285  23.524  1.00  0.00     0.158 HD
ATOM     24  H   UNL A   1      54.219  26.816  23.961  1.00  0.00     0.158 HD
ENDBRANCH  18  22
ENDBRANCH  12  14
ENDBRANCH   7  12
ENDBRANCH   4   6
ENDBRANCH   3   4
ENDBRANCH   2   3
ENDBRANCH   1   2
BRANCH   1  25
ATOM     25  O   UNL A   1      44.626  19.521  24.533  1.00  0.00    -0.374 OA
BRANCH  25  26
ATOM     26  C   UNL A   1      44.374  18.483  25.483  1.00  0.00     0.202 C 
BRANCH  26  27
ATOM     27  C   UNL A   1      42.964  18.470  26.084  1.00  0.00     0.261 C 
BRANCH  27  28
ATOM     28  O   UNL A   1      42.029  19.172  25.246  1.00  0.00    -0.460 OA
BRANCH  28  29
ATOM     29  C   UNL A   1      41.092  19.883  25.914  1.00  0.00     0.338 C 
ATOM     30  O   UNL A   1      39.942  19.547  26.161  1.00  0.00    -0.246 OA
BRANCH  29  31
ATOM     31  C   UNL A   1      41.690  21.109  26.472  1.00  0.00     0.060 A 
ATOM     32  C   UNL A   1      41.630  21.279  27.861  1.00  0.00     0.016 A 
ATOM     33  C   UNL A   1      42.236  22.106  25.658  1.00  0.00     0.016 A 
ATOM     34  C   UNL A   1      42.058  22.471  28.437  1.00  0.00     0.010 A 
ATOM     35  C   UNL A   1      42.659  23.306  26.239  1.00  0.00     0.010 A 
ATOM     36  C   UNL A   1      42.535  23.509  27.625  1.00  0.00    -0.014 A 
BRANCH  36  37
ATOM     37  C   UNL A   1      42.755  24.851  28.216  1.00  0.00     0.031 A 
ATOM     38  C   UNL A   1      44.141  25.239  28.650  1.00  0.00     0.074 A 
ATOM     39  C   UNL A   1      41.744  25.732  28.320  1.00  0.00     0.049 A 
ATOM     40  N   UNL A   1      44.564  26.362  29.174  1.00  0.00    -0.248 NA
ATOM     41  C   UNL A   1      45.193  24.226  28.467  1.00  0.00     0.031 C 
ATOM     42  C   UNL A   1      40.367  25.496  27.893  1.00  0.00     0.029 A 
ATOM     43  N   UNL A   1      41.732  27.011  28.816  1.00  0.00    -0.354 N 
ATOM     44  C   UNL A   1      45.927  26.190  29.384  1.00  0.00     0.074 A 
ATOM     45  C   UNL A   1      46.254  24.845  28.964  1.00  0.00     0.031 C 
ATOM     46  C   UNL A   1      39.641  26.599  28.142  1.00  0.00     0.029 A 
ATOM     47  C   UNL A   1      40.496  27.604  28.770  1.00  0.00     0.049 A 
ATOM     48  H   UNL A   1      42.533  27.460  29.171  1.00  0.00     0.167 HD
ATOM     49  C   UNL A   1      46.827  27.075  29.874  1.00  0.00     0.031 A 
ATOM     50  C   UNL A   1      40.096  28.817  29.197  1.00  0.00     0.031 A 
ATOM     51  C   UNL A   1      46.503  28.406  30.310  1.00  0.00     0.049 A 
ATOM     52  C   UNL A   1      41.100  29.751  29.819  1.00  0.00     0.074 A 
ATOM     53  C   UNL A   1      47.347  29.379  30.817  1.00  0.00     0.029 A 
ATOM     54  N   UNL A   1      45.227  28.949  30.300  1.00  0.00    -0.354 N 
ATOM     55  N   UNL A   1      42.389  29.586  29.993  1.00  0.00    -0.248 NA
ATOM     56  C   UNL A   1      40.590  31.046  30.295  1.00  0.00     0.031 C 
ATOM     57  C   UNL A   1      46.574  30.494  31.160  1.00  0.00     0.029 A 
ATOM     58  C   UNL A   1      45.257  30.234  30.815  1.00  0.00     0.049 A 
ATOM     59  H   UNL A   1      44.420  28.489  29.974  1.00  0.00     0.167 HD
ATOM     60  C   UNL A   1      42.848  30.763  30.570  1.00  0.00     0.074 A 
ATOM     61  C   UNL A   1      41.702  31.638  30.707  1.00  0.00     0.031 C 
ATOM     62  C   UNL A   1      44.108  31.092  30.949  1.00  0.00     0.031 A 
BRANCH  49  63
ATOM     63  C   UNL A   1      48.250  26.606  29.995  1.00  0.00    -0.014 A 
ATOM     64  C   UNL A   1      48.688  25.888  31.120  1.00  0.00     0.009 A 
ATOM     65  C   UNL A   1      49.162  26.874  28.963  1.00  0.00     0.009 A 
ATOM     66  C   UNL A   1      50.021  25.483  31.225  1.00  0.00     0.001 A 
ATOM     67  C   UNL A   1      50.487  26.444  29.059  1.00  0.00     0.001 A 
ATOM     68  C   UNL A   1      50.917  25.758  30.194  1.00  0.00     0.000 A 
ENDBRANCH  49  63
BRANCH  50  69
ATOM     69  C   UNL A   1      38.674  29.224  29.057  1.00  0.00    -0.014 A 
ATOM     70  C   UNL A   1      37.784  29.092  30.133  1.00  0.00     0.009 A 
ATOM     71  C   UNL A   1      38.197  29.735  27.839  1.00  0.00     0.009 A 
ATOM     72  C   UNL A   1      36.441  29.444  29.986  1.00  0.00     0.001 A 
ATOM     73  C   UNL A   1      36.860  30.112  27.705  1.00  0.00     0.001 A 
ATOM     74  C   UNL A   1      35.981  29.958  28.776  1.00  0.00     0.000 A 
ENDBRANCH  50  69
BRANCH  62  75
ATOM     75  C   UNL A   1      44.319  32.469  31.512  1.00  0.00    -0.014 A 
ATOM     76  C   UNL A   1      44.269  32.709  32.894  1.00  0.00     0.009 A 
ATOM     77  C   UNL A   1      44.611  33.536  30.647  1.00  0.00     0.009 A 
ATOM     78  C   UNL A   1      44.472  33.997  33.395  1.00  0.00     0.001 A 
ATOM     79  C   UNL A   1      44.840  34.816  31.151  1.00  0.00     0.001 A 
ATOM     80  C   UNL A   1      44.762  35.048  32.524  1.00  0.00     0.000 A 
ENDBRANCH  62  75
ENDBRANCH  36  37
ENDBRANCH  29  31
ENDBRANCH  28  29
ENDBRANCH  27  28
ENDBRANCH  26  27
ENDBRANCH  25  26
ENDBRANCH   1  25
TORSDOF 18
ENDMDL
MODEL 2
REMARK VINA RESULT:      -8.8      6.812     12.867
REMARK SMILES CSc1nc(N)cc(Nc2cccc(C(=O)OCCOCCOC(=O)c3ccc(-c4c5nc(c(-c6ccccc6)c6ccc([nH]6)c(-c6ccccc6)c6nc(c(-c7ccccc7)c7ccc4[nH]7)C=C6)C=C5)cc3)c2)n1
REMARK SMILES IDX 19 1 18 2 17 3 15 4 16 5 14 6 10 7 11 8 74 9 12 10 13 11
REMARK SMILES IDX 9 12 8 14 3 15 4 16 75 17 5 18 7 19 2 20 1 21 6 22 20 25
REMARK SMILES IDX 21 26 22 27 23 28 24 29 25 30 26 31 27 32 73 33 28 34 72 35
REMARK SMILES IDX 29 36 30 37 31 38 66 39 32 40 71 41 65 42 67 43 33 44 70 45
REMARK SMILES IDX 64 46 63 47 34 49 56 50 41 51 55 52 42 53 45 54 54 55 68 56
REMARK SMILES IDX 43 57 44 58 53 60 69 61 46 62 35 63 36 64 40 65 37 66 39 67
REMARK SMILES IDX 38 68 57 69 58 70 62 71 59 72 61 73 60 74 47 75 48 76 52 77
REMARK SMILES IDX 49 78 51 79 50 80
REMARK H PARENT 9 13 6 23 6 24 67 48 45 59
REMARK Flexibility Score: inf
ROOT
ATOM      1  C   UNL A   1      33.160  35.834  28.923  1.00  0.00     0.202 C 
ENDROOT
BRANCH   1   2
ATOM      2  C   UNL A   1      33.338  34.332  29.166  1.00  0.00     0.261 C 
BRANCH   2   3
ATOM      3  O   UNL A   1      33.663  33.663  27.935  1.00  0.00    -0.460 OA
BRANCH   3   4
ATOM      4  C   UNL A   1      34.825  32.967  27.934  1.00  0.00     0.338 C 
ATOM      5  O   UNL A   1      35.929  33.378  28.259  1.00  0.00    -0.246 OA
BRANCH   4   6
ATOM      6  C   UNL A   1      34.545  31.539  27.660  1.00  0.00     0.062 A 
ATOM      7  C   UNL A   1      33.029  29.720  27.098  1.00  0.00     0.040 A 
ATOM      8  C   UNL A   1      34.107  28.828  27.199  1.00  0.00     0.026 A 
ATOM      9  C   UNL A   1      33.259  31.078  27.365  1.00  0.00     0.041 A 
ATOM     10  C   UNL A   1      35.391  29.283  27.510  1.00  0.00     0.003 A 
ATOM     11  C   UNL A   1      35.614  30.640  27.724  1.00  0.00     0.016 A 
BRANCH   7  12
ATOM     12  N   UNL A   1      31.786  29.246  26.635  1.00  0.00    -0.340 N 
ATOM     13  H   UNL A   1      31.034  29.297  27.269  1.00  0.00     0.168 HD
BRANCH  12  14
ATOM     14  C   UNL A   1      31.496  28.706  25.365  1.00  0.00     0.137 A 
ATOM     15  C   UNL A   1      30.990  26.915  24.024  1.00  0.00     0.191 A 
ATOM     16  N   UNL A   1      30.959  27.649  22.907  1.00  0.00    -0.206 NA
ATOM     17  N   UNL A   1      31.241  27.395  25.245  1.00  0.00    -0.205 NA
ATOM     18  C   UNL A   1      31.195  28.954  23.047  1.00  0.00     0.130 A 
ATOM     19  C   UNL A   1      31.498  29.532  24.261  1.00  0.00     0.093 A 
BRANCH  15  20
ATOM     20  S   UNL A   1      30.708  25.170  23.861  1.00  0.00    -0.090 SA
ATOM     21  C   UNL A   1      32.307  24.559  24.449  1.00  0.00     0.094 C 
ENDBRANCH  15  20
BRANCH  18  22
ATOM     22  N   UNL A   1      31.178  29.707  21.888  1.00  0.00    -0.383 N 
ATOM     23  H   UNL A   1      30.343  29.804  21.376  1.00  0.00     0.158 HD
ATOM     24  H   UNL A   1      32.001  30.148  21.575  1.00  0.00     0.158 HD
ENDBRANCH  18  22
ENDBRANCH  12  14
ENDBRANCH   7  12
ENDBRANCH   4   6
ENDBRANCH   3   4
ENDBRANCH   2   3
ENDBRANCH   1   2
BRANCH   1  25
ATOM     25  O   UNL A   1      32.524  36.551  29.984  1.00  0.00    -0.374 OA
BRANCH  25  26
ATOM     26  C   UNL A   1      33.380  37.275  30.870  1.00  0.00     0.202 C 
BRANCH  26  27
ATOM     27  C   UNL A   1      33.433  36.750  32.308  1.00  0.00     0.261 C 
BRANCH  27  28
ATOM     28  O   UNL A   1      34.539  35.849  32.498  1.00  0.00    -0.460 OA
BRANCH  28  29
ATOM     29  C   UNL A   1      34.194  34.546  32.618  1.00  0.00     0.338 C 
ATOM     30  O   UNL A   1      33.078  34.089  32.814  1.00  0.00    -0.246 OA
BRANCH  29  31
ATOM     31  C   UNL A   1      35.355  33.688  32.320  1.00  0.00     0.060 A 
ATOM     32  C   UNL A   1      35.354  32.396  32.860  1.00  0.00     0.016 A 
ATOM     33  C   UNL A   1      36.454  34.151  31.590  1.00  0.00     0.016 A 
ATOM     34  C   UNL A   1      36.475  31.582  32.727  1.00  0.00     0.010 A 
ATOM     35  C   UNL A   1      37.582  33.334  31.462  1.00  0.00     0.010 A 
ATOM     36  C   UNL A   1      37.613  32.062  32.064  1.00  0.00    -0.014 A 
BRANCH  36  37
ATOM     37  C   UNL A   1      38.877  31.292  32.139  1.00  0.00     0.031 A 
ATOM     38  C   UNL A   1      39.847  31.588  33.248  1.00  0.00     0.074 A 
ATOM     39  C   UNL A   1      39.137  30.308  31.260  1.00  0.00     0.049 A 
ATOM     40  N   UNL A   1      41.000  31.028  33.515  1.00  0.00    -0.248 NA
ATOM     41  C   UNL A   1      39.465  32.656  34.186  1.00  0.00     0.031 C 
ATOM     42  C   UNL A   1      38.259  29.892  30.169  1.00  0.00     0.029 A 
ATOM     43  N   UNL A   1      40.223  29.476  31.158  1.00  0.00    -0.354 N 
ATOM     44  C   UNL A   1      41.481  31.676  34.646  1.00  0.00     0.074 A 
ATOM     45  C   UNL A   1      40.513  32.693  34.995  1.00  0.00     0.031 C 
ATOM     46  C   UNL A   1      38.840  28.877  29.508  1.00  0.00     0.029 A 
ATOM     47  C   UNL A   1      40.140  28.592  30.111  1.00  0.00     0.049 A 
ATOM     48  H   UNL A   1      40.989  29.509  31.777  1.00  0.00     0.167 HD
ATOM     49  C   UNL A   1      42.622  31.441  35.338  1.00  0.00     0.031 A 
ATOM     50  C   UNL A   1      41.019  27.667  29.682  1.00  0.00     0.031 A 
ATOM     51  C   UNL A   1      43.595  30.444  34.983  1.00  0.00     0.049 A 
ATOM     52  C   UNL A   1      42.320  27.484  30.417  1.00  0.00     0.074 A 
ATOM     53  C   UNL A   1      44.780  30.127  35.625  1.00  0.00     0.029 A 
ATOM     54  N   UNL A   1      43.501  29.608  33.881  1.00  0.00    -0.354 N 
ATOM     55  N   UNL A   1      42.754  28.088  31.497  1.00  0.00    -0.248 NA
ATOM     56  C   UNL A   1      43.249  26.481  29.874  1.00  0.00     0.031 C 
ATOM     57  C   UNL A   1      45.427  29.132  34.883  1.00  0.00     0.029 A 
ATOM     58  C   UNL A   1      44.618  28.792  33.811  1.00  0.00     0.049 A 
ATOM     59  H   UNL A   1      42.750  29.596  33.244  1.00  0.00     0.167 HD
ATOM     60  C   UNL A   1      43.990  27.519  31.779  1.00  0.00     0.074 A 
ATOM     61  C   UNL A   1      44.232  26.515  30.764  1.00  0.00     0.031 C 
ATOM     62  C   UNL A   1      44.846  27.800  32.792  1.00  0.00     0.031 A 
BRANCH  49  63
ATOM     63  C   UNL A   1      42.888  32.312  36.534  1.00  0.00    -0.014 A 
ATOM     64  C   UNL A   1      43.549  33.545  36.405  1.00  0.00     0.009 A 
ATOM     65  C   UNL A   1      42.459  31.900  37.805  1.00  0.00     0.009 A 
ATOM     66  C   UNL A   1      43.809  34.328  37.532  1.00  0.00     0.001 A 
ATOM     67  C   UNL A   1      42.697  32.698  38.925  1.00  0.00     0.001 A 
ATOM     68  C   UNL A   1      43.380  33.906  38.790  1.00  0.00     0.000 A 
ENDBRANCH  49  63
BRANCH  50  69
ATOM     69  C   UNL A   1      40.704  26.839  28.489  1.00  0.00    -0.014 A 
ATOM     70  C   UNL A   1      41.198  27.192  27.225  1.00  0.00     0.009 A 
ATOM     71  C   UNL A   1      39.896  25.697  28.610  1.00  0.00     0.009 A 
ATOM     72  C   UNL A   1      40.872  26.429  26.101  1.00  0.00     0.001 A 
ATOM     73  C   UNL A   1      39.594  24.922  27.488  1.00  0.00     0.001 A 
ATOM     74  C   UNL A   1      40.076  25.293  26.234  1.00  0.00     0.000 A 
ENDBRANCH  50  69
BRANCH  62  75
ATOM     75  C   UNL A   1      46.106  26.985  32.874  1.00  0.00    -0.014 A 
ATOM     76  C   UNL A   1      46.149  25.775  33.582  1.00  0.00     0.009 A 
ATOM     77  C   UNL A   1      47.259  27.420  32.200  1.00  0.00     0.009 A 
ATOM     78  C   UNL A   1      47.331  25.033  33.642  1.00  0.00     0.001 A 
ATOM     79  C   UNL A   1      48.431  26.663  32.238  1.00  0.00     0.001 A 
ATOM     80  C   UNL A   1      48.469  25.475  32.967  1.00  0.00     0.000 A 
ENDBRANCH  62  75
ENDBRANCH  36  37
ENDBRANCH  29  31
ENDBRANCH  28  29
ENDBRANCH  27  28
ENDBRANCH  26  27
ENDBRANCH  25  26
ENDBRANCH   1  25
TORSDOF 18
ENDMDL
MODEL 3
REMARK VINA RESULT:      -8.7      7.704     13.633
REMARK SMILES CSc1nc(N)cc(Nc2cccc(C(=O)OCCOCCOC(=O)c3ccc(-c4c5nc(c(-c6ccccc6)c6ccc([nH]6)c(-c6ccccc6)c6nc(c(-c7ccccc7)c7ccc4[nH]7)C=C6)C=C5)cc3)c2)n1
REMARK SMILES IDX 19 1 18 2 17 3 15 4 16 5 14 6 10 7 11 8 74 9 12 10 13 11
REMARK SMILES IDX 9 12 8 14 3 15 4 16 75 17 5 18 7 19 2 20 1 21 6 22 20 25
REMARK SMILES IDX 21 26 22 27 23 28 24 29 25 30 26 31 27 32 73 33 28 34 72 35
REMARK SMILES IDX 29 36 30 37 31 38 66 39 32 40 71 41 65 42 67 43 33 44 70 45
REMARK SMILES IDX 64 46 63 47 34 49 56 50 41 51 55 52 42 53 45 54 54 55 68 56
REMARK SMILES IDX 43 57 44 58 53 60 69 61 46 62 35 63 36 64 40 65 37 66 39 67
REMARK SMILES IDX 38 68 57 69 58 70 62 71 59 72 61 73 60 74 47 75 48 76 52 77
REMARK SMILES IDX 49 78 51 79 50 80
REMARK H PARENT 9 13 6 23 6 24 67 48 45 59
REMARK Flexibility Score: inf
ROOT
ATOM      1  C   UNL A   1      34.093  34.304  28.378  1.00  0.00     0.202 C 
ENDROOT
BRANCH   1   2
ATOM      2  C   UNL A   1      34.647  33.426  29.505  1.00  0.00     0.261 C 
BRANCH   2   3
ATOM      3  O   UNL A   1      34.423  32.036  29.211  1.00  0.00    -0.460 OA
BRANCH   3   4
ATOM      4  C   UNL A   1      35.110  31.540  28.156  1.00  0.00     0.338 C 
ATOM      5  O   UNL A   1      36.293  31.715  27.900  1.00  0.00    -0.246 OA
BRANCH   4   6
ATOM      6  C   UNL A   1      34.265  30.567  27.428  1.00  0.00     0.062 A 
ATOM      7  C   UNL A   1      32.298  30.000  26.111  1.00  0.00     0.040 A 
ATOM      8  C   UNL A   1      32.717  28.661  26.115  1.00  0.00     0.026 A 
ATOM      9  C   UNL A   1      33.071  30.943  26.804  1.00  0.00     0.041 A 
ATOM     10  C   UNL A   1      33.900  28.279  26.752  1.00  0.00     0.003 A 
ATOM     11  C   UNL A   1      34.683  29.234  27.393  1.00  0.00     0.016 A 
BRANCH   7  12
ATOM     12  N   UNL A   1      31.183  30.369  25.332  1.00  0.00    -0.340 N 
ATOM     13  H   UNL A   1      30.703  31.181  25.613  1.00  0.00     0.168 HD
BRANCH  12  14
ATOM     14  C   UNL A   1      30.677  29.705  24.196  1.00  0.00     0.137 A 
ATOM     15  C   UNL A   1      30.785  28.001  22.665  1.00  0.00     0.191 A 
ATOM     16  N   UNL A   1      29.719  28.429  21.982  1.00  0.00    -0.206 NA
ATOM     17  N   UNL A   1      31.281  28.592  23.756  1.00  0.00    -0.205 NA
ATOM     18  C   UNL A   1      29.118  29.526  22.445  1.00  0.00     0.130 A 
ATOM     19  C   UNL A   1      29.578  30.223  23.542  1.00  0.00     0.093 A 
BRANCH  15  20
ATOM     20  S   UNL A   1      31.621  26.559  22.053  1.00  0.00    -0.090 SA
ATOM     21  C   UNL A   1      32.374  25.980  23.594  1.00  0.00     0.094 C 
ENDBRANCH  15  20
BRANCH  18  22
ATOM     22  N   UNL A   1      28.025  29.975  21.728  1.00  0.00    -0.383 N 
ATOM     23  H   UNL A   1      28.094  30.793  21.186  1.00  0.00     0.158 HD
ATOM     24  H   UNL A   1      27.177  29.475  21.760  1.00  0.00     0.158 HD
ENDBRANCH  18  22
ENDBRANCH  12  14
ENDBRANCH   7  12
ENDBRANCH   4   6
ENDBRANCH   3   4
ENDBRANCH   2   3
ENDBRANCH   1   2
BRANCH   1  25
ATOM     25  O   UNL A   1      34.551  35.658  28.380  1.00  0.00    -0.374 OA
BRANCH  25  26
ATOM     26  C   UNL A   1      33.600  36.654  28.759  1.00  0.00     0.202 C 
BRANCH  26  27
ATOM     27  C   UNL A   1      32.624  36.243  29.867  1.00  0.00     0.261 C 
BRANCH  27  28
ATOM     28  O   UNL A   1      33.178  36.485  31.172  1.00  0.00    -0.460 OA
BRANCH  28  29
ATOM     29  C   UNL A   1      32.802  35.598  32.121  1.00  0.00     0.338 C 
ATOM     30  O   UNL A   1      31.663  35.270  32.421  1.00  0.00    -0.246 OA
BRANCH  29  31
ATOM     31  C   UNL A   1      33.988  34.924  32.680  1.00  0.00     0.060 A 
ATOM     32  C   UNL A   1      35.223  35.569  32.531  1.00  0.00     0.016 A 
ATOM     33  C   UNL A   1      33.914  33.660  33.272  1.00  0.00     0.016 A 
ATOM     34  C   UNL A   1      36.396  34.928  32.918  1.00  0.00     0.010 A 
ATOM     35  C   UNL A   1      35.095  33.015  33.655  1.00  0.00     0.010 A 
ATOM     36  C   UNL A   1      36.343  33.629  33.442  1.00  0.00    -0.014 A 
BRANCH  36  37
ATOM     37  C   UNL A   1      37.601  32.866  33.620  1.00  0.00     0.031 A 
ATOM     38  C   UNL A   1      38.408  33.070  34.873  1.00  0.00     0.074 A 
ATOM     39  C   UNL A   1      37.997  31.967  32.702  1.00  0.00     0.049 A 
ATOM     40  N   UNL A   1      39.526  32.499  35.243  1.00  0.00    -0.248 NA
ATOM     41  C   UNL A   1      37.882  34.047  35.840  1.00  0.00     0.031 C 
ATOM     42  C   UNL A   1      37.282  31.642  31.470  1.00  0.00     0.029 A 
ATOM     43  N   UNL A   1      39.104  31.156  32.676  1.00  0.00    -0.354 N 
ATOM     44  C   UNL A   1      39.838  33.047  36.481  1.00  0.00     0.074 A 
ATOM     45  C   UNL A   1      38.810  34.020  36.783  1.00  0.00     0.031 C 
ATOM     46  C   UNL A   1      37.967  30.695  30.808  1.00  0.00     0.029 A 
ATOM     47  C   UNL A   1      39.181  30.369  31.555  1.00  0.00     0.049 A 
ATOM     48  H   UNL A   1      39.779  31.140  33.393  1.00  0.00     0.167 HD
ATOM     49  C   UNL A   1      40.879  32.761  37.298  1.00  0.00     0.031 A 
ATOM     50  C   UNL A   1      40.128  29.494  31.169  1.00  0.00     0.031 A 
ATOM     51  C   UNL A   1      41.912  31.808  36.992  1.00  0.00     0.049 A 
ATOM     52  C   UNL A   1      41.322  29.256  32.055  1.00  0.00     0.074 A 
ATOM     53  C   UNL A   1      43.006  31.445  37.759  1.00  0.00     0.029 A 
ATOM     54  N   UNL A   1      41.983  31.073  35.819  1.00  0.00    -0.354 N 
ATOM     55  N   UNL A   1      41.595  29.765  33.232  1.00  0.00    -0.248 NA
ATOM     56  C   UNL A   1      42.335  28.314  31.557  1.00  0.00     0.031 C 
ATOM     57  C   UNL A   1      43.767  30.526  37.027  1.00  0.00     0.029 A 
ATOM     58  C   UNL A   1      43.116  30.276  35.829  1.00  0.00     0.049 A 
ATOM     59  H   UNL A   1      41.325  31.111  35.088  1.00  0.00     0.167 HD
ATOM     60  C   UNL A   1      42.793  29.184  33.628  1.00  0.00     0.074 A 
ATOM     61  C   UNL A   1      43.189  28.277  32.571  1.00  0.00     0.031 C 
ATOM     62  C   UNL A   1      43.499  29.381  34.768  1.00  0.00     0.031 A 
BRANCH  49  63
ATOM     63  C   UNL A   1      40.965  33.523  38.590  1.00  0.00    -0.014 A 
ATOM     64  C   UNL A   1      41.657  34.743  38.672  1.00  0.00     0.009 A 
ATOM     65  C   UNL A   1      40.332  33.023  39.738  1.00  0.00     0.009 A 
ATOM     66  C   UNL A   1      41.746  35.424  39.889  1.00  0.00     0.001 A 
ATOM     67  C   UNL A   1      40.401  33.719  40.946  1.00  0.00     0.001 A 
ATOM     68  C   UNL A   1      41.116  34.914  41.022  1.00  0.00     0.000 A 
ENDBRANCH  49  63
BRANCH  50  69
ATOM     69  C   UNL A   1      39.993  28.773  29.877  1.00  0.00    -0.014 A 
ATOM     70  C   UNL A   1      39.453  27.479  29.834  1.00  0.00     0.009 A 
ATOM     71  C   UNL A   1      40.415  29.373  28.680  1.00  0.00     0.009 A 
ATOM     72  C   UNL A   1      39.358  26.792  28.622  1.00  0.00     0.001 A 
ATOM     73  C   UNL A   1      40.293  28.695  27.466  1.00  0.00     0.001 A 
ATOM     74  C   UNL A   1      39.773  27.402  27.439  1.00  0.00     0.000 A 
ENDBRANCH  50  69
BRANCH  62  75
ATOM     75  C   UNL A   1      44.754  28.573  34.949  1.00  0.00    -0.014 A 
ATOM     76  C   UNL A   1      46.003  29.059  34.533  1.00  0.00     0.009 A 
ATOM     77  C   UNL A   1      44.688  27.320  35.578  1.00  0.00     0.009 A 
ATOM     78  C   UNL A   1      47.156  28.291  34.714  1.00  0.00     0.001 A 
ATOM     79  C   UNL A   1      45.844  26.566  35.783  1.00  0.00     0.001 A 
ATOM     80  C   UNL A   1      47.076  27.049  35.342  1.00  0.00     0.000 A 
ENDBRANCH  62  75
ENDBRANCH  36  37
ENDBRANCH  29  31
ENDBRANCH  28  29
ENDBRANCH  27  28
ENDBRANCH  26  27
ENDBRANCH  25  26
ENDBRANCH   1  25
TORSDOF 18
ENDMDL
