MODEL 1
REMARK VINA RESULT:     -11.5      0.000      0.000
REMARK SMILES Cc1cc(/C=C2\C(=O)N(Cc3ccco3)C(=O)N=C2OCCOCCOC(=O)c2ccc(-c3c4nc(c(-c5ccccc5)c5ccc([nH]5)c(-c5ccccc5)c5nc(c(-c6ccccc6)c6ccc3[nH]6)C=C5)C=C4)cc2)c(C)n1-c1ccc(Cl)c(C(=O)[O-])c1
REMARK SMILES IDX 23 1 22 2 21 3 20 4 19 5 5 6 6 7 7 8 8 9 9 10 18 11 16 12
REMARK SMILES IDX 17 13 4 14 1 15 2 16 3 17 79 18 77 19 78 20 80 21 81 22
REMARK SMILES IDX 89 23 82 24 85 25 83 26 84 27 86 28 87 29 88 30 10 31 11 32
REMARK SMILES IDX 12 33 15 34 13 35 14 36 24 37 25 38 26 39 27 40 28 41 29 42
REMARK SMILES IDX 30 43 76 44 31 45 75 46 32 47 33 48 34 49 69 50 35 51 74 52
REMARK SMILES IDX 68 53 70 54 36 55 73 56 67 57 66 58 37 60 59 61 44 62 58 63
REMARK SMILES IDX 45 64 48 65 57 66 71 67 46 68 47 69 56 71 72 72 49 73 38 74
REMARK SMILES IDX 39 75 43 76 40 77 42 78 41 79 60 80 61 81 65 82 62 83 64 84
REMARK SMILES IDX 63 85 50 86 51 87 55 88 52 89 54 90 53 91
REMARK H PARENT 70 59 48 70
REMARK Flexibility Score: inf
ROOT
ATOM      1  O   UNL A   1      40.205  22.110  27.383  1.00  0.00    -0.374 OA
ENDROOT
BRANCH   1   2
ATOM      2  C   UNL A   1      39.298  22.952  26.677  1.00  0.00     0.202 C 
BRANCH   2   3
ATOM      3  C   UNL A   1      38.360  22.267  25.659  1.00  0.00     0.260 C 
BRANCH   3   4
ATOM      4  O   UNL A   1      37.244  23.082  25.235  1.00  0.00    -0.475 OA
BRANCH   4   5
ATOM      5  C   UNL A   1      36.093  22.412  24.972  1.00  0.00     0.231 C 
ATOM      6  C   UNL A   1      34.760  24.483  25.289  1.00  0.00     0.029 C 
ATOM      7  C   UNL A   1      34.920  23.268  24.724  1.00  0.00     0.103 C 
ATOM      8  C   UNL A   1      33.881  22.537  23.969  1.00  0.00     0.267 C 
ATOM      9  O   UNL A   1      33.233  23.054  23.068  1.00  0.00    -0.268 OA
ATOM     10  N   UNL A   1      33.751  21.238  24.417  1.00  0.00    -0.250 N 
ATOM     11  N   UNL A   1      36.047  21.127  24.972  1.00  0.00    -0.156 NA
ATOM     12  C   UNL A   1      34.829  20.515  24.902  1.00  0.00     0.354 C 
ATOM     13  O   UNL A   1      34.698  19.356  25.285  1.00  0.00    -0.245 OA
BRANCH   6  14
ATOM     14  C   UNL A   1      33.610  25.355  25.363  1.00  0.00    -0.003 A 
ATOM     15  C   UNL A   1      30.344  26.423  26.831  1.00  0.00     0.065 C 
ATOM     16  C   UNL A   1      31.626  26.203  26.103  1.00  0.00     0.020 A 
ATOM     17  C   UNL A   1      32.543  25.182  26.284  1.00  0.00     0.031 A 
ATOM     18  N   UNL A   1      32.071  26.982  25.048  1.00  0.00    -0.318 N 
ATOM     19  C   UNL A   1      33.249  26.422  24.547  1.00  0.00     0.027 A 
ATOM     20  C   UNL A   1      33.970  27.045  23.405  1.00  0.00     0.065 C 
BRANCH  18  21
ATOM     21  C   UNL A   1      31.502  28.204  24.589  1.00  0.00     0.046 A 
ATOM     22  C   UNL A   1      31.816  29.400  25.237  1.00  0.00     0.028 A 
ATOM     23  C   UNL A   1      30.494  28.173  23.618  1.00  0.00     0.038 A 
ATOM     24  C   UNL A   1      31.051  30.538  24.997  1.00  0.00     0.023 A 
ATOM     25  C   UNL A   1      29.730  29.330  23.351  1.00  0.00     0.018 A 
ATOM     26  C   UNL A   1      29.998  30.507  24.073  1.00  0.00     0.050 A 
ATOM     27  Cl  UNL A   1      29.079  31.965  23.938  1.00  0.00    -0.084 Cl
BRANCH  25  28
ATOM     28  C   UNL A   1      28.629  29.274  22.341  1.00  0.00     0.073 C 
ATOM     29  O   UNL A   1      28.533  29.871  21.300  1.00  0.00    -0.545 OA
ATOM     30  O   UNL A   1      27.658  28.406  22.705  1.00  0.00    -0.545 OA
ENDBRANCH  25  28
ENDBRANCH  18  21
ENDBRANCH   6  14
BRANCH  10  31
ATOM     31  C   UNL A   1      32.454  20.590  24.381  1.00  0.00     0.206 C 
BRANCH  31  32
ATOM     32  C   UNL A   1      32.306  19.747  23.182  1.00  0.00     0.123 A 
ATOM     33  C   UNL A   1      32.069  20.024  21.854  1.00  0.00     0.047 A 
ATOM     34  O   UNL A   1      32.458  18.407  23.365  1.00  0.00    -0.467 OA
ATOM     35  C   UNL A   1      32.041  18.776  21.193  1.00  0.00     0.042 A 
ATOM     36  C   UNL A   1      32.288  17.824  22.154  1.00  0.00     0.195 A 
ENDBRANCH  31  32
ENDBRANCH  10  31
ENDBRANCH   4   5
ENDBRANCH   3   4
ENDBRANCH   2   3
ENDBRANCH   1   2
BRANCH   1  37
ATOM     37  C   UNL A   1      40.708  20.968  26.678  1.00  0.00     0.202 C 
BRANCH  37  38
ATOM     38  C   UNL A   1      42.249  20.894  26.467  1.00  0.00     0.261 C 
BRANCH  38  39
ATOM     39  O   UNL A   1      42.851  21.683  25.362  1.00  0.00    -0.460 OA
BRANCH  39  40
ATOM     40  C   UNL A   1      43.974  22.430  25.659  1.00  0.00     0.338 C 
ATOM     41  O   UNL A   1      45.100  21.947  25.664  1.00  0.00    -0.246 OA
BRANCH  40  42
ATOM     42  C   UNL A   1      43.770  23.936  25.956  1.00  0.00     0.060 A 
ATOM     43  C   UNL A   1      43.795  24.384  27.271  1.00  0.00     0.016 A 
ATOM     44  C   UNL A   1      43.264  24.898  25.048  1.00  0.00     0.016 A 
ATOM     45  C   UNL A   1      43.409  25.739  27.633  1.00  0.00     0.010 A 
ATOM     46  C   UNL A   1      42.796  26.265  25.441  1.00  0.00     0.010 A 
ATOM     47  C   UNL A   1      42.853  26.760  26.762  1.00  0.00    -0.014 A 
BRANCH  47  48
ATOM     48  C   UNL A   1      41.988  28.024  27.491  1.00  0.00     0.031 A 
ATOM     49  C   UNL A   1      43.085  29.007  27.705  1.00  0.00     0.074 A 
ATOM     50  C   UNL A   1      40.774  28.457  28.089  1.00  0.00     0.049 A 
ATOM     51  N   UNL A   1      44.098  28.626  28.427  1.00  0.00    -0.248 NA
ATOM     52  C   UNL A   1      43.337  30.177  26.867  1.00  0.00     0.031 C 
ATOM     53  C   UNL A   1      39.537  27.683  28.324  1.00  0.00     0.029 A 
ATOM     54  N   UNL A   1      40.330  29.728  28.661  1.00  0.00    -0.354 N 
ATOM     55  C   UNL A   1      45.022  29.634  28.376  1.00  0.00     0.074 A 
ATOM     56  C   UNL A   1      44.599  30.442  27.236  1.00  0.00     0.031 C 
ATOM     57  C   UNL A   1      38.508  28.454  28.802  1.00  0.00     0.029 A 
ATOM     58  C   UNL A   1      38.912  29.849  29.016  1.00  0.00     0.049 A 
ATOM     59  H   UNL A   1      40.957  30.474  28.802  1.00  0.00     0.167 HD
ATOM     60  C   UNL A   1      45.473  30.046  29.597  1.00  0.00     0.031 A 
ATOM     61  C   UNL A   1      38.131  30.913  29.518  1.00  0.00     0.031 A 
ATOM     62  C   UNL A   1      44.764  31.217  30.041  1.00  0.00     0.049 A 
ATOM     63  C   UNL A   1      39.052  31.813  30.217  1.00  0.00     0.074 A 
ATOM     64  C   UNL A   1      44.366  32.371  29.395  1.00  0.00     0.029 A 
ATOM     65  N   UNL A   1      43.950  31.075  31.145  1.00  0.00    -0.354 N 
ATOM     66  N   UNL A   1      39.426  31.556  31.435  1.00  0.00    -0.248 NA
ATOM     67  C   UNL A   1      39.471  33.107  29.694  1.00  0.00     0.031 C 
ATOM     68  C   UNL A   1      43.034  32.564  29.809  1.00  0.00     0.029 A 
ATOM     69  C   UNL A   1      42.818  31.839  30.973  1.00  0.00     0.049 A 
ATOM     70  H   UNL A   1      44.147  30.516  31.931  1.00  0.00     0.167 HD
ATOM     71  C   UNL A   1      40.554  32.300  31.547  1.00  0.00     0.074 A 
ATOM     72  C   UNL A   1      40.367  33.417  30.636  1.00  0.00     0.031 C 
ATOM     73  C   UNL A   1      41.680  31.595  31.818  1.00  0.00     0.031 A 
BRANCH  60  74
ATOM     74  C   UNL A   1      45.869  28.909  30.515  1.00  0.00    -0.014 A 
ATOM     75  C   UNL A   1      47.083  28.252  30.306  1.00  0.00     0.009 A 
ATOM     76  C   UNL A   1      44.992  28.386  31.493  1.00  0.00     0.009 A 
ATOM     77  C   UNL A   1      47.371  27.066  30.993  1.00  0.00     0.001 A 
ATOM     78  C   UNL A   1      45.253  27.179  32.137  1.00  0.00     0.001 A 
ATOM     79  C   UNL A   1      46.443  26.513  31.879  1.00  0.00     0.000 A 
ENDBRANCH  60  74
BRANCH  61  80
ATOM     80  C   UNL A   1      36.682  31.463  29.874  1.00  0.00    -0.014 A 
ATOM     81  C   UNL A   1      36.135  31.256  31.197  1.00  0.00     0.009 A 
ATOM     82  C   UNL A   1      36.076  32.528  29.191  1.00  0.00     0.009 A 
ATOM     83  C   UNL A   1      35.175  32.095  31.817  1.00  0.00     0.001 A 
ATOM     84  C   UNL A   1      35.076  33.354  29.802  1.00  0.00     0.001 A 
ATOM     85  C   UNL A   1      34.652  33.163  31.119  1.00  0.00     0.000 A 
ENDBRANCH  61  80
BRANCH  73  86
ATOM     86  C   UNL A   1      41.558  30.433  32.790  1.00  0.00    -0.014 A 
ATOM     87  C   UNL A   1      41.626  30.536  34.198  1.00  0.00     0.009 A 
ATOM     88  C   UNL A   1      41.417  29.149  32.252  1.00  0.00     0.009 A 
ATOM     89  C   UNL A   1      41.608  29.405  35.024  1.00  0.00     0.001 A 
ATOM     90  C   UNL A   1      41.350  28.020  33.076  1.00  0.00     0.001 A 
ATOM     91  C   UNL A   1      41.462  28.146  34.459  1.00  0.00     0.000 A 
ENDBRANCH  73  86
ENDBRANCH  47  48
ENDBRANCH  40  42
ENDBRANCH  39  40
ENDBRANCH  38  39
ENDBRANCH  37  38
ENDBRANCH   1  37
TORSDOF 18
ENDMDL
MODEL 2
REMARK VINA RESULT:     -11.0      6.869     10.897
REMARK SMILES Cc1cc(/C=C2\C(=O)N(Cc3ccco3)C(=O)N=C2OCCOCCOC(=O)c2ccc(-c3c4nc(c(-c5ccccc5)c5ccc([nH]5)c(-c5ccccc5)c5nc(c(-c6ccccc6)c6ccc3[nH]6)C=C5)C=C4)cc2)c(C)n1-c1ccc(Cl)c(C(=O)[O-])c1
REMARK SMILES IDX 23 1 22 2 21 3 20 4 19 5 5 6 6 7 7 8 8 9 9 10 18 11 16 12
REMARK SMILES IDX 17 13 4 14 1 15 2 16 3 17 79 18 77 19 78 20 80 21 81 22
REMARK SMILES IDX 89 23 82 24 85 25 83 26 84 27 86 28 87 29 88 30 10 31 11 32
REMARK SMILES IDX 12 33 15 34 13 35 14 36 24 37 25 38 26 39 27 40 28 41 29 42
REMARK SMILES IDX 30 43 76 44 31 45 75 46 32 47 33 48 34 49 69 50 35 51 74 52
REMARK SMILES IDX 68 53 70 54 36 55 73 56 67 57 66 58 37 60 59 61 44 62 58 63
REMARK SMILES IDX 45 64 48 65 57 66 71 67 46 68 47 69 56 71 72 72 49 73 38 74
REMARK SMILES IDX 39 75 43 76 40 77 42 78 41 79 60 80 61 81 65 82 62 83 64 84
REMARK SMILES IDX 63 85 50 86 51 87 55 88 52 89 54 90 53 91
REMARK H PARENT 70 59 48 70
REMARK Flexibility Score: inf
ROOT
ATOM      1  O   UNL A   1      40.950  27.403  29.741  1.00  0.00    -0.374 OA
ENDROOT
BRANCH   1   2
ATOM      2  C   UNL A   1      41.925  26.810  28.889  1.00  0.00     0.202 C 
BRANCH   2   3
ATOM      3  C   UNL A   1      43.156  26.178  29.574  1.00  0.00     0.260 C 
BRANCH   3   4
ATOM      4  O   UNL A   1      43.227  24.738  29.461  1.00  0.00    -0.475 OA
BRANCH   4   5
ATOM      5  C   UNL A   1      43.707  24.262  28.285  1.00  0.00     0.231 C 
ATOM      6  C   UNL A   1      41.504  23.253  27.740  1.00  0.00     0.029 C 
ATOM      7  C   UNL A   1      42.679  23.786  27.343  1.00  0.00     0.103 C 
ATOM      8  C   UNL A   1      43.194  23.773  25.958  1.00  0.00     0.267 C 
ATOM      9  O   UNL A   1      42.521  24.128  24.999  1.00  0.00    -0.268 OA
ATOM     10  N   UNL A   1      44.495  23.314  25.907  1.00  0.00    -0.250 N 
ATOM     11  N   UNL A   1      44.969  24.216  28.041  1.00  0.00    -0.156 NA
ATOM     12  C   UNL A   1      45.398  23.545  26.932  1.00  0.00     0.354 C 
ATOM     13  O   UNL A   1      46.556  23.142  26.866  1.00  0.00    -0.245 OA
BRANCH   6  14
ATOM     14  C   UNL A   1      40.491  22.530  27.007  1.00  0.00    -0.003 A 
ATOM     15  C   UNL A   1      39.077  19.425  25.482  1.00  0.00     0.065 C 
ATOM     16  C   UNL A   1      39.426  20.772  26.017  1.00  0.00     0.020 A 
ATOM     17  C   UNL A   1      40.571  21.146  26.700  1.00  0.00     0.031 A 
ATOM     18  N   UNL A   1      38.655  21.908  25.842  1.00  0.00    -0.318 N 
ATOM     19  C   UNL A   1      39.338  23.000  26.384  1.00  0.00     0.027 A 
ATOM     20  C   UNL A   1      38.753  24.366  26.351  1.00  0.00     0.065 C 
BRANCH  18  21
ATOM     21  C   UNL A   1      37.342  21.973  25.294  1.00  0.00     0.046 A 
ATOM     22  C   UNL A   1      37.164  22.378  23.970  1.00  0.00     0.028 A 
ATOM     23  C   UNL A   1      36.235  21.814  26.137  1.00  0.00     0.038 A 
ATOM     24  C   UNL A   1      35.894  22.730  23.520  1.00  0.00     0.023 A 
ATOM     25  C   UNL A   1      34.941  22.145  25.679  1.00  0.00     0.018 A 
ATOM     26  C   UNL A   1      34.784  22.635  24.371  1.00  0.00     0.050 A 
ATOM     27  Cl  UNL A   1      33.286  23.186  23.707  1.00  0.00    -0.084 Cl
BRANCH  25  28
ATOM     28  C   UNL A   1      33.772  22.010  26.602  1.00  0.00     0.073 C 
ATOM     29  O   UNL A   1      32.712  21.475  26.398  1.00  0.00    -0.545 OA
ATOM     30  O   UNL A   1      34.016  22.570  27.807  1.00  0.00    -0.545 OA
ENDBRANCH  25  28
ENDBRANCH  18  21
ENDBRANCH   6  14
BRANCH  10  31
ATOM     31  C   UNL A   1      44.953  22.570  24.750  1.00  0.00     0.206 C 
BRANCH  31  32
ATOM     32  C   UNL A   1      44.875  21.116  24.978  1.00  0.00     0.123 A 
ATOM     33  C   UNL A   1      43.835  20.256  25.256  1.00  0.00     0.047 A 
ATOM     34  O   UNL A   1      46.043  20.426  24.870  1.00  0.00    -0.467 OA
ATOM     35  C   UNL A   1      44.409  18.970  25.358  1.00  0.00     0.042 A 
ATOM     36  C   UNL A   1      45.753  19.125  25.110  1.00  0.00     0.195 A 
ENDBRANCH  31  32
ENDBRANCH  10  31
ENDBRANCH   4   5
ENDBRANCH   3   4
ENDBRANCH   2   3
ENDBRANCH   1   2
BRANCH   1  37
ATOM     37  C   UNL A   1      40.720  28.809  29.578  1.00  0.00     0.202 C 
BRANCH  37  38
ATOM     38  C   UNL A   1      41.887  29.763  29.969  1.00  0.00     0.261 C 
BRANCH  38  39
ATOM     39  O   UNL A   1      41.624  30.831  30.967  1.00  0.00    -0.460 OA
BRANCH  39  40
ATOM     40  C   UNL A   1      41.064  32.004  30.503  1.00  0.00     0.338 C 
ATOM     41  O   UNL A   1      39.853  32.147  30.375  1.00  0.00    -0.246 OA
BRANCH  40  42
ATOM     42  C   UNL A   1      42.025  33.174  30.177  1.00  0.00     0.060 A 
ATOM     43  C   UNL A   1      41.657  34.474  30.500  1.00  0.00     0.016 A 
ATOM     44  C   UNL A   1      43.142  33.110  29.309  1.00  0.00     0.016 A 
ATOM     45  C   UNL A   1      42.412  35.627  30.039  1.00  0.00     0.010 A 
ATOM     46  C   UNL A   1      43.868  34.306  28.777  1.00  0.00     0.010 A 
ATOM     47  C   UNL A   1      43.541  35.635  29.124  1.00  0.00    -0.014 A 
BRANCH  47  48
ATOM     48  C   UNL A   1      43.889  37.089  28.323  1.00  0.00     0.031 A 
ATOM     49  C   UNL A   1      45.290  37.313  28.776  1.00  0.00     0.074 A 
ATOM     50  C   UNL A   1      43.397  38.195  27.579  1.00  0.00     0.049 A 
ATOM     51  N   UNL A   1      45.498  37.397  30.057  1.00  0.00    -0.248 NA
ATOM     52  C   UNL A   1      46.482  37.035  27.979  1.00  0.00     0.031 C 
ATOM     53  C   UNL A   1      42.007  38.484  27.171  1.00  0.00     0.029 A 
ATOM     54  N   UNL A   1      44.031  39.375  26.991  1.00  0.00    -0.354 N 
ATOM     55  C   UNL A   1      46.853  37.471  30.234  1.00  0.00     0.074 A 
ATOM     56  C   UNL A   1      47.399  37.020  28.957  1.00  0.00     0.031 C 
ATOM     57  C   UNL A   1      41.910  39.572  26.341  1.00  0.00     0.029 A 
ATOM     58  C   UNL A   1      43.209  40.214  26.112  1.00  0.00     0.049 A 
ATOM     59  H   UNL A   1      44.972  39.599  27.176  1.00  0.00     0.167 HD
ATOM     60  C   UNL A   1      47.262  38.509  31.021  1.00  0.00     0.031 A 
ATOM     61  C   UNL A   1      43.487  41.364  25.340  1.00  0.00     0.031 A 
ATOM     62  C   UNL A   1      47.676  39.632  30.221  1.00  0.00     0.049 A 
ATOM     63  C   UNL A   1      44.642  42.016  25.964  1.00  0.00     0.074 A 
ATOM     64  C   UNL A   1      48.432  39.731  29.069  1.00  0.00     0.029 A 
ATOM     65  N   UNL A   1      46.903  40.771  30.291  1.00  0.00    -0.354 N 
ATOM     66  N   UNL A   1      44.483  42.788  26.996  1.00  0.00    -0.248 NA
ATOM     67  C   UNL A   1      45.984  41.996  25.398  1.00  0.00     0.031 C 
ATOM     68  C   UNL A   1      47.710  40.621  28.250  1.00  0.00     0.029 A 
ATOM     69  C   UNL A   1      46.836  41.351  29.045  1.00  0.00     0.049 A 
ATOM     70  H   UNL A   1      46.467  41.115  31.105  1.00  0.00     0.167 HD
ATOM     71  C   UNL A   1      45.732  42.813  27.525  1.00  0.00     0.074 A 
ATOM     72  C   UNL A   1      46.627  42.604  26.399  1.00  0.00     0.031 C 
ATOM     73  C   UNL A   1      45.825  42.343  28.793  1.00  0.00     0.031 A 
BRANCH  60  74
ATOM     74  C   UNL A   1      46.477  38.643  32.308  1.00  0.00    -0.014 A 
ATOM     75  C   UNL A   1      46.700  37.733  33.343  1.00  0.00     0.009 A 
ATOM     76  C   UNL A   1      45.420  39.570  32.456  1.00  0.00     0.009 A 
ATOM     77  C   UNL A   1      45.840  37.698  34.448  1.00  0.00     0.001 A 
ATOM     78  C   UNL A   1      44.533  39.500  33.527  1.00  0.00     0.001 A 
ATOM     79  C   UNL A   1      44.739  38.555  34.522  1.00  0.00     0.000 A 
ENDBRANCH  60  74
BRANCH  61  80
ATOM     80  C   UNL A   1      42.980  42.400  24.246  1.00  0.00    -0.014 A 
ATOM     81  C   UNL A   1      43.932  43.231  23.542  1.00  0.00     0.009 A 
ATOM     82  C   UNL A   1      41.764  42.260  23.561  1.00  0.00     0.009 A 
ATOM     83  C   UNL A   1      43.737  43.764  22.244  1.00  0.00     0.001 A 
ATOM     84  C   UNL A   1      41.550  42.832  22.264  1.00  0.00     0.001 A 
ATOM     85  C   UNL A   1      42.541  43.550  21.591  1.00  0.00     0.000 A 
ENDBRANCH  61  80
BRANCH  73  86
ATOM     86  C   UNL A   1      44.698  42.690  29.751  1.00  0.00    -0.014 A 
ATOM     87  C   UNL A   1      44.602  43.885  30.501  1.00  0.00     0.009 A 
ATOM     88  C   UNL A   1      43.695  41.734  29.948  1.00  0.00     0.009 A 
ATOM     89  C   UNL A   1      43.585  44.089  31.441  1.00  0.00     0.001 A 
ATOM     90  C   UNL A   1      42.650  41.954  30.852  1.00  0.00     0.001 A 
ATOM     91  C   UNL A   1      42.603  43.122  31.609  1.00  0.00     0.000 A 
ENDBRANCH  73  86
ENDBRANCH  47  48
ENDBRANCH  40  42
ENDBRANCH  39  40
ENDBRANCH  38  39
ENDBRANCH  37  38
ENDBRANCH   1  37
TORSDOF 18
ENDMDL
MODEL 3
REMARK VINA RESULT:     -10.3      6.047     11.636
REMARK SMILES Cc1cc(/C=C2\C(=O)N(Cc3ccco3)C(=O)N=C2OCCOCCOC(=O)c2ccc(-c3c4nc(c(-c5ccccc5)c5ccc([nH]5)c(-c5ccccc5)c5nc(c(-c6ccccc6)c6ccc3[nH]6)C=C5)C=C4)cc2)c(C)n1-c1ccc(Cl)c(C(=O)[O-])c1
REMARK SMILES IDX 23 1 22 2 21 3 20 4 19 5 5 6 6 7 7 8 8 9 9 10 18 11 16 12
REMARK SMILES IDX 17 13 4 14 1 15 2 16 3 17 79 18 77 19 78 20 80 21 81 22
REMARK SMILES IDX 89 23 82 24 85 25 83 26 84 27 86 28 87 29 88 30 10 31 11 32
REMARK SMILES IDX 12 33 15 34 13 35 14 36 24 37 25 38 26 39 27 40 28 41 29 42
REMARK SMILES IDX 30 43 76 44 31 45 75 46 32 47 33 48 34 49 69 50 35 51 74 52
REMARK SMILES IDX 68 53 70 54 36 55 73 56 67 57 66 58 37 60 59 61 44 62 58 63
REMARK SMILES IDX 45 64 48 65 57 66 71 67 46 68 47 69 56 71 72 72 49 73 38 74
REMARK SMILES IDX 39 75 43 76 40 77 42 78 41 79 60 80 61 81 65 82 62 83 64 84
REMARK SMILES IDX 63 85 50 86 51 87 55 88 52 89 54 90 53 91
REMARK H PARENT 70 59 48 70
REMARK Flexibility Score: inf
ROOT
ATOM      1  O   UNL A   1      42.082  34.365  34.967  1.00  0.00    -0.374 OA
ENDROOT
BRANCH   1   2
ATOM      2  C   UNL A   1      40.971  35.242  35.125  1.00  0.00     0.202 C 
BRANCH   2   3
ATOM      3  C   UNL A   1      39.570  34.644  34.872  1.00  0.00     0.260 C 
BRANCH   3   4
ATOM      4  O   UNL A   1      39.304  34.312  33.490  1.00  0.00    -0.475 OA
BRANCH   4   5
ATOM      5  C   UNL A   1      37.997  34.137  33.168  1.00  0.00     0.231 C 
ATOM      6  C   UNL A   1      38.604  32.507  31.396  1.00  0.00     0.029 C 
ATOM      7  C   UNL A   1      37.722  32.977  32.303  1.00  0.00     0.103 C 
ATOM      8  C   UNL A   1      36.310  32.557  32.413  1.00  0.00     0.267 C 
ATOM      9  O   UNL A   1      35.972  31.381  32.449  1.00  0.00    -0.268 OA
ATOM     10  N   UNL A   1      35.461  33.644  32.462  1.00  0.00    -0.250 N 
ATOM     11  N   UNL A   1      37.088  34.950  33.577  1.00  0.00    -0.156 NA
ATOM     12  C   UNL A   1      35.830  34.840  33.059  1.00  0.00     0.354 C 
ATOM     13  O   UNL A   1      35.059  35.794  33.106  1.00  0.00    -0.245 OA
BRANCH   6  14
ATOM     14  C   UNL A   1      38.446  31.560  30.316  1.00  0.00    -0.003 A 
ATOM     15  C   UNL A   1      36.656  30.195  27.333  1.00  0.00     0.065 C 
ATOM     16  C   UNL A   1      37.542  30.562  28.475  1.00  0.00     0.020 A 
ATOM     17  C   UNL A   1      37.371  31.588  29.389  1.00  0.00     0.031 A 
ATOM     18  N   UNL A   1      38.674  29.857  28.845  1.00  0.00    -0.318 N 
ATOM     19  C   UNL A   1      39.189  30.423  30.014  1.00  0.00     0.027 A 
ATOM     20  C   UNL A   1      40.417  29.880  30.654  1.00  0.00     0.065 C 
BRANCH  18  21
ATOM     21  C   UNL A   1      39.291  28.793  28.128  1.00  0.00     0.046 A 
ATOM     22  C   UNL A   1      39.054  27.472  28.509  1.00  0.00     0.028 A 
ATOM     23  C   UNL A   1      40.272  29.085  27.172  1.00  0.00     0.038 A 
ATOM     24  C   UNL A   1      39.869  26.453  28.020  1.00  0.00     0.023 A 
ATOM     25  C   UNL A   1      41.086  28.054  26.653  1.00  0.00     0.018 A 
ATOM     26  C   UNL A   1      40.896  26.738  27.110  1.00  0.00     0.050 A 
ATOM     27  Cl  UNL A   1      41.883  25.394  26.654  1.00  0.00    -0.084 Cl
BRANCH  25  28
ATOM     28  C   UNL A   1      42.157  28.384  25.663  1.00  0.00     0.073 C 
ATOM     29  O   UNL A   1      42.346  27.908  24.574  1.00  0.00    -0.545 OA
ATOM     30  O   UNL A   1      42.972  29.364  26.114  1.00  0.00    -0.545 OA
ENDBRANCH  25  28
ENDBRANCH  18  21
ENDBRANCH   6  14
BRANCH  10  31
ATOM     31  C   UNL A   1      34.135  33.551  31.883  1.00  0.00     0.206 C 
BRANCH  31  32
ATOM     32  C   UNL A   1      34.064  34.245  30.585  1.00  0.00     0.123 A 
ATOM     33  C   UNL A   1      34.802  34.160  29.425  1.00  0.00     0.047 A 
ATOM     34  O   UNL A   1      33.053  35.144  30.438  1.00  0.00    -0.467 OA
ATOM     35  C   UNL A   1      34.228  35.089  28.529  1.00  0.00     0.042 A 
ATOM     36  C   UNL A   1      33.165  35.658  29.190  1.00  0.00     0.195 A 
ENDBRANCH  31  32
ENDBRANCH  10  31
ENDBRANCH   4   5
ENDBRANCH   3   4
ENDBRANCH   2   3
ENDBRANCH   1   2
BRANCH   1  37
ATOM     37  C   UNL A   1      43.350  34.837  35.441  1.00  0.00     0.202 C 
BRANCH  37  38
ATOM     38  C   UNL A   1      43.984  36.037  34.677  1.00  0.00     0.261 C 
BRANCH  38  39
ATOM     39  O   UNL A   1      44.731  35.763  33.423  1.00  0.00    -0.460 OA
BRANCH  39  40
ATOM     40  C   UNL A   1      43.989  35.456  32.301  1.00  0.00     0.338 C 
ATOM     41  O   UNL A   1      43.350  36.301  31.684  1.00  0.00    -0.246 OA
BRANCH  40  42
ATOM     42  C   UNL A   1      44.016  33.987  31.809  1.00  0.00     0.060 A 
ATOM     43  C   UNL A   1      45.222  33.300  31.770  1.00  0.00     0.016 A 
ATOM     44  C   UNL A   1      42.977  33.331  31.106  1.00  0.00     0.016 A 
ATOM     45  C   UNL A   1      45.350  32.000  31.131  1.00  0.00     0.010 A 
ATOM     46  C   UNL A   1      43.137  32.029  30.385  1.00  0.00     0.010 A 
ATOM     47  C   UNL A   1      44.339  31.289  30.367  1.00  0.00    -0.014 A 
BRANCH  47  48
ATOM     48  C   UNL A   1      44.872  30.097  29.283  1.00  0.00     0.031 A 
ATOM     49  C   UNL A   1      44.350  28.875  29.956  1.00  0.00     0.074 A 
ATOM     50  C   UNL A   1      45.683  29.772  28.164  1.00  0.00     0.049 A 
ATOM     51  N   UNL A   1      44.750  28.646  31.172  1.00  0.00    -0.248 NA
ATOM     52  C   UNL A   1      43.144  28.151  29.561  1.00  0.00     0.031 C 
ATOM     53  C   UNL A   1      46.579  30.656  27.389  1.00  0.00     0.029 A 
ATOM     54  N   UNL A   1      45.926  28.535  27.421  1.00  0.00    -0.354 N 
ATOM     55  C   UNL A   1      44.050  27.558  31.620  1.00  0.00     0.074 A 
ATOM     56  C   UNL A   1      42.936  27.447  30.682  1.00  0.00     0.031 C 
ATOM     57  C   UNL A   1      47.109  30.040  26.283  1.00  0.00     0.029 A 
ATOM     58  C   UNL A   1      46.699  28.636  26.178  1.00  0.00     0.049 A 
ATOM     59  H   UNL A   1      45.585  27.669  27.741  1.00  0.00     0.167 HD
ATOM     60  C   UNL A   1      44.826  26.567  32.148  1.00  0.00     0.031 A 
ATOM     61  C   UNL A   1      47.067  27.693  25.193  1.00  0.00     0.031 A 
ATOM     62  C   UNL A   1      45.083  25.539  31.176  1.00  0.00     0.049 A 
ATOM     63  C   UNL A   1      47.061  26.381  25.847  1.00  0.00     0.074 A 
ATOM     64  C   UNL A   1      44.280  24.911  30.244  1.00  0.00     0.029 A 
ATOM     65  N   UNL A   1      46.385  25.397  30.742  1.00  0.00    -0.354 N 
ATOM     66  N   UNL A   1      48.080  25.993  26.553  1.00  0.00    -0.248 NA
ATOM     67  C   UNL A   1      46.032  25.374  25.627  1.00  0.00     0.031 C 
ATOM     68  C   UNL A   1      45.051  24.901  29.065  1.00  0.00     0.029 A 
ATOM     69  C   UNL A   1      46.384  25.091  29.401  1.00  0.00     0.049 A 
ATOM     70  H   UNL A   1      47.187  25.499  31.304  1.00  0.00     0.167 HD
ATOM     71  C   UNL A   1      47.537  25.015  27.319  1.00  0.00     0.074 A 
ATOM     72  C   UNL A   1      46.439  24.478  26.531  1.00  0.00     0.031 C 
ATOM     73  C   UNL A   1      47.607  25.230  28.656  1.00  0.00     0.031 A 
BRANCH  60  74
ATOM     74  C   UNL A   1      45.862  27.066  33.133  1.00  0.00    -0.014 A 
ATOM     75  C   UNL A   1      45.568  28.170  33.936  1.00  0.00     0.009 A 
ATOM     76  C   UNL A   1      47.176  26.547  33.176  1.00  0.00     0.009 A 
ATOM     77  C   UNL A   1      46.578  28.783  34.689  1.00  0.00     0.001 A 
ATOM     78  C   UNL A   1      48.192  27.187  33.882  1.00  0.00     0.001 A 
ATOM     79  C   UNL A   1      47.892  28.314  34.634  1.00  0.00     0.000 A 
ENDBRANCH  60  74
BRANCH  61  80
ATOM     80  C   UNL A   1      47.712  27.428  23.764  1.00  0.00    -0.014 A 
ATOM     81  C   UNL A   1      47.215  28.136  22.605  1.00  0.00     0.009 A 
ATOM     82  C   UNL A   1      49.013  26.934  23.588  1.00  0.00     0.009 A 
ATOM     83  C   UNL A   1      47.976  28.424  21.444  1.00  0.00     0.001 A 
ATOM     84  C   UNL A   1      49.771  27.191  22.399  1.00  0.00     0.001 A 
ATOM     85  C   UNL A   1      49.271  27.962  21.346  1.00  0.00     0.000 A 
ENDBRANCH  61  80
BRANCH  73  86
ATOM     86  C   UNL A   1      48.882  25.857  29.196  1.00  0.00    -0.014 A 
ATOM     87  C   UNL A   1      50.096  25.171  29.425  1.00  0.00     0.009 A 
ATOM     88  C   UNL A   1      48.842  27.213  29.541  1.00  0.00     0.009 A 
ATOM     89  C   UNL A   1      51.197  25.797  30.022  1.00  0.00     0.001 A 
ATOM     90  C   UNL A   1      49.956  27.853  30.093  1.00  0.00     0.001 A 
ATOM     91  C   UNL A   1      51.127  27.143  30.349  1.00  0.00     0.000 A 
ENDBRANCH  73  86
ENDBRANCH  47  48
ENDBRANCH  40  42
ENDBRANCH  39  40
ENDBRANCH  38  39
ENDBRANCH  37  38
ENDBRANCH   1  37
TORSDOF 18
ENDMDL
