MODEL 1
REMARK VINA RESULT:      -9.6      0.000      0.000
REMARK SMILES CC[C@H](C)N(CC)c1cc(C)c(N)c(C(=O)OCCOCCOC(=O)c2ccc(-c3c4nc(c(-c5ccccc5)c5ccc([nH]5)c(-c5ccccc5)c5nc(c(-c6ccccc6)c6ccc3[nH]6)C=C5)C=C4)cc2)c1
REMARK SMILES IDX 19 1 18 2 17 3 15 4 16 5 14 6 8 7 9 8 74 9 10 10 11 11 12 12
REMARK SMILES IDX 5 13 3 14 4 15 2 16 1 17 6 18 7 19 13 20 20 23 21 24 22 25
REMARK SMILES IDX 23 26 24 27 25 28 26 29 27 30 73 31 28 32 72 33 29 34 30 35
REMARK SMILES IDX 31 36 66 37 32 38 71 39 65 40 67 41 33 42 70 43 64 44 63 45
REMARK SMILES IDX 34 47 56 48 41 49 55 50 42 51 45 52 54 53 68 54 43 55 44 56
REMARK SMILES IDX 53 58 69 59 46 60 35 61 36 62 40 63 37 64 39 65 38 66 57 67
REMARK SMILES IDX 58 68 62 69 59 70 61 71 60 72 47 73 48 74 52 75 49 76 51 77
REMARK SMILES IDX 50 78
REMARK H PARENT 13 21 13 22 67 46 45 57
REMARK Flexibility Score: inf
ROOT
ATOM      1  C   UNL A   1      31.919  29.349  27.198  1.00  0.00     0.202 C 
ENDROOT
BRANCH   1   2
ATOM      2  C   UNL A   1      31.645  28.206  26.217  1.00  0.00     0.261 C 
BRANCH   2   3
ATOM      3  O   UNL A   1      32.827  27.417  26.004  1.00  0.00    -0.460 OA
BRANCH   3   4
ATOM      4  C   UNL A   1      33.479  27.676  24.842  1.00  0.00     0.340 C 
ATOM      5  O   UNL A   1      34.098  28.697  24.582  1.00  0.00    -0.246 OA
BRANCH   4   6
ATOM      6  C   UNL A   1      33.465  26.486  23.947  1.00  0.00     0.085 A 
ATOM      7  C   UNL A   1      33.877  24.083  23.613  1.00  0.00     0.038 A 
ATOM      8  C   UNL A   1      33.365  24.260  22.324  1.00  0.00     0.031 A 
ATOM      9  C   UNL A   1      33.886  25.228  24.423  1.00  0.00     0.043 A 
ATOM     10  C   UNL A   1      32.964  25.511  21.806  1.00  0.00    -0.025 A 
ATOM     11  C   UNL A   1      32.503  25.585  20.376  1.00  0.00     0.047 C 
ATOM     12  C   UNL A   1      33.022  26.648  22.620  1.00  0.00     0.049 A 
BRANCH   7  13
ATOM     13  N   UNL A   1      34.352  22.859  24.066  1.00  0.00    -0.369 N 
BRANCH  13  14
ATOM     14  C   UNL A   1      35.770  22.551  24.401  1.00  0.00     0.078 C 
ATOM     15  C   UNL A   1      36.746  22.743  23.240  1.00  0.00     0.031 C 
BRANCH  14  16
ATOM     16  C   UNL A   1      36.258  23.135  25.741  1.00  0.00     0.021 C 
ATOM     17  C   UNL A   1      37.610  23.830  25.769  1.00  0.00     0.006 C 
ENDBRANCH  14  16
ENDBRANCH  13  14
BRANCH  13  18
ATOM     18  C   UNL A   1      33.421  21.713  24.105  1.00  0.00     0.113 C 
ATOM     19  C   UNL A   1      33.938  20.573  24.972  1.00  0.00     0.027 C 
ENDBRANCH  13  18
ENDBRANCH   7  13
BRANCH  12  20
ATOM     20  N   UNL A   1      32.826  27.917  22.067  1.00  0.00    -0.398 N 
ATOM     21  H   UNL A   1      33.258  28.703  22.472  1.00  0.00     0.156 HD
ATOM     22  H   UNL A   1      32.255  28.025  21.272  1.00  0.00     0.156 HD
ENDBRANCH  12  20
ENDBRANCH   4   6
ENDBRANCH   3   4
ENDBRANCH   2   3
ENDBRANCH   1   2
BRANCH   1  23
ATOM     23  O   UNL A   1      32.363  30.572  26.613  1.00  0.00    -0.374 OA
BRANCH  23  24
ATOM     24  C   UNL A   1      31.393  31.619  26.512  1.00  0.00     0.202 C 
BRANCH  24  25
ATOM     25  C   UNL A   1      31.946  33.042  26.663  1.00  0.00     0.261 C 
BRANCH  25  26
ATOM     26  O   UNL A   1      32.307  33.324  28.029  1.00  0.00    -0.460 OA
BRANCH  26  27
ATOM     27  C   UNL A   1      33.364  34.153  28.183  1.00  0.00     0.338 C 
ATOM     28  O   UNL A   1      33.351  35.376  28.216  1.00  0.00    -0.246 OA
BRANCH  27  29
ATOM     29  C   UNL A   1      34.577  33.370  28.493  1.00  0.00     0.060 A 
ATOM     30  C   UNL A   1      34.397  32.059  28.952  1.00  0.00     0.016 A 
ATOM     31  C   UNL A   1      35.858  33.917  28.395  1.00  0.00     0.016 A 
ATOM     32  C   UNL A   1      35.493  31.309  29.372  1.00  0.00     0.010 A 
ATOM     33  C   UNL A   1      36.958  33.165  28.825  1.00  0.00     0.010 A 
ATOM     34  C   UNL A   1      36.775  31.873  29.351  1.00  0.00    -0.014 A 
BRANCH  34  35
ATOM     35  C   UNL A   1      37.893  31.166  30.019  1.00  0.00     0.031 A 
ATOM     36  C   UNL A   1      38.159  31.433  31.475  1.00  0.00     0.074 A 
ATOM     37  C   UNL A   1      38.642  30.271  29.350  1.00  0.00     0.049 A 
ATOM     38  N   UNL A   1      39.083  30.933  32.256  1.00  0.00    -0.248 NA
ATOM     39  C   UNL A   1      37.261  32.392  32.142  1.00  0.00     0.031 C 
ATOM     40  C   UNL A   1      38.463  29.894  27.950  1.00  0.00     0.029 A 
ATOM     41  N   UNL A   1      39.711  29.518  29.770  1.00  0.00    -0.354 N 
ATOM     42  C   UNL A   1      38.885  31.521  33.498  1.00  0.00     0.074 A 
ATOM     43  C   UNL A   1      37.772  32.435  33.363  1.00  0.00     0.031 C 
ATOM     44  C   UNL A   1      39.395  28.982  27.623  1.00  0.00     0.029 A 
ATOM     45  C   UNL A   1      40.251  28.734  28.782  1.00  0.00     0.049 A 
ATOM     46  H   UNL A   1      40.056  29.539  30.692  1.00  0.00     0.167 HD
ATOM     47  C   UNL A   1      39.564  31.316  34.651  1.00  0.00     0.031 A 
ATOM     48  C   UNL A   1      41.325  27.922  28.805  1.00  0.00     0.031 A 
ATOM     49  C   UNL A   1      40.677  30.415  34.787  1.00  0.00     0.049 A 
ATOM     50  C   UNL A   1      42.104  27.759  30.082  1.00  0.00     0.074 A 
ATOM     51  C   UNL A   1      41.417  30.124  35.921  1.00  0.00     0.029 A 
ATOM     52  N   UNL A   1      41.215  29.665  33.754  1.00  0.00    -0.354 N 
ATOM     53  N   UNL A   1      41.888  28.298  31.257  1.00  0.00    -0.248 NA
ATOM     54  C   UNL A   1      43.272  26.866  30.036  1.00  0.00     0.031 C 
ATOM     55  C   UNL A   1      42.438  29.239  35.560  1.00  0.00     0.029 A 
ATOM     56  C   UNL A   1      42.296  28.933  34.216  1.00  0.00     0.049 A 
ATOM     57  H   UNL A   1      40.879  29.654  32.829  1.00  0.00     0.167 HD
ATOM     58  C   UNL A   1      42.874  27.789  32.095  1.00  0.00     0.074 A 
ATOM     59  C   UNL A   1      43.679  26.889  31.297  1.00  0.00     0.031 C 
ATOM     60  C   UNL A   1      43.090  28.044  33.409  1.00  0.00     0.031 A 
BRANCH  47  61
ATOM     61  C   UNL A   1      39.140  32.111  35.854  1.00  0.00    -0.014 A 
ATOM     62  C   UNL A   1      38.192  31.613  36.761  1.00  0.00     0.009 A 
ATOM     63  C   UNL A   1      39.722  33.364  36.099  1.00  0.00     0.009 A 
ATOM     64  C   UNL A   1      37.813  32.369  37.873  1.00  0.00     0.001 A 
ATOM     65  C   UNL A   1      39.361  34.106  37.224  1.00  0.00     0.001 A 
ATOM     66  C   UNL A   1      38.400  33.612  38.106  1.00  0.00     0.000 A 
ENDBRANCH  47  61
BRANCH  48  67
ATOM     67  C   UNL A   1      41.742  27.207  27.571  1.00  0.00    -0.014 A 
ATOM     68  C   UNL A   1      42.662  27.783  26.682  1.00  0.00     0.009 A 
ATOM     69  C   UNL A   1      41.205  25.946  27.268  1.00  0.00     0.009 A 
ATOM     70  C   UNL A   1      43.018  27.122  25.505  1.00  0.00     0.001 A 
ATOM     71  C   UNL A   1      41.583  25.275  26.104  1.00  0.00     0.001 A 
ATOM     72  C   UNL A   1      42.482  25.867  25.219  1.00  0.00     0.000 A 
ENDBRANCH  48  67
BRANCH  60  73
ATOM     73  C   UNL A   1      44.221  27.311  34.076  1.00  0.00    -0.014 A 
ATOM     74  C   UNL A   1      45.508  27.867  34.150  1.00  0.00     0.009 A 
ATOM     75  C   UNL A   1      43.983  26.065  34.676  1.00  0.00     0.009 A 
ATOM     76  C   UNL A   1      46.541  27.172  34.783  1.00  0.00     0.001 A 
ATOM     77  C   UNL A   1      45.011  25.386  35.333  1.00  0.00     0.001 A 
ATOM     78  C   UNL A   1      46.291  25.936  35.378  1.00  0.00     0.000 A 
ENDBRANCH  60  73
ENDBRANCH  34  35
ENDBRANCH  27  29
ENDBRANCH  26  27
ENDBRANCH  25  26
ENDBRANCH  24  25
ENDBRANCH  23  24
ENDBRANCH   1  23
TORSDOF 19
ENDMDL
MODEL 2
REMARK VINA RESULT:      -9.2      2.747      4.071
REMARK SMILES CC[C@H](C)N(CC)c1cc(C)c(N)c(C(=O)OCCOCCOC(=O)c2ccc(-c3c4nc(c(-c5ccccc5)c5ccc([nH]5)c(-c5ccccc5)c5nc(c(-c6ccccc6)c6ccc3[nH]6)C=C5)C=C4)cc2)c1
REMARK SMILES IDX 19 1 18 2 17 3 15 4 16 5 14 6 8 7 9 8 74 9 10 10 11 11 12 12
REMARK SMILES IDX 5 13 3 14 4 15 2 16 1 17 6 18 7 19 13 20 20 23 21 24 22 25
REMARK SMILES IDX 23 26 24 27 25 28 26 29 27 30 73 31 28 32 72 33 29 34 30 35
REMARK SMILES IDX 31 36 66 37 32 38 71 39 65 40 67 41 33 42 70 43 64 44 63 45
REMARK SMILES IDX 34 47 56 48 41 49 55 50 42 51 45 52 54 53 68 54 43 55 44 56
REMARK SMILES IDX 53 58 69 59 46 60 35 61 36 62 40 63 37 64 39 65 38 66 57 67
REMARK SMILES IDX 58 68 62 69 59 70 61 71 60 72 47 73 48 74 52 75 49 76 51 77
REMARK SMILES IDX 50 78
REMARK H PARENT 13 21 13 22 67 46 45 57
REMARK Flexibility Score: inf
ROOT
ATOM      1  C   UNL A   1      33.258  29.353  23.902  1.00  0.00     0.202 C 
ENDROOT
BRANCH   1   2
ATOM      2  C   UNL A   1      33.814  28.377  22.861  1.00  0.00     0.261 C 
BRANCH   2   3
ATOM      3  O   UNL A   1      32.778  27.518  22.357  1.00  0.00    -0.460 OA
BRANCH   3   4
ATOM      4  C   UNL A   1      33.135  26.215  22.231  1.00  0.00     0.340 C 
ATOM      5  O   UNL A   1      33.652  25.707  21.247  1.00  0.00    -0.246 OA
BRANCH   4   6
ATOM      6  C   UNL A   1      32.941  25.483  23.514  1.00  0.00     0.085 A 
ATOM      7  C   UNL A   1      33.827  23.980  25.248  1.00  0.00     0.038 A 
ATOM      8  C   UNL A   1      32.623  24.191  25.928  1.00  0.00     0.031 A 
ATOM      9  C   UNL A   1      33.970  24.675  24.039  1.00  0.00     0.043 A 
ATOM     10  C   UNL A   1      31.562  24.968  25.416  1.00  0.00    -0.025 A 
ATOM     11  C   UNL A   1      30.285  25.056  26.207  1.00  0.00     0.047 C 
ATOM     12  C   UNL A   1      31.710  25.619  24.185  1.00  0.00     0.049 A 
BRANCH   7  13
ATOM     13  N   UNL A   1      34.818  23.135  25.732  1.00  0.00    -0.369 N 
BRANCH  13  14
ATOM     14  C   UNL A   1      34.631  21.704  26.098  1.00  0.00     0.078 C 
ATOM     15  C   UNL A   1      33.980  21.485  27.464  1.00  0.00     0.031 C 
BRANCH  14  16
ATOM     16  C   UNL A   1      34.057  20.818  24.975  1.00  0.00     0.021 C 
ATOM     17  C   UNL A   1      33.045  19.749  25.353  1.00  0.00     0.006 C 
ENDBRANCH  14  16
ENDBRANCH  13  14
BRANCH  13  18
ATOM     18  C   UNL A   1      36.144  23.706  26.038  1.00  0.00     0.113 C 
ATOM     19  C   UNL A   1      37.209  23.273  25.039  1.00  0.00     0.027 C 
ENDBRANCH  13  18
ENDBRANCH   7  13
BRANCH  12  20
ATOM     20  N   UNL A   1      30.607  26.219  23.571  1.00  0.00    -0.398 N 
ATOM     21  H   UNL A   1      29.743  25.749  23.543  1.00  0.00     0.156 HD
ATOM     22  H   UNL A   1      30.695  27.112  23.167  1.00  0.00     0.156 HD
ENDBRANCH  12  20
ENDBRANCH   4   6
ENDBRANCH   3   4
ENDBRANCH   2   3
ENDBRANCH   1   2
BRANCH   1  23
ATOM     23  O   UNL A   1      32.328  28.801  24.831  1.00  0.00    -0.374 OA
BRANCH  23  24
ATOM     24  C   UNL A   1      31.951  29.638  25.930  1.00  0.00     0.202 C 
BRANCH  24  25
ATOM     25  C   UNL A   1      32.949  29.682  27.093  1.00  0.00     0.261 C 
BRANCH  25  26
ATOM     26  O   UNL A   1      33.893  30.760  26.937  1.00  0.00    -0.460 OA
BRANCH  26  27
ATOM     27  C   UNL A   1      34.515  31.146  28.073  1.00  0.00     0.338 C 
ATOM     28  O   UNL A   1      34.090  31.906  28.933  1.00  0.00    -0.246 OA
BRANCH  27  29
ATOM     29  C   UNL A   1      35.761  30.374  28.251  1.00  0.00     0.060 A 
ATOM     30  C   UNL A   1      35.999  29.818  29.515  1.00  0.00     0.016 A 
ATOM     31  C   UNL A   1      36.704  30.242  27.230  1.00  0.00     0.016 A 
ATOM     32  C   UNL A   1      37.208  29.179  29.781  1.00  0.00     0.010 A 
ATOM     33  C   UNL A   1      37.921  29.605  27.501  1.00  0.00     0.010 A 
ATOM     34  C   UNL A   1      38.193  29.106  28.788  1.00  0.00    -0.014 A 
BRANCH  34  35
ATOM     35  C   UNL A   1      39.555  28.646  29.146  1.00  0.00     0.031 A 
ATOM     36  C   UNL A   1      40.431  29.538  29.982  1.00  0.00     0.074 A 
ATOM     37  C   UNL A   1      39.998  27.434  28.763  1.00  0.00     0.049 A 
ATOM     38  N   UNL A   1      41.654  29.340  30.406  1.00  0.00    -0.248 NA
ATOM     39  C   UNL A   1      39.851  30.827  30.396  1.00  0.00     0.031 C 
ATOM     40  C   UNL A   1      39.234  26.461  27.986  1.00  0.00     0.029 A 
ATOM     41  N   UNL A   1      41.206  26.822  28.981  1.00  0.00    -0.354 N 
ATOM     42  C   UNL A   1      41.992  30.478  31.126  1.00  0.00     0.074 A 
ATOM     43  C   UNL A   1      40.858  31.375  31.061  1.00  0.00     0.031 C 
ATOM     44  C   UNL A   1      39.996  25.371  27.786  1.00  0.00     0.029 A 
ATOM     45  C   UNL A   1      41.307  25.583  28.396  1.00  0.00     0.049 A 
ATOM     46  H   UNL A   1      41.932  27.231  29.505  1.00  0.00     0.167 HD
ATOM     47  C   UNL A   1      43.140  30.753  31.789  1.00  0.00     0.031 A 
ATOM     48  C   UNL A   1      42.345  24.727  28.345  1.00  0.00     0.031 A 
ATOM     49  C   UNL A   1      44.273  29.869  31.849  1.00  0.00     0.049 A 
ATOM     50  C   UNL A   1      43.634  25.082  29.035  1.00  0.00     0.074 A 
ATOM     51  C   UNL A   1      45.474  30.050  32.513  1.00  0.00     0.029 A 
ATOM     52  N   UNL A   1      44.347  28.639  31.215  1.00  0.00    -0.354 N 
ATOM     53  N   UNL A   1      43.930  26.149  29.738  1.00  0.00    -0.248 NA
ATOM     54  C   UNL A   1      44.731  24.108  28.931  1.00  0.00     0.031 C 
ATOM     55  C   UNL A   1      46.296  28.953  32.236  1.00  0.00     0.029 A 
ATOM     56  C   UNL A   1      45.585  28.063  31.448  1.00  0.00     0.049 A 
ATOM     57  H   UNL A   1      43.627  28.235  30.679  1.00  0.00     0.167 HD
ATOM     58  C   UNL A   1      45.234  25.961  30.182  1.00  0.00     0.074 A 
ATOM     59  C   UNL A   1      45.666  24.675  29.680  1.00  0.00     0.031 C 
ATOM     60  C   UNL A   1      46.002  26.782  30.940  1.00  0.00     0.031 A 
BRANCH  47  61
ATOM     61  C   UNL A   1      43.239  32.086  32.477  1.00  0.00    -0.014 A 
ATOM     62  C   UNL A   1      42.852  32.247  33.816  1.00  0.00     0.009 A 
ATOM     63  C   UNL A   1      43.758  33.189  31.781  1.00  0.00     0.009 A 
ATOM     64  C   UNL A   1      42.953  33.495  34.435  1.00  0.00     0.001 A 
ATOM     65  C   UNL A   1      43.883  34.428  32.410  1.00  0.00     0.001 A 
ATOM     66  C   UNL A   1      43.473  34.583  33.734  1.00  0.00     0.000 A 
ENDBRANCH  47  61
BRANCH  48  67
ATOM     67  C   UNL A   1      42.217  23.449  27.597  1.00  0.00    -0.014 A 
ATOM     68  C   UNL A   1      42.589  23.367  26.247  1.00  0.00     0.009 A 
ATOM     69  C   UNL A   1      41.703  22.308  28.231  1.00  0.00     0.009 A 
ATOM     70  C   UNL A   1      42.428  22.172  25.541  1.00  0.00     0.001 A 
ATOM     71  C   UNL A   1      41.569  21.107  27.530  1.00  0.00     0.001 A 
ATOM     72  C   UNL A   1      41.922  21.043  26.184  1.00  0.00     0.000 A 
ENDBRANCH  48  67
BRANCH  60  73
ATOM     73  C   UNL A   1      47.378  26.297  31.303  1.00  0.00    -0.014 A 
ATOM     74  C   UNL A   1      48.490  26.581  30.496  1.00  0.00     0.009 A 
ATOM     75  C   UNL A   1      47.569  25.580  32.495  1.00  0.00     0.009 A 
ATOM     76  C   UNL A   1      49.760  26.128  30.859  1.00  0.00     0.001 A 
ATOM     77  C   UNL A   1      48.843  25.153  32.870  1.00  0.00     0.001 A 
ATOM     78  C   UNL A   1      49.936  25.419  32.047  1.00  0.00     0.000 A 
ENDBRANCH  60  73
ENDBRANCH  34  35
ENDBRANCH  27  29
ENDBRANCH  26  27
ENDBRANCH  25  26
ENDBRANCH  24  25
ENDBRANCH  23  24
ENDBRANCH   1  23
TORSDOF 19
ENDMDL
MODEL 3
REMARK VINA RESULT:      -9.1      4.054      8.764
REMARK SMILES CC[C@H](C)N(CC)c1cc(C)c(N)c(C(=O)OCCOCCOC(=O)c2ccc(-c3c4nc(c(-c5ccccc5)c5ccc([nH]5)c(-c5ccccc5)c5nc(c(-c6ccccc6)c6ccc3[nH]6)C=C5)C=C4)cc2)c1
REMARK SMILES IDX 19 1 18 2 17 3 15 4 16 5 14 6 8 7 9 8 74 9 10 10 11 11 12 12
REMARK SMILES IDX 5 13 3 14 4 15 2 16 1 17 6 18 7 19 13 20 20 23 21 24 22 25
REMARK SMILES IDX 23 26 24 27 25 28 26 29 27 30 73 31 28 32 72 33 29 34 30 35
REMARK SMILES IDX 31 36 66 37 32 38 71 39 65 40 67 41 33 42 70 43 64 44 63 45
REMARK SMILES IDX 34 47 56 48 41 49 55 50 42 51 45 52 54 53 68 54 43 55 44 56
REMARK SMILES IDX 53 58 69 59 46 60 35 61 36 62 40 63 37 64 39 65 38 66 57 67
REMARK SMILES IDX 58 68 62 69 59 70 61 71 60 72 47 73 48 74 52 75 49 76 51 77
REMARK SMILES IDX 50 78
REMARK H PARENT 13 21 13 22 67 46 45 57
REMARK Flexibility Score: inf
ROOT
ATOM      1  C   UNL A   1      43.289  19.585  25.848  1.00  0.00     0.202 C 
ENDROOT
BRANCH   1   2
ATOM      2  C   UNL A   1      41.838  19.166  26.102  1.00  0.00     0.261 C 
BRANCH   2   3
ATOM      3  O   UNL A   1      40.983  20.315  26.214  1.00  0.00    -0.460 OA
BRANCH   3   4
ATOM      4  C   UNL A   1      39.716  20.124  25.766  1.00  0.00     0.340 C 
ATOM      5  O   UNL A   1      39.235  19.057  25.415  1.00  0.00    -0.246 OA
BRANCH   4   6
ATOM      6  C   UNL A   1      38.916  21.374  25.882  1.00  0.00     0.085 A 
ATOM      7  C   UNL A   1      36.745  22.521  25.718  1.00  0.00     0.038 A 
ATOM      8  C   UNL A   1      37.410  23.665  26.173  1.00  0.00     0.031 A 
ATOM      9  C   UNL A   1      37.533  21.366  25.609  1.00  0.00     0.043 A 
ATOM     10  C   UNL A   1      38.798  23.714  26.426  1.00  0.00    -0.025 A 
ATOM     11  C   UNL A   1      39.409  25.026  26.838  1.00  0.00     0.047 C 
ATOM     12  C   UNL A   1      39.572  22.559  26.269  1.00  0.00     0.049 A 
BRANCH   7  13
ATOM     13  N   UNL A   1      35.396  22.525  25.388  1.00  0.00    -0.369 N 
BRANCH  13  14
ATOM     14  C   UNL A   1      34.379  21.560  25.890  1.00  0.00     0.078 C 
ATOM     15  C   UNL A   1      33.951  21.795  27.339  1.00  0.00     0.031 C 
BRANCH  14  16
ATOM     16  C   UNL A   1      33.210  21.290  24.921  1.00  0.00     0.021 C 
ATOM     17  C   UNL A   1      33.091  19.902  24.313  1.00  0.00     0.006 C 
ENDBRANCH  14  16
ENDBRANCH  13  14
BRANCH  13  18
ATOM     18  C   UNL A   1      34.926  23.472  24.358  1.00  0.00     0.113 C 
ATOM     19  C   UNL A   1      34.231  24.687  24.958  1.00  0.00     0.027 C 
ENDBRANCH  13  18
ENDBRANCH   7  13
BRANCH  12  20
ATOM     20  N   UNL A   1      40.967  22.638  26.315  1.00  0.00    -0.398 N 
ATOM     21  H   UNL A   1      41.418  23.495  26.140  1.00  0.00     0.156 HD
ATOM     22  H   UNL A   1      41.499  21.836  26.522  1.00  0.00     0.156 HD
ENDBRANCH  12  20
ENDBRANCH   4   6
ENDBRANCH   3   4
ENDBRANCH   2   3
ENDBRANCH   1   2
BRANCH   1  23
ATOM     23  O   UNL A   1      43.487  20.507  24.777  1.00  0.00    -0.374 OA
BRANCH  23  24
ATOM     24  C   UNL A   1      44.435  21.555  25.006  1.00  0.00     0.202 C 
BRANCH  24  25
ATOM     25  C   UNL A   1      43.985  22.954  24.568  1.00  0.00     0.261 C 
BRANCH  25  26
ATOM     26  O   UNL A   1      44.991  23.945  24.854  1.00  0.00    -0.460 OA
BRANCH  26  27
ATOM     27  C   UNL A   1      45.422  23.970  26.136  1.00  0.00     0.338 C 
ATOM     28  O   UNL A   1      46.470  23.520  26.577  1.00  0.00    -0.246 OA
BRANCH  27  29
ATOM     29  C   UNL A   1      44.513  24.796  26.955  1.00  0.00     0.060 A 
ATOM     30  C   UNL A   1      44.672  26.186  26.892  1.00  0.00     0.016 A 
ATOM     31  C   UNL A   1      43.565  24.229  27.811  1.00  0.00     0.016 A 
ATOM     32  C   UNL A   1      43.926  27.014  27.728  1.00  0.00     0.010 A 
ATOM     33  C   UNL A   1      42.821  25.062  28.656  1.00  0.00     0.010 A 
ATOM     34  C   UNL A   1      43.027  26.454  28.644  1.00  0.00    -0.014 A 
BRANCH  34  35
ATOM     35  C   UNL A   1      42.420  27.313  29.688  1.00  0.00     0.031 A 
ATOM     36  C   UNL A   1      43.099  27.426  31.025  1.00  0.00     0.074 A 
ATOM     37  C   UNL A   1      41.299  28.014  29.440  1.00  0.00     0.049 A 
ATOM     38  N   UNL A   1      42.744  28.113  32.081  1.00  0.00    -0.248 NA
ATOM     39  C   UNL A   1      44.346  26.662  31.195  1.00  0.00     0.031 C 
ATOM     40  C   UNL A   1      40.568  28.023  28.175  1.00  0.00     0.029 A 
ATOM     41  N   UNL A   1      40.581  28.855  30.253  1.00  0.00    -0.354 N 
ATOM     42  C   UNL A   1      43.715  27.858  33.041  1.00  0.00     0.074 A 
ATOM     43  C   UNL A   1      44.660  26.933  32.454  1.00  0.00     0.031 C 
ATOM     44  C   UNL A   1      39.498  28.828  28.298  1.00  0.00     0.029 A 
ATOM     45  C   UNL A   1      39.455  29.367  29.656  1.00  0.00     0.049 A 
ATOM     46  H   UNL A   1      40.847  29.071  31.176  1.00  0.00     0.167 HD
ATOM     47  C   UNL A   1      43.816  28.353  34.297  1.00  0.00     0.031 A 
ATOM     48  C   UNL A   1      38.492  30.165  30.154  1.00  0.00     0.031 A 
ATOM     49  C   UNL A   1      42.875  29.265  34.888  1.00  0.00     0.049 A 
ATOM     50  C   UNL A   1      38.593  30.651  31.575  1.00  0.00     0.074 A 
ATOM     51  C   UNL A   1      42.903  29.838  36.148  1.00  0.00     0.029 A 
ATOM     52  N   UNL A   1      41.730  29.732  34.262  1.00  0.00    -0.354 N 
ATOM     53  N   UNL A   1      39.532  30.425  32.462  1.00  0.00    -0.248 NA
ATOM     54  C   UNL A   1      37.502  31.509  32.059  1.00  0.00     0.031 C 
ATOM     55  C   UNL A   1      41.747  30.610  36.303  1.00  0.00     0.029 A 
ATOM     56  C   UNL A   1      41.029  30.564  35.119  1.00  0.00     0.049 A 
ATOM     57  H   UNL A   1      41.456  29.506  33.343  1.00  0.00     0.167 HD
ATOM     58  C   UNL A   1      39.159  31.136  33.597  1.00  0.00     0.074 A 
ATOM     59  C   UNL A   1      37.917  31.809  33.282  1.00  0.00     0.031 C 
ATOM     60  C   UNL A   1      39.793  31.224  34.792  1.00  0.00     0.031 A 
BRANCH  47  61
ATOM     61  C   UNL A   1      44.976  27.886  35.132  1.00  0.00    -0.014 A 
ATOM     62  C   UNL A   1      44.929  26.670  35.831  1.00  0.00     0.009 A 
ATOM     63  C   UNL A   1      46.143  28.662  35.195  1.00  0.00     0.009 A 
ATOM     64  C   UNL A   1      46.019  26.255  36.601  1.00  0.00     0.001 A 
ATOM     65  C   UNL A   1      47.241  28.233  35.944  1.00  0.00     0.001 A 
ATOM     66  C   UNL A   1      47.174  27.035  36.653  1.00  0.00     0.000 A 
ENDBRANCH  47  61
BRANCH  48  67
ATOM     67  C   UNL A   1      37.332  30.546  29.307  1.00  0.00    -0.014 A 
ATOM     68  C   UNL A   1      36.330  29.613  28.998  1.00  0.00     0.009 A 
ATOM     69  C   UNL A   1      37.232  31.846  28.788  1.00  0.00     0.009 A 
ATOM     70  C   UNL A   1      35.264  29.969  28.168  1.00  0.00     0.001 A 
ATOM     71  C   UNL A   1      36.151  32.207  27.982  1.00  0.00     0.001 A 
ATOM     72  C   UNL A   1      35.174  31.266  27.665  1.00  0.00     0.000 A 
ENDBRANCH  48  67
BRANCH  60  73
ATOM     73  C   UNL A   1      39.172  32.108  35.838  1.00  0.00    -0.014 A 
ATOM     74  C   UNL A   1      38.232  31.608  36.753  1.00  0.00     0.009 A 
ATOM     75  C   UNL A   1      39.566  33.452  35.934  1.00  0.00     0.009 A 
ATOM     76  C   UNL A   1      37.676  32.446  37.721  1.00  0.00     0.001 A 
ATOM     77  C   UNL A   1      39.029  34.280  36.921  1.00  0.00     0.001 A 
ATOM     78  C   UNL A   1      38.078  33.779  37.808  1.00  0.00     0.000 A 
ENDBRANCH  60  73
ENDBRANCH  34  35
ENDBRANCH  27  29
ENDBRANCH  26  27
ENDBRANCH  25  26
ENDBRANCH  24  25
ENDBRANCH  23  24
ENDBRANCH   1  23
TORSDOF 19
ENDMDL
