MODEL 1
REMARK VINA RESULT:      -8.2      0.000      0.000
REMARK SMILES CC[C@H](NS(=O)(=O)Cc1ccccc1)C(=O)OCCOCCOC(=O)c1ccc(-c2c3nc(c(-c4ccccc4)c4ccc([nH]4)c(-c4ccccc4)c4nc(c(-c5ccccc5)c5ccc2[nH]5)C=C4)C=C3)cc1
REMARK SMILES IDX 19 1 18 2 17 3 15 4 16 5 3 6 2 7 1 8 4 9 5 11 6 12 7 13 8 14
REMARK SMILES IDX 9 15 10 16 14 17 11 18 13 19 12 20 20 21 21 22 22 23 23 24
REMARK SMILES IDX 24 25 25 26 26 27 27 28 73 29 28 30 72 31 29 32 30 33 31 34
REMARK SMILES IDX 66 35 32 36 71 37 65 38 67 39 33 40 70 41 64 42 63 43 34 45
REMARK SMILES IDX 56 46 41 47 55 48 42 49 45 50 54 51 68 52 43 53 44 54 53 56
REMARK SMILES IDX 69 57 46 58 35 59 36 60 40 61 37 62 39 63 38 64 57 65 58 66
REMARK SMILES IDX 62 67 59 68 61 69 60 70 47 71 48 72 52 73 49 74 51 75 50 76
REMARK H PARENT 4 10 67 44 45 55
REMARK Flexibility Score: inf
ROOT
ATOM      1  C   UNL A   1      35.454  35.072  33.029  1.00  0.00     0.202 C 
ENDROOT
BRANCH   1   2
ATOM      2  C   UNL A   1      35.760  34.190  34.243  1.00  0.00     0.261 C 
BRANCH   2   3
ATOM      3  O   UNL A   1      37.129  33.762  34.152  1.00  0.00    -0.462 OA
BRANCH   3   4
ATOM      4  C   UNL A   1      38.048  34.336  34.945  1.00  0.00     0.324 C 
ATOM      5  O   UNL A   1      38.623  35.385  34.668  1.00  0.00    -0.250 OA
BRANCH   4   6
ATOM      6  C   UNL A   1      38.151  33.664  36.305  1.00  0.00     0.179 C 
BRANCH   6   7
ATOM      7  C   UNL A   1      39.074  34.493  37.226  1.00  0.00     0.028 C 
ATOM      8  C   UNL A   1      38.727  34.342  38.695  1.00  0.00     0.006 C 
ENDBRANCH   6   7
BRANCH   6   9
ATOM      9  N   UNL A   1      38.378  32.243  36.658  1.00  0.00    -0.201 NA
ATOM     10  H   UNL A   1      37.491  31.791  36.432  1.00  0.00     0.142 HD
BRANCH   9  11
ATOM     11  S   UNL A   1      39.516  31.156  36.138  1.00  0.00     0.216 S 
ATOM     12  O   UNL A   1      40.734  31.677  36.742  1.00  0.00    -0.212 OA
ATOM     13  O   UNL A   1      39.131  29.807  36.437  1.00  0.00    -0.212 OA
BRANCH  11  14
ATOM     14  C   UNL A   1      39.723  31.396  34.359  1.00  0.00     0.189 C 
BRANCH  14  15
ATOM     15  C   UNL A   1      39.258  30.237  33.520  1.00  0.00    -0.032 A 
ATOM     16  C   UNL A   1      37.927  30.201  33.074  1.00  0.00     0.005 A 
ATOM     17  C   UNL A   1      40.113  29.210  33.108  1.00  0.00     0.005 A 
ATOM     18  C   UNL A   1      37.428  29.087  32.397  1.00  0.00     0.000 A 
ATOM     19  C   UNL A   1      39.614  28.088  32.442  1.00  0.00     0.000 A 
ATOM     20  C   UNL A   1      38.263  28.012  32.118  1.00  0.00     0.000 A 
ENDBRANCH  14  15
ENDBRANCH  11  14
ENDBRANCH   9  11
ENDBRANCH   6   9
ENDBRANCH   4   6
ENDBRANCH   3   4
ENDBRANCH   2   3
ENDBRANCH   1   2
BRANCH   1  21
ATOM     21  O   UNL A   1      34.702  36.249  33.338  1.00  0.00    -0.374 OA
BRANCH  21  22
ATOM     22  C   UNL A   1      33.802  36.712  32.330  1.00  0.00     0.202 C 
BRANCH  22  23
ATOM     23  C   UNL A   1      33.132  35.619  31.484  1.00  0.00     0.261 C 
BRANCH  23  24
ATOM     24  O   UNL A   1      33.452  35.737  30.085  1.00  0.00    -0.460 OA
BRANCH  24  25
ATOM     25  C   UNL A   1      33.333  34.602  29.361  1.00  0.00     0.338 C 
ATOM     26  O   UNL A   1      32.367  34.262  28.696  1.00  0.00    -0.246 OA
BRANCH  25  27
ATOM     27  C   UNL A   1      34.606  33.843  29.342  1.00  0.00     0.060 A 
ATOM     28  C   UNL A   1      34.771  32.839  30.306  1.00  0.00     0.016 A 
ATOM     29  C   UNL A   1      35.648  34.136  28.458  1.00  0.00     0.016 A 
ATOM     30  C   UNL A   1      35.996  32.185  30.445  1.00  0.00     0.010 A 
ATOM     31  C   UNL A   1      36.879  33.476  28.597  1.00  0.00     0.010 A 
ATOM     32  C   UNL A   1      37.075  32.535  29.626  1.00  0.00    -0.014 A 
BRANCH  32  33
ATOM     33  C   UNL A   1      38.441  32.050  29.964  1.00  0.00     0.031 A 
ATOM     34  C   UNL A   1      38.892  30.711  29.438  1.00  0.00     0.074 A 
ATOM     35  C   UNL A   1      39.299  32.801  30.680  1.00  0.00     0.049 A 
ATOM     36  N   UNL A   1      40.035  30.091  29.608  1.00  0.00    -0.248 NA
ATOM     37  C   UNL A   1      37.926  29.969  28.611  1.00  0.00     0.031 C 
ATOM     38  C   UNL A   1      39.026  34.137  31.205  1.00  0.00     0.029 A 
ATOM     39  N   UNL A   1      40.587  32.537  31.085  1.00  0.00    -0.354 N 
ATOM     40  C   UNL A   1      39.917  28.887  28.924  1.00  0.00     0.074 A 
ATOM     41  C   UNL A   1      38.584  28.847  28.365  1.00  0.00     0.031 C 
ATOM     42  C   UNL A   1      40.115  34.578  31.860  1.00  0.00     0.029 A 
ATOM     43  C   UNL A   1      41.147  33.543  31.834  1.00  0.00     0.049 A 
ATOM     44  H   UNL A   1      41.061  31.705  30.859  1.00  0.00     0.167 HD
ATOM     45  C   UNL A   1      40.835  27.903  28.765  1.00  0.00     0.031 A 
ATOM     46  C   UNL A   1      42.348  33.616  32.442  1.00  0.00     0.031 A 
ATOM     47  C   UNL A   1      42.163  27.928  29.319  1.00  0.00     0.049 A 
ATOM     48  C   UNL A   1      43.319  32.468  32.327  1.00  0.00     0.074 A 
ATOM     49  C   UNL A   1      43.169  26.985  29.186  1.00  0.00     0.029 A 
ATOM     50  N   UNL A   1      42.667  28.939  30.119  1.00  0.00    -0.354 N 
ATOM     51  N   UNL A   1      43.207  31.350  31.650  1.00  0.00    -0.248 NA
ATOM     52  C   UNL A   1      44.590  32.599  33.056  1.00  0.00     0.031 C 
ATOM     53  C   UNL A   1      44.256  27.392  29.965  1.00  0.00     0.029 A 
ATOM     54  C   UNL A   1      43.956  28.625  30.520  1.00  0.00     0.049 A 
ATOM     55  H   UNL A   1      42.182  29.760  30.367  1.00  0.00     0.167 HD
ATOM     56  C   UNL A   1      44.402  30.665  31.844  1.00  0.00     0.074 A 
ATOM     57  C   UNL A   1      45.230  31.499  32.689  1.00  0.00     0.031 C 
ATOM     58  C   UNL A   1      44.779  29.456  31.360  1.00  0.00     0.031 A 
BRANCH  45  59
ATOM     59  C   UNL A   1      40.418  26.683  27.987  1.00  0.00    -0.014 A 
ATOM     60  C   UNL A   1      40.853  26.467  26.670  1.00  0.00     0.009 A 
ATOM     61  C   UNL A   1      39.609  25.715  28.601  1.00  0.00     0.009 A 
ATOM     62  C   UNL A   1      40.456  25.323  25.974  1.00  0.00     0.001 A 
ATOM     63  C   UNL A   1      39.240  24.557  27.914  1.00  0.00     0.001 A 
ATOM     64  C   UNL A   1      39.656  24.368  26.597  1.00  0.00     0.000 A 
ENDBRANCH  45  59
BRANCH  46  65
ATOM     65  C   UNL A   1      42.708  34.817  33.243  1.00  0.00    -0.014 A 
ATOM     66  C   UNL A   1      42.362  34.905  34.601  1.00  0.00     0.009 A 
ATOM     67  C   UNL A   1      43.365  35.902  32.641  1.00  0.00     0.009 A 
ATOM     68  C   UNL A   1      42.640  36.065  35.329  1.00  0.00     0.001 A 
ATOM     69  C   UNL A   1      43.672  37.047  33.380  1.00  0.00     0.001 A 
ATOM     70  C   UNL A   1      43.299  37.131  34.720  1.00  0.00     0.000 A 
ENDBRANCH  46  65
BRANCH  58  71
ATOM     71  C   UNL A   1      46.167  28.973  31.690  1.00  0.00    -0.014 A 
ATOM     72  C   UNL A   1      47.270  29.300  30.886  1.00  0.00     0.009 A 
ATOM     73  C   UNL A   1      46.379  28.216  32.854  1.00  0.00     0.009 A 
ATOM     74  C   UNL A   1      48.550  28.846  31.222  1.00  0.00     0.001 A 
ATOM     75  C   UNL A   1      47.662  27.794  33.205  1.00  0.00     0.001 A 
ATOM     76  C   UNL A   1      48.745  28.099  32.382  1.00  0.00     0.000 A 
ENDBRANCH  58  71
ENDBRANCH  32  33
ENDBRANCH  25  27
ENDBRANCH  24  25
ENDBRANCH  23  24
ENDBRANCH  22  23
ENDBRANCH  21  22
ENDBRANCH   1  21
TORSDOF 19
ENDMDL
MODEL 2
REMARK VINA RESULT:      -7.3      5.020      7.982
REMARK SMILES CC[C@H](NS(=O)(=O)Cc1ccccc1)C(=O)OCCOCCOC(=O)c1ccc(-c2c3nc(c(-c4ccccc4)c4ccc([nH]4)c(-c4ccccc4)c4nc(c(-c5ccccc5)c5ccc2[nH]5)C=C4)C=C3)cc1
REMARK SMILES IDX 19 1 18 2 17 3 15 4 16 5 3 6 2 7 1 8 4 9 5 11 6 12 7 13 8 14
REMARK SMILES IDX 9 15 10 16 14 17 11 18 13 19 12 20 20 21 21 22 22 23 23 24
REMARK SMILES IDX 24 25 25 26 26 27 27 28 73 29 28 30 72 31 29 32 30 33 31 34
REMARK SMILES IDX 66 35 32 36 71 37 65 38 67 39 33 40 70 41 64 42 63 43 34 45
REMARK SMILES IDX 56 46 41 47 55 48 42 49 45 50 54 51 68 52 43 53 44 54 53 56
REMARK SMILES IDX 69 57 46 58 35 59 36 60 40 61 37 62 39 63 38 64 57 65 58 66
REMARK SMILES IDX 62 67 59 68 61 69 60 70 47 71 48 72 52 73 49 74 51 75 50 76
REMARK H PARENT 4 10 67 44 45 55
REMARK Flexibility Score: inf
ROOT
ATOM      1  C   UNL A   1      32.568  29.706  26.827  1.00  0.00     0.202 C 
ENDROOT
BRANCH   1   2
ATOM      2  C   UNL A   1      32.274  28.277  27.294  1.00  0.00     0.261 C 
BRANCH   2   3
ATOM      3  O   UNL A   1      31.844  27.514  26.155  1.00  0.00    -0.462 OA
BRANCH   3   4
ATOM      4  C   UNL A   1      32.767  26.989  25.332  1.00  0.00     0.324 C 
ATOM      5  O   UNL A   1      33.575  26.133  25.678  1.00  0.00    -0.250 OA
BRANCH   4   6
ATOM      6  C   UNL A   1      32.573  27.416  23.886  1.00  0.00     0.179 C 
BRANCH   6   7
ATOM      7  C   UNL A   1      31.103  27.836  23.660  1.00  0.00     0.028 C 
ATOM      8  C   UNL A   1      30.974  29.228  23.070  1.00  0.00     0.006 C 
ENDBRANCH   6   7
BRANCH   6   9
ATOM      9  N   UNL A   1      33.021  26.774  22.628  1.00  0.00    -0.201 NA
ATOM     10  H   UNL A   1      33.963  27.141  22.489  1.00  0.00     0.142 HD
BRANCH   9  11
ATOM     11  S   UNL A   1      33.154  25.177  22.204  1.00  0.00     0.216 S 
ATOM     12  O   UNL A   1      33.155  25.246  20.750  1.00  0.00    -0.212 OA
ATOM     13  O   UNL A   1      34.268  24.550  22.856  1.00  0.00    -0.212 OA
BRANCH  11  14
ATOM     14  C   UNL A   1      31.600  24.368  22.645  1.00  0.00     0.189 C 
BRANCH  14  15
ATOM     15  C   UNL A   1      31.768  23.073  23.393  1.00  0.00    -0.032 A 
ATOM     16  C   UNL A   1      31.428  23.017  24.755  1.00  0.00     0.005 A 
ATOM     17  C   UNL A   1      32.195  21.892  22.776  1.00  0.00     0.005 A 
ATOM     18  C   UNL A   1      31.681  21.870  25.510  1.00  0.00     0.000 A 
ATOM     19  C   UNL A   1      32.461  20.748  23.532  1.00  0.00     0.000 A 
ATOM     20  C   UNL A   1      32.237  20.749  24.905  1.00  0.00     0.000 A 
ENDBRANCH  14  15
ENDBRANCH  11  14
ENDBRANCH   9  11
ENDBRANCH   6   9
ENDBRANCH   4   6
ENDBRANCH   3   4
ENDBRANCH   2   3
ENDBRANCH   1   2
BRANCH   1  21
ATOM     21  O   UNL A   1      31.537  30.647  27.144  1.00  0.00    -0.374 OA
BRANCH  21  22
ATOM     22  C   UNL A   1      31.257  31.639  26.156  1.00  0.00     0.202 C 
BRANCH  22  23
ATOM     23  C   UNL A   1      31.725  33.062  26.492  1.00  0.00     0.261 C 
BRANCH  23  24
ATOM     24  O   UNL A   1      31.994  33.234  27.896  1.00  0.00    -0.460 OA
BRANCH  24  25
ATOM     25  C   UNL A   1      32.951  34.137  28.202  1.00  0.00     0.338 C 
ATOM     26  O   UNL A   1      32.803  35.344  28.313  1.00  0.00    -0.246 OA
BRANCH  25  27
ATOM     27  C   UNL A   1      34.229  33.468  28.544  1.00  0.00     0.060 A 
ATOM     28  C   UNL A   1      34.170  32.113  28.901  1.00  0.00     0.016 A 
ATOM     29  C   UNL A   1      35.450  34.146  28.586  1.00  0.00     0.016 A 
ATOM     30  C   UNL A   1      35.305  31.457  29.378  1.00  0.00     0.010 A 
ATOM     31  C   UNL A   1      36.593  33.484  29.062  1.00  0.00     0.010 A 
ATOM     32  C   UNL A   1      36.513  32.151  29.511  1.00  0.00    -0.014 A 
BRANCH  32  33
ATOM     33  C   UNL A   1      37.631  31.539  30.280  1.00  0.00     0.031 A 
ATOM     34  C   UNL A   1      38.520  30.529  29.600  1.00  0.00     0.074 A 
ATOM     35  C   UNL A   1      37.899  31.906  31.548  1.00  0.00     0.049 A 
ATOM     36  N   UNL A   1      39.548  29.869  30.076  1.00  0.00    -0.248 NA
ATOM     37  C   UNL A   1      38.208  30.219  28.195  1.00  0.00     0.031 C 
ATOM     38  C   UNL A   1      37.164  32.909  32.316  1.00  0.00     0.029 A 
ATOM     39  N   UNL A   1      38.875  31.469  32.412  1.00  0.00    -0.354 N 
ATOM     40  C   UNL A   1      39.993  29.061  29.037  1.00  0.00     0.074 A 
ATOM     41  C   UNL A   1      39.105  29.286  27.917  1.00  0.00     0.031 C 
ATOM     42  C   UNL A   1      37.719  33.014  33.537  1.00  0.00     0.029 A 
ATOM     43  C   UNL A   1      38.821  32.061  33.650  1.00  0.00     0.049 A 
ATOM     44  H   UNL A   1      39.549  30.795  32.165  1.00  0.00     0.167 HD
ATOM     45  C   UNL A   1      41.048  28.211  29.008  1.00  0.00     0.031 A 
ATOM     46  C   UNL A   1      39.565  31.848  34.755  1.00  0.00     0.031 A 
ATOM     47  C   UNL A   1      41.935  27.974  30.116  1.00  0.00     0.049 A 
ATOM     48  C   UNL A   1      40.677  30.830  34.726  1.00  0.00     0.074 A 
ATOM     49  C   UNL A   1      43.047  27.149  30.167  1.00  0.00     0.029 A 
ATOM     50  N   UNL A   1      41.808  28.551  31.368  1.00  0.00    -0.354 N 
ATOM     51  N   UNL A   1      41.106  30.096  33.728  1.00  0.00    -0.248 NA
ATOM     52  C   UNL A   1      41.414  30.618  35.983  1.00  0.00     0.031 C 
ATOM     53  C   UNL A   1      43.548  27.172  31.472  1.00  0.00     0.029 A 
ATOM     54  C   UNL A   1      42.797  28.070  32.212  1.00  0.00     0.049 A 
ATOM     55  H   UNL A   1      41.117  29.205  31.623  1.00  0.00     0.167 HD
ATOM     56  C   UNL A   1      42.181  29.366  34.225  1.00  0.00     0.074 A 
ATOM     57  C   UNL A   1      42.348  29.755  35.609  1.00  0.00     0.031 C 
ATOM     58  C   UNL A   1      42.962  28.459  33.588  1.00  0.00     0.031 A 
BRANCH  45  59
ATOM     59  C   UNL A   1      41.279  27.434  27.740  1.00  0.00    -0.014 A 
ATOM     60  C   UNL A   1      42.108  27.924  26.719  1.00  0.00     0.009 A 
ATOM     61  C   UNL A   1      40.689  26.170  27.586  1.00  0.00     0.009 A 
ATOM     62  C   UNL A   1      42.310  27.179  25.554  1.00  0.00     0.001 A 
ATOM     63  C   UNL A   1      40.920  25.412  26.436  1.00  0.00     0.001 A 
ATOM     64  C   UNL A   1      41.721  25.922  25.417  1.00  0.00     0.000 A 
ENDBRANCH  45  59
BRANCH  46  65
ATOM     65  C   UNL A   1      39.277  32.600  36.006  1.00  0.00    -0.014 A 
ATOM     66  C   UNL A   1      38.327  32.128  36.925  1.00  0.00     0.009 A 
ATOM     67  C   UNL A   1      39.923  33.819  36.267  1.00  0.00     0.009 A 
ATOM     68  C   UNL A   1      38.009  32.875  38.062  1.00  0.00     0.001 A 
ATOM     69  C   UNL A   1      39.628  34.547  37.423  1.00  0.00     0.001 A 
ATOM     70  C   UNL A   1      38.664  34.079  38.313  1.00  0.00     0.000 A 
ENDBRANCH  46  65
BRANCH  58  71
ATOM     71  C   UNL A   1      44.102  27.852  34.363  1.00  0.00    -0.014 A 
ATOM     72  C   UNL A   1      43.961  26.634  35.047  1.00  0.00     0.009 A 
ATOM     73  C   UNL A   1      45.353  28.490  34.369  1.00  0.00     0.009 A 
ATOM     74  C   UNL A   1      45.040  26.088  35.749  1.00  0.00     0.001 A 
ATOM     75  C   UNL A   1      46.437  27.925  35.043  1.00  0.00     0.001 A 
ATOM     76  C   UNL A   1      46.277  26.730  35.742  1.00  0.00     0.000 A 
ENDBRANCH  58  71
ENDBRANCH  32  33
ENDBRANCH  25  27
ENDBRANCH  24  25
ENDBRANCH  23  24
ENDBRANCH  22  23
ENDBRANCH  21  22
ENDBRANCH   1  21
TORSDOF 19
ENDMDL
MODEL 3
REMARK VINA RESULT:      -7.1      5.748     10.376
REMARK SMILES CC[C@H](NS(=O)(=O)Cc1ccccc1)C(=O)OCCOCCOC(=O)c1ccc(-c2c3nc(c(-c4ccccc4)c4ccc([nH]4)c(-c4ccccc4)c4nc(c(-c5ccccc5)c5ccc2[nH]5)C=C4)C=C3)cc1
REMARK SMILES IDX 19 1 18 2 17 3 15 4 16 5 3 6 2 7 1 8 4 9 5 11 6 12 7 13 8 14
REMARK SMILES IDX 9 15 10 16 14 17 11 18 13 19 12 20 20 21 21 22 22 23 23 24
REMARK SMILES IDX 24 25 25 26 26 27 27 28 73 29 28 30 72 31 29 32 30 33 31 34
REMARK SMILES IDX 66 35 32 36 71 37 65 38 67 39 33 40 70 41 64 42 63 43 34 45
REMARK SMILES IDX 56 46 41 47 55 48 42 49 45 50 54 51 68 52 43 53 44 54 53 56
REMARK SMILES IDX 69 57 46 58 35 59 36 60 40 61 37 62 39 63 38 64 57 65 58 66
REMARK SMILES IDX 62 67 59 68 61 69 60 70 47 71 48 72 52 73 49 74 51 75 50 76
REMARK H PARENT 4 10 67 44 45 55
REMARK Flexibility Score: inf
ROOT
ATOM      1  C   UNL A   1      32.401  28.323  22.828  1.00  0.00     0.202 C 
ENDROOT
BRANCH   1   2
ATOM      2  C   UNL A   1      31.618  27.007  22.808  1.00  0.00     0.261 C 
BRANCH   2   3
ATOM      3  O   UNL A   1      32.406  26.008  23.477  1.00  0.00    -0.462 OA
BRANCH   3   4
ATOM      4  C   UNL A   1      31.856  24.812  23.744  1.00  0.00     0.324 C 
ATOM      5  O   UNL A   1      30.677  24.544  23.528  1.00  0.00    -0.250 OA
BRANCH   4   6
ATOM      6  C   UNL A   1      32.886  23.770  24.149  1.00  0.00     0.179 C 
BRANCH   6   7
ATOM      7  C   UNL A   1      34.305  24.376  24.048  1.00  0.00     0.028 C 
ATOM      8  C   UNL A   1      34.928  24.643  25.406  1.00  0.00     0.006 C 
ENDBRANCH   6   7
BRANCH   6   9
ATOM      9  N   UNL A   1      33.012  22.345  23.764  1.00  0.00    -0.201 NA
ATOM     10  H   UNL A   1      33.931  22.292  23.323  1.00  0.00     0.142 HD
BRANCH   9  11
ATOM     11  S   UNL A   1      32.929  20.958  24.667  1.00  0.00     0.216 S 
ATOM     12  O   UNL A   1      34.327  20.723  24.998  1.00  0.00    -0.212 OA
ATOM     13  O   UNL A   1      31.988  21.087  25.743  1.00  0.00    -0.212 OA
BRANCH  11  14
ATOM     14  C   UNL A   1      32.466  19.612  23.554  1.00  0.00     0.189 C 
BRANCH  14  15
ATOM     15  C   UNL A   1      32.933  18.253  23.999  1.00  0.00    -0.032 A 
ATOM     16  C   UNL A   1      32.526  17.761  25.250  1.00  0.00     0.005 A 
ATOM     17  C   UNL A   1      33.714  17.419  23.192  1.00  0.00     0.005 A 
ATOM     18  C   UNL A   1      33.033  16.560  25.748  1.00  0.00     0.000 A 
ATOM     19  C   UNL A   1      34.233  16.223  23.692  1.00  0.00     0.000 A 
ATOM     20  C   UNL A   1      33.920  15.811  24.983  1.00  0.00     0.000 A 
ENDBRANCH  14  15
ENDBRANCH  11  14
ENDBRANCH   9  11
ENDBRANCH   6   9
ENDBRANCH   4   6
ENDBRANCH   3   4
ENDBRANCH   2   3
ENDBRANCH   1   2
BRANCH   1  21
ATOM     21  O   UNL A   1      31.841  29.322  23.685  1.00  0.00    -0.374 OA
BRANCH  21  22
ATOM     22  C   UNL A   1      32.448  29.468  24.970  1.00  0.00     0.202 C 
BRANCH  22  23
ATOM     23  C   UNL A   1      31.915  30.624  25.829  1.00  0.00     0.261 C 
BRANCH  23  24
ATOM     24  O   UNL A   1      32.470  30.619  27.158  1.00  0.00    -0.460 OA
BRANCH  24  25
ATOM     25  C   UNL A   1      33.257  31.673  27.466  1.00  0.00     0.338 C 
ATOM     26  O   UNL A   1      32.903  32.837  27.577  1.00  0.00    -0.246 OA
BRANCH  25  27
ATOM     27  C   UNL A   1      34.630  31.234  27.813  1.00  0.00     0.060 A 
ATOM     28  C   UNL A   1      34.838  29.860  27.996  1.00  0.00     0.016 A 
ATOM     29  C   UNL A   1      35.681  32.130  28.024  1.00  0.00     0.016 A 
ATOM     30  C   UNL A   1      36.063  29.386  28.467  1.00  0.00     0.010 A 
ATOM     31  C   UNL A   1      36.913  31.652  28.495  1.00  0.00     0.010 A 
ATOM     32  C   UNL A   1      37.093  30.283  28.769  1.00  0.00    -0.014 A 
BRANCH  32  33
ATOM     33  C   UNL A   1      38.279  29.810  29.535  1.00  0.00     0.031 A 
ATOM     34  C   UNL A   1      38.430  30.220  30.978  1.00  0.00     0.074 A 
ATOM     35  C   UNL A   1      39.189  28.983  28.986  1.00  0.00     0.049 A 
ATOM     36  N   UNL A   1      39.380  29.929  31.832  1.00  0.00    -0.248 NA
ATOM     37  C   UNL A   1      37.367  31.076  31.532  1.00  0.00     0.031 C 
ATOM     38  C   UNL A   1      39.146  28.456  27.623  1.00  0.00     0.029 A 
ATOM     39  N   UNL A   1      40.332  28.438  29.521  1.00  0.00    -0.354 N 
ATOM     40  C   UNL A   1      39.036  30.574  33.014  1.00  0.00     0.074 A 
ATOM     41  C   UNL A   1      37.811  31.299  32.759  1.00  0.00     0.031 C 
ATOM     42  C   UNL A   1      40.214  27.660  27.431  1.00  0.00     0.029 A 
ATOM     43  C   UNL A   1      41.034  27.652  28.641  1.00  0.00     0.049 A 
ATOM     44  H   UNL A   1      40.620  28.598  30.449  1.00  0.00     0.167 HD
ATOM     45  C   UNL A   1      39.675  30.562  34.209  1.00  0.00     0.031 A 
ATOM     46  C   UNL A   1      42.210  27.009  28.787  1.00  0.00     0.031 A 
ATOM     47  C   UNL A   1      40.896  29.849  34.475  1.00  0.00     0.049 A 
ATOM     48  C   UNL A   1      42.949  27.086  30.100  1.00  0.00     0.074 A 
ATOM     49  C   UNL A   1      41.600  29.760  35.665  1.00  0.00     0.029 A 
ATOM     50  N   UNL A   1      41.603  29.114  33.538  1.00  0.00    -0.354 N 
ATOM     51  N   UNL A   1      42.597  27.673  31.218  1.00  0.00    -0.248 NA
ATOM     52  C   UNL A   1      44.249  26.399  30.169  1.00  0.00     0.031 C 
ATOM     53  C   UNL A   1      42.769  29.030  35.429  1.00  0.00     0.029 A 
ATOM     54  C   UNL A   1      42.754  28.600  34.112  1.00  0.00     0.049 A 
ATOM     55  H   UNL A   1      41.328  28.976  32.603  1.00  0.00     0.167 HD
ATOM     56  C   UNL A   1      43.612  27.397  32.129  1.00  0.00     0.074 A 
ATOM     57  C   UNL A   1      44.585  26.579  31.438  1.00  0.00     0.031 C 
ATOM     58  C   UNL A   1      43.722  27.785  33.424  1.00  0.00     0.031 A 
BRANCH  45  59
ATOM     59  C   UNL A   1      39.083  31.386  35.321  1.00  0.00    -0.014 A 
ATOM     60  C   UNL A   1      38.174  30.836  36.238  1.00  0.00     0.009 A 
ATOM     61  C   UNL A   1      39.476  32.724  35.476  1.00  0.00     0.009 A 
ATOM     62  C   UNL A   1      37.644  31.622  37.265  1.00  0.00     0.001 A 
ATOM     63  C   UNL A   1      38.971  33.498  36.523  1.00  0.00     0.001 A 
ATOM     64  C   UNL A   1      38.047  32.949  37.409  1.00  0.00     0.000 A 
ENDBRANCH  45  59
BRANCH  46  65
ATOM     65  C   UNL A   1      42.790  26.243  27.651  1.00  0.00    -0.014 A 
ATOM     66  C   UNL A   1      42.549  24.867  27.515  1.00  0.00     0.009 A 
ATOM     67  C   UNL A   1      43.624  26.879  26.717  1.00  0.00     0.009 A 
ATOM     68  C   UNL A   1      43.154  24.140  26.487  1.00  0.00     0.001 A 
ATOM     69  C   UNL A   1      44.201  26.155  25.670  1.00  0.00     0.001 A 
ATOM     70  C   UNL A   1      43.973  24.785  25.563  1.00  0.00     0.000 A 
ENDBRANCH  46  65
BRANCH  58  71
ATOM     71  C   UNL A   1      44.914  27.293  34.202  1.00  0.00    -0.014 A 
ATOM     72  C   UNL A   1      44.890  26.070  34.891  1.00  0.00     0.009 A 
ATOM     73  C   UNL A   1      46.099  28.048  34.205  1.00  0.00     0.009 A 
ATOM     74  C   UNL A   1      46.015  25.634  35.596  1.00  0.00     0.001 A 
ATOM     75  C   UNL A   1      47.231  27.593  34.882  1.00  0.00     0.001 A 
ATOM     76  C   UNL A   1      47.185  26.391  35.587  1.00  0.00     0.000 A 
ENDBRANCH  58  71
ENDBRANCH  32  33
ENDBRANCH  25  27
ENDBRANCH  24  25
ENDBRANCH  23  24
ENDBRANCH  22  23
ENDBRANCH  21  22
ENDBRANCH   1  21
TORSDOF 19
ENDMDL
