MODEL 1
REMARK VINA RESULT:      -9.9      0.000      0.000
REMARK SMILES Cc1ccc(OCCC[N@H+]2CCCC[C@@H]2C(=O)OCCOCCOC(=O)c2ccc(-c3c4nc(c(-c5ccccc5)c5ccc([nH]5)c(-c5ccccc5)c5nc(c(-c6ccccc6)c6ccc3[nH]6)C=C5)C=C4)cc2)cc1C
REMARK SMILES IDX 19 1 18 2 16 3 17 4 15 5 10 6 11 7 12 9 14 10 13 11 9 12
REMARK SMILES IDX 8 13 7 14 6 15 5 16 1 17 2 18 3 19 76 20 4 21 75 22 77 23
REMARK SMILES IDX 20 24 21 25 22 26 23 27 24 28 25 29 26 30 27 31 28 32 74 33
REMARK SMILES IDX 29 34 73 35 30 36 31 37 32 38 67 39 33 40 72 41 66 42 68 43
REMARK SMILES IDX 34 44 71 45 65 46 64 47 35 49 57 50 42 51 56 52 43 53 46 54
REMARK SMILES IDX 55 55 69 56 44 57 45 58 54 60 70 61 47 62 36 63 37 64 41 65
REMARK SMILES IDX 38 66 40 67 39 68 58 69 59 70 63 71 60 72 62 73 61 74 48 75
REMARK SMILES IDX 49 76 53 77 50 78 52 79 51 80
REMARK H PARENT 10 8 68 48 46 59
REMARK Flexibility Score: inf
ROOT
ATOM      1  C   UNL A   1      32.841  28.213  25.326  1.00  0.00     0.261 C 
ENDROOT
BRANCH   1   2
ATOM      2  O   UNL A   1      33.095  27.261  24.295  1.00  0.00    -0.459 OA
BRANCH   2   3
ATOM      3  C   UNL A   1      32.368  27.419  23.153  1.00  0.00     0.364 C 
ATOM      4  O   UNL A   1      32.729  27.086  22.034  1.00  0.00    -0.245 OA
BRANCH   3   5
ATOM      5  C   UNL A   1      30.992  28.021  23.398  1.00  0.00     0.295 C 
ATOM      6  N   UNL A   1      29.882  27.019  23.263  1.00  0.00    -0.323 N 
ATOM      7  C   UNL A   1      28.597  27.729  23.500  1.00  0.00     0.262 C 
ATOM      8  H   UNL A   1      29.922  26.601  22.333  1.00  0.00     0.348 HD
ATOM      9  C   UNL A   1      28.385  28.941  22.586  1.00  0.00     0.062 C 
ATOM     10  C   UNL A   1      30.840  29.229  22.463  1.00  0.00     0.078 C 
ATOM     11  C   UNL A   1      29.525  29.940  22.708  1.00  0.00     0.013 C 
BRANCH   6  12
ATOM     12  C   UNL A   1      30.007  25.927  24.273  1.00  0.00     0.266 C 
BRANCH  12  13
ATOM     13  C   UNL A   1      30.634  24.602  23.776  1.00  0.00     0.103 C 
BRANCH  13  14
ATOM     14  C   UNL A   1      31.163  23.634  24.843  1.00  0.00     0.235 C 
BRANCH  14  15
ATOM     15  O   UNL A   1      32.339  24.109  25.549  1.00  0.00    -0.493 OA
BRANCH  15  16
ATOM     16  C   UNL A   1      33.481  23.413  25.249  1.00  0.00     0.119 A 
ATOM     17  C   UNL A   1      36.874  20.792  25.003  1.00  0.00     0.044 C 
ATOM     18  C   UNL A   1      35.771  21.816  24.963  1.00  0.00    -0.048 A 
ATOM     19  C   UNL A   1      34.537  21.414  24.433  1.00  0.00     0.007 A 
ATOM     20  C   UNL A   1      35.900  23.128  25.458  1.00  0.00    -0.045 A 
ATOM     21  C   UNL A   1      33.406  22.217  24.557  1.00  0.00     0.047 A 
ATOM     22  C   UNL A   1      34.736  23.922  25.598  1.00  0.00     0.050 A 
ATOM     23  C   UNL A   1      37.243  23.708  25.815  1.00  0.00     0.045 C 
ENDBRANCH  15  16
ENDBRANCH  14  15
ENDBRANCH  13  14
ENDBRANCH  12  13
ENDBRANCH   6  12
ENDBRANCH   3   5
ENDBRANCH   2   3
ENDBRANCH   1   2
BRANCH   1  24
ATOM     24  C   UNL A   1      34.009  28.923  26.015  1.00  0.00     0.202 C 
BRANCH  24  25
ATOM     25  O   UNL A   1      33.841  29.602  27.246  1.00  0.00    -0.374 OA
BRANCH  25  26
ATOM     26  C   UNL A   1      33.055  30.788  27.257  1.00  0.00     0.202 C 
BRANCH  26  27
ATOM     27  C   UNL A   1      33.637  32.002  27.984  1.00  0.00     0.261 C 
BRANCH  27  28
ATOM     28  O   UNL A   1      35.064  31.900  28.100  1.00  0.00    -0.460 OA
BRANCH  28  29
ATOM     29  C   UNL A   1      35.525  31.645  29.350  1.00  0.00     0.338 C 
ATOM     30  O   UNL A   1      35.038  31.989  30.408  1.00  0.00    -0.246 OA
BRANCH  29  31
ATOM     31  C   UNL A   1      36.615  30.652  29.243  1.00  0.00     0.060 A 
ATOM     32  C   UNL A   1      37.162  30.141  30.432  1.00  0.00     0.016 A 
ATOM     33  C   UNL A   1      37.077  30.221  27.999  1.00  0.00     0.016 A 
ATOM     34  C   UNL A   1      38.226  29.248  30.383  1.00  0.00     0.010 A 
ATOM     35  C   UNL A   1      38.155  29.343  27.949  1.00  0.00     0.010 A 
ATOM     36  C   UNL A   1      38.762  28.901  29.139  1.00  0.00    -0.014 A 
BRANCH  36  37
ATOM     37  C   UNL A   1      40.121  28.334  29.049  1.00  0.00     0.031 A 
ATOM     38  C   UNL A   1      41.267  29.296  29.186  1.00  0.00     0.074 A 
ATOM     39  C   UNL A   1      40.321  27.035  28.785  1.00  0.00     0.049 A 
ATOM     40  N   UNL A   1      42.535  29.119  28.935  1.00  0.00    -0.248 NA
ATOM     41  C   UNL A   1      40.926  30.655  29.648  1.00  0.00     0.031 C 
ATOM     42  C   UNL A   1      39.277  26.016  28.690  1.00  0.00     0.029 A 
ATOM     43  N   UNL A   1      41.482  26.360  28.513  1.00  0.00    -0.354 N 
ATOM     44  C   UNL A   1      43.135  30.350  29.175  1.00  0.00     0.074 A 
ATOM     45  C   UNL A   1      42.096  31.269  29.575  1.00  0.00     0.031 C 
ATOM     46  C   UNL A   1      39.845  24.846  28.346  1.00  0.00     0.029 A 
ATOM     47  C   UNL A   1      41.278  25.052  28.150  1.00  0.00     0.049 A 
ATOM     48  H   UNL A   1      42.374  26.773  28.572  1.00  0.00     0.167 HD
ATOM     49  C   UNL A   1      44.440  30.681  29.061  1.00  0.00     0.031 A 
ATOM     50  C   UNL A   1      42.152  24.148  27.668  1.00  0.00     0.031 A 
ATOM     51  C   UNL A   1      45.454  29.754  28.645  1.00  0.00     0.049 A 
ATOM     52  C   UNL A   1      43.590  24.559  27.481  1.00  0.00     0.074 A 
ATOM     53  C   UNL A   1      46.813  29.967  28.507  1.00  0.00     0.029 A 
ATOM     54  N   UNL A   1      45.209  28.435  28.292  1.00  0.00    -0.354 N 
ATOM     55  N   UNL A   1      44.158  25.718  27.723  1.00  0.00    -0.248 NA
ATOM     56  C   UNL A   1      44.508  23.540  26.954  1.00  0.00     0.031 C 
ATOM     57  C   UNL A   1      47.383  28.789  28.013  1.00  0.00     0.029 A 
ATOM     58  C   UNL A   1      46.390  27.825  27.913  1.00  0.00     0.049 A 
ATOM     59  H   UNL A   1      44.327  27.999  28.310  1.00  0.00     0.167 HD
ATOM     60  C   UNL A   1      45.503  25.555  27.416  1.00  0.00     0.074 A 
ATOM     61  C   UNL A   1      45.667  24.185  26.974  1.00  0.00     0.031 C 
ATOM     62  C   UNL A   1      46.517  26.453  27.495  1.00  0.00     0.031 A 
BRANCH  49  63
ATOM     63  C   UNL A   1      44.825  32.106  29.342  1.00  0.00    -0.014 A 
ATOM     64  C   UNL A   1      44.806  33.084  28.335  1.00  0.00     0.009 A 
ATOM     65  C   UNL A   1      45.197  32.480  30.642  1.00  0.00     0.009 A 
ATOM     66  C   UNL A   1      45.179  34.400  28.619  1.00  0.00     0.001 A 
ATOM     67  C   UNL A   1      45.541  33.802  30.931  1.00  0.00     0.001 A 
ATOM     68  C   UNL A   1      45.541  34.758  29.916  1.00  0.00     0.000 A 
ENDBRANCH  49  63
BRANCH  50  69
ATOM     69  C   UNL A   1      41.691  22.784  27.297  1.00  0.00    -0.014 A 
ATOM     70  C   UNL A   1      41.015  22.561  26.087  1.00  0.00     0.009 A 
ATOM     71  C   UNL A   1      41.914  21.695  28.156  1.00  0.00     0.009 A 
ATOM     72  C   UNL A   1      40.548  21.286  25.759  1.00  0.00     0.001 A 
ATOM     73  C   UNL A   1      41.473  20.415  27.811  1.00  0.00     0.001 A 
ATOM     74  C   UNL A   1      40.783  20.213  26.618  1.00  0.00     0.000 A 
ENDBRANCH  50  69
BRANCH  62  75
ATOM     75  C   UNL A   1      47.898  25.971  27.159  1.00  0.00    -0.014 A 
ATOM     76  C   UNL A   1      48.472  26.209  25.901  1.00  0.00     0.009 A 
ATOM     77  C   UNL A   1      48.667  25.346  28.154  1.00  0.00     0.009 A 
ATOM     78  C   UNL A   1      49.784  25.809  25.641  1.00  0.00     0.001 A 
ATOM     79  C   UNL A   1      49.987  24.976  27.902  1.00  0.00     0.001 A 
ATOM     80  C   UNL A   1      50.543  25.202  26.643  1.00  0.00     0.000 A 
ENDBRANCH  62  75
ENDBRANCH  36  37
ENDBRANCH  29  31
ENDBRANCH  28  29
ENDBRANCH  27  28
ENDBRANCH  26  27
ENDBRANCH  25  26
ENDBRANCH  24  25
ENDBRANCH   1  24
TORSDOF 19
ENDMDL
MODEL 2
REMARK VINA RESULT:      -9.7      1.364      2.341
REMARK SMILES Cc1ccc(OCCC[N@H+]2CCCC[C@@H]2C(=O)OCCOCCOC(=O)c2ccc(-c3c4nc(c(-c5ccccc5)c5ccc([nH]5)c(-c5ccccc5)c5nc(c(-c6ccccc6)c6ccc3[nH]6)C=C5)C=C4)cc2)cc1C
REMARK SMILES IDX 19 1 18 2 16 3 17 4 15 5 10 6 11 7 12 9 14 10 13 11 9 12
REMARK SMILES IDX 8 13 7 14 6 15 5 16 1 17 2 18 3 19 76 20 4 21 75 22 77 23
REMARK SMILES IDX 20 24 21 25 22 26 23 27 24 28 25 29 26 30 27 31 28 32 74 33
REMARK SMILES IDX 29 34 73 35 30 36 31 37 32 38 67 39 33 40 72 41 66 42 68 43
REMARK SMILES IDX 34 44 71 45 65 46 64 47 35 49 57 50 42 51 56 52 43 53 46 54
REMARK SMILES IDX 55 55 69 56 44 57 45 58 54 60 70 61 47 62 36 63 37 64 41 65
REMARK SMILES IDX 38 66 40 67 39 68 58 69 59 70 63 71 60 72 62 73 61 74 48 75
REMARK SMILES IDX 49 76 53 77 50 78 52 79 51 80
REMARK H PARENT 10 8 68 48 46 59
REMARK Flexibility Score: inf
ROOT
ATOM      1  C   UNL A   1      33.714  28.331  26.462  1.00  0.00     0.261 C 
ENDROOT
BRANCH   1   2
ATOM      2  O   UNL A   1      32.901  27.441  25.699  1.00  0.00    -0.459 OA
BRANCH   2   3
ATOM      3  C   UNL A   1      31.975  26.734  26.406  1.00  0.00     0.364 C 
ATOM      4  O   UNL A   1      31.250  27.194  27.277  1.00  0.00    -0.245 OA
BRANCH   3   5
ATOM      5  C   UNL A   1      31.873  25.280  25.973  1.00  0.00     0.295 C 
ATOM      6  N   UNL A   1      30.594  24.971  25.249  1.00  0.00    -0.323 N 
ATOM      7  C   UNL A   1      30.604  23.526  24.903  1.00  0.00     0.262 C 
ATOM      8  H   UNL A   1      29.806  25.215  25.850  1.00  0.00     0.348 HD
ATOM      9  C   UNL A   1      30.813  22.604  26.110  1.00  0.00     0.062 C 
ATOM     10  C   UNL A   1      32.095  24.408  27.217  1.00  0.00     0.078 C 
ATOM     11  C   UNL A   1      32.096  22.938  26.853  1.00  0.00     0.013 C 
BRANCH   6  12
ATOM     12  C   UNL A   1      30.481  25.756  23.984  1.00  0.00     0.266 C 
BRANCH  12  13
ATOM     13  C   UNL A   1      31.127  25.126  22.727  1.00  0.00     0.103 C 
BRANCH  13  14
ATOM     14  C   UNL A   1      32.658  25.164  22.634  1.00  0.00     0.235 C 
BRANCH  14  15
ATOM     15  O   UNL A   1      33.239  24.066  21.883  1.00  0.00    -0.493 OA
BRANCH  15  16
ATOM     16  C   UNL A   1      33.318  22.895  22.590  1.00  0.00     0.119 A 
ATOM     17  C   UNL A   1      32.954  19.561  25.272  1.00  0.00     0.044 C 
ATOM     18  C   UNL A   1      33.242  20.653  24.277  1.00  0.00    -0.048 A 
ATOM     19  C   UNL A   1      32.394  20.752  23.164  1.00  0.00     0.007 A 
ATOM     20  C   UNL A   1      34.281  21.592  24.421  1.00  0.00    -0.045 A 
ATOM     21  C   UNL A   1      32.448  21.855  22.317  1.00  0.00     0.047 A 
ATOM     22  C   UNL A   1      34.307  22.719  23.564  1.00  0.00     0.050 A 
ATOM     23  C   UNL A   1      35.371  21.411  25.445  1.00  0.00     0.045 C 
ENDBRANCH  15  16
ENDBRANCH  14  15
ENDBRANCH  13  14
ENDBRANCH  12  13
ENDBRANCH   6  12
ENDBRANCH   3   5
ENDBRANCH   2   3
ENDBRANCH   1   2
BRANCH   1  24
ATOM     24  C   UNL A   1      33.489  29.842  26.370  1.00  0.00     0.202 C 
BRANCH  24  25
ATOM     25  O   UNL A   1      34.130  30.742  27.254  1.00  0.00    -0.374 OA
BRANCH  25  26
ATOM     26  C   UNL A   1      33.390  31.864  27.722  1.00  0.00     0.202 C 
BRANCH  26  27
ATOM     27  C   UNL A   1      34.174  32.964  28.440  1.00  0.00     0.261 C 
BRANCH  27  28
ATOM     28  O   UNL A   1      35.532  32.563  28.673  1.00  0.00    -0.460 OA
BRANCH  28  29
ATOM     29  C   UNL A   1      35.755  31.939  29.857  1.00  0.00     0.338 C 
ATOM     30  O   UNL A   1      35.093  32.010  30.872  1.00  0.00    -0.246 OA
BRANCH  29  31
ATOM     31  C   UNL A   1      36.825  30.939  29.654  1.00  0.00     0.060 A 
ATOM     32  C   UNL A   1      37.287  30.230  30.775  1.00  0.00     0.016 A 
ATOM     33  C   UNL A   1      37.350  30.693  28.385  1.00  0.00     0.016 A 
ATOM     34  C   UNL A   1      38.331  29.320  30.643  1.00  0.00     0.010 A 
ATOM     35  C   UNL A   1      38.407  29.799  28.255  1.00  0.00     0.010 A 
ATOM     36  C   UNL A   1      38.931  29.156  29.392  1.00  0.00    -0.014 A 
BRANCH  36  37
ATOM     37  C   UNL A   1      40.279  28.565  29.287  1.00  0.00     0.031 A 
ATOM     38  C   UNL A   1      41.443  29.502  29.443  1.00  0.00     0.074 A 
ATOM     39  C   UNL A   1      40.454  27.267  28.996  1.00  0.00     0.049 A 
ATOM     40  N   UNL A   1      42.708  29.306  29.186  1.00  0.00    -0.248 NA
ATOM     41  C   UNL A   1      41.129  30.857  29.933  1.00  0.00     0.031 C 
ATOM     42  C   UNL A   1      39.390  26.271  28.883  1.00  0.00     0.029 A 
ATOM     43  N   UNL A   1      41.601  26.577  28.709  1.00  0.00    -0.354 N 
ATOM     44  C   UNL A   1      43.331  30.519  29.450  1.00  0.00     0.074 A 
ATOM     45  C   UNL A   1      42.310  31.450  29.870  1.00  0.00     0.031 C 
ATOM     46  C   UNL A   1      39.935  25.098  28.514  1.00  0.00     0.029 A 
ATOM     47  C   UNL A   1      41.372  25.281  28.320  1.00  0.00     0.049 A 
ATOM     48  H   UNL A   1      42.501  26.971  28.775  1.00  0.00     0.167 HD
ATOM     49  C   UNL A   1      44.642  30.828  29.340  1.00  0.00     0.031 A 
ATOM     50  C   UNL A   1      42.228  24.370  27.817  1.00  0.00     0.031 A 
ATOM     51  C   UNL A   1      45.638  29.891  28.904  1.00  0.00     0.049 A 
ATOM     52  C   UNL A   1      43.673  24.757  27.636  1.00  0.00     0.074 A 
ATOM     53  C   UNL A   1      47.000  30.080  28.767  1.00  0.00     0.029 A 
ATOM     54  N   UNL A   1      45.367  28.584  28.524  1.00  0.00    -0.354 N 
ATOM     55  N   UNL A   1      44.263  25.899  27.901  1.00  0.00    -0.248 NA
ATOM     56  C   UNL A   1      44.571  23.732  27.087  1.00  0.00     0.031 C 
ATOM     57  C   UNL A   1      47.547  28.903  28.249  1.00  0.00     0.029 A 
ATOM     58  C   UNL A   1      46.535  27.960  28.130  1.00  0.00     0.049 A 
ATOM     59  H   UNL A   1      44.477  28.165  28.535  1.00  0.00     0.167 HD
ATOM     60  C   UNL A   1      45.605  25.718  27.589  1.00  0.00     0.074 A 
ATOM     61  C   UNL A   1      45.742  24.354  27.119  1.00  0.00     0.031 C 
ATOM     62  C   UNL A   1      46.636  26.595  27.684  1.00  0.00     0.031 A 
BRANCH  49  63
ATOM     63  C   UNL A   1      45.055  32.239  29.650  1.00  0.00    -0.014 A 
ATOM     64  C   UNL A   1      45.395  32.636  30.953  1.00  0.00     0.009 A 
ATOM     65  C   UNL A   1      45.121  33.185  28.615  1.00  0.00     0.009 A 
ATOM     66  C   UNL A   1      45.764  33.957  31.217  1.00  0.00     0.001 A 
ATOM     67  C   UNL A   1      45.519  34.497  28.876  1.00  0.00     0.001 A 
ATOM     68  C   UNL A   1      45.831  34.884  30.179  1.00  0.00     0.000 A 
ENDBRANCH  49  63
BRANCH  50  69
ATOM     69  C   UNL A   1      41.740  23.023  27.420  1.00  0.00    -0.014 A 
ATOM     70  C   UNL A   1      41.753  21.958  28.334  1.00  0.00     0.009 A 
ATOM     71  C   UNL A   1      41.270  22.788  26.117  1.00  0.00     0.009 A 
ATOM     72  C   UNL A   1      41.331  20.684  27.947  1.00  0.00     0.001 A 
ATOM     73  C   UNL A   1      40.820  21.520  25.741  1.00  0.00     0.001 A 
ATOM     74  C   UNL A   1      40.860  20.467  26.653  1.00  0.00     0.000 A 
ENDBRANCH  50  69
BRANCH  62  75
ATOM     75  C   UNL A   1      48.007  26.093  27.336  1.00  0.00    -0.014 A 
ATOM     76  C   UNL A   1      48.571  26.317  26.071  1.00  0.00     0.009 A 
ATOM     77  C   UNL A   1      48.778  25.463  28.326  1.00  0.00     0.009 A 
ATOM     78  C   UNL A   1      49.874  25.899  25.800  1.00  0.00     0.001 A 
ATOM     79  C   UNL A   1      50.091  25.076  28.062  1.00  0.00     0.001 A 
ATOM     80  C   UNL A   1      50.636  25.288  26.797  1.00  0.00     0.000 A 
ENDBRANCH  62  75
ENDBRANCH  36  37
ENDBRANCH  29  31
ENDBRANCH  28  29
ENDBRANCH  27  28
ENDBRANCH  26  27
ENDBRANCH  25  26
ENDBRANCH  24  25
ENDBRANCH   1  24
TORSDOF 19
ENDMDL
MODEL 3
REMARK VINA RESULT:      -9.7      3.948      8.484
REMARK SMILES Cc1ccc(OCCC[N@H+]2CCCC[C@@H]2C(=O)OCCOCCOC(=O)c2ccc(-c3c4nc(c(-c5ccccc5)c5ccc([nH]5)c(-c5ccccc5)c5nc(c(-c6ccccc6)c6ccc3[nH]6)C=C5)C=C4)cc2)cc1C
REMARK SMILES IDX 19 1 18 2 16 3 17 4 15 5 10 6 11 7 12 9 14 10 13 11 9 12
REMARK SMILES IDX 8 13 7 14 6 15 5 16 1 17 2 18 3 19 76 20 4 21 75 22 77 23
REMARK SMILES IDX 20 24 21 25 22 26 23 27 24 28 25 29 26 30 27 31 28 32 74 33
REMARK SMILES IDX 29 34 73 35 30 36 31 37 32 38 67 39 33 40 72 41 66 42 68 43
REMARK SMILES IDX 34 44 71 45 65 46 64 47 35 49 57 50 42 51 56 52 43 53 46 54
REMARK SMILES IDX 55 55 69 56 44 57 45 58 54 60 70 61 47 62 36 63 37 64 41 65
REMARK SMILES IDX 38 66 40 67 39 68 58 69 59 70 63 71 60 72 62 73 61 74 48 75
REMARK SMILES IDX 49 76 53 77 50 78 52 79 51 80
REMARK H PARENT 10 8 68 48 46 59
REMARK Flexibility Score: inf
ROOT
ATOM      1  C   UNL A   1      33.504  26.526  26.073  1.00  0.00     0.261 C 
ENDROOT
BRANCH   1   2
ATOM      2  O   UNL A   1      34.466  25.784  25.325  1.00  0.00    -0.459 OA
BRANCH   2   3
ATOM      3  C   UNL A   1      33.999  25.179  24.197  1.00  0.00     0.364 C 
ATOM      4  O   UNL A   1      33.460  25.751  23.261  1.00  0.00    -0.245 OA
BRANCH   3   5
ATOM      5  C   UNL A   1      34.258  23.681  24.170  1.00  0.00     0.295 C 
ATOM      6  N   UNL A   1      33.421  22.923  25.161  1.00  0.00    -0.323 N 
ATOM      7  C   UNL A   1      33.781  21.485  25.055  1.00  0.00     0.262 C 
ATOM      8  H   UNL A   1      33.596  23.293  26.096  1.00  0.00     0.348 HD
ATOM      9  C   UNL A   1      35.277  21.208  25.243  1.00  0.00     0.062 C 
ATOM     10  C   UNL A   1      35.766  23.467  24.357  1.00  0.00     0.078 C 
ATOM     11  C   UNL A   1      36.121  21.997  24.254  1.00  0.00     0.013 C 
BRANCH   6  12
ATOM     12  C   UNL A   1      31.964  23.065  24.865  1.00  0.00     0.266 C 
BRANCH  12  13
ATOM     13  C   UNL A   1      31.103  23.725  25.969  1.00  0.00     0.103 C 
BRANCH  13  14
ATOM     14  C   UNL A   1      30.351  25.010  25.594  1.00  0.00     0.235 C 
BRANCH  14  15
ATOM     15  O   UNL A   1      30.138  25.183  24.169  1.00  0.00    -0.493 OA
BRANCH  15  16
ATOM     16  C   UNL A   1      29.651  26.419  23.831  1.00  0.00     0.119 A 
ATOM     17  C   UNL A   1      27.919  29.919  22.046  1.00  0.00     0.044 C 
ATOM     18  C   UNL A   1      28.599  28.808  22.799  1.00  0.00    -0.048 A 
ATOM     19  C   UNL A   1      27.780  27.880  23.458  1.00  0.00     0.007 A 
ATOM     20  C   UNL A   1      29.995  28.629  22.844  1.00  0.00    -0.045 A 
ATOM     21  C   UNL A   1      28.307  26.706  23.988  1.00  0.00     0.047 A 
ATOM     22  C   UNL A   1      30.512  27.419  23.366  1.00  0.00     0.050 A 
ATOM     23  C   UNL A   1      30.942  29.702  22.374  1.00  0.00     0.045 C 
ENDBRANCH  15  16
ENDBRANCH  14  15
ENDBRANCH  13  14
ENDBRANCH  12  13
ENDBRANCH   6  12
ENDBRANCH   3   5
ENDBRANCH   2   3
ENDBRANCH   1   2
BRANCH   1  24
ATOM     24  C   UNL A   1      33.472  28.053  25.977  1.00  0.00     0.202 C 
BRANCH  24  25
ATOM     25  O   UNL A   1      32.538  28.823  26.711  1.00  0.00    -0.374 OA
BRANCH  25  26
ATOM     26  C   UNL A   1      31.866  29.882  26.039  1.00  0.00     0.202 C 
BRANCH  26  27
ATOM     27  C   UNL A   1      31.753  31.215  26.780  1.00  0.00     0.261 C 
BRANCH  27  28
ATOM     28  O   UNL A   1      33.028  31.867  26.869  1.00  0.00    -0.460 OA
BRANCH  28  29
ATOM     29  C   UNL A   1      33.036  33.027  27.573  1.00  0.00     0.338 C 
ATOM     30  O   UNL A   1      32.161  33.867  27.634  1.00  0.00    -0.246 OA
BRANCH  29  31
ATOM     31  C   UNL A   1      34.208  33.009  28.473  1.00  0.00     0.060 A 
ATOM     32  C   UNL A   1      35.362  33.703  28.069  1.00  0.00     0.016 A 
ATOM     33  C   UNL A   1      34.168  32.338  29.695  1.00  0.00     0.016 A 
ATOM     34  C   UNL A   1      36.508  33.667  28.856  1.00  0.00     0.010 A 
ATOM     35  C   UNL A   1      35.320  32.285  30.473  1.00  0.00     0.010 A 
ATOM     36  C   UNL A   1      36.502  32.903  30.026  1.00  0.00    -0.014 A 
BRANCH  36  37
ATOM     37  C   UNL A   1      37.775  32.480  30.642  1.00  0.00     0.031 A 
ATOM     38  C   UNL A   1      38.454  31.283  30.040  1.00  0.00     0.074 A 
ATOM     39  C   UNL A   1      38.262  33.093  31.731  1.00  0.00     0.049 A 
ATOM     40  N   UNL A   1      39.446  30.571  30.501  1.00  0.00    -0.248 NA
ATOM     41  C   UNL A   1      37.919  30.810  28.750  1.00  0.00     0.031 C 
ATOM     42  C   UNL A   1      37.706  34.294  32.352  1.00  0.00     0.029 A 
ATOM     43  N   UNL A   1      39.326  32.758  32.527  1.00  0.00    -0.354 N 
ATOM     44  C   UNL A   1      39.630  29.550  29.577  1.00  0.00     0.074 A 
ATOM     45  C   UNL A   1      38.641  29.722  28.539  1.00  0.00     0.031 C 
ATOM     46  C   UNL A   1      38.416  34.576  33.459  1.00  0.00     0.029 A 
ATOM     47  C   UNL A   1      39.439  33.548  33.643  1.00  0.00     0.049 A 
ATOM     48  H   UNL A   1      39.947  32.023  32.319  1.00  0.00     0.167 HD
ATOM     49  C   UNL A   1      40.541  28.552  29.601  1.00  0.00     0.031 A 
ATOM     50  C   UNL A   1      40.248  33.417  34.712  1.00  0.00     0.031 A 
ATOM     51  C   UNL A   1      41.504  28.392  30.654  1.00  0.00     0.049 A 
ATOM     52  C   UNL A   1      41.209  32.256  34.753  1.00  0.00     0.074 A 
ATOM     53  C   UNL A   1      42.489  27.431  30.783  1.00  0.00     0.029 A 
ATOM     54  N   UNL A   1      41.591  29.218  31.765  1.00  0.00    -0.354 N 
ATOM     55  N   UNL A   1      41.392  31.302  33.871  1.00  0.00    -0.248 NA
ATOM     56  C   UNL A   1      42.074  32.153  35.936  1.00  0.00     0.031 C 
ATOM     57  C   UNL A   1      43.136  27.641  32.004  1.00  0.00     0.029 A 
ATOM     58  C   UNL A   1      42.600  28.775  32.599  1.00  0.00     0.049 A 
ATOM     59  H   UNL A   1      41.021  30.002  31.933  1.00  0.00     0.167 HD
ATOM     60  C   UNL A   1      42.418  30.509  34.372  1.00  0.00     0.074 A 
ATOM     61  C   UNL A   1      42.819  31.097  35.634  1.00  0.00     0.031 C 
ATOM     62  C   UNL A   1      42.983  29.397  33.840  1.00  0.00     0.031 A 
BRANCH  49  63
ATOM     63  C   UNL A   1      40.500  27.543  28.489  1.00  0.00    -0.014 A 
ATOM     64  C   UNL A   1      41.225  27.730  27.301  1.00  0.00     0.009 A 
ATOM     65  C   UNL A   1      39.737  26.375  28.641  1.00  0.00     0.009 A 
ATOM     66  C   UNL A   1      41.161  26.782  26.277  1.00  0.00     0.001 A 
ATOM     67  C   UNL A   1      39.699  25.415  27.628  1.00  0.00     0.001 A 
ATOM     68  C   UNL A   1      40.403  25.624  26.443  1.00  0.00     0.000 A 
ENDBRANCH  49  63
BRANCH  50  69
ATOM     69  C   UNL A   1      40.165  34.382  35.839  1.00  0.00    -0.014 A 
ATOM     70  C   UNL A   1      40.926  35.562  35.828  1.00  0.00     0.009 A 
ATOM     71  C   UNL A   1      39.333  34.126  36.941  1.00  0.00     0.009 A 
ATOM     72  C   UNL A   1      40.876  36.449  36.906  1.00  0.00     0.001 A 
ATOM     73  C   UNL A   1      39.261  35.029  38.004  1.00  0.00     0.001 A 
ATOM     74  C   UNL A   1      40.039  36.185  37.990  1.00  0.00     0.000 A 
ENDBRANCH  50  69
BRANCH  62  75
ATOM     75  C   UNL A   1      44.133  28.781  34.582  1.00  0.00    -0.014 A 
ATOM     76  C   UNL A   1      45.455  29.196  34.361  1.00  0.00     0.009 A 
ATOM     77  C   UNL A   1      43.873  27.831  35.583  1.00  0.00     0.009 A 
ATOM     78  C   UNL A   1      46.496  28.654  35.116  1.00  0.00     0.001 A 
ATOM     79  C   UNL A   1      44.912  27.315  36.357  1.00  0.00     0.001 A 
ATOM     80  C   UNL A   1      46.224  27.722  36.118  1.00  0.00     0.000 A 
ENDBRANCH  62  75
ENDBRANCH  36  37
ENDBRANCH  29  31
ENDBRANCH  28  29
ENDBRANCH  27  28
ENDBRANCH  26  27
ENDBRANCH  25  26
ENDBRANCH  24  25
ENDBRANCH   1  24
TORSDOF 19
ENDMDL
