MODEL 1
REMARK VINA RESULT:     -10.1      0.000      0.000
REMARK SMILES C[C@@H](C(=O)OCCOCCOC(=O)c1ccc(-c2c3nc(c(-c4ccccc4)c4ccc([nH]4)c(-c4ccccc4)c4nc(c(-c5ccccc5)c5ccc2[nH]5)C=C4)C=C3)cc1)c1ccc(C[C@H]2CCC[C@@H]2O)cc1F
REMARK SMILES IDX 7 1 6 2 5 3 3 4 4 5 2 6 1 7 62 8 63 9 74 10 64 11 73 12
REMARK SMILES IDX 75 13 65 14 66 15 67 16 68 17 71 18 69 19 70 20 72 21 8 23
REMARK SMILES IDX 9 24 10 25 11 26 12 27 13 28 14 29 15 30 61 31 16 32 60 33
REMARK SMILES IDX 17 34 18 35 19 36 54 37 20 38 59 39 53 40 55 41 21 42 58 43
REMARK SMILES IDX 52 44 51 45 22 47 44 48 29 49 43 50 30 51 33 52 42 53 56 54
REMARK SMILES IDX 31 55 32 56 41 58 57 59 34 60 23 61 24 62 28 63 25 64 27 65
REMARK SMILES IDX 26 66 45 67 46 68 50 69 47 70 49 71 48 72 35 73 36 74 40 75
REMARK SMILES IDX 37 76 39 77 38 78
REMARK H PARENT 72 22 55 46 33 57
REMARK Flexibility Score: inf
ROOT
ATOM      1  C   UNL A   1      41.801  20.970  26.587  1.00  0.00     0.202 C 
ENDROOT
BRANCH   1   2
ATOM      2  C   UNL A   1      40.946  22.182  26.206  1.00  0.00     0.261 C 
BRANCH   2   3
ATOM      3  O   UNL A   1      39.607  22.022  26.714  1.00  0.00    -0.463 OA
BRANCH   3   4
ATOM      4  C   UNL A   1      38.667  21.674  25.795  1.00  0.00     0.313 C 
ATOM      5  O   UNL A   1      38.580  20.558  25.293  1.00  0.00    -0.252 OA
BRANCH   4   6
ATOM      6  C   UNL A   1      37.719  22.824  25.444  1.00  0.00     0.129 C 
ATOM      7  C   UNL A   1      37.752  24.022  26.401  1.00  0.00     0.025 C 
BRANCH   6   8
ATOM      8  C   UNL A   1      36.319  22.280  25.199  1.00  0.00     0.002 A 
ATOM      9  C   UNL A   1      35.559  21.829  26.290  1.00  0.00     0.008 A 
ATOM     10  C   UNL A   1      35.701  22.297  23.945  1.00  0.00     0.127 A 
ATOM     11  C   UNL A   1      34.242  21.389  26.118  1.00  0.00     0.004 A 
ATOM     12  C   UNL A   1      34.388  21.875  23.769  1.00  0.00     0.043 A 
ATOM     13  F   UNL A   1      36.362  22.714  22.859  1.00  0.00    -0.207 F 
ATOM     14  C   UNL A   1      33.652  21.383  24.849  1.00  0.00    -0.045 A 
BRANCH  14  15
ATOM     15  C   UNL A   1      32.268  20.821  24.634  1.00  0.00     0.041 C 
BRANCH  15  16
ATOM     16  C   UNL A   1      32.206  19.298  24.422  1.00  0.00     0.022 C 
ATOM     17  C   UNL A   1      32.494  18.807  22.990  1.00  0.00     0.007 C 
ATOM     18  C   UNL A   1      33.144  18.481  25.319  1.00  0.00     0.117 C 
ATOM     19  C   UNL A   1      33.424  17.602  23.131  1.00  0.00     0.003 C 
ATOM     20  C   UNL A   1      33.276  17.160  24.576  1.00  0.00     0.032 C 
BRANCH  18  21
ATOM     21  O   UNL A   1      32.596  18.275  26.607  1.00  0.00    -0.393 OA
ATOM     22  H   UNL A   1      31.701  17.910  26.523  1.00  0.00     0.210 HD
ENDBRANCH  18  21
ENDBRANCH  15  16
ENDBRANCH  14  15
ENDBRANCH   6   8
ENDBRANCH   4   6
ENDBRANCH   3   4
ENDBRANCH   2   3
ENDBRANCH   1   2
BRANCH   1  23
ATOM     23  O   UNL A   1      41.978  19.979  25.570  1.00  0.00    -0.374 OA
BRANCH  23  24
ATOM     24  C   UNL A   1      43.097  19.106  25.712  1.00  0.00     0.202 C 
BRANCH  24  25
ATOM     25  C   UNL A   1      44.292  19.377  24.789  1.00  0.00     0.261 C 
BRANCH  25  26
ATOM     26  O   UNL A   1      44.360  20.751  24.375  1.00  0.00    -0.460 OA
BRANCH  26  27
ATOM     27  C   UNL A   1      45.439  21.419  24.843  1.00  0.00     0.338 C 
ATOM     28  O   UNL A   1      46.619  21.184  24.616  1.00  0.00    -0.246 OA
BRANCH  27  29
ATOM     29  C   UNL A   1      45.007  22.630  25.559  1.00  0.00     0.060 A 
ATOM     30  C   UNL A   1      44.604  23.722  24.779  1.00  0.00     0.016 A 
ATOM     31  C   UNL A   1      45.046  22.723  26.952  1.00  0.00     0.016 A 
ATOM     32  C   UNL A   1      44.291  24.933  25.388  1.00  0.00     0.010 A 
ATOM     33  C   UNL A   1      44.741  23.945  27.561  1.00  0.00     0.010 A 
ATOM     34  C   UNL A   1      44.400  25.064  26.778  1.00  0.00    -0.014 A 
BRANCH  34  35
ATOM     35  C   UNL A   1      44.318  26.414  27.381  1.00  0.00     0.031 A 
ATOM     36  C   UNL A   1      45.587  27.199  27.575  1.00  0.00     0.074 A 
ATOM     37  C   UNL A   1      43.130  26.955  27.699  1.00  0.00     0.049 A 
ATOM     38  N   UNL A   1      45.750  28.403  28.057  1.00  0.00    -0.248 NA
ATOM     39  C   UNL A   1      46.836  26.537  27.165  1.00  0.00     0.031 C 
ATOM     40  C   UNL A   1      41.829  26.316  27.511  1.00  0.00     0.029 A 
ATOM     41  N   UNL A   1      42.830  28.180  28.241  1.00  0.00    -0.354 N 
ATOM     42  C   UNL A   1      47.118  28.643  28.014  1.00  0.00     0.074 A 
ATOM     43  C   UNL A   1      47.742  27.450  27.485  1.00  0.00     0.031 C 
ATOM     44  C   UNL A   1      40.867  27.155  27.931  1.00  0.00     0.029 A 
ATOM     45  C   UNL A   1      41.486  28.377  28.441  1.00  0.00     0.049 A 
ATOM     46  H   UNL A   1      43.513  28.852  28.466  1.00  0.00     0.167 HD
ATOM     47  C   UNL A   1      47.794  29.758  28.376  1.00  0.00     0.031 A 
ATOM     48  C   UNL A   1      40.833  29.420  28.986  1.00  0.00     0.031 A 
ATOM     49  C   UNL A   1      47.177  30.940  28.913  1.00  0.00     0.049 A 
ATOM     50  C   UNL A   1      41.616  30.617  29.456  1.00  0.00     0.074 A 
ATOM     51  C   UNL A   1      47.774  32.128  29.295  1.00  0.00     0.029 A 
ATOM     52  N   UNL A   1      45.818  31.078  29.151  1.00  0.00    -0.354 N 
ATOM     53  N   UNL A   1      42.906  30.842  29.384  1.00  0.00    -0.248 NA
ATOM     54  C   UNL A   1      40.849  31.707  30.078  1.00  0.00     0.031 C 
ATOM     55  C   UNL A   1      46.783  32.966  29.818  1.00  0.00     0.029 A 
ATOM     56  C   UNL A   1      45.561  32.320  29.707  1.00  0.00     0.049 A 
ATOM     57  H   UNL A   1      45.137  30.394  28.957  1.00  0.00     0.167 HD
ATOM     58  C   UNL A   1      43.101  32.107  29.924  1.00  0.00     0.074 A 
ATOM     59  C   UNL A   1      41.796  32.605  30.308  1.00  0.00     0.031 C 
ATOM     60  C   UNL A   1      44.257  32.797  30.085  1.00  0.00     0.031 A 
BRANCH  47  61
ATOM     61  C   UNL A   1      49.290  29.733  28.238  1.00  0.00    -0.014 A 
ATOM     62  C   UNL A   1      49.923  30.165  27.062  1.00  0.00     0.009 A 
ATOM     63  C   UNL A   1      50.078  29.291  29.312  1.00  0.00     0.009 A 
ATOM     64  C   UNL A   1      51.315  30.126  26.954  1.00  0.00     0.001 A 
ATOM     65  C   UNL A   1      51.470  29.277  29.211  1.00  0.00     0.001 A 
ATOM     66  C   UNL A   1      52.087  29.686  28.029  1.00  0.00     0.000 A 
ENDBRANCH  47  61
BRANCH  48  67
ATOM     67  C   UNL A   1      39.355  29.381  29.133  1.00  0.00    -0.014 A 
ATOM     68  C   UNL A   1      38.519  29.750  28.069  1.00  0.00     0.009 A 
ATOM     69  C   UNL A   1      38.773  28.990  30.350  1.00  0.00     0.009 A 
ATOM     70  C   UNL A   1      37.131  29.750  28.229  1.00  0.00     0.001 A 
ATOM     71  C   UNL A   1      37.385  28.967  30.498  1.00  0.00     0.001 A 
ATOM     72  C   UNL A   1      36.565  29.355  29.440  1.00  0.00     0.000 A 
ENDBRANCH  48  67
BRANCH  60  73
ATOM     73  C   UNL A   1      44.159  34.177  30.672  1.00  0.00    -0.014 A 
ATOM     74  C   UNL A   1      43.910  35.297  29.864  1.00  0.00     0.009 A 
ATOM     75  C   UNL A   1      44.273  34.351  32.061  1.00  0.00     0.009 A 
ATOM     76  C   UNL A   1      43.809  36.569  30.433  1.00  0.00     0.001 A 
ATOM     77  C   UNL A   1      44.143  35.618  32.629  1.00  0.00     0.001 A 
ATOM     78  C   UNL A   1      43.922  36.727  31.814  1.00  0.00     0.000 A 
ENDBRANCH  60  73
ENDBRANCH  34  35
ENDBRANCH  27  29
ENDBRANCH  26  27
ENDBRANCH  25  26
ENDBRANCH  24  25
ENDBRANCH  23  24
ENDBRANCH   1  23
TORSDOF 18
ENDMDL
MODEL 2
REMARK VINA RESULT:     -10.0      5.932     12.003
REMARK SMILES C[C@@H](C(=O)OCCOCCOC(=O)c1ccc(-c2c3nc(c(-c4ccccc4)c4ccc([nH]4)c(-c4ccccc4)c4nc(c(-c5ccccc5)c5ccc2[nH]5)C=C4)C=C3)cc1)c1ccc(C[C@H]2CCC[C@@H]2O)cc1F
REMARK SMILES IDX 7 1 6 2 5 3 3 4 4 5 2 6 1 7 62 8 63 9 74 10 64 11 73 12
REMARK SMILES IDX 75 13 65 14 66 15 67 16 68 17 71 18 69 19 70 20 72 21 8 23
REMARK SMILES IDX 9 24 10 25 11 26 12 27 13 28 14 29 15 30 61 31 16 32 60 33
REMARK SMILES IDX 17 34 18 35 19 36 54 37 20 38 59 39 53 40 55 41 21 42 58 43
REMARK SMILES IDX 52 44 51 45 22 47 44 48 29 49 43 50 30 51 33 52 42 53 56 54
REMARK SMILES IDX 31 55 32 56 41 58 57 59 34 60 23 61 24 62 28 63 25 64 27 65
REMARK SMILES IDX 26 66 45 67 46 68 50 69 47 70 49 71 48 72 35 73 36 74 40 75
REMARK SMILES IDX 37 76 39 77 38 78
REMARK H PARENT 72 22 55 46 33 57
REMARK Flexibility Score: inf
ROOT
ATOM      1  C   UNL A   1      32.862  35.915  30.826  1.00  0.00     0.202 C 
ENDROOT
BRANCH   1   2
ATOM      2  C   UNL A   1      33.282  35.355  32.188  1.00  0.00     0.261 C 
BRANCH   2   3
ATOM      3  O   UNL A   1      34.709  35.159  32.224  1.00  0.00    -0.463 OA
BRANCH   3   4
ATOM      4  C   UNL A   1      35.144  33.927  31.847  1.00  0.00     0.313 C 
ATOM      5  O   UNL A   1      34.425  32.935  31.788  1.00  0.00    -0.252 OA
BRANCH   4   6
ATOM      6  C   UNL A   1      36.635  33.899  31.500  1.00  0.00     0.129 C 
ATOM      7  C   UNL A   1      36.984  33.300  30.132  1.00  0.00     0.025 C 
BRANCH   6   8
ATOM      8  C   UNL A   1      37.419  33.285  32.651  1.00  0.00     0.002 A 
ATOM      9  C   UNL A   1      38.314  34.087  33.376  1.00  0.00     0.008 A 
ATOM     10  C   UNL A   1      37.221  31.974  33.097  1.00  0.00     0.127 A 
ATOM     11  C   UNL A   1      38.999  33.582  34.486  1.00  0.00     0.004 A 
ATOM     12  C   UNL A   1      37.887  31.470  34.208  1.00  0.00     0.043 A 
ATOM     13  F   UNL A   1      36.382  31.151  32.458  1.00  0.00    -0.207 F 
ATOM     14  C   UNL A   1      38.812  32.257  34.898  1.00  0.00    -0.045 A 
BRANCH  14  15
ATOM     15  C   UNL A   1      39.615  31.670  36.031  1.00  0.00     0.041 C 
BRANCH  15  16
ATOM     16  C   UNL A   1      39.309  32.253  37.422  1.00  0.00     0.022 C 
ATOM     17  C   UNL A   1      39.900  33.647  37.711  1.00  0.00     0.007 C 
ATOM     18  C   UNL A   1      37.818  32.377  37.758  1.00  0.00     0.117 C 
ATOM     19  C   UNL A   1      38.788  34.451  38.385  1.00  0.00     0.003 C 
ATOM     20  C   UNL A   1      37.793  33.412  38.872  1.00  0.00     0.032 C 
BRANCH  18  21
ATOM     21  O   UNL A   1      37.275  31.150  38.206  1.00  0.00    -0.393 OA
ATOM     22  H   UNL A   1      37.623  30.424  37.664  1.00  0.00     0.210 HD
ENDBRANCH  18  21
ENDBRANCH  15  16
ENDBRANCH  14  15
ENDBRANCH   6   8
ENDBRANCH   4   6
ENDBRANCH   3   4
ENDBRANCH   2   3
ENDBRANCH   1   2
BRANCH   1  23
ATOM     23  O   UNL A   1      32.549  34.951  29.817  1.00  0.00    -0.374 OA
BRANCH  23  24
ATOM     24  C   UNL A   1      33.539  34.725  28.816  1.00  0.00     0.202 C 
BRANCH  24  25
ATOM     25  C   UNL A   1      33.480  33.372  28.095  1.00  0.00     0.261 C 
BRANCH  25  26
ATOM     26  O   UNL A   1      34.552  32.499  28.486  1.00  0.00    -0.460 OA
BRANCH  26  27
ATOM     27  C   UNL A   1      34.367  31.204  28.144  1.00  0.00     0.338 C 
ATOM     28  O   UNL A   1      33.377  30.702  27.626  1.00  0.00    -0.246 OA
BRANCH  27  29
ATOM     29  C   UNL A   1      35.623  30.456  28.317  1.00  0.00     0.060 A 
ATOM     30  C   UNL A   1      35.853  29.881  29.574  1.00  0.00     0.016 A 
ATOM     31  C   UNL A   1      36.579  30.364  27.304  1.00  0.00     0.016 A 
ATOM     32  C   UNL A   1      37.068  29.258  29.841  1.00  0.00     0.010 A 
ATOM     33  C   UNL A   1      37.804  29.746  27.578  1.00  0.00     0.010 A 
ATOM     34  C   UNL A   1      38.066  29.226  28.859  1.00  0.00    -0.014 A 
BRANCH  34  35
ATOM     35  C   UNL A   1      39.431  28.795  29.237  1.00  0.00     0.031 A 
ATOM     36  C   UNL A   1      40.244  29.680  30.143  1.00  0.00     0.074 A 
ATOM     37  C   UNL A   1      39.919  27.612  28.830  1.00  0.00     0.049 A 
ATOM     38  N   UNL A   1      41.447  29.494  30.622  1.00  0.00    -0.248 NA
ATOM     39  C   UNL A   1      39.614  30.941  30.567  1.00  0.00     0.031 C 
ATOM     40  C   UNL A   1      39.209  26.645  27.994  1.00  0.00     0.029 A 
ATOM     41  N   UNL A   1      41.132  27.020  29.076  1.00  0.00    -0.354 N 
ATOM     42  C   UNL A   1      41.720  30.613  31.398  1.00  0.00     0.074 A 
ATOM     43  C   UNL A   1      40.570  31.486  31.305  1.00  0.00     0.031 C 
ATOM     44  C   UNL A   1      40.000  25.576  27.798  1.00  0.00     0.029 A 
ATOM     45  C   UNL A   1      41.279  25.797  28.469  1.00  0.00     0.049 A 
ATOM     46  H   UNL A   1      41.830  27.432  29.634  1.00  0.00     0.167 HD
ATOM     47  C   UNL A   1      42.825  30.887  32.130  1.00  0.00     0.031 A 
ATOM     48  C   UNL A   1      42.332  24.959  28.450  1.00  0.00     0.031 A 
ATOM     49  C   UNL A   1      43.973  30.027  32.215  1.00  0.00     0.049 A 
ATOM     50  C   UNL A   1      43.582  25.324  29.205  1.00  0.00     0.074 A 
ATOM     51  C   UNL A   1      45.136  30.208  32.942  1.00  0.00     0.029 A 
ATOM     52  N   UNL A   1      44.104  28.823  31.540  1.00  0.00    -0.354 N 
ATOM     53  N   UNL A   1      43.816  26.373  29.958  1.00  0.00    -0.248 NA
ATOM     54  C   UNL A   1      44.711  24.387  29.112  1.00  0.00     0.031 C 
ATOM     55  C   UNL A   1      45.996  29.140  32.663  1.00  0.00     0.029 A 
ATOM     56  C   UNL A   1      45.344  28.266  31.808  1.00  0.00     0.049 A 
ATOM     57  H   UNL A   1      43.419  28.424  30.956  1.00  0.00     0.167 HD
ATOM     58  C   UNL A   1      45.105  26.206  30.449  1.00  0.00     0.074 A 
ATOM     59  C   UNL A   1      45.597  24.951  29.919  1.00  0.00     0.031 C 
ATOM     60  C   UNL A   1      45.817  27.018  31.269  1.00  0.00     0.031 A 
BRANCH  47  61
ATOM     61  C   UNL A   1      42.857  32.197  32.867  1.00  0.00    -0.014 A 
ATOM     62  C   UNL A   1      43.086  33.408  32.196  1.00  0.00     0.009 A 
ATOM     63  C   UNL A   1      42.630  32.218  34.252  1.00  0.00     0.009 A 
ATOM     64  C   UNL A   1      43.118  34.612  32.903  1.00  0.00     0.001 A 
ATOM     65  C   UNL A   1      42.637  33.425  34.952  1.00  0.00     0.001 A 
ATOM     66  C   UNL A   1      42.889  34.620  34.279  1.00  0.00     0.000 A 
ENDBRANCH  47  61
BRANCH  48  67
ATOM     67  C   UNL A   1      42.262  23.692  27.675  1.00  0.00    -0.014 A 
ATOM     68  C   UNL A   1      41.822  22.506  28.280  1.00  0.00     0.009 A 
ATOM     69  C   UNL A   1      42.657  23.661  26.328  1.00  0.00     0.009 A 
ATOM     70  C   UNL A   1      41.799  21.310  27.558  1.00  0.00     0.001 A 
ATOM     71  C   UNL A   1      42.609  22.470  25.602  1.00  0.00     0.001 A 
ATOM     72  C   UNL A   1      42.188  21.293  26.219  1.00  0.00     0.000 A 
ENDBRANCH  48  67
BRANCH  60  73
ATOM     73  C   UNL A   1      47.191  26.558  31.669  1.00  0.00    -0.014 A 
ATOM     74  C   UNL A   1      47.387  25.734  32.788  1.00  0.00     0.009 A 
ATOM     75  C   UNL A   1      48.299  26.920  30.887  1.00  0.00     0.009 A 
ATOM     76  C   UNL A   1      48.672  25.308  33.133  1.00  0.00     0.001 A 
ATOM     77  C   UNL A   1      49.577  26.470  31.217  1.00  0.00     0.001 A 
ATOM     78  C   UNL A   1      49.764  25.673  32.346  1.00  0.00     0.000 A 
ENDBRANCH  60  73
ENDBRANCH  34  35
ENDBRANCH  27  29
ENDBRANCH  26  27
ENDBRANCH  25  26
ENDBRANCH  24  25
ENDBRANCH  23  24
ENDBRANCH   1  23
TORSDOF 18
ENDMDL
MODEL 3
REMARK VINA RESULT:      -9.9      5.503     10.334
REMARK SMILES C[C@@H](C(=O)OCCOCCOC(=O)c1ccc(-c2c3nc(c(-c4ccccc4)c4ccc([nH]4)c(-c4ccccc4)c4nc(c(-c5ccccc5)c5ccc2[nH]5)C=C4)C=C3)cc1)c1ccc(C[C@H]2CCC[C@@H]2O)cc1F
REMARK SMILES IDX 7 1 6 2 5 3 3 4 4 5 2 6 1 7 62 8 63 9 74 10 64 11 73 12
REMARK SMILES IDX 75 13 65 14 66 15 67 16 68 17 71 18 69 19 70 20 72 21 8 23
REMARK SMILES IDX 9 24 10 25 11 26 12 27 13 28 14 29 15 30 61 31 16 32 60 33
REMARK SMILES IDX 17 34 18 35 19 36 54 37 20 38 59 39 53 40 55 41 21 42 58 43
REMARK SMILES IDX 52 44 51 45 22 47 44 48 29 49 43 50 30 51 33 52 42 53 56 54
REMARK SMILES IDX 31 55 32 56 41 58 57 59 34 60 23 61 24 62 28 63 25 64 27 65
REMARK SMILES IDX 26 66 45 67 46 68 50 69 47 70 49 71 48 72 35 73 36 74 40 75
REMARK SMILES IDX 37 76 39 77 38 78
REMARK H PARENT 72 22 55 46 33 57
REMARK Flexibility Score: inf
ROOT
ATOM      1  C   UNL A   1      34.614  33.270  29.469  1.00  0.00     0.202 C 
ENDROOT
BRANCH   1   2
ATOM      2  C   UNL A   1      34.492  32.215  28.366  1.00  0.00     0.261 C 
BRANCH   2   3
ATOM      3  O   UNL A   1      35.798  31.867  27.866  1.00  0.00    -0.463 OA
BRANCH   3   4
ATOM      4  C   UNL A   1      36.208  30.596  28.126  1.00  0.00     0.313 C 
ATOM      5  O   UNL A   1      35.654  29.594  27.687  1.00  0.00    -0.252 OA
BRANCH   4   6
ATOM      6  C   UNL A   1      37.441  30.540  29.032  1.00  0.00     0.129 C 
ATOM      7  C   UNL A   1      38.126  31.885  29.299  1.00  0.00     0.025 C 
BRANCH   6   8
ATOM      8  C   UNL A   1      38.394  29.460  28.536  1.00  0.00     0.002 A 
ATOM      9  C   UNL A   1      39.165  29.702  27.389  1.00  0.00     0.008 A 
ATOM     10  C   UNL A   1      38.620  28.266  29.227  1.00  0.00     0.127 A 
ATOM     11  C   UNL A   1      40.103  28.766  26.942  1.00  0.00     0.004 A 
ATOM     12  C   UNL A   1      39.563  27.338  28.796  1.00  0.00     0.043 A 
ATOM     13  F   UNL A   1      37.925  27.967  30.330  1.00  0.00    -0.207 F 
ATOM     14  C   UNL A   1      40.293  27.561  27.628  1.00  0.00    -0.045 A 
BRANCH  14  15
ATOM     15  C   UNL A   1      41.231  26.503  27.103  1.00  0.00     0.041 C 
BRANCH  15  16
ATOM     16  C   UNL A   1      42.657  26.988  26.790  1.00  0.00     0.022 C 
ATOM     17  C   UNL A   1      43.785  26.337  27.614  1.00  0.00     0.007 C 
ATOM     18  C   UNL A   1      43.090  26.825  25.327  1.00  0.00     0.117 C 
ATOM     19  C   UNL A   1      44.904  26.010  26.624  1.00  0.00     0.003 C 
ATOM     20  C   UNL A   1      44.608  26.864  25.403  1.00  0.00     0.032 C 
BRANCH  18  21
ATOM     21  O   UNL A   1      42.605  27.877  24.514  1.00  0.00    -0.393 OA
ATOM     22  H   UNL A   1      42.158  27.506  23.736  1.00  0.00     0.210 HD
ENDBRANCH  18  21
ENDBRANCH  15  16
ENDBRANCH  14  15
ENDBRANCH   6   8
ENDBRANCH   4   6
ENDBRANCH   3   4
ENDBRANCH   2   3
ENDBRANCH   1   2
BRANCH   1  23
ATOM     23  O   UNL A   1      34.182  32.871  30.773  1.00  0.00    -0.374 OA
BRANCH  23  24
ATOM     24  C   UNL A   1      34.488  33.756  31.849  1.00  0.00     0.202 C 
BRANCH  24  25
ATOM     25  C   UNL A   1      35.085  33.115  33.108  1.00  0.00     0.261 C 
BRANCH  25  26
ATOM     26  O   UNL A   1      36.508  33.295  33.187  1.00  0.00    -0.460 OA
BRANCH  26  27
ATOM     27  C   UNL A   1      37.083  32.710  34.263  1.00  0.00     0.338 C 
ATOM     28  O   UNL A   1      36.696  32.738  35.424  1.00  0.00    -0.246 OA
BRANCH  27  29
ATOM     29  C   UNL A   1      38.194  31.848  33.829  1.00  0.00     0.060 A 
ATOM     30  C   UNL A   1      39.476  32.181  34.288  1.00  0.00     0.016 A 
ATOM     31  C   UNL A   1      38.006  30.777  32.953  1.00  0.00     0.016 A 
ATOM     32  C   UNL A   1      40.584  31.478  33.827  1.00  0.00     0.010 A 
ATOM     33  C   UNL A   1      39.123  30.078  32.483  1.00  0.00     0.010 A 
ATOM     34  C   UNL A   1      40.418  30.451  32.889  1.00  0.00    -0.014 A 
BRANCH  34  35
ATOM     35  C   UNL A   1      41.613  29.891  32.218  1.00  0.00     0.031 A 
ATOM     36  C   UNL A   1      42.195  30.628  31.042  1.00  0.00     0.074 A 
ATOM     37  C   UNL A   1      42.206  28.778  32.681  1.00  0.00     0.049 A 
ATOM     38  N   UNL A   1      43.247  30.338  30.321  1.00  0.00    -0.248 NA
ATOM     39  C   UNL A   1      41.498  31.857  30.627  1.00  0.00     0.031 C 
ATOM     40  C   UNL A   1      41.768  28.005  33.842  1.00  0.00     0.029 A 
ATOM     41  N   UNL A   1      43.316  28.110  32.229  1.00  0.00    -0.354 N 
ATOM     42  C   UNL A   1      43.336  31.343  29.366  1.00  0.00     0.074 A 
ATOM     43  C   UNL A   1      42.217  32.235  29.581  1.00  0.00     0.031 C 
ATOM     44  C   UNL A   1      42.603  26.966  34.014  1.00  0.00     0.029 A 
ATOM     45  C   UNL A   1      43.615  26.986  32.959  1.00  0.00     0.049 A 
ATOM     46  H   UNL A   1      43.846  28.407  31.456  1.00  0.00     0.167 HD
ATOM     47  C   UNL A   1      44.269  31.513  28.401  1.00  0.00     0.031 A 
ATOM     48  C   UNL A   1      44.589  26.073  32.787  1.00  0.00     0.031 A 
ATOM     49  C   UNL A   1      45.375  30.622  28.177  1.00  0.00     0.049 A 
ATOM     50  C   UNL A   1      45.566  26.240  31.654  1.00  0.00     0.074 A 
ATOM     51  C   UNL A   1      46.383  30.716  27.235  1.00  0.00     0.029 A 
ATOM     52  N   UNL A   1      45.610  29.465  28.904  1.00  0.00    -0.354 N 
ATOM     53  N   UNL A   1      45.656  27.210  30.776  1.00  0.00    -0.248 NA
ATOM     54  C   UNL A   1      46.581  25.188  31.495  1.00  0.00     0.031 C 
ATOM     55  C   UNL A   1      47.199  29.586  27.354  1.00  0.00     0.029 A 
ATOM     56  C   UNL A   1      46.730  28.818  28.409  1.00  0.00     0.049 A 
ATOM     57  H   UNL A   1      45.062  29.149  29.658  1.00  0.00     0.167 HD
ATOM     58  C   UNL A   1      46.752  26.900  29.980  1.00  0.00     0.074 A 
ATOM     59  C   UNL A   1      47.301  25.659  30.486  1.00  0.00     0.031 C 
ATOM     60  C   UNL A   1      47.260  27.583  28.924  1.00  0.00     0.031 A 
BRANCH  47  61
ATOM     61  C   UNL A   1      44.107  32.694  27.485  1.00  0.00    -0.014 A 
ATOM     62  C   UNL A   1      44.099  34.007  27.980  1.00  0.00     0.009 A 
ATOM     63  C   UNL A   1      43.984  32.487  26.102  1.00  0.00     0.009 A 
ATOM     64  C   UNL A   1      43.940  35.088  27.111  1.00  0.00     0.001 A 
ATOM     65  C   UNL A   1      43.851  33.571  25.233  1.00  0.00     0.001 A 
ATOM     66  C   UNL A   1      43.820  34.870  25.738  1.00  0.00     0.000 A 
ENDBRANCH  47  61
BRANCH  48  67
ATOM     67  C   UNL A   1      44.684  24.903  33.698  1.00  0.00    -0.014 A 
ATOM     68  C   UNL A   1      44.064  23.688  33.371  1.00  0.00     0.009 A 
ATOM     69  C   UNL A   1      45.381  25.005  34.913  1.00  0.00     0.009 A 
ATOM     70  C   UNL A   1      44.122  22.605  34.253  1.00  0.00     0.001 A 
ATOM     71  C   UNL A   1      45.459  23.913  35.780  1.00  0.00     0.001 A 
ATOM     72  C   UNL A   1      44.822  22.717  35.454  1.00  0.00     0.000 A 
ENDBRANCH  48  67
BRANCH  60  73
ATOM     73  C   UNL A   1      48.490  27.021  28.269  1.00  0.00    -0.014 A 
ATOM     74  C   UNL A   1      49.768  27.246  28.801  1.00  0.00     0.009 A 
ATOM     75  C   UNL A   1      48.361  26.216  27.125  1.00  0.00     0.009 A 
ATOM     76  C   UNL A   1      50.896  26.703  28.183  1.00  0.00     0.001 A 
ATOM     77  C   UNL A   1      49.486  25.651  26.526  1.00  0.00     0.001 A 
ATOM     78  C   UNL A   1      50.754  25.903  27.049  1.00  0.00     0.000 A 
ENDBRANCH  60  73
ENDBRANCH  34  35
ENDBRANCH  27  29
ENDBRANCH  26  27
ENDBRANCH  25  26
ENDBRANCH  24  25
ENDBRANCH  23  24
ENDBRANCH   1  23
TORSDOF 18
ENDMDL
