MODEL 1
REMARK VINA RESULT:     -10.0      0.000      0.000
REMARK SMILES O=C(CC1(NC(=O)c2ccncc2Cl)CCCCC1)OCCOCCOC(=O)c1ccc(-c2c3nc(c(-c4ccccc4)c4ccc([nH]4)c(-c4ccccc4)c4nc(c(-c5ccccc5)c5ccc2[nH]5)C=C4)C=C3)cc1
REMARK SMILES IDX 22 1 21 2 20 3 2 4 1 5 3 6 4 7 15 8 19 9 16 10 18 11 17 12
REMARK SMILES IDX 5 13 6 14 7 16 8 17 9 18 13 19 10 20 12 21 14 22 11 23 23 24
REMARK SMILES IDX 24 25 25 26 26 27 27 28 28 29 29 30 30 31 76 32 31 33 75 34
REMARK SMILES IDX 32 35 33 36 34 37 69 38 35 39 74 40 68 41 70 42 36 43 73 44
REMARK SMILES IDX 67 45 66 46 37 48 59 49 44 50 58 51 45 52 48 53 57 54 71 55
REMARK SMILES IDX 46 56 47 57 56 59 72 60 49 61 38 62 39 63 43 64 40 65 42 66
REMARK SMILES IDX 41 67 60 68 61 69 65 70 62 71 64 72 63 73 50 74 51 75 55 76
REMARK SMILES IDX 52 77 54 78 53 79
REMARK H PARENT 5 15 70 47 48 58
REMARK Flexibility Score: inf
ROOT
ATOM      1  C   UNL A   1      31.492  28.201  23.236  1.00  0.00     0.202 C 
ENDROOT
BRANCH   1   2
ATOM      2  C   UNL A   1      32.583  27.287  22.723  1.00  0.00     0.261 C 
BRANCH   2   3
ATOM      3  O   UNL A   1      32.275  25.904  22.433  1.00  0.00    -0.463 OA
BRANCH   3   4
ATOM      4  C   UNL A   1      32.909  24.929  21.763  1.00  0.00     0.308 C 
ATOM      5  O   UNL A   1      33.273  25.161  20.608  1.00  0.00    -0.252 OA
BRANCH   4   6
ATOM      6  C   UNL A   1      33.203  23.577  22.375  1.00  0.00     0.151 C 
BRANCH   6   7
ATOM      7  C   UNL A   1      34.313  23.429  23.443  1.00  0.00     0.051 C 
ATOM      8  C   UNL A   1      34.082  22.116  24.252  1.00  0.00     0.029 C 
ATOM      9  C   UNL A   1      35.712  23.323  22.757  1.00  0.00     0.029 C 
ATOM     10  C   UNL A   1      35.263  21.672  25.118  1.00  0.00     0.002 C 
ATOM     11  C   UNL A   1      36.866  22.841  23.630  1.00  0.00     0.002 C 
ATOM     12  C   UNL A   1      36.529  21.520  24.294  1.00  0.00     0.000 C 
BRANCH   7  13
ATOM     13  N   UNL A   1      34.338  24.569  24.430  1.00  0.00    -0.346 N 
ATOM     14  C   UNL A   1      33.698  25.006  25.571  1.00  0.00     0.253 C 
ATOM     15  H   UNL A   1      35.041  25.211  24.177  1.00  0.00     0.164 HD
ATOM     16  O   UNL A   1      34.234  25.949  26.164  1.00  0.00    -0.269 OA
BRANCH  14  17
ATOM     17  C   UNL A   1      32.354  24.614  26.061  1.00  0.00     0.061 A 
ATOM     18  C   UNL A   1      31.307  25.485  25.698  1.00  0.00     0.035 A 
ATOM     19  C   UNL A   1      32.053  23.552  26.905  1.00  0.00     0.072 A 
ATOM     20  C   UNL A   1      30.006  25.185  26.073  1.00  0.00     0.112 A 
ATOM     21  C   UNL A   1      30.711  23.326  27.213  1.00  0.00     0.132 A 
ATOM     22  Cl  UNL A   1      33.216  22.553  27.667  1.00  0.00    -0.082 Cl
ATOM     23  N   UNL A   1      29.680  24.102  26.804  1.00  0.00    -0.263 NA
ENDBRANCH  14  17
ENDBRANCH   7  13
ENDBRANCH   6   7
ENDBRANCH   4   6
ENDBRANCH   3   4
ENDBRANCH   2   3
ENDBRANCH   1   2
BRANCH   1  24
ATOM     24  O   UNL A   1      31.875  29.377  23.917  1.00  0.00    -0.374 OA
BRANCH  24  25
ATOM     25  C   UNL A   1      32.406  29.327  25.231  1.00  0.00     0.202 C 
BRANCH  25  26
ATOM     26  C   UNL A   1      31.936  30.498  26.084  1.00  0.00     0.261 C 
BRANCH  26  27
ATOM     27  O   UNL A   1      32.708  30.509  27.289  1.00  0.00    -0.460 OA
BRANCH  27  28
ATOM     28  C   UNL A   1      33.450  31.614  27.506  1.00  0.00     0.338 C 
ATOM     29  O   UNL A   1      33.073  32.774  27.546  1.00  0.00    -0.246 OA
BRANCH  28  30
ATOM     30  C   UNL A   1      34.790  31.165  27.936  1.00  0.00     0.060 A 
ATOM     31  C   UNL A   1      35.005  29.789  28.094  1.00  0.00     0.016 A 
ATOM     32  C   UNL A   1      35.834  32.076  28.132  1.00  0.00     0.016 A 
ATOM     33  C   UNL A   1      36.249  29.328  28.504  1.00  0.00     0.010 A 
ATOM     34  C   UNL A   1      37.079  31.616  28.541  1.00  0.00     0.010 A 
ATOM     35  C   UNL A   1      37.270  30.246  28.775  1.00  0.00    -0.014 A 
BRANCH  35  36
ATOM     36  C   UNL A   1      38.458  29.795  29.518  1.00  0.00     0.031 A 
ATOM     37  C   UNL A   1      38.608  30.251  30.940  1.00  0.00     0.074 A 
ATOM     38  C   UNL A   1      39.347  28.972  28.942  1.00  0.00     0.049 A 
ATOM     39  N   UNL A   1      39.556  29.987  31.799  1.00  0.00    -0.248 NA
ATOM     40  C   UNL A   1      37.545  31.128  31.465  1.00  0.00     0.031 C 
ATOM     41  C   UNL A   1      39.266  28.462  27.573  1.00  0.00     0.029 A 
ATOM     42  N   UNL A   1      40.495  28.422  29.444  1.00  0.00    -0.354 N 
ATOM     43  C   UNL A   1      39.201  30.660  32.962  1.00  0.00     0.074 A 
ATOM     44  C   UNL A   1      37.982  31.385  32.687  1.00  0.00     0.031 C 
ATOM     45  C   UNL A   1      40.327  27.669  27.343  1.00  0.00     0.029 A 
ATOM     46  C   UNL A   1      41.169  27.644  28.536  1.00  0.00     0.049 A 
ATOM     47  H   UNL A   1      40.806  28.570  30.365  1.00  0.00     0.167 HD
ATOM     48  C   UNL A   1      39.831  30.659  34.159  1.00  0.00     0.031 A 
ATOM     49  C   UNL A   1      42.343  27.001  28.663  1.00  0.00     0.031 A 
ATOM     50  C   UNL A   1      41.059  29.954  34.404  1.00  0.00     0.049 A 
ATOM     51  C   UNL A   1      43.058  27.067  29.986  1.00  0.00     0.074 A 
ATOM     52  C   UNL A   1      41.798  29.885  35.570  1.00  0.00     0.029 A 
ATOM     53  N   UNL A   1      41.729  29.197  33.454  1.00  0.00    -0.354 N 
ATOM     54  N   UNL A   1      42.705  27.687  31.088  1.00  0.00    -0.248 NA
ATOM     55  C   UNL A   1      44.323  26.330  30.087  1.00  0.00     0.031 C 
ATOM     56  C   UNL A   1      42.946  29.128  35.308  1.00  0.00     0.029 A 
ATOM     57  C   UNL A   1      42.886  28.670  34.000  1.00  0.00     0.049 A 
ATOM     58  H   UNL A   1      41.427  29.054  32.528  1.00  0.00     0.167 HD
ATOM     59  C   UNL A   1      43.691  27.395  32.021  1.00  0.00     0.074 A 
ATOM     60  C   UNL A   1      44.638  26.518  31.361  1.00  0.00     0.031 C 
ATOM     61  C   UNL A   1      43.813  27.812  33.307  1.00  0.00     0.031 A 
BRANCH  48  62
ATOM     62  C   UNL A   1      39.210  31.462  35.267  1.00  0.00    -0.014 A 
ATOM     63  C   UNL A   1      39.451  32.841  35.393  1.00  0.00     0.009 A 
ATOM     64  C   UNL A   1      38.361  30.837  36.194  1.00  0.00     0.009 A 
ATOM     65  C   UNL A   1      38.882  33.567  36.441  1.00  0.00     0.001 A 
ATOM     66  C   UNL A   1      37.769  31.573  37.222  1.00  0.00     0.001 A 
ATOM     67  C   UNL A   1      38.037  32.935  37.352  1.00  0.00     0.000 A 
ENDBRANCH  48  62
BRANCH  49  68
ATOM     68  C   UNL A   1      42.918  26.258  27.510  1.00  0.00    -0.014 A 
ATOM     69  C   UNL A   1      42.634  24.900  27.309  1.00  0.00     0.009 A 
ATOM     70  C   UNL A   1      43.773  26.911  26.606  1.00  0.00     0.009 A 
ATOM     71  C   UNL A   1      43.219  24.203  26.247  1.00  0.00     0.001 A 
ATOM     72  C   UNL A   1      44.329  26.222  25.527  1.00  0.00     0.001 A 
ATOM     73  C   UNL A   1      44.062  24.865  25.355  1.00  0.00     0.000 A 
ENDBRANCH  49  68
BRANCH  61  74
ATOM     74  C   UNL A   1      44.997  27.293  34.075  1.00  0.00    -0.014 A 
ATOM     75  C   UNL A   1      44.925  26.100  34.810  1.00  0.00     0.009 A 
ATOM     76  C   UNL A   1      46.203  28.008  34.054  1.00  0.00     0.009 A 
ATOM     77  C   UNL A   1      46.022  25.664  35.554  1.00  0.00     0.001 A 
ATOM     78  C   UNL A   1      47.312  27.549  34.767  1.00  0.00     0.001 A 
ATOM     79  C   UNL A   1      47.214  26.387  35.529  1.00  0.00     0.000 A 
ENDBRANCH  61  74
ENDBRANCH  35  36
ENDBRANCH  28  30
ENDBRANCH  27  28
ENDBRANCH  26  27
ENDBRANCH  25  26
ENDBRANCH  24  25
ENDBRANCH   1  24
TORSDOF 17
ENDMDL
MODEL 2
REMARK VINA RESULT:     -10.0      2.644      5.196
REMARK SMILES O=C(CC1(NC(=O)c2ccncc2Cl)CCCCC1)OCCOCCOC(=O)c1ccc(-c2c3nc(c(-c4ccccc4)c4ccc([nH]4)c(-c4ccccc4)c4nc(c(-c5ccccc5)c5ccc2[nH]5)C=C4)C=C3)cc1
REMARK SMILES IDX 22 1 21 2 20 3 2 4 1 5 3 6 4 7 15 8 19 9 16 10 18 11 17 12
REMARK SMILES IDX 5 13 6 14 7 16 8 17 9 18 13 19 10 20 12 21 14 22 11 23 23 24
REMARK SMILES IDX 24 25 25 26 26 27 27 28 28 29 29 30 30 31 76 32 31 33 75 34
REMARK SMILES IDX 32 35 33 36 34 37 69 38 35 39 74 40 68 41 70 42 36 43 73 44
REMARK SMILES IDX 67 45 66 46 37 48 59 49 44 50 58 51 45 52 48 53 57 54 71 55
REMARK SMILES IDX 46 56 47 57 56 59 72 60 49 61 38 62 39 63 43 64 40 65 42 66
REMARK SMILES IDX 41 67 60 68 61 69 65 70 62 71 64 72 63 73 50 74 51 75 55 76
REMARK SMILES IDX 52 77 54 78 53 79
REMARK H PARENT 5 15 70 47 48 58
REMARK Flexibility Score: inf
ROOT
ATOM      1  C   UNL A   1      34.504  32.913  27.993  1.00  0.00     0.202 C 
ENDROOT
BRANCH   1   2
ATOM      2  C   UNL A   1      34.278  31.417  28.045  1.00  0.00     0.261 C 
BRANCH   2   3
ATOM      3  O   UNL A   1      33.741  30.739  26.886  1.00  0.00    -0.463 OA
BRANCH   3   4
ATOM      4  C   UNL A   1      33.614  29.449  26.537  1.00  0.00     0.308 C 
ATOM      5  O   UNL A   1      33.581  28.606  27.435  1.00  0.00    -0.252 OA
BRANCH   4   6
ATOM      6  C   UNL A   1      33.496  29.003  25.096  1.00  0.00     0.151 C 
BRANCH   6   7
ATOM      7  C   UNL A   1      32.189  28.351  24.586  1.00  0.00     0.051 C 
ATOM      8  C   UNL A   1      31.072  29.434  24.488  1.00  0.00     0.029 C 
ATOM      9  C   UNL A   1      32.403  27.759  23.157  1.00  0.00     0.029 C 
ATOM     10  C   UNL A   1      29.828  29.013  23.702  1.00  0.00     0.002 C 
ATOM     11  C   UNL A   1      31.147  27.384  22.377  1.00  0.00     0.002 C 
ATOM     12  C   UNL A   1      30.187  28.554  22.301  1.00  0.00     0.000 C 
BRANCH   7  13
ATOM     13  N   UNL A   1      31.681  27.259  25.494  1.00  0.00    -0.346 N 
ATOM     14  C   UNL A   1      32.003  25.984  25.913  1.00  0.00     0.253 C 
ATOM     15  H   UNL A   1      30.848  27.550  25.931  1.00  0.00     0.164 HD
ATOM     16  O   UNL A   1      31.353  25.550  26.870  1.00  0.00    -0.269 OA
BRANCH  14  17
ATOM     17  C   UNL A   1      32.891  25.007  25.238  1.00  0.00     0.061 A 
ATOM     18  C   UNL A   1      34.264  25.150  25.521  1.00  0.00     0.035 A 
ATOM     19  C   UNL A   1      32.518  24.051  24.301  1.00  0.00     0.072 A 
ATOM     20  C   UNL A   1      35.174  24.260  24.971  1.00  0.00     0.112 A 
ATOM     21  C   UNL A   1      33.506  23.194  23.816  1.00  0.00     0.132 A 
ATOM     22  Cl  UNL A   1      30.950  23.906  23.628  1.00  0.00    -0.082 Cl
ATOM     23  N   UNL A   1      34.818  23.260  24.141  1.00  0.00    -0.263 NA
ENDBRANCH  14  17
ENDBRANCH   7  13
ENDBRANCH   6   7
ENDBRANCH   4   6
ENDBRANCH   3   4
ENDBRANCH   2   3
ENDBRANCH   1   2
BRANCH   1  24
ATOM     24  O   UNL A   1      34.119  33.683  29.113  1.00  0.00    -0.374 OA
BRANCH  24  25
ATOM     25  C   UNL A   1      34.071  35.098  29.051  1.00  0.00     0.202 C 
BRANCH  25  26
ATOM     26  C   UNL A   1      32.854  35.662  29.773  1.00  0.00     0.261 C 
BRANCH  26  27
ATOM     27  O   UNL A   1      33.284  36.168  31.042  1.00  0.00    -0.460 OA
BRANCH  27  28
ATOM     28  C   UNL A   1      32.914  35.447  32.120  1.00  0.00     0.338 C 
ATOM     29  O   UNL A   1      31.782  35.206  32.509  1.00  0.00    -0.246 OA
BRANCH  28  30
ATOM     30  C   UNL A   1      34.126  34.777  32.636  1.00  0.00     0.060 A 
ATOM     31  C   UNL A   1      35.349  35.454  32.530  1.00  0.00     0.016 A 
ATOM     32  C   UNL A   1      34.055  33.526  33.259  1.00  0.00     0.016 A 
ATOM     33  C   UNL A   1      36.511  34.854  32.997  1.00  0.00     0.010 A 
ATOM     34  C   UNL A   1      35.217  32.925  33.727  1.00  0.00     0.010 A 
ATOM     35  C   UNL A   1      36.450  33.570  33.549  1.00  0.00    -0.014 A 
BRANCH  35  36
ATOM     36  C   UNL A   1      37.699  32.811  33.731  1.00  0.00     0.031 A 
ATOM     37  C   UNL A   1      38.481  33.043  34.991  1.00  0.00     0.074 A 
ATOM     38  C   UNL A   1      38.089  31.915  32.812  1.00  0.00     0.049 A 
ATOM     39  N   UNL A   1      39.600  32.497  35.384  1.00  0.00    -0.248 NA
ATOM     40  C   UNL A   1      37.927  34.032  35.936  1.00  0.00     0.031 C 
ATOM     41  C   UNL A   1      37.377  31.609  31.571  1.00  0.00     0.029 A 
ATOM     42  N   UNL A   1      39.186  31.097  32.786  1.00  0.00    -0.354 N 
ATOM     43  C   UNL A   1      39.880  33.070  36.618  1.00  0.00     0.074 A 
ATOM     44  C   UNL A   1      38.845  34.042  36.888  1.00  0.00     0.031 C 
ATOM     45  C   UNL A   1      38.060  30.666  30.901  1.00  0.00     0.029 A 
ATOM     46  C   UNL A   1      39.266  30.328  31.652  1.00  0.00     0.049 A 
ATOM     47  H   UNL A   1      39.851  31.064  33.510  1.00  0.00     0.167 HD
ATOM     48  C   UNL A   1      40.903  32.796  37.460  1.00  0.00     0.031 A 
ATOM     49  C   UNL A   1      40.222  29.464  31.268  1.00  0.00     0.031 A 
ATOM     50  C   UNL A   1      41.938  31.846  37.160  1.00  0.00     0.049 A 
ATOM     51  C   UNL A   1      41.385  29.223  32.194  1.00  0.00     0.074 A 
ATOM     52  C   UNL A   1      43.032  31.489  37.926  1.00  0.00     0.029 A 
ATOM     53  N   UNL A   1      42.004  31.103  35.990  1.00  0.00    -0.354 N 
ATOM     54  N   UNL A   1      41.631  29.753  33.370  1.00  0.00    -0.248 NA
ATOM     55  C   UNL A   1      42.391  28.253  31.746  1.00  0.00     0.031 C 
ATOM     56  C   UNL A   1      43.790  30.569  37.193  1.00  0.00     0.029 A 
ATOM     57  C   UNL A   1      43.132  30.302  36.002  1.00  0.00     0.049 A 
ATOM     58  H   UNL A   1      41.346  31.141  35.258  1.00  0.00     0.167 HD
ATOM     59  C   UNL A   1      42.806  29.162  33.814  1.00  0.00     0.074 A 
ATOM     60  C   UNL A   1      43.204  28.213  32.792  1.00  0.00     0.031 C 
ATOM     61  C   UNL A   1      43.503  29.380  34.958  1.00  0.00     0.031 A 
BRANCH  48  62
ATOM     62  C   UNL A   1      40.952  33.553  38.757  1.00  0.00    -0.014 A 
ATOM     63  C   UNL A   1      40.309  33.070  39.910  1.00  0.00     0.009 A 
ATOM     64  C   UNL A   1      41.661  34.762  38.835  1.00  0.00     0.009 A 
ATOM     65  C   UNL A   1      40.348  33.797  41.101  1.00  0.00     0.001 A 
ATOM     66  C   UNL A   1      41.724  35.471  40.037  1.00  0.00     0.001 A 
ATOM     67  C   UNL A   1      41.060  34.994  41.166  1.00  0.00     0.000 A 
ENDBRANCH  48  62
BRANCH  49  68
ATOM     68  C   UNL A   1      40.128  28.780  29.951  1.00  0.00    -0.014 A 
ATOM     69  C   UNL A   1      40.664  29.362  28.793  1.00  0.00     0.009 A 
ATOM     70  C   UNL A   1      39.483  27.537  29.847  1.00  0.00     0.009 A 
ATOM     71  C   UNL A   1      40.526  28.729  27.554  1.00  0.00     0.001 A 
ATOM     72  C   UNL A   1      39.377  26.891  28.614  1.00  0.00     0.001 A 
ATOM     73  C   UNL A   1      39.887  27.493  27.466  1.00  0.00     0.000 A 
ENDBRANCH  49  68
BRANCH  61  74
ATOM     74  C   UNL A   1      44.741  28.552  35.163  1.00  0.00    -0.014 A 
ATOM     75  C   UNL A   1      46.021  29.090  34.962  1.00  0.00     0.009 A 
ATOM     76  C   UNL A   1      44.620  27.216  35.573  1.00  0.00     0.009 A 
ATOM     77  C   UNL A   1      47.154  28.288  35.112  1.00  0.00     0.001 A 
ATOM     78  C   UNL A   1      45.756  26.427  35.762  1.00  0.00     0.001 A 
ATOM     79  C   UNL A   1      47.020  26.960  35.514  1.00  0.00     0.000 A 
ENDBRANCH  61  74
ENDBRANCH  35  36
ENDBRANCH  28  30
ENDBRANCH  27  28
ENDBRANCH  26  27
ENDBRANCH  25  26
ENDBRANCH  24  25
ENDBRANCH   1  24
TORSDOF 17
ENDMDL
MODEL 3
REMARK VINA RESULT:     -10.0      2.129      6.746
REMARK SMILES O=C(CC1(NC(=O)c2ccncc2Cl)CCCCC1)OCCOCCOC(=O)c1ccc(-c2c3nc(c(-c4ccccc4)c4ccc([nH]4)c(-c4ccccc4)c4nc(c(-c5ccccc5)c5ccc2[nH]5)C=C4)C=C3)cc1
REMARK SMILES IDX 22 1 21 2 20 3 2 4 1 5 3 6 4 7 15 8 19 9 16 10 18 11 17 12
REMARK SMILES IDX 5 13 6 14 7 16 8 17 9 18 13 19 10 20 12 21 14 22 11 23 23 24
REMARK SMILES IDX 24 25 25 26 26 27 27 28 28 29 29 30 30 31 76 32 31 33 75 34
REMARK SMILES IDX 32 35 33 36 34 37 69 38 35 39 74 40 68 41 70 42 36 43 73 44
REMARK SMILES IDX 67 45 66 46 37 48 59 49 44 50 58 51 45 52 48 53 57 54 71 55
REMARK SMILES IDX 46 56 47 57 56 59 72 60 49 61 38 62 39 63 43 64 40 65 42 66
REMARK SMILES IDX 41 67 60 68 61 69 65 70 62 71 64 72 63 73 50 74 51 75 55 76
REMARK SMILES IDX 52 77 54 78 53 79
REMARK H PARENT 5 15 70 47 48 58
REMARK Flexibility Score: inf
ROOT
ATOM      1  C   UNL A   1      34.501  31.209  27.590  1.00  0.00     0.202 C 
ENDROOT
BRANCH   1   2
ATOM      2  C   UNL A   1      34.802  29.725  27.592  1.00  0.00     0.261 C 
BRANCH   2   3
ATOM      3  O   UNL A   1      33.786  28.793  27.157  1.00  0.00    -0.463 OA
BRANCH   3   4
ATOM      4  C   UNL A   1      33.562  28.125  26.014  1.00  0.00     0.308 C 
ATOM      5  O   UNL A   1      34.283  28.376  25.045  1.00  0.00    -0.252 OA
BRANCH   4   6
ATOM      6  C   UNL A   1      32.480  27.077  25.881  1.00  0.00     0.151 C 
BRANCH   6   7
ATOM      7  C   UNL A   1      31.687  26.938  24.560  1.00  0.00     0.051 C 
ATOM      8  C   UNL A   1      30.634  25.797  24.704  1.00  0.00     0.029 C 
ATOM      9  C   UNL A   1      30.914  28.259  24.250  1.00  0.00     0.029 C 
ATOM     10  C   UNL A   1      29.569  25.754  23.606  1.00  0.00     0.002 C 
ATOM     11  C   UNL A   1      29.830  28.184  23.180  1.00  0.00     0.002 C 
ATOM     12  C   UNL A   1      28.839  27.080  23.490  1.00  0.00     0.000 C 
BRANCH   7  13
ATOM     13  N   UNL A   1      32.562  26.598  23.379  1.00  0.00    -0.346 N 
ATOM     14  C   UNL A   1      33.092  25.505  22.724  1.00  0.00     0.253 C 
ATOM     15  H   UNL A   1      32.849  27.425  22.929  1.00  0.00     0.164 HD
ATOM     16  O   UNL A   1      33.614  25.733  21.628  1.00  0.00    -0.269 OA
BRANCH  14  17
ATOM     17  C   UNL A   1      33.282  24.134  23.258  1.00  0.00     0.061 A 
ATOM     18  C   UNL A   1      32.394  23.166  22.750  1.00  0.00     0.035 A 
ATOM     19  C   UNL A   1      34.166  23.745  24.257  1.00  0.00     0.072 A 
ATOM     20  C   UNL A   1      32.515  21.845  23.156  1.00  0.00     0.112 A 
ATOM     21  C   UNL A   1      34.222  22.390  24.585  1.00  0.00     0.132 A 
ATOM     22  Cl  UNL A   1      35.127  24.819  25.180  1.00  0.00    -0.082 Cl
ATOM     23  N   UNL A   1      33.435  21.429  24.048  1.00  0.00    -0.263 NA
ENDBRANCH  14  17
ENDBRANCH   7  13
ENDBRANCH   6   7
ENDBRANCH   4   6
ENDBRANCH   3   4
ENDBRANCH   2   3
ENDBRANCH   1   2
BRANCH   1  24
ATOM     24  O   UNL A   1      33.240  31.631  28.065  1.00  0.00    -0.374 OA
BRANCH  24  25
ATOM     25  C   UNL A   1      32.394  32.451  27.276  1.00  0.00     0.202 C 
BRANCH  25  26
ATOM     26  C   UNL A   1      32.613  33.933  27.552  1.00  0.00     0.261 C 
BRANCH  26  27
ATOM     27  O   UNL A   1      32.527  34.140  28.965  1.00  0.00    -0.460 OA
BRANCH  27  28
ATOM     28  C   UNL A   1      33.446  34.973  29.497  1.00  0.00     0.338 C 
ATOM     29  O   UNL A   1      33.287  36.125  29.869  1.00  0.00    -0.246 OA
BRANCH  28  30
ATOM     30  C   UNL A   1      34.652  34.170  29.785  1.00  0.00     0.060 A 
ATOM     31  C   UNL A   1      34.566  33.184  30.777  1.00  0.00     0.016 A 
ATOM     32  C   UNL A   1      35.834  34.348  29.057  1.00  0.00     0.016 A 
ATOM     33  C   UNL A   1      35.680  32.413  31.081  1.00  0.00     0.010 A 
ATOM     34  C   UNL A   1      36.949  33.577  29.360  1.00  0.00     0.010 A 
ATOM     35  C   UNL A   1      36.884  32.645  30.407  1.00  0.00    -0.014 A 
BRANCH  35  36
ATOM     36  C   UNL A   1      38.128  32.075  30.949  1.00  0.00     0.031 A 
ATOM     37  C   UNL A   1      38.659  30.823  30.313  1.00  0.00     0.074 A 
ATOM     38  C   UNL A   1      38.776  32.688  31.951  1.00  0.00     0.049 A 
ATOM     39  N   UNL A   1      39.731  30.136  30.604  1.00  0.00    -0.248 NA
ATOM     40  C   UNL A   1      37.869  30.265  29.199  1.00  0.00     0.031 C 
ATOM     41  C   UNL A   1      38.345  33.921  32.610  1.00  0.00     0.029 A 
ATOM     42  N   UNL A   1      39.940  32.351  32.587  1.00  0.00    -0.354 N 
ATOM     43  C   UNL A   1      39.745  29.073  29.709  1.00  0.00     0.074 A 
ATOM     44  C   UNL A   1      38.553  29.174  28.900  1.00  0.00     0.031 C 
ATOM     45  C   UNL A   1      39.237  34.237  33.564  1.00  0.00     0.029 A 
ATOM     46  C   UNL A   1      40.280  33.215  33.597  1.00  0.00     0.049 A 
ATOM     47  H   UNL A   1      40.481  31.566  32.342  1.00  0.00     0.167 HD
ATOM     48  C   UNL A   1      40.682  28.109  29.566  1.00  0.00     0.031 A 
ATOM     49  C   UNL A   1      41.312  33.166  34.457  1.00  0.00     0.031 A 
ATOM     50  C   UNL A   1      41.848  28.009  30.400  1.00  0.00     0.049 A 
ATOM     51  C   UNL A   1      42.308  32.044  34.319  1.00  0.00     0.074 A 
ATOM     52  C   UNL A   1      42.863  27.072  30.361  1.00  0.00     0.029 A 
ATOM     53  N   UNL A   1      42.147  28.886  31.433  1.00  0.00    -0.354 N 
ATOM     54  N   UNL A   1      42.327  31.056  33.455  1.00  0.00    -0.248 NA
ATOM     55  C   UNL A   1      43.432  32.044  35.262  1.00  0.00     0.031 C 
ATOM     56  C   UNL A   1      43.749  27.351  31.407  1.00  0.00     0.029 A 
ATOM     57  C   UNL A   1      43.323  28.502  32.053  1.00  0.00     0.049 A 
ATOM     58  H   UNL A   1      41.604  29.667  31.687  1.00  0.00     0.167 HD
ATOM     59  C   UNL A   1      43.477  30.329  33.734  1.00  0.00     0.074 A 
ATOM     60  C   UNL A   1      44.141  31.012  34.827  1.00  0.00     0.031 C 
ATOM     61  C   UNL A   1      43.947  29.199  33.149  1.00  0.00     0.031 A 
BRANCH  48  62
ATOM     62  C   UNL A   1      40.459  27.084  28.489  1.00  0.00    -0.014 A 
ATOM     63  C   UNL A   1      41.026  27.232  27.211  1.00  0.00     0.009 A 
ATOM     64  C   UNL A   1      39.681  25.946  28.755  1.00  0.00     0.009 A 
ATOM     65  C   UNL A   1      40.791  26.281  26.216  1.00  0.00     0.001 A 
ATOM     66  C   UNL A   1      39.475  24.981  27.767  1.00  0.00     0.001 A 
ATOM     67  C   UNL A   1      40.021  25.153  26.496  1.00  0.00     0.000 A 
ENDBRANCH  48  62
BRANCH  49  68
ATOM     68  C   UNL A   1      41.447  34.192  35.525  1.00  0.00    -0.014 A 
ATOM     69  C   UNL A   1      42.163  35.378  35.303  1.00  0.00     0.009 A 
ATOM     70  C   UNL A   1      40.865  33.980  36.785  1.00  0.00     0.009 A 
ATOM     71  C   UNL A   1      42.322  36.312  36.331  1.00  0.00     0.001 A 
ATOM     72  C   UNL A   1      40.996  34.930  37.799  1.00  0.00     0.001 A 
ATOM     73  C   UNL A   1      41.735  36.090  37.576  1.00  0.00     0.000 A 
ENDBRANCH  49  68
BRANCH  61  74
ATOM     74  C   UNL A   1      45.252  28.662  33.668  1.00  0.00    -0.014 A 
ATOM     75  C   UNL A   1      45.293  27.723  34.710  1.00  0.00     0.009 A 
ATOM     76  C   UNL A   1      46.456  29.099  33.097  1.00  0.00     0.009 A 
ATOM     77  C   UNL A   1      46.518  27.275  35.207  1.00  0.00     0.001 A 
ATOM     78  C   UNL A   1      47.679  28.620  33.568  1.00  0.00     0.001 A 
ATOM     79  C   UNL A   1      47.708  27.722  34.634  1.00  0.00     0.000 A 
ENDBRANCH  61  74
ENDBRANCH  35  36
ENDBRANCH  28  30
ENDBRANCH  27  28
ENDBRANCH  26  27
ENDBRANCH  25  26
ENDBRANCH  24  25
ENDBRANCH   1  24
TORSDOF 17
ENDMDL
