MODEL 1
REMARK VINA RESULT:     -10.3      0.000      0.000
REMARK SMILES CC1(C)NC(=O)N(CCC(=O)N2CCC[C@H]2C(=O)OCCOCCOC(=O)c2ccc(-c3c4nc(c(-c5ccccc5)c5ccc([nH]5)c(-c5ccccc5)c5nc(c(-c6ccccc6)c6ccc3[nH]6)C=C5)C=C4)cc2)C1=O
REMARK SMILES IDX 21 1 20 2 19 3 17 4 18 5 16 6 12 7 13 8 14 9 15 10 10 11
REMARK SMILES IDX 11 12 9 13 8 14 7 15 1 16 2 17 3 18 4 19 76 20 5 21 77 23
REMARK SMILES IDX 6 24 22 25 23 26 24 27 25 28 26 29 27 30 28 31 29 32 75 33
REMARK SMILES IDX 30 34 74 35 31 36 32 37 33 38 68 39 34 40 73 41 67 42 69 43
REMARK SMILES IDX 35 44 72 45 66 46 65 47 36 49 58 50 43 51 57 52 44 53 47 54
REMARK SMILES IDX 56 55 70 56 45 57 46 58 55 60 71 61 48 62 37 63 38 64 42 65
REMARK SMILES IDX 39 66 41 67 40 68 59 69 60 70 64 71 61 72 63 73 62 74 49 75
REMARK SMILES IDX 50 76 54 77 51 78 53 79 52 80
REMARK H PARENT 4 22 69 48 47 59
REMARK Flexibility Score: inf
ROOT
ATOM      1  C   UNL A   1      32.152  29.262  27.032  1.00  0.00     0.202 C 
ENDROOT
BRANCH   1   2
ATOM      2  C   UNL A   1      33.263  28.215  26.833  1.00  0.00     0.261 C 
BRANCH   2   3
ATOM      3  O   UNL A   1      33.347  27.484  25.581  1.00  0.00    -0.462 OA
BRANCH   3   4
ATOM      4  C   UNL A   1      33.375  26.137  25.637  1.00  0.00     0.328 C 
ATOM      5  O   UNL A   1      34.394  25.474  25.722  1.00  0.00    -0.250 OA
BRANCH   4   6
ATOM      6  C   UNL A   1      32.050  25.411  25.570  1.00  0.00     0.195 C 
ATOM      7  N   UNL A   1      31.834  24.770  24.283  1.00  0.00    -0.329 N 
ATOM      8  C   UNL A   1      31.834  23.328  24.487  1.00  0.00     0.120 C 
ATOM      9  C   UNL A   1      31.236  23.163  25.871  1.00  0.00     0.024 C 
ATOM     10  C   UNL A   1      31.792  24.352  26.644  1.00  0.00     0.039 C 
BRANCH   7  11
ATOM     11  C   UNL A   1      31.381  25.335  23.107  1.00  0.00     0.225 C 
ATOM     12  O   UNL A   1      32.195  25.559  22.200  1.00  0.00    -0.275 OA
BRANCH  11  13
ATOM     13  C   UNL A   1      29.976  25.949  22.956  1.00  0.00     0.122 C 
BRANCH  13  14
ATOM     14  C   UNL A   1      29.249  27.032  23.772  1.00  0.00     0.140 C 
BRANCH  14  15
ATOM     15  N   UNL A   1      29.139  28.402  23.304  1.00  0.00    -0.262 N 
ATOM     16  C   UNL A   1      27.593  31.601  23.357  1.00  0.00     0.045 C 
ATOM     17  C   UNL A   1      28.329  30.521  22.578  1.00  0.00     0.115 C 
ATOM     18  C   UNL A   1      28.099  30.723  21.083  1.00  0.00     0.045 C 
ATOM     19  N   UNL A   1      29.744  30.503  22.868  1.00  0.00    -0.324 N 
ATOM     20  C   UNL A   1      27.967  29.098  23.081  1.00  0.00     0.255 C 
ATOM     21  C   UNL A   1      30.185  29.268  23.284  1.00  0.00     0.325 C 
ATOM     22  H   UNL A   1      30.330  31.289  22.779  1.00  0.00     0.166 HD
ATOM     23  O   UNL A   1      26.829  28.694  23.280  1.00  0.00    -0.272 OA
ATOM     24  O   UNL A   1      31.346  29.027  23.567  1.00  0.00    -0.248 OA
ENDBRANCH  14  15
ENDBRANCH  13  14
ENDBRANCH  11  13
ENDBRANCH   7  11
ENDBRANCH   4   6
ENDBRANCH   3   4
ENDBRANCH   2   3
ENDBRANCH   1   2
BRANCH   1  25
ATOM     25  O   UNL A   1      32.404  30.509  26.408  1.00  0.00    -0.374 OA
BRANCH  25  26
ATOM     26  C   UNL A   1      31.356  31.492  26.451  1.00  0.00     0.202 C 
BRANCH  26  27
ATOM     27  C   UNL A   1      31.748  32.913  26.914  1.00  0.00     0.261 C 
BRANCH  27  28
ATOM     28  O   UNL A   1      33.152  33.156  27.008  1.00  0.00    -0.460 OA
BRANCH  28  29
ATOM     29  C   UNL A   1      33.563  33.716  28.161  1.00  0.00     0.338 C 
ATOM     30  O   UNL A   1      32.933  34.440  28.910  1.00  0.00    -0.246 OA
BRANCH  29  31
ATOM     31  C   UNL A   1      34.801  33.006  28.506  1.00  0.00     0.060 A 
ATOM     32  C   UNL A   1      34.707  31.627  28.730  1.00  0.00     0.016 A 
ATOM     33  C   UNL A   1      36.037  33.660  28.478  1.00  0.00     0.016 A 
ATOM     34  C   UNL A   1      35.856  30.899  28.991  1.00  0.00     0.010 A 
ATOM     35  C   UNL A   1      37.188  32.934  28.756  1.00  0.00     0.010 A 
ATOM     36  C   UNL A   1      37.086  31.567  29.061  1.00  0.00    -0.014 A 
BRANCH  36  37
ATOM     37  C   UNL A   1      38.204  30.895  29.745  1.00  0.00     0.031 A 
ATOM     38  C   UNL A   1      38.406  31.220  31.195  1.00  0.00     0.074 A 
ATOM     39  C   UNL A   1      38.972  30.002  29.103  1.00  0.00     0.049 A 
ATOM     40  N   UNL A   1      39.289  30.752  32.035  1.00  0.00    -0.248 NA
ATOM     41  C   UNL A   1      37.483  32.212  31.778  1.00  0.00     0.031 C 
ATOM     42  C   UNL A   1      38.821  29.602  27.706  1.00  0.00     0.029 A 
ATOM     43  N   UNL A   1      40.035  29.271  29.556  1.00  0.00    -0.354 N 
ATOM     44  C   UNL A   1      39.027  31.393  33.239  1.00  0.00     0.074 A 
ATOM     45  C   UNL A   1      37.936  32.311  33.015  1.00  0.00     0.031 C 
ATOM     46  C   UNL A   1      39.766  28.690  27.413  1.00  0.00     0.029 A 
ATOM     47  C   UNL A   1      40.595  28.469  28.595  1.00  0.00     0.049 A 
ATOM     48  H   UNL A   1      40.365  29.315  30.483  1.00  0.00     0.167 HD
ATOM     49  C   UNL A   1      39.643  31.224  34.431  1.00  0.00     0.031 A 
ATOM     50  C   UNL A   1      41.668  27.660  28.672  1.00  0.00     0.031 A 
ATOM     51  C   UNL A   1      40.750  30.333  34.625  1.00  0.00     0.049 A 
ATOM     52  C   UNL A   1      42.384  27.539  29.991  1.00  0.00     0.074 A 
ATOM     53  C   UNL A   1      41.458  30.071  35.781  1.00  0.00     0.029 A 
ATOM     54  N   UNL A   1      41.318  29.566  33.617  1.00  0.00    -0.354 N 
ATOM     55  N   UNL A   1      42.111  28.121  31.136  1.00  0.00    -0.248 NA
ATOM     56  C   UNL A   1      43.547  26.645  30.031  1.00  0.00     0.031 C 
ATOM     57  C   UNL A   1      42.495  29.188  35.459  1.00  0.00     0.029 A 
ATOM     58  C   UNL A   1      42.390  28.851  34.117  1.00  0.00     0.049 A 
ATOM     59  H   UNL A   1      41.004  29.534  32.685  1.00  0.00     0.167 HD
ATOM     60  C   UNL A   1      43.052  27.646  32.039  1.00  0.00     0.074 A 
ATOM     61  C   UNL A   1      43.893  26.715  31.309  1.00  0.00     0.031 C 
ATOM     62  C   UNL A   1      43.211  27.943  33.354  1.00  0.00     0.031 A 
BRANCH  49  63
ATOM     63  C   UNL A   1      39.155  32.067  35.576  1.00  0.00    -0.014 A 
ATOM     64  C   UNL A   1      38.169  31.600  36.463  1.00  0.00     0.009 A 
ATOM     65  C   UNL A   1      39.664  33.362  35.751  1.00  0.00     0.009 A 
ATOM     66  C   UNL A   1      37.673  32.430  37.471  1.00  0.00     0.001 A 
ATOM     67  C   UNL A   1      39.189  34.178  36.779  1.00  0.00     0.001 A 
ATOM     68  C   UNL A   1      38.186  33.717  37.630  1.00  0.00     0.000 A 
ENDBRANCH  49  63
BRANCH  50  69
ATOM     69  C   UNL A   1      42.119  26.913  27.470  1.00  0.00    -0.014 A 
ATOM     70  C   UNL A   1      43.095  27.446  26.615  1.00  0.00     0.009 A 
ATOM     71  C   UNL A   1      41.587  25.644  27.183  1.00  0.00     0.009 A 
ATOM     72  C   UNL A   1      43.519  26.730  25.492  1.00  0.00     0.001 A 
ATOM     73  C   UNL A   1      42.032  24.921  26.076  1.00  0.00     0.001 A 
ATOM     74  C   UNL A   1      42.993  25.466  25.227  1.00  0.00     0.000 A 
ENDBRANCH  50  69
BRANCH  62  75
ATOM     75  C   UNL A   1      44.317  27.238  34.085  1.00  0.00    -0.014 A 
ATOM     76  C   UNL A   1      45.594  27.808  34.198  1.00  0.00     0.009 A 
ATOM     77  C   UNL A   1      44.058  26.010  34.714  1.00  0.00     0.009 A 
ATOM     78  C   UNL A   1      46.600  27.142  34.900  1.00  0.00     0.001 A 
ATOM     79  C   UNL A   1      45.056  25.364  35.441  1.00  0.00     0.001 A 
ATOM     80  C   UNL A   1      46.329  25.925  35.526  1.00  0.00     0.000 A 
ENDBRANCH  62  75
ENDBRANCH  36  37
ENDBRANCH  29  31
ENDBRANCH  28  29
ENDBRANCH  27  28
ENDBRANCH  26  27
ENDBRANCH  25  26
ENDBRANCH   1  25
TORSDOF 18
ENDMDL
MODEL 2
REMARK VINA RESULT:     -10.2      4.968      9.338
REMARK SMILES CC1(C)NC(=O)N(CCC(=O)N2CCC[C@H]2C(=O)OCCOCCOC(=O)c2ccc(-c3c4nc(c(-c5ccccc5)c5ccc([nH]5)c(-c5ccccc5)c5nc(c(-c6ccccc6)c6ccc3[nH]6)C=C5)C=C4)cc2)C1=O
REMARK SMILES IDX 21 1 20 2 19 3 17 4 18 5 16 6 12 7 13 8 14 9 15 10 10 11
REMARK SMILES IDX 11 12 9 13 8 14 7 15 1 16 2 17 3 18 4 19 76 20 5 21 77 23
REMARK SMILES IDX 6 24 22 25 23 26 24 27 25 28 26 29 27 30 28 31 29 32 75 33
REMARK SMILES IDX 30 34 74 35 31 36 32 37 33 38 68 39 34 40 73 41 67 42 69 43
REMARK SMILES IDX 35 44 72 45 66 46 65 47 36 49 58 50 43 51 57 52 44 53 47 54
REMARK SMILES IDX 56 55 70 56 45 57 46 58 55 60 71 61 48 62 37 63 38 64 42 65
REMARK SMILES IDX 39 66 41 67 40 68 59 69 60 70 64 71 61 72 63 73 62 74 49 75
REMARK SMILES IDX 50 76 54 77 51 78 53 79 52 80
REMARK H PARENT 4 22 69 48 47 59
REMARK Flexibility Score: inf
ROOT
ATOM      1  C   UNL A   1      38.710  22.811  26.057  1.00  0.00     0.202 C 
ENDROOT
BRANCH   1   2
ATOM      2  C   UNL A   1      37.259  22.690  25.557  1.00  0.00     0.261 C 
BRANCH   2   3
ATOM      3  O   UNL A   1      36.617  23.831  24.928  1.00  0.00    -0.462 OA
BRANCH   3   4
ATOM      4  C   UNL A   1      35.337  24.098  25.259  1.00  0.00     0.328 C 
ATOM      5  O   UNL A   1      34.874  23.958  26.377  1.00  0.00    -0.250 OA
BRANCH   4   6
ATOM      6  C   UNL A   1      34.422  24.583  24.157  1.00  0.00     0.195 C 
ATOM      7  N   UNL A   1      33.252  23.733  23.995  1.00  0.00    -0.329 N 
ATOM      8  C   UNL A   1      32.075  24.501  24.374  1.00  0.00     0.120 C 
ATOM      9  C   UNL A   1      32.425  25.919  23.964  1.00  0.00     0.024 C 
ATOM     10  C   UNL A   1      33.914  26.022  24.271  1.00  0.00     0.039 C 
BRANCH   7  11
ATOM     11  C   UNL A   1      33.148  22.538  23.310  1.00  0.00     0.225 C 
ATOM     12  O   UNL A   1      32.852  22.563  22.107  1.00  0.00    -0.275 OA
BRANCH  11  13
ATOM     13  C   UNL A   1      33.115  21.167  24.012  1.00  0.00     0.122 C 
BRANCH  13  14
ATOM     14  C   UNL A   1      32.173  19.963  23.842  1.00  0.00     0.140 C 
BRANCH  14  15
ATOM     15  N   UNL A   1      32.640  18.595  23.983  1.00  0.00    -0.262 N 
ATOM     16  C   UNL A   1      32.534  15.411  25.556  1.00  0.00     0.045 C 
ATOM     17  C   UNL A   1      33.339  16.487  24.842  1.00  0.00     0.115 C 
ATOM     18  C   UNL A   1      34.824  16.291  25.134  1.00  0.00     0.045 C 
ATOM     19  N   UNL A   1      33.106  16.491  23.416  1.00  0.00    -0.324 N 
ATOM     20  C   UNL A   1      32.818  17.911  25.170  1.00  0.00     0.255 C 
ATOM     21  C   UNL A   1      32.705  17.720  22.947  1.00  0.00     0.325 C 
ATOM     22  H   UNL A   1      33.221  15.700  22.841  1.00  0.00     0.166 HD
ATOM     23  O   UNL A   1      32.572  18.325  26.295  1.00  0.00    -0.272 OA
ATOM     24  O   UNL A   1      32.468  17.950  21.773  1.00  0.00    -0.248 OA
ENDBRANCH  14  15
ENDBRANCH  13  14
ENDBRANCH  11  13
ENDBRANCH   7  11
ENDBRANCH   4   6
ENDBRANCH   3   4
ENDBRANCH   2   3
ENDBRANCH   1   2
BRANCH   1  25
ATOM     25  O   UNL A   1      39.285  21.591  26.488  1.00  0.00    -0.374 OA
BRANCH  25  26
ATOM     26  C   UNL A   1      39.100  20.440  25.647  1.00  0.00     0.202 C 
BRANCH  26  27
ATOM     27  C   UNL A   1      39.985  19.209  25.940  1.00  0.00     0.261 C 
BRANCH  27  28
ATOM     28  O   UNL A   1      41.284  19.238  25.345  1.00  0.00    -0.460 OA
BRANCH  28  29
ATOM     29  C   UNL A   1      42.314  19.230  26.212  1.00  0.00     0.338 C 
ATOM     30  O   UNL A   1      43.112  18.335  26.421  1.00  0.00    -0.246 OA
BRANCH  29  31
ATOM     31  C   UNL A   1      42.488  20.634  26.604  1.00  0.00     0.060 A 
ATOM     32  C   UNL A   1      42.643  21.571  25.575  1.00  0.00     0.016 A 
ATOM     33  C   UNL A   1      42.368  21.028  27.941  1.00  0.00     0.016 A 
ATOM     34  C   UNL A   1      42.741  22.917  25.889  1.00  0.00     0.010 A 
ATOM     35  C   UNL A   1      42.484  22.376  28.257  1.00  0.00     0.010 A 
ATOM     36  C   UNL A   1      42.721  23.308  27.234  1.00  0.00    -0.014 A 
BRANCH  36  37
ATOM     37  C   UNL A   1      43.246  24.640  27.579  1.00  0.00     0.031 A 
ATOM     38  C   UNL A   1      42.245  25.681  27.984  1.00  0.00     0.074 A 
ATOM     39  C   UNL A   1      44.564  24.888  27.569  1.00  0.00     0.049 A 
ATOM     40  N   UNL A   1      42.437  26.915  28.362  1.00  0.00    -0.248 NA
ATOM     41  C   UNL A   1      40.827  25.270  27.958  1.00  0.00     0.031 C 
ATOM     42  C   UNL A   1      45.606  23.924  27.223  1.00  0.00     0.029 A 
ATOM     43  N   UNL A   1      45.244  26.037  27.865  1.00  0.00    -0.354 N 
ATOM     44  C   UNL A   1      41.170  27.424  28.616  1.00  0.00     0.074 A 
ATOM     45  C   UNL A   1      40.215  26.386  28.312  1.00  0.00     0.031 C 
ATOM     46  C   UNL A   1      46.804  24.528  27.327  1.00  0.00     0.029 A 
ATOM     47  C   UNL A   1      46.602  25.920  27.720  1.00  0.00     0.049 A 
ATOM     48  H   UNL A   1      44.801  26.867  28.156  1.00  0.00     0.167 HD
ATOM     49  C   UNL A   1      40.835  28.652  29.071  1.00  0.00     0.031 A 
ATOM     50  C   UNL A   1      47.564  26.848  27.879  1.00  0.00     0.031 A 
ATOM     51  C   UNL A   1      41.797  29.683  29.334  1.00  0.00     0.049 A 
ATOM     52  C   UNL A   1      47.164  28.232  28.318  1.00  0.00     0.074 A 
ATOM     53  C   UNL A   1      41.586  30.967  29.798  1.00  0.00     0.029 A 
ATOM     54  N   UNL A   1      43.164  29.542  29.136  1.00  0.00    -0.354 N 
ATOM     55  N   UNL A   1      45.967  28.698  28.591  1.00  0.00    -0.248 NA
ATOM     56  C   UNL A   1      48.245  29.211  28.480  1.00  0.00     0.031 C 
ATOM     57  C   UNL A   1      42.822  31.623  29.825  1.00  0.00     0.029 A 
ATOM     58  C   UNL A   1      43.809  30.726  29.440  1.00  0.00     0.049 A 
ATOM     59  H   UNL A   1      43.608  28.720  28.826  1.00  0.00     0.167 HD
ATOM     60  C   UNL A   1      46.152  30.017  28.980  1.00  0.00     0.074 A 
ATOM     61  C   UNL A   1      47.580  30.270  28.922  1.00  0.00     0.031 C 
ATOM     62  C   UNL A   1      45.232  30.941  29.357  1.00  0.00     0.031 A 
BRANCH  49  63
ATOM     63  C   UNL A   1      39.370  28.938  29.247  1.00  0.00    -0.014 A 
ATOM     64  C   UNL A   1      38.591  29.457  28.198  1.00  0.00     0.009 A 
ATOM     65  C   UNL A   1      38.765  28.717  30.494  1.00  0.00     0.009 A 
ATOM     66  C   UNL A   1      37.251  29.790  28.408  1.00  0.00     0.001 A 
ATOM     67  C   UNL A   1      37.417  29.021  30.692  1.00  0.00     0.001 A 
ATOM     68  C   UNL A   1      36.664  29.569  29.655  1.00  0.00     0.000 A 
ENDBRANCH  49  63
BRANCH  50  69
ATOM     69  C   UNL A   1      48.983  26.493  27.619  1.00  0.00    -0.014 A 
ATOM     70  C   UNL A   1      49.507  26.525  26.319  1.00  0.00     0.009 A 
ATOM     71  C   UNL A   1      49.831  26.141  28.683  1.00  0.00     0.009 A 
ATOM     72  C   UNL A   1      50.847  26.199  26.087  1.00  0.00     0.001 A 
ATOM     73  C   UNL A   1      51.175  25.842  28.451  1.00  0.00     0.001 A 
ATOM     74  C   UNL A   1      51.681  25.865  27.153  1.00  0.00     0.000 A 
ENDBRANCH  50  69
BRANCH  62  75
ATOM     75  C   UNL A   1      45.746  32.294  29.755  1.00  0.00    -0.014 A 
ATOM     76  C   UNL A   1      46.251  32.532  31.043  1.00  0.00     0.009 A 
ATOM     77  C   UNL A   1      45.774  33.330  28.808  1.00  0.00     0.009 A 
ATOM     78  C   UNL A   1      46.742  33.793  31.383  1.00  0.00     0.001 A 
ATOM     79  C   UNL A   1      46.294  34.579  29.142  1.00  0.00     0.001 A 
ATOM     80  C   UNL A   1      46.769  34.814  30.432  1.00  0.00     0.000 A 
ENDBRANCH  62  75
ENDBRANCH  36  37
ENDBRANCH  29  31
ENDBRANCH  28  29
ENDBRANCH  27  28
ENDBRANCH  26  27
ENDBRANCH  25  26
ENDBRANCH   1  25
TORSDOF 18
ENDMDL
MODEL 3
REMARK VINA RESULT:     -10.1      1.844      4.256
REMARK SMILES CC1(C)NC(=O)N(CCC(=O)N2CCC[C@H]2C(=O)OCCOCCOC(=O)c2ccc(-c3c4nc(c(-c5ccccc5)c5ccc([nH]5)c(-c5ccccc5)c5nc(c(-c6ccccc6)c6ccc3[nH]6)C=C5)C=C4)cc2)C1=O
REMARK SMILES IDX 21 1 20 2 19 3 17 4 18 5 16 6 12 7 13 8 14 9 15 10 10 11
REMARK SMILES IDX 11 12 9 13 8 14 7 15 1 16 2 17 3 18 4 19 76 20 5 21 77 23
REMARK SMILES IDX 6 24 22 25 23 26 24 27 25 28 26 29 27 30 28 31 29 32 75 33
REMARK SMILES IDX 30 34 74 35 31 36 32 37 33 38 68 39 34 40 73 41 67 42 69 43
REMARK SMILES IDX 35 44 72 45 66 46 65 47 36 49 58 50 43 51 57 52 44 53 47 54
REMARK SMILES IDX 56 55 70 56 45 57 46 58 55 60 71 61 48 62 37 63 38 64 42 65
REMARK SMILES IDX 39 66 41 67 40 68 59 69 60 70 64 71 61 72 63 73 62 74 49 75
REMARK SMILES IDX 50 76 54 77 51 78 53 79 52 80
REMARK H PARENT 4 22 69 48 47 59
REMARK Flexibility Score: inf
ROOT
ATOM      1  C   UNL A   1      32.277  29.198  26.936  1.00  0.00     0.202 C 
ENDROOT
BRANCH   1   2
ATOM      2  C   UNL A   1      33.408  28.194  26.654  1.00  0.00     0.261 C 
BRANCH   2   3
ATOM      3  O   UNL A   1      33.706  27.811  25.285  1.00  0.00    -0.462 OA
BRANCH   3   4
ATOM      4  C   UNL A   1      33.553  26.515  24.944  1.00  0.00     0.328 C 
ATOM      5  O   UNL A   1      34.392  25.652  25.131  1.00  0.00    -0.250 OA
BRANCH   4   6
ATOM      6  C   UNL A   1      32.258  26.124  24.267  1.00  0.00     0.195 C 
ATOM      7  N   UNL A   1      31.435  25.264  25.102  1.00  0.00    -0.329 N 
ATOM      8  C   UNL A   1      30.229  25.997  25.461  1.00  0.00     0.120 C 
ATOM      9  C   UNL A   1      29.966  26.870  24.248  1.00  0.00     0.024 C 
ATOM     10  C   UNL A   1      31.362  27.268  23.787  1.00  0.00     0.039 C 
BRANCH   7  11
ATOM     11  C   UNL A   1      31.538  23.901  25.294  1.00  0.00     0.225 C 
ATOM     12  O   UNL A   1      31.909  23.480  26.399  1.00  0.00    -0.275 OA
BRANCH  11  13
ATOM     13  C   UNL A   1      31.478  22.881  24.140  1.00  0.00     0.122 C 
BRANCH  13  14
ATOM     14  C   UNL A   1      32.574  22.019  23.490  1.00  0.00     0.140 C 
BRANCH  14  15
ATOM     15  N   UNL A   1      33.080  20.815  24.124  1.00  0.00    -0.262 N 
ATOM     16  C   UNL A   1      34.368  17.507  23.957  1.00  0.00     0.045 C 
ATOM     17  C   UNL A   1      33.558  18.556  24.706  1.00  0.00     0.115 C 
ATOM     18  C   UNL A   1      32.642  17.868  25.714  1.00  0.00     0.045 C 
ATOM     19  N   UNL A   1      34.399  19.523  25.374  1.00  0.00    -0.324 N 
ATOM     20  C   UNL A   1      32.818  19.515  23.738  1.00  0.00     0.255 C 
ATOM     21  C   UNL A   1      34.100  20.818  25.021  1.00  0.00     0.325 C 
ATOM     22  H   UNL A   1      35.108  19.283  26.012  1.00  0.00     0.166 HD
ATOM     23  O   UNL A   1      32.152  19.160  22.773  1.00  0.00    -0.272 OA
ATOM     24  O   UNL A   1      34.677  21.792  25.476  1.00  0.00    -0.248 OA
ENDBRANCH  14  15
ENDBRANCH  13  14
ENDBRANCH  11  13
ENDBRANCH   7  11
ENDBRANCH   4   6
ENDBRANCH   3   4
ENDBRANCH   2   3
ENDBRANCH   1   2
BRANCH   1  25
ATOM     25  O   UNL A   1      32.473  30.479  26.363  1.00  0.00    -0.374 OA
BRANCH  25  26
ATOM     26  C   UNL A   1      31.398  31.427  26.481  1.00  0.00     0.202 C 
BRANCH  26  27
ATOM     27  C   UNL A   1      31.778  32.869  26.883  1.00  0.00     0.261 C 
BRANCH  27  28
ATOM     28  O   UNL A   1      33.180  33.123  26.982  1.00  0.00    -0.460 OA
BRANCH  28  29
ATOM     29  C   UNL A   1      33.586  33.668  28.145  1.00  0.00     0.338 C 
ATOM     30  O   UNL A   1      32.953  34.384  28.899  1.00  0.00    -0.246 OA
BRANCH  29  31
ATOM     31  C   UNL A   1      34.820  32.950  28.488  1.00  0.00     0.060 A 
ATOM     32  C   UNL A   1      34.720  31.569  28.693  1.00  0.00     0.016 A 
ATOM     33  C   UNL A   1      36.058  33.601  28.476  1.00  0.00     0.016 A 
ATOM     34  C   UNL A   1      35.867  30.834  28.951  1.00  0.00     0.010 A 
ATOM     35  C   UNL A   1      37.205  32.868  28.751  1.00  0.00     0.010 A 
ATOM     36  C   UNL A   1      37.097  31.497  29.038  1.00  0.00    -0.014 A 
BRANCH  36  37
ATOM     37  C   UNL A   1      38.209  30.813  29.720  1.00  0.00     0.031 A 
ATOM     38  C   UNL A   1      38.399  31.114  31.177  1.00  0.00     0.074 A 
ATOM     39  C   UNL A   1      38.982  29.932  29.070  1.00  0.00     0.049 A 
ATOM     40  N   UNL A   1      39.274  30.632  32.016  1.00  0.00    -0.248 NA
ATOM     41  C   UNL A   1      37.471  32.097  31.769  1.00  0.00     0.031 C 
ATOM     42  C   UNL A   1      38.844  29.555  27.665  1.00  0.00     0.029 A 
ATOM     43  N   UNL A   1      40.041  29.193  29.519  1.00  0.00    -0.354 N 
ATOM     44  C   UNL A   1      39.002  31.253  33.229  1.00  0.00     0.074 A 
ATOM     45  C   UNL A   1      37.914  32.174  33.012  1.00  0.00     0.031 C 
ATOM     46  C   UNL A   1      39.791  28.648  27.365  1.00  0.00     0.029 A 
ATOM     47  C   UNL A   1      40.610  28.407  28.550  1.00  0.00     0.049 A 
ATOM     48  H   UNL A   1      40.363  29.221  30.450  1.00  0.00     0.167 HD
ATOM     49  C   UNL A   1      39.608  31.064  34.423  1.00  0.00     0.031 A 
ATOM     50  C   UNL A   1      41.682  27.596  28.623  1.00  0.00     0.031 A 
ATOM     51  C   UNL A   1      40.713  30.169  34.611  1.00  0.00     0.049 A 
ATOM     52  C   UNL A   1      42.387  27.454  29.946  1.00  0.00     0.074 A 
ATOM     53  C   UNL A   1      41.412  29.887  35.769  1.00  0.00     0.029 A 
ATOM     54  N   UNL A   1      41.290  29.419  33.596  1.00  0.00    -0.354 N 
ATOM     55  N   UNL A   1      42.104  28.016  31.098  1.00  0.00    -0.248 NA
ATOM     56  C   UNL A   1      43.550  26.558  29.981  1.00  0.00     0.031 C 
ATOM     57  C   UNL A   1      42.451  29.010  35.441  1.00  0.00     0.029 A 
ATOM     58  C   UNL A   1      42.358  28.695  34.093  1.00  0.00     0.049 A 
ATOM     59  H   UNL A   1      40.983  29.403  32.660  1.00  0.00     0.167 HD
ATOM     60  C   UNL A   1      43.037  27.525  32.001  1.00  0.00     0.074 A 
ATOM     61  C   UNL A   1      43.884  26.607  31.262  1.00  0.00     0.031 C 
ATOM     62  C   UNL A   1      43.184  27.800  33.322  1.00  0.00     0.031 A 
BRANCH  49  63
ATOM     63  C   UNL A   1      39.110  31.887  35.578  1.00  0.00    -0.014 A 
ATOM     64  C   UNL A   1      39.605  33.179  35.826  1.00  0.00     0.009 A 
ATOM     65  C   UNL A   1      38.156  31.349  36.454  1.00  0.00     0.009 A 
ATOM     66  C   UNL A   1      39.187  33.894  36.951  1.00  0.00     0.001 A 
ATOM     67  C   UNL A   1      37.716  32.078  37.559  1.00  0.00     0.001 A 
ATOM     68  C   UNL A   1      38.240  33.343  37.815  1.00  0.00     0.000 A 
ENDBRANCH  49  63
BRANCH  50  69
ATOM     69  C   UNL A   1      42.143  26.870  27.412  1.00  0.00    -0.014 A 
ATOM     70  C   UNL A   1      43.032  27.469  26.507  1.00  0.00     0.009 A 
ATOM     71  C   UNL A   1      41.710  25.556  27.167  1.00  0.00     0.009 A 
ATOM     72  C   UNL A   1      43.467  26.772  25.376  1.00  0.00     0.001 A 
ATOM     73  C   UNL A   1      42.168  24.854  26.050  1.00  0.00     0.001 A 
ATOM     74  C   UNL A   1      43.041  25.464  25.152  1.00  0.00     0.000 A 
ENDBRANCH  50  69
BRANCH  62  75
ATOM     75  C   UNL A   1      44.284  27.083  34.050  1.00  0.00    -0.014 A 
ATOM     76  C   UNL A   1      45.538  27.681  34.247  1.00  0.00     0.009 A 
ATOM     77  C   UNL A   1      44.040  25.811  34.592  1.00  0.00     0.009 A 
ATOM     78  C   UNL A   1      46.538  27.001  34.946  1.00  0.00     0.001 A 
ATOM     79  C   UNL A   1      45.031  25.149  35.316  1.00  0.00     0.001 A 
ATOM     80  C   UNL A   1      46.282  25.740  35.484  1.00  0.00     0.000 A 
ENDBRANCH  62  75
ENDBRANCH  36  37
ENDBRANCH  29  31
ENDBRANCH  28  29
ENDBRANCH  27  28
ENDBRANCH  26  27
ENDBRANCH  25  26
ENDBRANCH   1  25
TORSDOF 18
ENDMDL
