MODEL 1
REMARK VINA RESULT:     -10.5      0.000      0.000
REMARK SMILES O=C(CSc1ccc2ccccc2c1)OCCOCCOC(=O)c1ccc(-c2c3nc(c(-c4ccccc4)c4ccc([nH]4)c(-c4ccccc4)c4nc(c(-c5ccccc5)c5ccc2[nH]5)C=C4)C=C3)cc1
REMARK SMILES IDX 18 1 17 2 16 3 15 4 2 5 1 6 3 7 4 8 5 9 6 10 14 11 7 12
REMARK SMILES IDX 13 13 8 14 12 15 9 16 11 17 10 18 19 19 20 20 21 21 22 22
REMARK SMILES IDX 23 23 24 24 25 25 71 26 26 27 70 28 27 29 28 30 29 31 64 32
REMARK SMILES IDX 30 33 69 34 63 35 65 36 31 37 68 38 62 39 61 40 32 42 54 43
REMARK SMILES IDX 39 44 53 45 40 46 43 47 52 48 66 49 41 50 42 51 51 53 67 54
REMARK SMILES IDX 44 55 33 56 34 57 38 58 35 59 37 60 36 61 55 62 56 63 60 64
REMARK SMILES IDX 57 65 59 66 58 67 45 68 46 69 50 70 47 71 49 72 48 73
REMARK H PARENT 65 41 43 52
REMARK Flexibility Score: inf
ROOT
ATOM      1  O   UNL A   1      34.466  36.566  33.657  1.00  0.00    -0.374 OA
ENDROOT
BRANCH   1   2
ATOM      2  C   UNL A   1      33.710  36.970  32.519  1.00  0.00     0.202 C 
BRANCH   2   3
ATOM      3  C   UNL A   1      32.533  36.073  32.161  1.00  0.00     0.261 C 
BRANCH   3   4
ATOM      4  O   UNL A   1      32.738  35.330  30.949  1.00  0.00    -0.463 OA
BRANCH   4   5
ATOM      5  C   UNL A   1      32.911  35.865  29.718  1.00  0.00     0.316 C 
ATOM      6  O   UNL A   1      32.923  37.092  29.603  1.00  0.00    -0.251 OA
BRANCH   5   7
ATOM      7  C   UNL A   1      33.002  34.983  28.491  1.00  0.00     0.197 C 
BRANCH   7   8
ATOM      8  S   UNL A   1      34.439  33.876  28.438  1.00  0.00    -0.114 SA
BRANCH   8   9
ATOM      9  C   UNL A   1      33.643  32.448  27.757  1.00  0.00     0.008 A 
ATOM     10  C   UNL A   1      32.340  32.564  27.278  1.00  0.00     0.016 A 
ATOM     11  C   UNL A   1      34.322  31.231  27.671  1.00  0.00     0.023 A 
ATOM     12  C   UNL A   1      31.707  31.462  26.716  1.00  0.00     0.010 A 
ATOM     13  C   UNL A   1      33.694  30.109  27.108  1.00  0.00    -0.017 A 
ATOM     14  C   UNL A   1      32.367  30.230  26.633  1.00  0.00    -0.018 A 
ATOM     15  C   UNL A   1      34.350  28.872  27.009  1.00  0.00     0.009 A 
ATOM     16  C   UNL A   1      31.725  29.111  26.089  1.00  0.00     0.009 A 
ATOM     17  C   UNL A   1      33.694  27.764  26.468  1.00  0.00     0.001 A 
ATOM     18  C   UNL A   1      32.383  27.883  26.015  1.00  0.00     0.001 A 
ENDBRANCH   8   9
ENDBRANCH   7   8
ENDBRANCH   5   7
ENDBRANCH   4   5
ENDBRANCH   3   4
ENDBRANCH   2   3
ENDBRANCH   1   2
BRANCH   1  19
ATOM     19  C   UNL A   1      34.627  35.151  33.811  1.00  0.00     0.202 C 
BRANCH  19  20
ATOM     20  C   UNL A   1      35.855  34.561  33.107  1.00  0.00     0.261 C 
BRANCH  20  21
ATOM     21  O   UNL A   1      35.959  33.146  33.337  1.00  0.00    -0.460 OA
BRANCH  21  22
ATOM     22  C   UNL A   1      35.494  32.358  32.338  1.00  0.00     0.338 C 
ATOM     23  O   UNL A   1      34.361  32.322  31.887  1.00  0.00    -0.246 OA
BRANCH  22  24
ATOM     24  C   UNL A   1      36.644  31.693  31.694  1.00  0.00     0.060 A 
ATOM     25  C   UNL A   1      37.577  31.049  32.519  1.00  0.00     0.016 A 
ATOM     26  C   UNL A   1      36.791  31.671  30.306  1.00  0.00     0.016 A 
ATOM     27  C   UNL A   1      38.671  30.392  31.959  1.00  0.00     0.010 A 
ATOM     28  C   UNL A   1      37.896  31.029  29.747  1.00  0.00     0.010 A 
ATOM     29  C   UNL A   1      38.848  30.404  30.571  1.00  0.00    -0.014 A 
BRANCH  29  30
ATOM     30  C   UNL A   1      40.088  29.861  29.972  1.00  0.00     0.031 A 
ATOM     31  C   UNL A   1      41.266  30.776  29.795  1.00  0.00     0.074 A 
ATOM     32  C   UNL A   1      40.147  28.579  29.572  1.00  0.00     0.049 A 
ATOM     33  N   UNL A   1      42.407  30.547  29.200  1.00  0.00    -0.248 NA
ATOM     34  C   UNL A   1      41.138  32.130  30.359  1.00  0.00     0.031 C 
ATOM     35  C   UNL A   1      39.079  27.591  29.728  1.00  0.00     0.029 A 
ATOM     36  N   UNL A   1      41.148  27.894  28.929  1.00  0.00    -0.354 N 
ATOM     37  C   UNL A   1      43.125  31.732  29.300  1.00  0.00     0.074 A 
ATOM     38  C   UNL A   1      42.288  32.683  29.997  1.00  0.00     0.031 C 
ATOM     39  C   UNL A   1      39.474  26.431  29.175  1.00  0.00     0.029 A 
ATOM     40  C   UNL A   1      40.801  26.609  28.589  1.00  0.00     0.049 A 
ATOM     41  H   UNL A   1      42.029  28.286  28.732  1.00  0.00     0.167 HD
ATOM     42  C   UNL A   1      44.371  32.001  28.846  1.00  0.00     0.031 A 
ATOM     43  C   UNL A   1      41.463  25.696  27.853  1.00  0.00     0.031 A 
ATOM     44  C   UNL A   1      45.195  31.051  28.146  1.00  0.00     0.049 A 
ATOM     45  C   UNL A   1      42.816  26.054  27.290  1.00  0.00     0.074 A 
ATOM     46  C   UNL A   1      46.486  31.214  27.679  1.00  0.00     0.029 A 
ATOM     47  N   UNL A   1      44.800  29.769  27.801  1.00  0.00    -0.354 N 
ATOM     48  N   UNL A   1      43.507  27.159  27.436  1.00  0.00    -0.248 NA
ATOM     49  C   UNL A   1      43.478  25.036  26.460  1.00  0.00     0.031 C 
ATOM     50  C   UNL A   1      46.848  30.054  26.988  1.00  0.00     0.029 A 
ATOM     51  C   UNL A   1      45.807  29.145  27.087  1.00  0.00     0.049 A 
ATOM     52  H   UNL A   1      43.933  29.363  28.030  1.00  0.00     0.167 HD
ATOM     53  C   UNL A   1      44.692  26.960  26.736  1.00  0.00     0.074 A 
ATOM     54  C   UNL A   1      44.636  25.620  26.190  1.00  0.00     0.031 C 
ATOM     55  C   UNL A   1      45.730  27.810  26.553  1.00  0.00     0.031 A 
BRANCH  42  56
ATOM     56  C   UNL A   1      44.915  33.386  29.055  1.00  0.00    -0.014 A 
ATOM     57  C   UNL A   1      44.763  34.387  28.085  1.00  0.00     0.009 A 
ATOM     58  C   UNL A   1      45.522  33.710  30.279  1.00  0.00     0.009 A 
ATOM     59  C   UNL A   1      45.221  35.684  28.331  1.00  0.00     0.001 A 
ATOM     60  C   UNL A   1      45.955  35.013  30.532  1.00  0.00     0.001 A 
ATOM     61  C   UNL A   1      45.808  35.997  29.557  1.00  0.00     0.000 A 
ENDBRANCH  42  56
BRANCH  43  62
ATOM     62  C   UNL A   1      40.847  24.377  27.550  1.00  0.00    -0.014 A 
ATOM     63  C   UNL A   1      41.364  23.196  28.105  1.00  0.00     0.009 A 
ATOM     64  C   UNL A   1      39.767  24.286  26.657  1.00  0.00     0.009 A 
ATOM     65  C   UNL A   1      40.838  21.952  27.743  1.00  0.00     0.001 A 
ATOM     66  C   UNL A   1      39.220  23.045  26.324  1.00  0.00     0.001 A 
ATOM     67  C   UNL A   1      39.766  21.879  26.857  1.00  0.00     0.000 A 
ENDBRANCH  43  62
BRANCH  55  68
ATOM     68  C   UNL A   1      46.900  27.309  25.751  1.00  0.00    -0.014 A 
ATOM     69  C   UNL A   1      47.033  27.617  24.389  1.00  0.00     0.009 A 
ATOM     70  C   UNL A   1      47.904  26.557  26.381  1.00  0.00     0.009 A 
ATOM     71  C   UNL A   1      48.133  27.153  23.665  1.00  0.00     0.001 A 
ATOM     72  C   UNL A   1      49.020  26.125  25.664  1.00  0.00     0.001 A 
ATOM     73  C   UNL A   1      49.128  26.414  24.304  1.00  0.00     0.000 A 
ENDBRANCH  55  68
ENDBRANCH  29  30
ENDBRANCH  22  24
ENDBRANCH  21  22
ENDBRANCH  20  21
ENDBRANCH  19  20
ENDBRANCH   1  19
TORSDOF 16
ENDMDL
MODEL 2
REMARK VINA RESULT:     -10.2      1.081      6.234
REMARK SMILES O=C(CSc1ccc2ccccc2c1)OCCOCCOC(=O)c1ccc(-c2c3nc(c(-c4ccccc4)c4ccc([nH]4)c(-c4ccccc4)c4nc(c(-c5ccccc5)c5ccc2[nH]5)C=C4)C=C3)cc1
REMARK SMILES IDX 18 1 17 2 16 3 15 4 2 5 1 6 3 7 4 8 5 9 6 10 14 11 7 12
REMARK SMILES IDX 13 13 8 14 12 15 9 16 11 17 10 18 19 19 20 20 21 21 22 22
REMARK SMILES IDX 23 23 24 24 25 25 71 26 26 27 70 28 27 29 28 30 29 31 64 32
REMARK SMILES IDX 30 33 69 34 63 35 65 36 31 37 68 38 62 39 61 40 32 42 54 43
REMARK SMILES IDX 39 44 53 45 40 46 43 47 52 48 66 49 41 50 42 51 51 53 67 54
REMARK SMILES IDX 44 55 33 56 34 57 38 58 35 59 37 60 36 61 55 62 56 63 60 64
REMARK SMILES IDX 57 65 59 66 58 67 45 68 46 69 50 70 47 71 49 72 48 73
REMARK H PARENT 65 41 43 52
REMARK Flexibility Score: inf
ROOT
ATOM      1  O   UNL A   1      33.077  34.282  32.930  1.00  0.00    -0.374 OA
ENDROOT
BRANCH   1   2
ATOM      2  C   UNL A   1      33.614  35.585  32.726  1.00  0.00     0.202 C 
BRANCH   2   3
ATOM      3  C   UNL A   1      32.872  36.451  31.717  1.00  0.00     0.261 C 
BRANCH   3   4
ATOM      4  O   UNL A   1      33.499  36.477  30.426  1.00  0.00    -0.463 OA
BRANCH   4   5
ATOM      5  C   UNL A   1      32.996  35.927  29.295  1.00  0.00     0.316 C 
ATOM      6  O   UNL A   1      32.213  36.590  28.613  1.00  0.00    -0.251 OA
BRANCH   5   7
ATOM      7  C   UNL A   1      33.314  34.496  28.918  1.00  0.00     0.197 C 
BRANCH   7   8
ATOM      8  S   UNL A   1      35.082  34.090  28.843  1.00  0.00    -0.114 SA
BRANCH   8   9
ATOM      9  C   UNL A   1      34.942  32.430  28.241  1.00  0.00     0.008 A 
ATOM     10  C   UNL A   1      36.091  31.649  28.138  1.00  0.00     0.016 A 
ATOM     11  C   UNL A   1      33.694  31.900  27.904  1.00  0.00     0.023 A 
ATOM     12  C   UNL A   1      36.000  30.336  27.693  1.00  0.00     0.010 A 
ATOM     13  C   UNL A   1      33.588  30.577  27.451  1.00  0.00    -0.017 A 
ATOM     14  C   UNL A   1      34.759  29.791  27.338  1.00  0.00    -0.018 A 
ATOM     15  C   UNL A   1      32.349  30.015  27.104  1.00  0.00     0.009 A 
ATOM     16  C   UNL A   1      34.665  28.476  26.867  1.00  0.00     0.009 A 
ATOM     17  C   UNL A   1      32.273  28.704  26.631  1.00  0.00     0.001 A 
ATOM     18  C   UNL A   1      33.429  27.939  26.507  1.00  0.00     0.001 A 
ENDBRANCH   8   9
ENDBRANCH   7   8
ENDBRANCH   5   7
ENDBRANCH   4   5
ENDBRANCH   3   4
ENDBRANCH   2   3
ENDBRANCH   1   2
BRANCH   1  19
ATOM     19  C   UNL A   1      33.997  33.203  32.720  1.00  0.00     0.202 C 
BRANCH  19  20
ATOM     20  C   UNL A   1      35.220  33.210  33.643  1.00  0.00     0.261 C 
BRANCH  20  21
ATOM     21  O   UNL A   1      35.910  31.949  33.604  1.00  0.00    -0.460 OA
BRANCH  21  22
ATOM     22  C   UNL A   1      37.177  31.965  34.082  1.00  0.00     0.338 C 
ATOM     23  O   UNL A   1      37.535  32.140  35.236  1.00  0.00    -0.246 OA
BRANCH  22  24
ATOM     24  C   UNL A   1      38.084  31.494  33.016  1.00  0.00     0.060 A 
ATOM     25  C   UNL A   1      39.144  30.652  33.380  1.00  0.00     0.016 A 
ATOM     26  C   UNL A   1      37.882  31.843  31.680  1.00  0.00     0.016 A 
ATOM     27  C   UNL A   1      40.018  30.167  32.409  1.00  0.00     0.010 A 
ATOM     28  C   UNL A   1      38.768  31.372  30.710  1.00  0.00     0.010 A 
ATOM     29  C   UNL A   1      39.848  30.549  31.073  1.00  0.00    -0.014 A 
BRANCH  29  30
ATOM     30  C   UNL A   1      40.860  30.183  30.057  1.00  0.00     0.031 A 
ATOM     31  C   UNL A   1      40.730  28.864  29.350  1.00  0.00     0.074 A 
ATOM     32  C   UNL A   1      41.890  31.006  29.793  1.00  0.00     0.049 A 
ATOM     33  N   UNL A   1      41.553  28.293  28.510  1.00  0.00    -0.248 NA
ATOM     34  C   UNL A   1      39.515  28.082  29.633  1.00  0.00     0.031 C 
ATOM     35  C   UNL A   1      42.096  32.325  30.391  1.00  0.00     0.029 A 
ATOM     36  N   UNL A   1      42.971  30.839  28.963  1.00  0.00    -0.354 N 
ATOM     37  C   UNL A   1      40.965  27.079  28.178  1.00  0.00     0.074 A 
ATOM     38  C   UNL A   1      39.726  26.986  28.918  1.00  0.00     0.031 C 
ATOM     39  C   UNL A   1      43.247  32.840  29.925  1.00  0.00     0.029 A 
ATOM     40  C   UNL A   1      43.878  31.869  29.033  1.00  0.00     0.049 A 
ATOM     41  H   UNL A   1      43.084  30.057  28.376  1.00  0.00     0.167 HD
ATOM     42  C   UNL A   1      41.424  26.126  27.333  1.00  0.00     0.031 A 
ATOM     43  C   UNL A   1      45.096  31.992  28.472  1.00  0.00     0.031 A 
ATOM     44  C   UNL A   1      42.661  26.224  26.606  1.00  0.00     0.049 A 
ATOM     45  C   UNL A   1      45.615  30.877  27.601  1.00  0.00     0.074 A 
ATOM     46  C   UNL A   1      43.196  25.329  25.696  1.00  0.00     0.029 A 
ATOM     47  N   UNL A   1      43.562  27.269  26.720  1.00  0.00    -0.354 N 
ATOM     48  N   UNL A   1      45.029  29.757  27.252  1.00  0.00    -0.248 NA
ATOM     49  C   UNL A   1      46.967  31.044  27.046  1.00  0.00     0.031 C 
ATOM     50  C   UNL A   1      44.454  25.801  25.312  1.00  0.00     0.029 A 
ATOM     51  C   UNL A   1      44.671  27.022  25.930  1.00  0.00     0.049 A 
ATOM     52  H   UNL A   1      43.432  28.070  27.278  1.00  0.00     0.167 HD
ATOM     53  C   UNL A   1      45.929  29.099  26.422  1.00  0.00     0.074 A 
ATOM     54  C   UNL A   1      47.089  29.957  26.297  1.00  0.00     0.031 C 
ATOM     55  C   UNL A   1      45.813  27.890  25.822  1.00  0.00     0.031 A 
BRANCH  42  56
ATOM     56  C   UNL A   1      40.607  24.876  27.170  1.00  0.00    -0.014 A 
ATOM     57  C   UNL A   1      39.413  24.871  26.433  1.00  0.00     0.009 A 
ATOM     58  C   UNL A   1      41.083  23.667  27.701  1.00  0.00     0.009 A 
ATOM     59  C   UNL A   1      38.706  23.682  26.242  1.00  0.00     0.001 A 
ATOM     60  C   UNL A   1      40.389  22.475  27.486  1.00  0.00     0.001 A 
ATOM     61  C   UNL A   1      39.199  22.484  26.761  1.00  0.00     0.000 A 
ENDBRANCH  42  56
BRANCH  43  62
ATOM     62  C   UNL A   1      45.941  33.183  28.753  1.00  0.00    -0.014 A 
ATOM     63  C   UNL A   1      46.871  33.175  29.804  1.00  0.00     0.009 A 
ATOM     64  C   UNL A   1      45.783  34.359  28.001  1.00  0.00     0.009 A 
ATOM     65  C   UNL A   1      47.595  34.328  30.121  1.00  0.00     0.001 A 
ATOM     66  C   UNL A   1      46.534  35.500  28.297  1.00  0.00     0.001 A 
ATOM     67  C   UNL A   1      47.428  35.487  29.365  1.00  0.00     0.000 A 
ENDBRANCH  43  62
BRANCH  55  68
ATOM     68  C   UNL A   1      46.958  27.436  24.958  1.00  0.00    -0.014 A 
ATOM     69  C   UNL A   1      47.887  26.491  25.418  1.00  0.00     0.009 A 
ATOM     70  C   UNL A   1      47.079  27.928  23.648  1.00  0.00     0.009 A 
ATOM     71  C   UNL A   1      48.935  26.074  24.596  1.00  0.00     0.001 A 
ATOM     72  C   UNL A   1      48.106  27.482  22.817  1.00  0.00     0.001 A 
ATOM     73  C   UNL A   1      49.039  26.563  23.294  1.00  0.00     0.000 A 
ENDBRANCH  55  68
ENDBRANCH  29  30
ENDBRANCH  22  24
ENDBRANCH  21  22
ENDBRANCH  20  21
ENDBRANCH  19  20
ENDBRANCH   1  19
TORSDOF 16
ENDMDL
MODEL 3
REMARK VINA RESULT:     -10.1      5.546     11.415
REMARK SMILES O=C(CSc1ccc2ccccc2c1)OCCOCCOC(=O)c1ccc(-c2c3nc(c(-c4ccccc4)c4ccc([nH]4)c(-c4ccccc4)c4nc(c(-c5ccccc5)c5ccc2[nH]5)C=C4)C=C3)cc1
REMARK SMILES IDX 18 1 17 2 16 3 15 4 2 5 1 6 3 7 4 8 5 9 6 10 14 11 7 12
REMARK SMILES IDX 13 13 8 14 12 15 9 16 11 17 10 18 19 19 20 20 21 21 22 22
REMARK SMILES IDX 23 23 24 24 25 25 71 26 26 27 70 28 27 29 28 30 29 31 64 32
REMARK SMILES IDX 30 33 69 34 63 35 65 36 31 37 68 38 62 39 61 40 32 42 54 43
REMARK SMILES IDX 39 44 53 45 40 46 43 47 52 48 66 49 41 50 42 51 51 53 67 54
REMARK SMILES IDX 44 55 33 56 34 57 38 58 35 59 37 60 36 61 55 62 56 63 60 64
REMARK SMILES IDX 57 65 59 66 58 67 45 68 46 69 50 70 47 71 49 72 48 73
REMARK H PARENT 65 41 43 52
REMARK Flexibility Score: inf
ROOT
ATOM      1  O   UNL A   1      42.510  19.162  25.325  1.00  0.00    -0.374 OA
ENDROOT
BRANCH   1   2
ATOM      2  C   UNL A   1      43.909  18.987  25.527  1.00  0.00     0.202 C 
BRANCH   2   3
ATOM      3  C   UNL A   1      44.759  18.983  24.264  1.00  0.00     0.261 C 
BRANCH   3   4
ATOM      4  O   UNL A   1      44.856  20.275  23.645  1.00  0.00    -0.463 OA
BRANCH   4   5
ATOM      5  C   UNL A   1      45.330  21.397  24.235  1.00  0.00     0.316 C 
ATOM      6  O   UNL A   1      46.279  21.299  25.015  1.00  0.00    -0.251 OA
BRANCH   5   7
ATOM      7  C   UNL A   1      44.659  22.736  24.014  1.00  0.00     0.197 C 
BRANCH   7   8
ATOM      8  S   UNL A   1      43.133  23.002  24.960  1.00  0.00    -0.114 SA
BRANCH   8   9
ATOM      9  C   UNL A   1      43.475  24.637  25.551  1.00  0.00     0.008 A 
ATOM     10  C   UNL A   1      44.674  24.878  26.217  1.00  0.00     0.016 A 
ATOM     11  C   UNL A   1      42.570  25.677  25.324  1.00  0.00     0.023 A 
ATOM     12  C   UNL A   1      44.973  26.159  26.665  1.00  0.00     0.010 A 
ATOM     13  C   UNL A   1      42.858  26.974  25.774  1.00  0.00    -0.017 A 
ATOM     14  C   UNL A   1      44.073  27.211  26.458  1.00  0.00    -0.018 A 
ATOM     15  C   UNL A   1      41.969  28.040  25.563  1.00  0.00     0.009 A 
ATOM     16  C   UNL A   1      44.359  28.499  26.929  1.00  0.00     0.009 A 
ATOM     17  C   UNL A   1      42.267  29.317  26.042  1.00  0.00     0.001 A 
ATOM     18  C   UNL A   1      43.457  29.543  26.728  1.00  0.00     0.001 A 
ENDBRANCH   8   9
ENDBRANCH   7   8
ENDBRANCH   5   7
ENDBRANCH   4   5
ENDBRANCH   3   4
ENDBRANCH   2   3
ENDBRANCH   1   2
BRANCH   1  19
ATOM     19  C   UNL A   1      41.765  19.526  26.495  1.00  0.00     0.202 C 
BRANCH  19  20
ATOM     20  C   UNL A   1      40.425  20.216  26.217  1.00  0.00     0.261 C 
BRANCH  20  21
ATOM     21  O   UNL A   1      40.269  21.397  27.022  1.00  0.00    -0.460 OA
BRANCH  21  22
ATOM     22  C   UNL A   1      39.391  22.312  26.547  1.00  0.00     0.338 C 
ATOM     23  O   UNL A   1      38.363  22.104  25.924  1.00  0.00    -0.246 OA
BRANCH  22  24
ATOM     24  C   UNL A   1      39.743  23.632  27.110  1.00  0.00     0.060 A 
ATOM     25  C   UNL A   1      40.808  23.695  28.019  1.00  0.00     0.016 A 
ATOM     26  C   UNL A   1      39.065  24.792  26.729  1.00  0.00     0.016 A 
ATOM     27  C   UNL A   1      41.190  24.919  28.565  1.00  0.00     0.010 A 
ATOM     28  C   UNL A   1      39.437  26.014  27.290  1.00  0.00     0.010 A 
ATOM     29  C   UNL A   1      40.487  26.079  28.222  1.00  0.00    -0.014 A 
BRANCH  29  30
ATOM     30  C   UNL A   1      40.767  27.355  28.918  1.00  0.00     0.031 A 
ATOM     31  C   UNL A   1      42.043  27.485  29.701  1.00  0.00     0.074 A 
ATOM     32  C   UNL A   1      39.884  28.367  28.869  1.00  0.00     0.049 A 
ATOM     33  N   UNL A   1      42.442  28.462  30.472  1.00  0.00    -0.248 NA
ATOM     34  C   UNL A   1      42.990  26.361  29.608  1.00  0.00     0.031 C 
ATOM     35  C   UNL A   1      38.633  28.366  28.111  1.00  0.00     0.029 A 
ATOM     36  N   UNL A   1      39.899  29.590  29.493  1.00  0.00    -0.354 N 
ATOM     37  C   UNL A   1      43.677  28.065  30.970  1.00  0.00     0.074 A 
ATOM     38  C   UNL A   1      43.955  26.753  30.429  1.00  0.00     0.031 C 
ATOM     39  C   UNL A   1      37.989  29.525  28.332  1.00  0.00     0.029 A 
ATOM     40  C   UNL A   1      38.760  30.327  29.279  1.00  0.00     0.049 A 
ATOM     41  H   UNL A   1      40.653  29.907  30.040  1.00  0.00     0.167 HD
ATOM     42  C   UNL A   1      44.501  28.736  31.807  1.00  0.00     0.031 A 
ATOM     43  C   UNL A   1      38.368  31.496  29.820  1.00  0.00     0.031 A 
ATOM     44  C   UNL A   1      44.214  30.039  32.346  1.00  0.00     0.049 A 
ATOM     45  C   UNL A   1      39.271  32.181  30.814  1.00  0.00     0.074 A 
ATOM     46  C   UNL A   1      45.002  30.820  33.173  1.00  0.00     0.029 A 
ATOM     47  N   UNL A   1      43.041  30.742  32.125  1.00  0.00    -0.354 N 
ATOM     48  N   UNL A   1      40.459  31.822  31.237  1.00  0.00    -0.248 NA
ATOM     49  C   UNL A   1      38.777  33.435  31.404  1.00  0.00     0.031 C 
ATOM     50  C   UNL A   1      44.275  31.966  33.509  1.00  0.00     0.029 A 
ATOM     51  C   UNL A   1      43.065  31.929  32.836  1.00  0.00     0.049 A 
ATOM     52  H   UNL A   1      42.302  30.442  31.548  1.00  0.00     0.167 HD
ATOM     53  C   UNL A   1      40.862  32.814  32.124  1.00  0.00     0.074 A 
ATOM     54  C   UNL A   1      39.804  33.802  32.156  1.00  0.00     0.031 C 
ATOM     55  C   UNL A   1      42.001  32.898  32.853  1.00  0.00     0.031 A 
BRANCH  42  56
ATOM     56  C   UNL A   1      45.780  28.067  32.226  1.00  0.00    -0.014 A 
ATOM     57  C   UNL A   1      46.979  28.277  31.530  1.00  0.00     0.009 A 
ATOM     58  C   UNL A   1      45.794  27.273  33.384  1.00  0.00     0.009 A 
ATOM     59  C   UNL A   1      48.166  27.693  31.978  1.00  0.00     0.001 A 
ATOM     60  C   UNL A   1      46.988  26.713  33.845  1.00  0.00     0.001 A 
ATOM     61  C   UNL A   1      48.171  26.920  33.139  1.00  0.00     0.000 A 
ENDBRANCH  42  56
BRANCH  43  62
ATOM     62  C   UNL A   1      37.038  32.076  29.488  1.00  0.00    -0.014 A 
ATOM     63  C   UNL A   1      36.886  32.958  28.408  1.00  0.00     0.009 A 
ATOM     64  C   UNL A   1      35.919  31.789  30.287  1.00  0.00     0.009 A 
ATOM     65  C   UNL A   1      35.654  33.570  28.159  1.00  0.00     0.001 A 
ATOM     66  C   UNL A   1      34.681  32.374  30.015  1.00  0.00     0.001 A 
ATOM     67  C   UNL A   1      34.553  33.275  28.960  1.00  0.00     0.000 A 
ENDBRANCH  43  62
BRANCH  55  68
ATOM     68  C   UNL A   1      42.172  34.110  33.728  1.00  0.00    -0.014 A 
ATOM     69  C   UNL A   1      42.739  35.293  33.229  1.00  0.00     0.009 A 
ATOM     70  C   UNL A   1      41.716  34.080  35.055  1.00  0.00     0.009 A 
ATOM     71  C   UNL A   1      42.877  36.411  34.054  1.00  0.00     0.001 A 
ATOM     72  C   UNL A   1      41.823  35.210  35.866  1.00  0.00     0.001 A 
ATOM     73  C   UNL A   1      42.412  36.371  35.368  1.00  0.00     0.000 A 
ENDBRANCH  55  68
ENDBRANCH  29  30
ENDBRANCH  22  24
ENDBRANCH  21  22
ENDBRANCH  20  21
ENDBRANCH  19  20
ENDBRANCH   1  19
TORSDOF 16
ENDMDL
