MODEL 1
REMARK VINA RESULT:     -10.6      0.000      0.000
REMARK SMILES O=C(OCCOCCOC(=O)c1cccc(Nc2ccc([N+](=O)[O-])cc2)c1)c1ccc(-c2c3nc(c(-c4ccccc4)c4ccc([nH]4)c(-c4ccccc4)c4nc(c(-c5ccccc5)c5ccc2[nH]5)C=C4)C=C3)cc1
REMARK SMILES IDX 7 1 6 2 5 3 4 4 3 5 2 6 1 7 28 8 29 9 75 10 30 11 74 12
REMARK SMILES IDX 31 13 32 14 33 15 68 16 34 17 73 18 67 19 69 20 35 21 72 22
REMARK SMILES IDX 66 23 65 24 36 26 58 27 43 28 57 29 44 30 47 31 56 32 70 33
REMARK SMILES IDX 45 34 46 35 55 37 71 38 48 39 37 40 38 41 42 42 39 43 41 44
REMARK SMILES IDX 40 45 59 46 60 47 64 48 61 49 63 50 62 51 49 52 50 53 54 54
REMARK SMILES IDX 51 55 53 56 52 57 8 58 9 59 10 60 11 61 12 62 13 63 27 64
REMARK SMILES IDX 14 65 16 66 15 67 17 68 18 70 19 71 26 72 20 73 25 74 21 75
REMARK SMILES IDX 22 76 23 77 24 78
REMARK H PARENT 69 25 47 36 17 69
REMARK Flexibility Score: inf
ROOT
ATOM      1  C   UNL A   1      37.873  23.450  25.837  1.00  0.00     0.202 C 
ENDROOT
BRANCH   1   2
ATOM      2  O   UNL A   1      37.911  22.293  24.992  1.00  0.00    -0.374 OA
BRANCH   2   3
ATOM      3  C   UNL A   1      37.895  21.030  25.657  1.00  0.00     0.202 C 
BRANCH   3   4
ATOM      4  C   UNL A   1      38.583  19.906  24.879  1.00  0.00     0.261 C 
BRANCH   4   5
ATOM      5  O   UNL A   1      39.544  19.237  25.712  1.00  0.00    -0.460 OA
BRANCH   5   6
ATOM      6  C   UNL A   1      40.812  19.611  25.999  1.00  0.00     0.338 C 
ATOM      7  O   UNL A   1      41.723  18.815  25.781  1.00  0.00    -0.246 OA
BRANCH   6   8
ATOM      8  C   UNL A   1      41.179  20.945  26.566  1.00  0.00     0.060 A 
ATOM      9  C   UNL A   1      41.140  21.277  27.922  1.00  0.00     0.016 A 
ATOM     10  C   UNL A   1      41.696  21.898  25.672  1.00  0.00     0.016 A 
ATOM     11  C   UNL A   1      41.542  22.521  28.379  1.00  0.00     0.010 A 
ATOM     12  C   UNL A   1      42.144  23.142  26.126  1.00  0.00     0.010 A 
ATOM     13  C   UNL A   1      42.053  23.456  27.486  1.00  0.00    -0.014 A 
BRANCH  13  14
ATOM     14  C   UNL A   1      42.394  24.784  28.017  1.00  0.00     0.031 A 
ATOM     15  C   UNL A   1      43.838  25.125  28.204  1.00  0.00     0.074 A 
ATOM     16  C   UNL A   1      41.422  25.701  28.170  1.00  0.00     0.049 A 
ATOM     17  N   UNL A   1      44.374  26.228  28.648  1.00  0.00    -0.248 NA
ATOM     18  C   UNL A   1      44.812  24.088  27.818  1.00  0.00     0.031 C 
ATOM     19  C   UNL A   1      40.003  25.483  27.874  1.00  0.00     0.029 A 
ATOM     20  N   UNL A   1      41.482  27.007  28.569  1.00  0.00    -0.354 N 
ATOM     21  C   UNL A   1      45.745  26.009  28.621  1.00  0.00     0.074 A 
ATOM     22  C   UNL A   1      45.961  24.672  28.119  1.00  0.00     0.031 C 
ATOM     23  C   UNL A   1      39.332  26.629  28.072  1.00  0.00     0.029 A 
ATOM     24  C   UNL A   1      40.260  27.634  28.574  1.00  0.00     0.049 A 
ATOM     25  H   UNL A   1      42.320  27.455  28.827  1.00  0.00     0.167 HD
ATOM     26  C   UNL A   1      46.730  26.855  28.999  1.00  0.00     0.031 A 
ATOM     27  C   UNL A   1      39.933  28.877  28.976  1.00  0.00     0.031 A 
ATOM     28  C   UNL A   1      46.480  28.173  29.514  1.00  0.00     0.049 A 
ATOM     29  C   UNL A   1      41.037  29.757  29.491  1.00  0.00     0.074 A 
ATOM     30  C   UNL A   1      47.380  29.099  30.006  1.00  0.00     0.029 A 
ATOM     31  N   UNL A   1      45.218  28.748  29.599  1.00  0.00    -0.354 N 
ATOM     32  N   UNL A   1      42.327  29.520  29.539  1.00  0.00    -0.248 NA
ATOM     33  C   UNL A   1      40.643  31.068  30.021  1.00  0.00     0.031 C 
ATOM     34  C   UNL A   1      46.655  30.216  30.435  1.00  0.00     0.029 A 
ATOM     35  C   UNL A   1      45.312  30.010  30.155  1.00  0.00     0.049 A 
ATOM     36  H   UNL A   1      44.381  28.321  29.307  1.00  0.00     0.167 HD
ATOM     37  C   UNL A   1      42.903  30.653  30.094  1.00  0.00     0.074 A 
ATOM     38  C   UNL A   1      41.820  31.588  30.341  1.00  0.00     0.031 C 
ATOM     39  C   UNL A   1      44.203  30.904  30.382  1.00  0.00     0.031 A 
BRANCH  26  40
ATOM     40  C   UNL A   1      48.134  26.325  28.951  1.00  0.00    -0.014 A 
ATOM     41  C   UNL A   1      48.712  25.663  30.046  1.00  0.00     0.009 A 
ATOM     42  C   UNL A   1      48.909  26.537  27.800  1.00  0.00     0.009 A 
ATOM     43  C   UNL A   1      50.050  25.263  30.003  1.00  0.00     0.001 A 
ATOM     44  C   UNL A   1      50.237  26.114  27.750  1.00  0.00     0.001 A 
ATOM     45  C   UNL A   1      50.811  25.488  28.856  1.00  0.00     0.000 A 
ENDBRANCH  26  40
BRANCH  27  46
ATOM     46  C   UNL A   1      38.514  29.324  28.970  1.00  0.00    -0.014 A 
ATOM     47  C   UNL A   1      37.943  29.914  27.833  1.00  0.00     0.009 A 
ATOM     48  C   UNL A   1      37.720  29.169  30.119  1.00  0.00     0.009 A 
ATOM     49  C   UNL A   1      36.617  30.359  27.855  1.00  0.00     0.001 A 
ATOM     50  C   UNL A   1      36.386  29.585  30.128  1.00  0.00     0.001 A 
ATOM     51  C   UNL A   1      35.839  30.190  29.000  1.00  0.00     0.000 A 
ENDBRANCH  27  46
BRANCH  39  52
ATOM     52  C   UNL A   1      44.517  32.250  30.966  1.00  0.00    -0.014 A 
ATOM     53  C   UNL A   1      44.764  33.358  30.142  1.00  0.00     0.009 A 
ATOM     54  C   UNL A   1      44.518  32.415  32.359  1.00  0.00     0.009 A 
ATOM     55  C   UNL A   1      45.036  34.604  30.708  1.00  0.00     0.001 A 
ATOM     56  C   UNL A   1      44.761  33.667  32.920  1.00  0.00     0.001 A 
ATOM     57  C   UNL A   1      45.028  34.758  32.094  1.00  0.00     0.000 A 
ENDBRANCH  39  52
ENDBRANCH  13  14
ENDBRANCH   6   8
ENDBRANCH   5   6
ENDBRANCH   4   5
ENDBRANCH   3   4
ENDBRANCH   2   3
ENDBRANCH   1   2
BRANCH   1  58
ATOM     58  C   UNL A   1      36.423  23.931  25.963  1.00  0.00     0.261 C 
BRANCH  58  59
ATOM     59  O   UNL A   1      35.782  23.758  24.691  1.00  0.00    -0.460 OA
BRANCH  59  60
ATOM     60  C   UNL A   1      34.614  24.437  24.550  1.00  0.00     0.338 C 
ATOM     61  O   UNL A   1      34.451  25.547  24.072  1.00  0.00    -0.246 OA
BRANCH  60  62
ATOM     62  C   UNL A   1      33.517  23.498  24.866  1.00  0.00     0.062 A 
ATOM     63  C   UNL A   1      32.620  23.829  25.885  1.00  0.00     0.016 A 
ATOM     64  C   UNL A   1      33.330  22.338  24.107  1.00  0.00     0.041 A 
ATOM     65  C   UNL A   1      31.514  23.019  26.115  1.00  0.00     0.003 A 
ATOM     66  C   UNL A   1      32.257  21.483  24.372  1.00  0.00     0.039 A 
ATOM     67  C   UNL A   1      31.337  21.854  25.362  1.00  0.00     0.026 A 
BRANCH  66  68
ATOM     68  N   UNL A   1      32.153  20.291  23.628  1.00  0.00    -0.355 N 
ATOM     69  H   UNL A   1      31.743  20.362  22.735  1.00  0.00     0.167 HD
BRANCH  68  70
ATOM     70  C   UNL A   1      32.572  19.014  24.028  1.00  0.00     0.039 A 
ATOM     71  C   UNL A   1      33.042  18.118  23.059  1.00  0.00     0.033 A 
ATOM     72  C   UNL A   1      32.603  18.650  25.378  1.00  0.00     0.033 A 
ATOM     73  C   UNL A   1      33.544  16.871  23.429  1.00  0.00     0.088 A 
ATOM     74  C   UNL A   1      33.095  17.400  25.762  1.00  0.00     0.088 A 
ATOM     75  C   UNL A   1      33.571  16.517  24.783  1.00  0.00     0.269 A 
BRANCH  75  76
ATOM     76  N   UNL A   1      34.117  15.215  25.179  1.00  0.00     0.062 N 
ATOM     77  O   UNL A   1      35.348  15.110  25.272  1.00  0.00    -0.258 OA
ATOM     78  O   UNL A   1      33.315  14.297  25.400  1.00  0.00    -0.258 OA
ENDBRANCH  75  76
ENDBRANCH  68  70
ENDBRANCH  66  68
ENDBRANCH  60  62
ENDBRANCH  59  60
ENDBRANCH  58  59
ENDBRANCH   1  58
TORSDOF 17
ENDMDL
MODEL 2
REMARK VINA RESULT:     -10.5      4.965     10.156
REMARK SMILES O=C(OCCOCCOC(=O)c1cccc(Nc2ccc([N+](=O)[O-])cc2)c1)c1ccc(-c2c3nc(c(-c4ccccc4)c4ccc([nH]4)c(-c4ccccc4)c4nc(c(-c5ccccc5)c5ccc2[nH]5)C=C4)C=C3)cc1
REMARK SMILES IDX 7 1 6 2 5 3 4 4 3 5 2 6 1 7 28 8 29 9 75 10 30 11 74 12
REMARK SMILES IDX 31 13 32 14 33 15 68 16 34 17 73 18 67 19 69 20 35 21 72 22
REMARK SMILES IDX 66 23 65 24 36 26 58 27 43 28 57 29 44 30 47 31 56 32 70 33
REMARK SMILES IDX 45 34 46 35 55 37 71 38 48 39 37 40 38 41 42 42 39 43 41 44
REMARK SMILES IDX 40 45 59 46 60 47 64 48 61 49 63 50 62 51 49 52 50 53 54 54
REMARK SMILES IDX 51 55 53 56 52 57 8 58 9 59 10 60 11 61 12 62 13 63 27 64
REMARK SMILES IDX 14 65 16 66 15 67 17 68 18 70 19 71 26 72 20 73 25 74 21 75
REMARK SMILES IDX 22 76 23 77 24 78
REMARK H PARENT 69 25 47 36 17 69
REMARK Flexibility Score: inf
ROOT
ATOM      1  C   UNL A   1      32.706  28.902  27.463  1.00  0.00     0.202 C 
ENDROOT
BRANCH   1   2
ATOM      2  O   UNL A   1      32.042  29.915  26.698  1.00  0.00    -0.374 OA
BRANCH   2   3
ATOM      3  C   UNL A   1      32.585  31.231  26.797  1.00  0.00     0.202 C 
BRANCH   3   4
ATOM      4  C   UNL A   1      31.572  32.296  27.224  1.00  0.00     0.261 C 
BRANCH   4   5
ATOM      5  O   UNL A   1      32.183  33.597  27.222  1.00  0.00    -0.460 OA
BRANCH   5   6
ATOM      6  C   UNL A   1      32.962  34.161  28.172  1.00  0.00     0.338 C 
ATOM      7  O   UNL A   1      32.592  35.215  28.686  1.00  0.00    -0.246 OA
BRANCH   6   8
ATOM      8  C   UNL A   1      34.254  33.577  28.646  1.00  0.00     0.060 A 
ATOM      9  C   UNL A   1      35.501  33.820  28.067  1.00  0.00     0.016 A 
ATOM     10  C   UNL A   1      34.214  32.808  29.821  1.00  0.00     0.016 A 
ATOM     11  C   UNL A   1      36.664  33.280  28.592  1.00  0.00     0.010 A 
ATOM     12  C   UNL A   1      35.386  32.292  30.384  1.00  0.00     0.010 A 
ATOM     13  C   UNL A   1      36.613  32.522  29.756  1.00  0.00    -0.014 A 
BRANCH  13  14
ATOM     14  C   UNL A   1      37.869  31.915  30.223  1.00  0.00     0.031 A 
ATOM     15  C   UNL A   1      38.553  32.519  31.407  1.00  0.00     0.074 A 
ATOM     16  C   UNL A   1      38.279  30.754  29.682  1.00  0.00     0.049 A 
ATOM     17  N   UNL A   1      39.657  32.154  31.998  1.00  0.00    -0.248 NA
ATOM     18  C   UNL A   1      37.890  33.683  32.023  1.00  0.00     0.031 C 
ATOM     19  C   UNL A   1      37.585  30.029  28.613  1.00  0.00     0.029 A 
ATOM     20  N   UNL A   1      39.351  29.960  29.981  1.00  0.00    -0.354 N 
ATOM     21  C   UNL A   1      39.837  33.058  33.036  1.00  0.00     0.074 A 
ATOM     22  C   UNL A   1      38.732  33.988  32.998  1.00  0.00     0.031 C 
ATOM     23  C   UNL A   1      38.234  28.879  28.370  1.00  0.00     0.029 A 
ATOM     24  C   UNL A   1      39.422  28.824  29.213  1.00  0.00     0.049 A 
ATOM     25  H   UNL A   1      40.008  30.180  30.681  1.00  0.00     0.167 HD
ATOM     26  C   UNL A   1      40.849  33.106  33.931  1.00  0.00     0.031 A 
ATOM     27  C   UNL A   1      40.367  27.866  29.178  1.00  0.00     0.031 A 
ATOM     28  C   UNL A   1      41.945  32.177  33.929  1.00  0.00     0.049 A 
ATOM     29  C   UNL A   1      41.536  28.004  30.113  1.00  0.00     0.074 A 
ATOM     30  C   UNL A   1      43.073  32.161  34.727  1.00  0.00     0.029 A 
ATOM     31  N   UNL A   1      42.040  31.088  33.071  1.00  0.00    -0.354 N 
ATOM     32  N   UNL A   1      41.745  28.906  31.044  1.00  0.00    -0.248 NA
ATOM     33  C   UNL A   1      42.605  27.008  29.985  1.00  0.00     0.031 C 
ATOM     34  C   UNL A   1      43.874  31.090  34.317  1.00  0.00     0.029 A 
ATOM     35  C   UNL A   1      43.217  30.404  33.306  1.00  0.00     0.049 A 
ATOM     36  H   UNL A   1      41.368  30.840  32.396  1.00  0.00     0.167 HD
ATOM     37  C   UNL A   1      42.964  28.582  31.622  1.00  0.00     0.074 A 
ATOM     38  C   UNL A   1      43.433  27.383  30.952  1.00  0.00     0.031 C 
ATOM     39  C   UNL A   1      43.642  29.214  32.610  1.00  0.00     0.031 A 
BRANCH  26  40
ATOM     40  C   UNL A   1      40.844  34.253  34.900  1.00  0.00    -0.014 A 
ATOM     41  C   UNL A   1      40.229  34.154  36.159  1.00  0.00     0.009 A 
ATOM     42  C   UNL A   1      41.426  35.473  34.524  1.00  0.00     0.009 A 
ATOM     43  C   UNL A   1      40.161  35.267  37.001  1.00  0.00     0.001 A 
ATOM     44  C   UNL A   1      41.379  36.576  35.377  1.00  0.00     0.001 A 
ATOM     45  C   UNL A   1      40.736  36.476  36.610  1.00  0.00     0.000 A 
ENDBRANCH  26  40
BRANCH  27  46
ATOM     46  C   UNL A   1      40.280  26.753  28.195  1.00  0.00    -0.014 A 
ATOM     47  C   UNL A   1      40.869  26.857  26.926  1.00  0.00     0.009 A 
ATOM     48  C   UNL A   1      39.591  25.572  28.522  1.00  0.00     0.009 A 
ATOM     49  C   UNL A   1      40.750  25.814  26.001  1.00  0.00     0.001 A 
ATOM     50  C   UNL A   1      39.501  24.519  27.609  1.00  0.00     0.001 A 
ATOM     51  C   UNL A   1      40.071  24.645  26.345  1.00  0.00     0.000 A 
ENDBRANCH  27  46
BRANCH  39  52
ATOM     52  C   UNL A   1      44.941  28.598  33.036  1.00  0.00    -0.014 A 
ATOM     53  C   UNL A   1      44.971  27.486  33.891  1.00  0.00     0.009 A 
ATOM     54  C   UNL A   1      46.146  29.113  32.536  1.00  0.00     0.009 A 
ATOM     55  C   UNL A   1      46.192  26.919  34.259  1.00  0.00     0.001 A 
ATOM     56  C   UNL A   1      47.362  28.526  32.883  1.00  0.00     0.001 A 
ATOM     57  C   UNL A   1      47.384  27.435  33.751  1.00  0.00     0.000 A 
ENDBRANCH  39  52
ENDBRANCH  13  14
ENDBRANCH   6   8
ENDBRANCH   5   6
ENDBRANCH   4   5
ENDBRANCH   3   4
ENDBRANCH   2   3
ENDBRANCH   1   2
BRANCH   1  58
ATOM     58  C   UNL A   1      33.951  28.434  26.702  1.00  0.00     0.261 C 
BRANCH  58  59
ATOM     59  O   UNL A   1      33.574  28.176  25.342  1.00  0.00    -0.460 OA
BRANCH  59  60
ATOM     60  C   UNL A   1      33.452  26.860  25.029  1.00  0.00     0.338 C 
ATOM     61  O   UNL A   1      34.332  26.017  24.998  1.00  0.00    -0.246 OA
BRANCH  60  62
ATOM     62  C   UNL A   1      32.007  26.558  24.952  1.00  0.00     0.062 A 
ATOM     63  C   UNL A   1      31.453  25.678  25.886  1.00  0.00     0.016 A 
ATOM     64  C   UNL A   1      31.192  27.200  24.015  1.00  0.00     0.041 A 
ATOM     65  C   UNL A   1      30.077  25.475  25.906  1.00  0.00     0.003 A 
ATOM     66  C   UNL A   1      29.816  26.955  23.984  1.00  0.00     0.039 A 
ATOM     67  C   UNL A   1      29.267  26.111  24.959  1.00  0.00     0.026 A 
BRANCH  66  68
ATOM     68  N   UNL A   1      29.050  27.572  22.976  1.00  0.00    -0.355 N 
ATOM     69  H   UNL A   1      28.611  26.976  22.327  1.00  0.00     0.167 HD
BRANCH  68  70
ATOM     70  C   UNL A   1      28.849  28.949  22.801  1.00  0.00     0.039 A 
ATOM     71  C   UNL A   1      29.556  29.616  21.792  1.00  0.00     0.033 A 
ATOM     72  C   UNL A   1      27.903  29.647  23.559  1.00  0.00     0.033 A 
ATOM     73  C   UNL A   1      29.322  30.967  21.535  1.00  0.00     0.088 A 
ATOM     74  C   UNL A   1      27.665  31.003  23.317  1.00  0.00     0.088 A 
ATOM     75  C   UNL A   1      28.372  31.656  22.299  1.00  0.00     0.269 A 
BRANCH  75  76
ATOM     76  N   UNL A   1      28.107  33.071  22.019  1.00  0.00     0.062 N 
ATOM     77  O   UNL A   1      28.399  33.896  22.896  1.00  0.00    -0.258 OA
ATOM     78  O   UNL A   1      27.609  33.358  20.922  1.00  0.00    -0.258 OA
ENDBRANCH  75  76
ENDBRANCH  68  70
ENDBRANCH  66  68
ENDBRANCH  60  62
ENDBRANCH  59  60
ENDBRANCH  58  59
ENDBRANCH   1  58
TORSDOF 17
ENDMDL
MODEL 3
REMARK VINA RESULT:     -10.4      3.789      6.038
REMARK SMILES O=C(OCCOCCOC(=O)c1cccc(Nc2ccc([N+](=O)[O-])cc2)c1)c1ccc(-c2c3nc(c(-c4ccccc4)c4ccc([nH]4)c(-c4ccccc4)c4nc(c(-c5ccccc5)c5ccc2[nH]5)C=C4)C=C3)cc1
REMARK SMILES IDX 7 1 6 2 5 3 4 4 3 5 2 6 1 7 28 8 29 9 75 10 30 11 74 12
REMARK SMILES IDX 31 13 32 14 33 15 68 16 34 17 73 18 67 19 69 20 35 21 72 22
REMARK SMILES IDX 66 23 65 24 36 26 58 27 43 28 57 29 44 30 47 31 56 32 70 33
REMARK SMILES IDX 45 34 46 35 55 37 71 38 48 39 37 40 38 41 42 42 39 43 41 44
REMARK SMILES IDX 40 45 59 46 60 47 64 48 61 49 63 50 62 51 49 52 50 53 54 54
REMARK SMILES IDX 51 55 53 56 52 57 8 58 9 59 10 60 11 61 12 62 13 63 27 64
REMARK SMILES IDX 14 65 16 66 15 67 17 68 18 70 19 71 26 72 20 73 25 74 21 75
REMARK SMILES IDX 22 76 23 77 24 78
REMARK H PARENT 69 25 47 36 17 69
REMARK Flexibility Score: inf
ROOT
ATOM      1  C   UNL A   1      43.417  19.360  25.688  1.00  0.00     0.202 C 
ENDROOT
BRANCH   1   2
ATOM      2  O   UNL A   1      43.765  20.383  24.747  1.00  0.00    -0.374 OA
BRANCH   2   3
ATOM      3  C   UNL A   1      45.161  20.623  24.569  1.00  0.00     0.202 C 
BRANCH   3   4
ATOM      4  C   UNL A   1      45.683  21.852  25.317  1.00  0.00     0.261 C 
BRANCH   4   5
ATOM      5  O   UNL A   1      44.649  22.843  25.433  1.00  0.00    -0.460 OA
BRANCH   5   6
ATOM      6  C   UNL A   1      44.776  24.189  25.476  1.00  0.00     0.338 C 
ATOM      7  O   UNL A   1      45.427  24.747  24.595  1.00  0.00    -0.246 OA
BRANCH   6   8
ATOM      8  C   UNL A   1      44.164  25.049  26.534  1.00  0.00     0.060 A 
ATOM      9  C   UNL A   1      44.153  26.446  26.523  1.00  0.00     0.016 A 
ATOM     10  C   UNL A   1      43.462  24.396  27.561  1.00  0.00     0.016 A 
ATOM     11  C   UNL A   1      43.522  27.177  27.517  1.00  0.00     0.010 A 
ATOM     12  C   UNL A   1      42.786  25.122  28.546  1.00  0.00     0.010 A 
ATOM     13  C   UNL A   1      42.830  26.520  28.527  1.00  0.00    -0.014 A 
BRANCH  13  14
ATOM     14  C   UNL A   1      42.243  27.345  29.593  1.00  0.00     0.031 A 
ATOM     15  C   UNL A   1      43.028  27.546  30.850  1.00  0.00     0.074 A 
ATOM     16  C   UNL A   1      41.104  28.019  29.352  1.00  0.00     0.049 A 
ATOM     17  N   UNL A   1      42.719  28.234  31.915  1.00  0.00    -0.248 NA
ATOM     18  C   UNL A   1      44.351  26.899  30.907  1.00  0.00     0.031 C 
ATOM     19  C   UNL A   1      40.353  27.982  28.094  1.00  0.00     0.029 A 
ATOM     20  N   UNL A   1      40.404  28.896  30.132  1.00  0.00    -0.354 N 
ATOM     21  C   UNL A   1      43.795  28.081  32.778  1.00  0.00     0.074 A 
ATOM     22  C   UNL A   1      44.765  27.238  32.118  1.00  0.00     0.031 C 
ATOM     23  C   UNL A   1      39.312  28.826  28.179  1.00  0.00     0.029 A 
ATOM     24  C   UNL A   1      39.287  29.404  29.517  1.00  0.00     0.049 A 
ATOM     25  H   UNL A   1      40.674  29.140  31.047  1.00  0.00     0.167 HD
ATOM     26  C   UNL A   1      43.945  28.594  34.020  1.00  0.00     0.031 A 
ATOM     27  C   UNL A   1      38.334  30.222  30.002  1.00  0.00     0.031 A 
ATOM     28  C   UNL A   1      42.952  29.414  34.657  1.00  0.00     0.049 A 
ATOM     29  C   UNL A   1      38.474  30.691  31.423  1.00  0.00     0.074 A 
ATOM     30  C   UNL A   1      42.943  29.931  35.938  1.00  0.00     0.029 A 
ATOM     31  N   UNL A   1      41.780  29.835  34.041  1.00  0.00    -0.354 N 
ATOM     32  N   UNL A   1      39.456  30.481  32.268  1.00  0.00    -0.248 NA
ATOM     33  C   UNL A   1      37.372  31.495  31.965  1.00  0.00     0.031 C 
ATOM     34  C   UNL A   1      41.740  30.625  36.113  1.00  0.00     0.029 A 
ATOM     35  C   UNL A   1      41.029  30.590  34.922  1.00  0.00     0.049 A 
ATOM     36  H   UNL A   1      41.522  29.627  33.114  1.00  0.00     0.167 HD
ATOM     37  C   UNL A   1      39.099  31.134  33.439  1.00  0.00     0.074 A 
ATOM     38  C   UNL A   1      37.820  31.770  33.183  1.00  0.00     0.031 C 
ATOM     39  C   UNL A   1      39.758  31.201  34.621  1.00  0.00     0.031 A 
BRANCH  26  40
ATOM     40  C   UNL A   1      45.179  28.193  34.776  1.00  0.00    -0.014 A 
ATOM     41  C   UNL A   1      45.196  27.071  35.621  1.00  0.00     0.009 A 
ATOM     42  C   UNL A   1      46.334  28.984  34.675  1.00  0.00     0.009 A 
ATOM     43  C   UNL A   1      46.332  26.777  36.380  1.00  0.00     0.001 A 
ATOM     44  C   UNL A   1      47.475  28.673  35.415  1.00  0.00     0.001 A 
ATOM     45  C   UNL A   1      47.470  27.578  36.277  1.00  0.00     0.000 A 
ENDBRANCH  26  40
BRANCH  27  46
ATOM     46  C   UNL A   1      37.153  30.584  29.172  1.00  0.00    -0.014 A 
ATOM     47  C   UNL A   1      36.974  31.890  28.693  1.00  0.00     0.009 A 
ATOM     48  C   UNL A   1      36.184  29.615  28.862  1.00  0.00     0.009 A 
ATOM     49  C   UNL A   1      35.841  32.221  27.942  1.00  0.00     0.001 A 
ATOM     50  C   UNL A   1      35.070  29.940  28.084  1.00  0.00     0.001 A 
ATOM     51  C   UNL A   1      34.894  31.245  27.635  1.00  0.00     0.000 A 
ENDBRANCH  27  46
BRANCH  39  52
ATOM     52  C   UNL A   1      39.115  32.013  35.706  1.00  0.00    -0.014 A 
ATOM     53  C   UNL A   1      39.338  33.395  35.807  1.00  0.00     0.009 A 
ATOM     54  C   UNL A   1      38.238  31.391  36.606  1.00  0.00     0.009 A 
ATOM     55  C   UNL A   1      38.713  34.133  36.814  1.00  0.00     0.001 A 
ATOM     56  C   UNL A   1      37.594  32.136  37.593  1.00  0.00     0.001 A 
ATOM     57  C   UNL A   1      37.839  33.505  37.700  1.00  0.00     0.000 A 
ENDBRANCH  39  52
ENDBRANCH  13  14
ENDBRANCH   6   8
ENDBRANCH   5   6
ENDBRANCH   4   5
ENDBRANCH   3   4
ENDBRANCH   2   3
ENDBRANCH   1   2
BRANCH   1  58
ATOM     58  C   UNL A   1      41.912  19.425  25.967  1.00  0.00     0.261 C 
BRANCH  58  59
ATOM     59  O   UNL A   1      41.485  20.785  25.803  1.00  0.00    -0.460 OA
BRANCH  59  60
ATOM     60  C   UNL A   1      41.155  21.418  26.959  1.00  0.00     0.338 C 
ATOM     61  O   UNL A   1      41.804  21.473  27.990  1.00  0.00    -0.246 OA
BRANCH  60  62
ATOM     62  C   UNL A   1      39.957  22.240  26.685  1.00  0.00     0.062 A 
ATOM     63  C   UNL A   1      39.982  23.597  27.016  1.00  0.00     0.016 A 
ATOM     64  C   UNL A   1      38.849  21.691  26.033  1.00  0.00     0.041 A 
ATOM     65  C   UNL A   1      38.914  24.411  26.656  1.00  0.00     0.003 A 
ATOM     66  C   UNL A   1      37.742  22.486  25.723  1.00  0.00     0.039 A 
ATOM     67  C   UNL A   1      37.802  23.856  26.014  1.00  0.00     0.026 A 
BRANCH  66  68
ATOM     68  N   UNL A   1      36.621  21.870  25.131  1.00  0.00    -0.355 N 
ATOM     69  H   UNL A   1      36.803  21.200  24.434  1.00  0.00     0.167 HD
BRANCH  68  70
ATOM     70  C   UNL A   1      35.274  22.116  25.433  1.00  0.00     0.039 A 
ATOM     71  C   UNL A   1      34.780  21.743  26.690  1.00  0.00     0.033 A 
ATOM     72  C   UNL A   1      34.440  22.793  24.537  1.00  0.00     0.033 A 
ATOM     73  C   UNL A   1      33.469  22.045  27.056  1.00  0.00     0.088 A 
ATOM     74  C   UNL A   1      33.122  23.094  24.888  1.00  0.00     0.088 A 
ATOM     75  C   UNL A   1      32.644  22.724  26.152  1.00  0.00     0.269 A 
BRANCH  75  76
ATOM     76  N   UNL A   1      31.270  23.062  26.540  1.00  0.00     0.062 N 
ATOM     77  O   UNL A   1      31.102  24.063  27.251  1.00  0.00    -0.258 OA
ATOM     78  O   UNL A   1      30.359  22.328  26.132  1.00  0.00    -0.258 OA
ENDBRANCH  75  76
ENDBRANCH  68  70
ENDBRANCH  66  68
ENDBRANCH  60  62
ENDBRANCH  59  60
ENDBRANCH  58  59
ENDBRANCH   1  58
TORSDOF 17
ENDMDL
