MODEL 1
REMARK VINA RESULT:      -9.5      0.000      0.000
REMARK SMILES CCC[C@H](c1ccccc1)[C@@](C)(O)C(=O)OCCOCCOC(=O)c1ccc(-c2c3nc(c(-c4ccccc4)c4ccc([nH]4)c(-c4ccccc4)c4nc(c(-c5ccccc5)c5ccc2[nH]5)C=C4)C=C3)cc1
REMARK SMILES IDX 18 1 17 2 16 3 14 4 15 5 11 6 12 7 4 8 3 9 2 10 1 11 5 12
REMARK SMILES IDX 6 13 10 14 7 15 9 16 8 17 13 18 19 20 20 21 21 22 22 23
REMARK SMILES IDX 23 24 24 25 25 26 26 27 72 28 27 29 71 30 28 31 29 32 30 33
REMARK SMILES IDX 65 34 31 35 70 36 64 37 66 38 32 39 69 40 63 41 62 42 33 44
REMARK SMILES IDX 55 45 40 46 54 47 41 48 44 49 53 50 67 51 42 52 43 53 52 55
REMARK SMILES IDX 68 56 45 57 34 58 35 59 39 60 36 61 38 62 37 63 56 64 57 65
REMARK SMILES IDX 61 66 58 67 60 68 59 69 46 70 47 71 51 72 48 73 50 74 49 75
REMARK H PARENT 13 19 66 43 44 54
REMARK Flexibility Score: inf
ROOT
ATOM      1  C   UNL A   1      34.357  22.256  26.001  1.00  0.00     0.202 C 
ENDROOT
BRANCH   1   2
ATOM      2  C   UNL A   1      34.256  23.764  25.737  1.00  0.00     0.261 C 
BRANCH   2   3
ATOM      3  O   UNL A   1      33.158  24.398  26.406  1.00  0.00    -0.461 OA
BRANCH   3   4
ATOM      4  C   UNL A   1      33.007  25.693  26.004  1.00  0.00     0.338 C 
ATOM      5  O   UNL A   1      33.967  26.410  25.758  1.00  0.00    -0.249 OA
BRANCH   4   6
ATOM      6  C   UNL A   1      31.530  26.117  25.865  1.00  0.00     0.165 C 
ATOM      7  C   UNL A   1      31.329  27.520  26.451  1.00  0.00     0.055 C 
BRANCH   6   8
ATOM      8  C   UNL A   1      31.038  26.004  24.369  1.00  0.00     0.062 C 
BRANCH   8   9
ATOM      9  C   UNL A   1      29.477  26.236  24.258  1.00  0.00     0.012 C 
BRANCH   9  10
ATOM     10  C   UNL A   1      28.861  27.447  23.531  1.00  0.00    -0.003 C 
ATOM     11  C   UNL A   1      29.772  28.319  22.684  1.00  0.00     0.004 C 
ENDBRANCH   9  10
ENDBRANCH   8   9
BRANCH   8  12
ATOM     12  C   UNL A   1      31.548  24.883  23.462  1.00  0.00    -0.041 A 
ATOM     13  C   UNL A   1      31.076  23.579  23.686  1.00  0.00     0.004 A 
ATOM     14  C   UNL A   1      32.561  25.040  22.504  1.00  0.00     0.004 A 
ATOM     15  C   UNL A   1      31.717  22.473  23.121  1.00  0.00     0.000 A 
ATOM     16  C   UNL A   1      33.224  23.938  21.962  1.00  0.00     0.000 A 
ATOM     17  C   UNL A   1      32.822  22.653  22.295  1.00  0.00     0.000 A 
ENDBRANCH   8  12
ENDBRANCH   6   8
BRANCH   6  18
ATOM     18  O   UNL A   1      30.707  25.246  26.681  1.00  0.00    -0.378 OA
ATOM     19  H   UNL A   1      31.098  24.359  26.704  1.00  0.00     0.212 HD
ENDBRANCH   6  18
ENDBRANCH   4   6
ENDBRANCH   3   4
ENDBRANCH   2   3
ENDBRANCH   1   2
BRANCH   1  20
ATOM     20  O   UNL A   1      34.632  21.349  24.937  1.00  0.00    -0.374 OA
BRANCH  20  21
ATOM     21  C   UNL A   1      35.760  20.483  25.074  1.00  0.00     0.202 C 
BRANCH  21  22
ATOM     22  C   UNL A   1      37.142  21.007  24.685  1.00  0.00     0.261 C 
BRANCH  22  23
ATOM     23  O   UNL A   1      37.678  21.869  25.690  1.00  0.00    -0.460 OA
BRANCH  23  24
ATOM     24  C   UNL A   1      38.934  21.549  26.090  1.00  0.00     0.338 C 
ATOM     25  O   UNL A   1      39.574  20.558  25.823  1.00  0.00    -0.246 OA
BRANCH  24  26
ATOM     26  C   UNL A   1      39.507  22.751  26.726  1.00  0.00     0.060 A 
ATOM     27  C   UNL A   1      38.901  23.987  26.450  1.00  0.00     0.016 A 
ATOM     28  C   UNL A   1      40.586  22.656  27.603  1.00  0.00     0.016 A 
ATOM     29  C   UNL A   1      39.411  25.149  27.012  1.00  0.00     0.010 A 
ATOM     30  C   UNL A   1      41.113  23.820  28.147  1.00  0.00     0.010 A 
ATOM     31  C   UNL A   1      40.553  25.067  27.814  1.00  0.00    -0.014 A 
BRANCH  31  32
ATOM     32  C   UNL A   1      41.337  26.279  28.101  1.00  0.00     0.031 A 
ATOM     33  C   UNL A   1      40.678  27.339  28.934  1.00  0.00     0.074 A 
ATOM     34  C   UNL A   1      42.568  26.444  27.594  1.00  0.00     0.049 A 
ATOM     35  N   UNL A   1      41.065  28.561  29.178  1.00  0.00    -0.248 NA
ATOM     36  C   UNL A   1      39.393  26.973  29.558  1.00  0.00     0.031 C 
ATOM     37  C   UNL A   1      43.309  25.449  26.821  1.00  0.00     0.029 A 
ATOM     38  N   UNL A   1      43.396  27.533  27.634  1.00  0.00    -0.354 N 
ATOM     39  C   UNL A   1      40.059  29.117  29.959  1.00  0.00     0.074 A 
ATOM     40  C   UNL A   1      39.036  28.112  30.129  1.00  0.00     0.031 C 
ATOM     41  C   UNL A   1      44.480  25.987  26.435  1.00  0.00     0.029 A 
ATOM     42  C   UNL A   1      44.540  27.373  26.893  1.00  0.00     0.049 A 
ATOM     43  H   UNL A   1      43.192  28.350  28.145  1.00  0.00     0.167 HD
ATOM     44  C   UNL A   1      39.999  30.362  30.482  1.00  0.00     0.031 A 
ATOM     45  C   UNL A   1      45.500  28.267  26.592  1.00  0.00     0.031 A 
ATOM     46  C   UNL A   1      41.020  31.351  30.285  1.00  0.00     0.049 A 
ATOM     47  C   UNL A   1      45.373  29.672  27.120  1.00  0.00     0.074 A 
ATOM     48  C   UNL A   1      41.077  32.641  30.776  1.00  0.00     0.029 A 
ATOM     49  N   UNL A   1      42.163  31.154  29.523  1.00  0.00    -0.354 N 
ATOM     50  N   UNL A   1      44.430  30.192  27.872  1.00  0.00    -0.248 NA
ATOM     51  C   UNL A   1      46.441  30.615  26.759  1.00  0.00     0.031 C 
ATOM     52  C   UNL A   1      42.228  33.245  30.262  1.00  0.00     0.029 A 
ATOM     53  C   UNL A   1      42.922  32.309  29.510  1.00  0.00     0.049 A 
ATOM     54  H   UNL A   1      42.398  30.317  29.062  1.00  0.00     0.167 HD
ATOM     55  C   UNL A   1      44.811  31.506  28.106  1.00  0.00     0.074 A 
ATOM     56  C   UNL A   1      46.071  31.704  27.418  1.00  0.00     0.031 C 
ATOM     57  C   UNL A   1      44.180  32.466  28.827  1.00  0.00     0.031 A 
BRANCH  44  58
ATOM     58  C   UNL A   1      38.772  30.724  31.270  1.00  0.00    -0.014 A 
ATOM     59  C   UNL A   1      37.564  31.057  30.636  1.00  0.00     0.009 A 
ATOM     60  C   UNL A   1      38.822  30.716  32.672  1.00  0.00     0.009 A 
ATOM     61  C   UNL A   1      36.443  31.410  31.391  1.00  0.00     0.001 A 
ATOM     62  C   UNL A   1      37.692  31.038  33.424  1.00  0.00     0.001 A 
ATOM     63  C   UNL A   1      36.506  31.394  32.784  1.00  0.00     0.000 A 
ENDBRANCH  44  58
BRANCH  45  64
ATOM     64  C   UNL A   1      46.646  27.870  25.733  1.00  0.00    -0.014 A 
ATOM     65  C   UNL A   1      47.847  27.429  26.307  1.00  0.00     0.009 A 
ATOM     66  C   UNL A   1      46.547  27.934  24.334  1.00  0.00     0.009 A 
ATOM     67  C   UNL A   1      48.934  27.085  25.499  1.00  0.00     0.001 A 
ATOM     68  C   UNL A   1      47.625  27.561  23.528  1.00  0.00     0.001 A 
ATOM     69  C   UNL A   1      48.820  27.145  24.111  1.00  0.00     0.000 A 
ENDBRANCH  45  64
BRANCH  57  70
ATOM     70  C   UNL A   1      44.868  33.795  28.964  1.00  0.00    -0.014 A 
ATOM     71  C   UNL A   1      45.796  34.039  29.986  1.00  0.00     0.009 A 
ATOM     72  C   UNL A   1      44.640  34.786  27.995  1.00  0.00     0.009 A 
ATOM     73  C   UNL A   1      46.468  35.261  30.047  1.00  0.00     0.001 A 
ATOM     74  C   UNL A   1      45.336  35.993  28.041  1.00  0.00     0.001 A 
ATOM     75  C   UNL A   1      46.244  36.232  29.070  1.00  0.00     0.000 A 
ENDBRANCH  57  70
ENDBRANCH  31  32
ENDBRANCH  24  26
ENDBRANCH  23  24
ENDBRANCH  22  23
ENDBRANCH  21  22
ENDBRANCH  20  21
ENDBRANCH   1  20
TORSDOF 19
ENDMDL
MODEL 2
REMARK VINA RESULT:      -9.3      2.373      7.337
REMARK SMILES CCC[C@H](c1ccccc1)[C@@](C)(O)C(=O)OCCOCCOC(=O)c1ccc(-c2c3nc(c(-c4ccccc4)c4ccc([nH]4)c(-c4ccccc4)c4nc(c(-c5ccccc5)c5ccc2[nH]5)C=C4)C=C3)cc1
REMARK SMILES IDX 18 1 17 2 16 3 14 4 15 5 11 6 12 7 4 8 3 9 2 10 1 11 5 12
REMARK SMILES IDX 6 13 10 14 7 15 9 16 8 17 13 18 19 20 20 21 21 22 22 23
REMARK SMILES IDX 23 24 24 25 25 26 26 27 72 28 27 29 71 30 28 31 29 32 30 33
REMARK SMILES IDX 65 34 31 35 70 36 64 37 66 38 32 39 69 40 63 41 62 42 33 44
REMARK SMILES IDX 55 45 40 46 54 47 41 48 44 49 53 50 67 51 42 52 43 53 52 55
REMARK SMILES IDX 68 56 45 57 34 58 35 59 39 60 36 61 38 62 37 63 56 64 57 65
REMARK SMILES IDX 61 66 58 67 60 68 59 69 46 70 47 71 51 72 48 73 50 74 49 75
REMARK H PARENT 13 19 66 43 44 54
REMARK Flexibility Score: inf
ROOT
ATOM      1  C   UNL A   1      34.748  32.662  27.639  1.00  0.00     0.202 C 
ENDROOT
BRANCH   1   2
ATOM      2  C   UNL A   1      33.789  31.534  28.039  1.00  0.00     0.261 C 
BRANCH   2   3
ATOM      3  O   UNL A   1      33.255  30.804  26.928  1.00  0.00    -0.461 OA
BRANCH   3   4
ATOM      4  C   UNL A   1      33.861  29.589  26.790  1.00  0.00     0.338 C 
ATOM      5  O   UNL A   1      35.059  29.438  26.980  1.00  0.00    -0.249 OA
BRANCH   4   6
ATOM      6  C   UNL A   1      32.877  28.460  26.414  1.00  0.00     0.165 C 
ATOM      7  C   UNL A   1      31.682  28.465  27.375  1.00  0.00     0.055 C 
BRANCH   6   8
ATOM      8  C   UNL A   1      32.443  28.556  24.899  1.00  0.00     0.062 C 
BRANCH   8   9
ATOM      9  C   UNL A   1      31.100  29.374  24.737  1.00  0.00     0.012 C 
BRANCH   9  10
ATOM     10  C   UNL A   1      30.114  29.140  23.576  1.00  0.00    -0.003 C 
ATOM     11  C   UNL A   1      30.547  29.529  22.172  1.00  0.00     0.004 C 
ENDBRANCH   9  10
ENDBRANCH   8   9
BRANCH   8  12
ATOM     12  C   UNL A   1      32.520  27.331  23.986  1.00  0.00    -0.041 A 
ATOM     13  C   UNL A   1      33.452  27.342  22.935  1.00  0.00     0.004 A 
ATOM     14  C   UNL A   1      31.631  26.247  24.040  1.00  0.00     0.004 A 
ATOM     15  C   UNL A   1      33.370  26.420  21.889  1.00  0.00     0.000 A 
ATOM     16  C   UNL A   1      31.525  25.343  22.982  1.00  0.00     0.000 A 
ATOM     17  C   UNL A   1      32.376  25.448  21.891  1.00  0.00     0.000 A 
ENDBRANCH   8  12
ENDBRANCH   6   8
BRANCH   6  18
ATOM     18  O   UNL A   1      33.523  27.179  26.622  1.00  0.00    -0.378 OA
ATOM     19  H   UNL A   1      33.644  26.736  25.768  1.00  0.00     0.212 HD
ENDBRANCH   6  18
ENDBRANCH   4   6
ENDBRANCH   3   4
ENDBRANCH   2   3
ENDBRANCH   1   2
BRANCH   1  20
ATOM     20  O   UNL A   1      34.909  33.810  28.469  1.00  0.00    -0.374 OA
BRANCH  20  21
ATOM     21  C   UNL A   1      33.911  34.059  29.461  1.00  0.00     0.202 C 
BRANCH  21  22
ATOM     22  C   UNL A   1      34.299  33.962  30.935  1.00  0.00     0.261 C 
BRANCH  22  23
ATOM     23  O   UNL A   1      34.478  32.604  31.342  1.00  0.00    -0.460 OA
BRANCH  23  24
ATOM     24  C   UNL A   1      35.420  32.428  32.302  1.00  0.00     0.338 C 
ATOM     25  O   UNL A   1      35.348  32.696  33.480  1.00  0.00    -0.246 OA
BRANCH  24  26
ATOM     26  C   UNL A   1      36.496  31.609  31.710  1.00  0.00     0.060 A 
ATOM     27  C   UNL A   1      37.418  31.014  32.584  1.00  0.00     0.016 A 
ATOM     28  C   UNL A   1      36.567  31.401  30.333  1.00  0.00     0.016 A 
ATOM     29  C   UNL A   1      38.457  30.245  32.077  1.00  0.00     0.010 A 
ATOM     30  C   UNL A   1      37.620  30.654  29.822  1.00  0.00     0.010 A 
ATOM     31  C   UNL A   1      38.587  30.116  30.691  1.00  0.00    -0.014 A 
BRANCH  31  32
ATOM     32  C   UNL A   1      39.860  29.655  30.112  1.00  0.00     0.031 A 
ATOM     33  C   UNL A   1      40.948  30.675  29.951  1.00  0.00     0.074 A 
ATOM     34  C   UNL A   1      40.014  28.387  29.702  1.00  0.00     0.049 A 
ATOM     35  N   UNL A   1      42.081  30.583  29.312  1.00  0.00    -0.248 NA
ATOM     36  C   UNL A   1      40.711  31.987  30.581  1.00  0.00     0.031 C 
ATOM     37  C   UNL A   1      39.035  27.315  29.867  1.00  0.00     0.029 A 
ATOM     38  N   UNL A   1      41.054  27.801  29.031  1.00  0.00    -0.354 N 
ATOM     39  C   UNL A   1      42.679  31.832  29.439  1.00  0.00     0.074 A 
ATOM     40  C   UNL A   1      41.776  32.670  30.194  1.00  0.00     0.031 C 
ATOM     41  C   UNL A   1      39.513  26.200  29.285  1.00  0.00     0.029 A 
ATOM     42  C   UNL A   1      40.804  26.501  28.670  1.00  0.00     0.049 A 
ATOM     43  H   UNL A   1      41.898  28.266  28.829  1.00  0.00     0.167 HD
ATOM     44  C   UNL A   1      43.875  32.239  28.961  1.00  0.00     0.031 A 
ATOM     45  C   UNL A   1      41.525  25.672  27.893  1.00  0.00     0.031 A 
ATOM     46  C   UNL A   1      44.749  31.394  28.198  1.00  0.00     0.049 A 
ATOM     47  C   UNL A   1      42.818  26.173  27.304  1.00  0.00     0.074 A 
ATOM     48  C   UNL A   1      45.991  31.689  27.672  1.00  0.00     0.029 A 
ATOM     49  N   UNL A   1      44.459  30.084  27.846  1.00  0.00    -0.354 N 
ATOM     50  N   UNL A   1      43.389  27.347  27.439  1.00  0.00    -0.248 NA
ATOM     51  C   UNL A   1      43.567  25.234  26.457  1.00  0.00     0.031 C 
ATOM     52  C   UNL A   1      46.428  30.574  26.951  1.00  0.00     0.029 A 
ATOM     53  C   UNL A   1      45.489  29.562  27.088  1.00  0.00     0.049 A 
ATOM     54  H   UNL A   1      43.641  29.598  28.100  1.00  0.00     0.167 HD
ATOM     55  C   UNL A   1      44.580  27.276  26.728  1.00  0.00     0.074 A 
ATOM     56  C   UNL A   1      44.650  25.942  26.167  1.00  0.00     0.031 C 
ATOM     57  C   UNL A   1      45.534  28.224  26.557  1.00  0.00     0.031 A 
BRANCH  44  58
ATOM     58  C   UNL A   1      44.274  33.666  29.214  1.00  0.00    -0.014 A 
ATOM     59  C   UNL A   1      43.918  34.695  28.328  1.00  0.00     0.009 A 
ATOM     60  C   UNL A   1      45.006  33.986  30.367  1.00  0.00     0.009 A 
ATOM     61  C   UNL A   1      44.318  36.010  28.575  1.00  0.00     0.001 A 
ATOM     62  C   UNL A   1      45.378  35.305  30.627  1.00  0.00     0.001 A 
ATOM     63  C   UNL A   1      45.042  36.315  29.727  1.00  0.00     0.000 A 
ENDBRANCH  44  58
BRANCH  45  64
ATOM     64  C   UNL A   1      41.032  24.300  27.609  1.00  0.00    -0.014 A 
ATOM     65  C   UNL A   1      41.615  23.189  28.234  1.00  0.00     0.009 A 
ATOM     66  C   UNL A   1      39.977  24.091  26.705  1.00  0.00     0.009 A 
ATOM     67  C   UNL A   1      41.171  21.897  27.943  1.00  0.00     0.001 A 
ATOM     68  C   UNL A   1      39.515  22.801  26.438  1.00  0.00     0.001 A 
ATOM     69  C   UNL A   1      40.118  21.704  27.050  1.00  0.00     0.000 A 
ENDBRANCH  45  64
BRANCH  57  70
ATOM     70  C   UNL A   1      46.763  27.839  25.784  1.00  0.00    -0.014 A 
ATOM     71  C   UNL A   1      47.915  27.364  26.426  1.00  0.00     0.009 A 
ATOM     72  C   UNL A   1      46.727  27.873  24.380  1.00  0.00     0.009 A 
ATOM     73  C   UNL A   1      49.017  26.951  25.676  1.00  0.00     0.001 A 
ATOM     74  C   UNL A   1      47.818  27.431  23.634  1.00  0.00     0.001 A 
ATOM     75  C   UNL A   1      48.964  26.976  24.282  1.00  0.00     0.000 A 
ENDBRANCH  57  70
ENDBRANCH  31  32
ENDBRANCH  24  26
ENDBRANCH  23  24
ENDBRANCH  22  23
ENDBRANCH  21  22
ENDBRANCH  20  21
ENDBRANCH   1  20
TORSDOF 19
ENDMDL
MODEL 3
REMARK VINA RESULT:      -9.3      2.880      6.674
REMARK SMILES CCC[C@H](c1ccccc1)[C@@](C)(O)C(=O)OCCOCCOC(=O)c1ccc(-c2c3nc(c(-c4ccccc4)c4ccc([nH]4)c(-c4ccccc4)c4nc(c(-c5ccccc5)c5ccc2[nH]5)C=C4)C=C3)cc1
REMARK SMILES IDX 18 1 17 2 16 3 14 4 15 5 11 6 12 7 4 8 3 9 2 10 1 11 5 12
REMARK SMILES IDX 6 13 10 14 7 15 9 16 8 17 13 18 19 20 20 21 21 22 22 23
REMARK SMILES IDX 23 24 24 25 25 26 26 27 72 28 27 29 71 30 28 31 29 32 30 33
REMARK SMILES IDX 65 34 31 35 70 36 64 37 66 38 32 39 69 40 63 41 62 42 33 44
REMARK SMILES IDX 55 45 40 46 54 47 41 48 44 49 53 50 67 51 42 52 43 53 52 55
REMARK SMILES IDX 68 56 45 57 34 58 35 59 39 60 36 61 38 62 37 63 56 64 57 65
REMARK SMILES IDX 61 66 58 67 60 68 59 69 46 70 47 71 51 72 48 73 50 74 49 75
REMARK H PARENT 13 19 66 43 44 54
REMARK Flexibility Score: inf
ROOT
ATOM      1  C   UNL A   1      34.104  23.093  24.345  1.00  0.00     0.202 C 
ENDROOT
BRANCH   1   2
ATOM      2  C   UNL A   1      32.882  23.024  23.421  1.00  0.00     0.261 C 
BRANCH   2   3
ATOM      3  O   UNL A   1      32.172  24.263  23.303  1.00  0.00    -0.461 OA
BRANCH   3   4
ATOM      4  C   UNL A   1      32.874  25.175  22.570  1.00  0.00     0.338 C 
ATOM      5  O   UNL A   1      33.349  24.898  21.479  1.00  0.00    -0.249 OA
BRANCH   4   6
ATOM      6  C   UNL A   1      32.958  26.560  23.246  1.00  0.00     0.165 C 
ATOM      7  C   UNL A   1      33.488  27.598  22.249  1.00  0.00     0.055 C 
BRANCH   6   8
ATOM      8  C   UNL A   1      31.574  26.975  23.882  1.00  0.00     0.062 C 
BRANCH   8   9
ATOM      9  C   UNL A   1      30.522  27.363  22.766  1.00  0.00     0.012 C 
BRANCH   9  10
ATOM     10  C   UNL A   1      29.086  27.818  23.092  1.00  0.00    -0.003 C 
ATOM     11  C   UNL A   1      28.678  29.234  22.724  1.00  0.00     0.004 C 
ENDBRANCH   9  10
ENDBRANCH   8   9
BRANCH   8  12
ATOM     12  C   UNL A   1      31.521  27.889  25.107  1.00  0.00    -0.041 A 
ATOM     13  C   UNL A   1      31.781  29.257  24.928  1.00  0.00     0.004 A 
ATOM     14  C   UNL A   1      31.362  27.436  26.425  1.00  0.00     0.004 A 
ATOM     15  C   UNL A   1      32.057  30.088  26.017  1.00  0.00     0.000 A 
ATOM     16  C   UNL A   1      31.668  28.254  27.515  1.00  0.00     0.000 A 
ATOM     17  C   UNL A   1      32.046  29.572  27.309  1.00  0.00     0.000 A 
ENDBRANCH   8  12
ENDBRANCH   6   8
BRANCH   6  18
ATOM     18  O   UNL A   1      33.948  26.513  24.304  1.00  0.00    -0.378 OA
ATOM     19  H   UNL A   1      34.785  26.882  23.981  1.00  0.00     0.212 HD
ENDBRANCH   6  18
ENDBRANCH   4   6
ENDBRANCH   3   4
ENDBRANCH   2   3
ENDBRANCH   1   2
BRANCH   1  20
ATOM     20  O   UNL A   1      34.622  21.913  24.955  1.00  0.00    -0.374 OA
BRANCH  20  21
ATOM     21  C   UNL A   1      35.979  21.933  25.399  1.00  0.00     0.202 C 
BRANCH  21  22
ATOM     22  C   UNL A   1      36.967  22.868  24.703  1.00  0.00     0.261 C 
BRANCH  22  23
ATOM     23  O   UNL A   1      37.564  23.781  25.627  1.00  0.00    -0.460 OA
BRANCH  23  24
ATOM     24  C   UNL A   1      38.700  23.323  26.210  1.00  0.00     0.338 C 
ATOM     25  O   UNL A   1      39.222  22.240  26.083  1.00  0.00    -0.246 OA
BRANCH  24  26
ATOM     26  C   UNL A   1      39.350  24.478  26.861  1.00  0.00     0.060 A 
ATOM     27  C   UNL A   1      39.128  24.663  28.234  1.00  0.00     0.016 A 
ATOM     28  C   UNL A   1      40.188  25.330  26.143  1.00  0.00     0.016 A 
ATOM     29  C   UNL A   1      39.705  25.741  28.890  1.00  0.00     0.010 A 
ATOM     30  C   UNL A   1      40.746  26.424  26.792  1.00  0.00     0.010 A 
ATOM     31  C   UNL A   1      40.466  26.652  28.152  1.00  0.00    -0.014 A 
BRANCH  31  32
ATOM     32  C   UNL A   1      40.761  27.983  28.707  1.00  0.00     0.031 A 
ATOM     33  C   UNL A   1      42.124  28.191  29.297  1.00  0.00     0.074 A 
ATOM     34  C   UNL A   1      39.828  28.947  28.727  1.00  0.00     0.049 A 
ATOM     35  N   UNL A   1      42.576  29.189  30.007  1.00  0.00    -0.248 NA
ATOM     36  C   UNL A   1      43.104  27.112  29.074  1.00  0.00     0.031 C 
ATOM     37  C   UNL A   1      38.498  28.855  28.129  1.00  0.00     0.029 A 
ATOM     38  N   UNL A   1      39.860  30.188  29.304  1.00  0.00    -0.354 N 
ATOM     39  C   UNL A   1      43.882  28.845  30.337  1.00  0.00     0.074 A 
ATOM     40  C   UNL A   1      44.142  27.541  29.773  1.00  0.00     0.031 C 
ATOM     41  C   UNL A   1      37.825  29.989  28.395  1.00  0.00     0.029 A 
ATOM     42  C   UNL A   1      38.664  30.856  29.220  1.00  0.00     0.049 A 
ATOM     43  H   UNL A   1      40.661  30.564  29.735  1.00  0.00     0.167 HD
ATOM     44  C   UNL A   1      44.779  29.558  31.053  1.00  0.00     0.031 A 
ATOM     45  C   UNL A   1      38.287  32.018  29.786  1.00  0.00     0.031 A 
ATOM     46  C   UNL A   1      44.492  30.845  31.619  1.00  0.00     0.049 A 
ATOM     47  C   UNL A   1      39.278  32.758  30.647  1.00  0.00     0.074 A 
ATOM     48  C   UNL A   1      45.323  31.670  32.352  1.00  0.00     0.029 A 
ATOM     49  N   UNL A   1      43.267  31.488  31.519  1.00  0.00    -0.354 N 
ATOM     50  N   UNL A   1      40.517  32.440  30.944  1.00  0.00    -0.248 NA
ATOM     51  C   UNL A   1      38.821  34.018  31.249  1.00  0.00     0.031 C 
ATOM     52  C   UNL A   1      44.582  32.787  32.745  1.00  0.00     0.029 A 
ATOM     53  C   UNL A   1      43.311  32.691  32.197  1.00  0.00     0.049 A 
ATOM     54  H   UNL A   1      42.483  31.140  31.035  1.00  0.00     0.167 HD
ATOM     55  C   UNL A   1      40.997  33.476  31.734  1.00  0.00     0.074 A 
ATOM     56  C   UNL A   1      39.918  34.434  31.866  1.00  0.00     0.031 C 
ATOM     57  C   UNL A   1      42.222  33.628  32.296  1.00  0.00     0.031 A 
BRANCH  44  58
ATOM     58  C   UNL A   1      46.125  28.935  31.296  1.00  0.00    -0.014 A 
ATOM     59  C   UNL A   1      46.364  28.116  32.410  1.00  0.00     0.009 A 
ATOM     60  C   UNL A   1      47.166  29.161  30.384  1.00  0.00     0.009 A 
ATOM     61  C   UNL A   1      47.630  27.566  32.625  1.00  0.00     0.001 A 
ATOM     62  C   UNL A   1      48.421  28.584  30.583  1.00  0.00     0.001 A 
ATOM     63  C   UNL A   1      48.655  27.795  31.708  1.00  0.00     0.000 A 
ENDBRANCH  44  58
BRANCH  45  64
ATOM     64  C   UNL A   1      36.911  32.537  29.579  1.00  0.00    -0.014 A 
ATOM     65  C   UNL A   1      35.886  32.218  30.481  1.00  0.00     0.009 A 
ATOM     66  C   UNL A   1      36.612  33.351  28.475  1.00  0.00     0.009 A 
ATOM     67  C   UNL A   1      34.585  32.681  30.269  1.00  0.00     0.001 A 
ATOM     68  C   UNL A   1      35.317  33.838  28.281  1.00  0.00     0.001 A 
ATOM     69  C   UNL A   1      34.303  33.495  29.172  1.00  0.00     0.000 A 
ENDBRANCH  45  64
BRANCH  57  70
ATOM     70  C   UNL A   1      42.484  34.899  33.054  1.00  0.00    -0.014 A 
ATOM     71  C   UNL A   1      43.214  35.953  32.488  1.00  0.00     0.009 A 
ATOM     72  C   UNL A   1      41.910  35.069  34.325  1.00  0.00     0.009 A 
ATOM     73  C   UNL A   1      43.384  37.147  33.191  1.00  0.00     0.001 A 
ATOM     74  C   UNL A   1      42.055  36.274  35.011  1.00  0.00     0.001 A 
ATOM     75  C   UNL A   1      42.796  37.309  34.446  1.00  0.00     0.000 A 
ENDBRANCH  57  70
ENDBRANCH  31  32
ENDBRANCH  24  26
ENDBRANCH  23  24
ENDBRANCH  22  23
ENDBRANCH  21  22
ENDBRANCH  20  21
ENDBRANCH   1  20
TORSDOF 19
ENDMDL
