MODEL 1
REMARK VINA RESULT:     -12.5      0.000      0.000
REMARK SMILES CC1(C)O[C@@H]2CC3[C@H]4CCC5=CC(=O)C=C[C@@]5(C)[C@]4(F)[C@H](O)C[C@]3(C)[C@]2(C(=O)OCCOCCOC(=O)c2ccc(-c3c4nc(c(-c5ccccc5)c5ccc([nH]5)c(-c5ccccc5)c5nc(c(-c6ccccc6)c6ccc3[nH]6)C=C5)C=C4)cc2)O1
REMARK SMILES IDX 33 1 32 2 31 3 30 4 29 5 27 6 28 7 26 8 1 9 2 10 4 11 86 12
REMARK SMILES IDX 3 13 5 14 6 15 24 16 7 17 23 18 25 19 8 20 21 21 9 22 19 23
REMARK SMILES IDX 10 24 17 25 20 26 11 27 16 28 18 29 12 30 15 31 13 32 14 33
REMARK SMILES IDX 22 34 34 36 35 37 36 38 37 39 38 40 39 41 85 42 40 43 84 44
REMARK SMILES IDX 41 45 42 46 43 47 78 48 44 49 83 50 77 51 79 52 45 53 82 54
REMARK SMILES IDX 76 55 75 56 46 58 68 59 53 60 67 61 54 62 57 63 66 64 80 65
REMARK SMILES IDX 55 66 56 67 65 69 81 70 58 71 47 72 48 73 52 74 49 75 51 76
REMARK SMILES IDX 50 77 69 78 70 79 74 80 71 81 73 82 72 83 59 84 60 85 64 86
REMARK SMILES IDX 61 87 63 88 62 89
REMARK H PARENT 22 35 79 57 57 68
REMARK Flexibility Score: inf
ROOT
ATOM      1  C   UNL A   1      42.179  20.974  26.188  1.00  0.00     0.202 C 
ENDROOT
BRANCH   1   2
ATOM      2  O   UNL A   1      40.927  21.538  26.545  1.00  0.00    -0.374 OA
BRANCH   2   3
ATOM      3  C   UNL A   1      39.728  20.917  26.107  1.00  0.00     0.202 C 
BRANCH   3   4
ATOM      4  C   UNL A   1      38.499  21.761  25.750  1.00  0.00     0.261 C 
BRANCH   4   5
ATOM      5  O   UNL A   1      37.320  21.017  25.378  1.00  0.00    -0.461 OA
BRANCH   5   6
ATOM      6  C   UNL A   1      36.427  21.774  24.695  1.00  0.00     0.341 C 
ATOM      7  O   UNL A   1      36.640  22.200  23.560  1.00  0.00    -0.249 OA
BRANCH   6   8
ATOM      8  C   UNL A   1      35.167  22.155  25.458  1.00  0.00     0.200 C 
ATOM      9  C   UNL A   1      33.710  19.341  24.236  1.00  0.00     0.075 C 
ATOM     10  C   UNL A   1      33.446  20.582  25.076  1.00  0.00     0.165 C 
ATOM     11  O   UNL A   1      33.913  20.382  26.412  1.00  0.00    -0.344 OA
ATOM     12  O   UNL A   1      34.133  21.706  24.491  1.00  0.00    -0.329 OA
ATOM     13  C   UNL A   1      31.927  20.826  25.082  1.00  0.00     0.075 C 
ATOM     14  C   UNL A   1      34.644  21.558  26.779  1.00  0.00     0.166 C 
ATOM     15  C   UNL A   1      33.648  22.682  27.388  1.00  0.00     0.040 C 
ATOM     16  C   UNL A   1      35.077  23.704  25.735  1.00  0.00     0.016 C 
ATOM     17  C   UNL A   1      33.607  23.716  26.237  1.00  0.00     0.008 C 
ATOM     18  C   UNL A   1      35.375  24.668  24.584  1.00  0.00     0.046 C 
ATOM     19  C   UNL A   1      36.095  24.107  26.855  1.00  0.00     0.015 C 
ATOM     20  C   UNL A   1      32.510  24.594  25.576  1.00  0.00     0.035 C 
ATOM     21  C   UNL A   1      34.204  24.998  23.685  1.00  0.00     0.154 C 
ATOM     22  C   UNL A   1      31.447  25.207  26.474  1.00  0.00     0.012 C 
ATOM     23  C   UNL A   1      33.011  25.586  24.496  1.00  0.00     0.152 C 
ATOM     24  C   UNL A   1      30.222  25.526  25.597  1.00  0.00     0.032 C 
ATOM     25  C   UNL A   1      31.818  26.072  23.571  1.00  0.00     0.044 C 
ATOM     26  F   UNL A   1      33.495  26.677  25.183  1.00  0.00    -0.239 F 
ATOM     27  C   UNL A   1      30.541  26.379  24.387  1.00  0.00    -0.053 C 
ATOM     28  C   UNL A   1      32.226  27.307  22.761  1.00  0.00    -0.009 C 
ATOM     29  C   UNL A   1      31.417  25.010  22.507  1.00  0.00     0.024 C 
ATOM     30  C   UNL A   1      29.668  27.324  23.985  1.00  0.00     0.052 C 
ATOM     31  C   UNL A   1      31.362  28.259  22.380  1.00  0.00     0.048 C 
ATOM     32  C   UNL A   1      29.955  28.188  22.818  1.00  0.00     0.178 C 
ATOM     33  O   UNL A   1      29.079  28.848  22.275  1.00  0.00    -0.290 OA
BRANCH  21  34
ATOM     34  O   UNL A   1      33.883  23.870  22.884  1.00  0.00    -0.390 OA
ATOM     35  H   UNL A   1      34.405  23.895  22.067  1.00  0.00     0.211 HD
ENDBRANCH  21  34
ENDBRANCH   6   8
ENDBRANCH   5   6
ENDBRANCH   4   5
ENDBRANCH   3   4
ENDBRANCH   2   3
ENDBRANCH   1   2
BRANCH   1  36
ATOM     36  C   UNL A   1      43.204  21.811  25.414  1.00  0.00     0.261 C 
BRANCH  36  37
ATOM     37  O   UNL A   1      42.667  23.010  24.834  1.00  0.00    -0.460 OA
BRANCH  37  38
ATOM     38  C   UNL A   1      43.417  24.111  25.063  1.00  0.00     0.338 C 
ATOM     39  O   UNL A   1      44.540  24.351  24.631  1.00  0.00    -0.246 OA
BRANCH  38  40
ATOM     40  C   UNL A   1      42.650  25.120  25.804  1.00  0.00     0.060 A 
ATOM     41  C   UNL A   1      43.258  26.362  26.032  1.00  0.00     0.016 A 
ATOM     42  C   UNL A   1      41.431  24.799  26.404  1.00  0.00     0.016 A 
ATOM     43  C   UNL A   1      42.681  27.267  26.914  1.00  0.00     0.010 A 
ATOM     44  C   UNL A   1      40.862  25.702  27.307  1.00  0.00     0.010 A 
ATOM     45  C   UNL A   1      41.512  26.915  27.600  1.00  0.00    -0.014 A 
BRANCH  45  46
ATOM     46  C   UNL A   1      41.102  27.726  28.767  1.00  0.00     0.031 A 
ATOM     47  C   UNL A   1      41.889  27.605  30.043  1.00  0.00     0.074 A 
ATOM     48  C   UNL A   1      40.084  28.598  28.676  1.00  0.00     0.049 A 
ATOM     49  N   UNL A   1      41.715  28.219  31.185  1.00  0.00    -0.248 NA
ATOM     50  C   UNL A   1      43.029  26.672  30.028  1.00  0.00     0.031 C 
ATOM     51  C   UNL A   1      39.286  28.847  27.476  1.00  0.00     0.029 A 
ATOM     52  N   UNL A   1      39.556  29.442  29.618  1.00  0.00    -0.354 N 
ATOM     53  C   UNL A   1      42.715  27.744  32.023  1.00  0.00     0.074 A 
ATOM     54  C   UNL A   1      43.479  26.773  31.270  1.00  0.00     0.031 C 
ATOM     55  C   UNL A   1      38.362  29.782  27.757  1.00  0.00     0.029 A 
ATOM     56  C   UNL A   1      38.490  30.175  29.160  1.00  0.00     0.049 A 
ATOM     57  H   UNL A   1      39.907  29.516  30.534  1.00  0.00     0.167 HD
ATOM     58  C   UNL A   1      42.981  28.087  33.306  1.00  0.00     0.031 A 
ATOM     59  C   UNL A   1      37.699  31.051  29.806  1.00  0.00     0.031 A 
ATOM     60  C   UNL A   1      42.218  29.043  34.060  1.00  0.00     0.049 A 
ATOM     61  C   UNL A   1      37.966  31.360  31.254  1.00  0.00     0.074 A 
ATOM     62  C   UNL A   1      42.406  29.460  35.367  1.00  0.00     0.029 A 
ATOM     63  N   UNL A   1      41.116  29.728  33.574  1.00  0.00    -0.354 N 
ATOM     64  N   UNL A   1      38.920  30.909  32.033  1.00  0.00    -0.248 NA
ATOM     65  C   UNL A   1      37.050  32.305  31.908  1.00  0.00     0.031 C 
ATOM     66  C   UNL A   1      41.390  30.367  35.685  1.00  0.00     0.029 A 
ATOM     67  C   UNL A   1      40.599  30.550  34.561  1.00  0.00     0.049 A 
ATOM     68  H   UNL A   1      40.755  29.643  32.663  1.00  0.00     0.167 HD
ATOM     69  C   UNL A   1      38.736  31.536  33.259  1.00  0.00     0.074 A 
ATOM     70  C   UNL A   1      37.585  32.405  33.117  1.00  0.00     0.031 C 
ATOM     71  C   UNL A   1      39.456  31.407  34.399  1.00  0.00     0.031 A 
BRANCH  58  72
ATOM     72  C   UNL A   1      44.129  27.393  33.980  1.00  0.00    -0.014 A 
ATOM     73  C   UNL A   1      45.418  27.950  33.982  1.00  0.00     0.009 A 
ATOM     74  C   UNL A   1      43.912  26.175  34.644  1.00  0.00     0.009 A 
ATOM     75  C   UNL A   1      46.473  27.284  34.608  1.00  0.00     0.001 A 
ATOM     76  C   UNL A   1      44.964  25.524  35.289  1.00  0.00     0.001 A 
ATOM     77  C   UNL A   1      46.245  26.074  35.264  1.00  0.00     0.000 A 
ENDBRANCH  58  72
BRANCH  59  78
ATOM     78  C   UNL A   1      36.563  31.690  29.093  1.00  0.00    -0.014 A 
ATOM     79  C   UNL A   1      36.651  33.018  28.654  1.00  0.00     0.009 A 
ATOM     80  C   UNL A   1      35.379  30.973  28.862  1.00  0.00     0.009 A 
ATOM     81  C   UNL A   1      35.565  33.624  28.017  1.00  0.00     0.001 A 
ATOM     82  C   UNL A   1      34.305  31.573  28.203  1.00  0.00     0.001 A 
ATOM     83  C   UNL A   1      34.396  32.900  27.788  1.00  0.00     0.000 A 
ENDBRANCH  59  78
BRANCH  71  84
ATOM     84  C   UNL A   1      39.044  32.253  35.570  1.00  0.00    -0.014 A 
ATOM     85  C   UNL A   1      38.142  31.773  36.532  1.00  0.00     0.009 A 
ATOM     86  C   UNL A   1      39.601  33.530  35.734  1.00  0.00     0.009 A 
ATOM     87  C   UNL A   1      37.783  32.571  37.621  1.00  0.00     0.001 A 
ATOM     88  C   UNL A   1      39.259  34.316  36.835  1.00  0.00     0.001 A 
ATOM     89  C   UNL A   1      38.345  33.839  37.773  1.00  0.00     0.000 A 
ENDBRANCH  71  84
ENDBRANCH  45  46
ENDBRANCH  38  40
ENDBRANCH  37  38
ENDBRANCH  36  37
ENDBRANCH   1  36
TORSDOF 15
ENDMDL
MODEL 2
REMARK VINA RESULT:     -12.4      4.022      9.225
REMARK SMILES CC1(C)O[C@@H]2CC3[C@H]4CCC5=CC(=O)C=C[C@@]5(C)[C@]4(F)[C@H](O)C[C@]3(C)[C@]2(C(=O)OCCOCCOC(=O)c2ccc(-c3c4nc(c(-c5ccccc5)c5ccc([nH]5)c(-c5ccccc5)c5nc(c(-c6ccccc6)c6ccc3[nH]6)C=C5)C=C4)cc2)O1
REMARK SMILES IDX 33 1 32 2 31 3 30 4 29 5 27 6 28 7 26 8 1 9 2 10 4 11 86 12
REMARK SMILES IDX 3 13 5 14 6 15 24 16 7 17 23 18 25 19 8 20 21 21 9 22 19 23
REMARK SMILES IDX 10 24 17 25 20 26 11 27 16 28 18 29 12 30 15 31 13 32 14 33
REMARK SMILES IDX 22 34 34 36 35 37 36 38 37 39 38 40 39 41 85 42 40 43 84 44
REMARK SMILES IDX 41 45 42 46 43 47 78 48 44 49 83 50 77 51 79 52 45 53 82 54
REMARK SMILES IDX 76 55 75 56 46 58 68 59 53 60 67 61 54 62 57 63 66 64 80 65
REMARK SMILES IDX 55 66 56 67 65 69 81 70 58 71 47 72 48 73 52 74 49 75 51 76
REMARK SMILES IDX 50 77 69 78 70 79 74 80 71 81 73 82 72 83 59 84 60 85 64 86
REMARK SMILES IDX 61 87 63 88 62 89
REMARK H PARENT 22 35 79 57 57 68
REMARK Flexibility Score: inf
ROOT
ATOM      1  C   UNL A   1      34.352  31.628  27.685  1.00  0.00     0.202 C 
ENDROOT
BRANCH   1   2
ATOM      2  O   UNL A   1      33.191  30.859  27.415  1.00  0.00    -0.374 OA
BRANCH   2   3
ATOM      3  C   UNL A   1      33.310  29.634  26.707  1.00  0.00     0.202 C 
BRANCH   3   4
ATOM      4  C   UNL A   1      32.903  29.542  25.232  1.00  0.00     0.261 C 
BRANCH   4   5
ATOM      5  O   UNL A   1      33.154  28.271  24.596  1.00  0.00    -0.461 OA
BRANCH   5   6
ATOM      6  C   UNL A   1      32.171  27.927  23.728  1.00  0.00     0.341 C 
ATOM      7  O   UNL A   1      31.631  28.735  22.973  1.00  0.00    -0.249 OA
BRANCH   6   8
ATOM      8  C   UNL A   1      31.698  26.484  23.808  1.00  0.00     0.200 C 
ATOM      9  C   UNL A   1      30.653  27.120  26.977  1.00  0.00     0.075 C 
ATOM     10  C   UNL A   1      30.784  26.016  25.937  1.00  0.00     0.165 C 
ATOM     11  O   UNL A   1      29.696  26.077  25.013  1.00  0.00    -0.344 OA
ATOM     12  O   UNL A   1      32.027  26.182  25.225  1.00  0.00    -0.329 OA
ATOM     13  C   UNL A   1      30.768  24.671  26.681  1.00  0.00     0.075 C 
ATOM     14  C   UNL A   1      30.255  25.954  23.700  1.00  0.00     0.166 C 
ATOM     15  C   UNL A   1      30.405  24.394  23.288  1.00  0.00     0.040 C 
ATOM     16  C   UNL A   1      32.474  25.540  22.813  1.00  0.00     0.016 C 
ATOM     17  C   UNL A   1      31.937  24.196  23.378  1.00  0.00     0.008 C 
ATOM     18  C   UNL A   1      34.000  25.650  22.744  1.00  0.00     0.046 C 
ATOM     19  C   UNL A   1      31.998  25.805  21.344  1.00  0.00     0.015 C 
ATOM     20  C   UNL A   1      32.881  23.075  23.893  1.00  0.00     0.035 C 
ATOM     21  C   UNL A   1      34.762  24.822  23.755  1.00  0.00     0.154 C 
ATOM     22  C   UNL A   1      32.476  21.630  23.648  1.00  0.00     0.012 C 
ATOM     23  C   UNL A   1      34.393  23.312  23.649  1.00  0.00     0.152 C 
ATOM     24  C   UNL A   1      33.210  20.757  24.683  1.00  0.00     0.032 C 
ATOM     25  C   UNL A   1      35.274  22.395  24.598  1.00  0.00     0.044 C 
ATOM     26  F   UNL A   1      34.628  22.934  22.346  1.00  0.00    -0.239 F 
ATOM     27  C   UNL A   1      34.710  20.960  24.701  1.00  0.00    -0.053 C 
ATOM     28  C   UNL A   1      36.727  22.350  24.115  1.00  0.00    -0.009 C 
ATOM     29  C   UNL A   1      35.353  22.943  26.053  1.00  0.00     0.024 C 
ATOM     30  C   UNL A   1      35.525  19.904  24.898  1.00  0.00     0.052 C 
ATOM     31  C   UNL A   1      37.531  21.292  24.291  1.00  0.00     0.048 C 
ATOM     32  C   UNL A   1      36.997  20.060  24.903  1.00  0.00     0.178 C 
ATOM     33  O   UNL A   1      37.736  19.191  25.348  1.00  0.00    -0.290 OA
BRANCH  21  34
ATOM     34  O   UNL A   1      34.608  25.385  25.049  1.00  0.00    -0.390 OA
ATOM     35  H   UNL A   1      33.736  25.152  25.401  1.00  0.00     0.211 HD
ENDBRANCH  21  34
ENDBRANCH   6   8
ENDBRANCH   5   6
ENDBRANCH   4   5
ENDBRANCH   3   4
ENDBRANCH   2   3
ENDBRANCH   1   2
BRANCH   1  36
ATOM     36  C   UNL A   1      34.528  32.295  29.054  1.00  0.00     0.261 C 
BRANCH  36  37
ATOM     37  O   UNL A   1      35.888  32.354  29.510  1.00  0.00    -0.460 OA
BRANCH  37  38
ATOM     38  C   UNL A   1      36.172  31.478  30.498  1.00  0.00     0.338 C 
ATOM     39  O   UNL A   1      35.575  31.333  31.561  1.00  0.00    -0.246 OA
BRANCH  38  40
ATOM     40  C   UNL A   1      37.239  30.557  30.090  1.00  0.00     0.060 A 
ATOM     41  C   UNL A   1      38.066  30.032  31.092  1.00  0.00     0.016 A 
ATOM     42  C   UNL A   1      37.527  30.344  28.740  1.00  0.00     0.016 A 
ATOM     43  C   UNL A   1      39.224  29.344  30.749  1.00  0.00     0.010 A 
ATOM     44  C   UNL A   1      38.702  29.669  28.396  1.00  0.00     0.010 A 
ATOM     45  C   UNL A   1      39.576  29.213  29.400  1.00  0.00    -0.014 A 
BRANCH  45  46
ATOM     46  C   UNL A   1      40.953  28.789  29.064  1.00  0.00     0.031 A 
ATOM     47  C   UNL A   1      41.186  27.364  28.639  1.00  0.00     0.074 A 
ATOM     48  C   UNL A   1      41.967  29.669  29.078  1.00  0.00     0.049 A 
ATOM     49  N   UNL A   1      42.302  26.774  28.296  1.00  0.00    -0.248 NA
ATOM     50  C   UNL A   1      40.002  26.490  28.591  1.00  0.00     0.031 C 
ATOM     51  C   UNL A   1      41.854  31.088  29.413  1.00  0.00     0.029 A 
ATOM     52  N   UNL A   1      43.296  29.491  28.793  1.00  0.00    -0.354 N 
ATOM     53  C   UNL A   1      41.956  25.463  27.996  1.00  0.00     0.074 A 
ATOM     54  C   UNL A   1      40.534  25.334  28.221  1.00  0.00     0.031 C 
ATOM     55  C   UNL A   1      43.070  31.653  29.318  1.00  0.00     0.029 A 
ATOM     56  C   UNL A   1      44.046  30.631  28.943  1.00  0.00     0.049 A 
ATOM     57  H   UNL A   1      43.677  28.629  28.509  1.00  0.00     0.167 HD
ATOM     58  C   UNL A   1      42.751  24.455  27.567  1.00  0.00     0.031 A 
ATOM     59  C   UNL A   1      45.371  30.820  28.807  1.00  0.00     0.031 A 
ATOM     60  C   UNL A   1      44.166  24.577  27.352  1.00  0.00     0.049 A 
ATOM     61  C   UNL A   1      46.246  29.666  28.403  1.00  0.00     0.074 A 
ATOM     62  C   UNL A   1      45.060  23.613  26.918  1.00  0.00     0.029 A 
ATOM     63  N   UNL A   1      44.895  25.736  27.561  1.00  0.00    -0.354 N 
ATOM     64  N   UNL A   1      45.906  28.432  28.115  1.00  0.00    -0.248 NA
ATOM     65  C   UNL A   1      47.687  29.933  28.296  1.00  0.00     0.031 C 
ATOM     66  C   UNL A   1      46.339  24.179  26.906  1.00  0.00     0.029 A 
ATOM     67  C   UNL A   1      46.233  25.509  27.286  1.00  0.00     0.049 A 
ATOM     68  H   UNL A   1      44.518  26.594  27.861  1.00  0.00     0.167 HD
ATOM     69  C   UNL A   1      47.085  27.785  27.768  1.00  0.00     0.074 A 
ATOM     70  C   UNL A   1      48.148  28.765  27.872  1.00  0.00     0.031 C 
ATOM     71  C   UNL A   1      47.272  26.496  27.394  1.00  0.00     0.031 A 
BRANCH  58  72
ATOM     72  C   UNL A   1      42.103  23.120  27.335  1.00  0.00    -0.014 A 
ATOM     73  C   UNL A   1      41.958  22.189  28.376  1.00  0.00     0.009 A 
ATOM     74  C   UNL A   1      41.609  22.799  26.061  1.00  0.00     0.009 A 
ATOM     75  C   UNL A   1      41.359  20.950  28.137  1.00  0.00     0.001 A 
ATOM     76  C   UNL A   1      40.990  21.569  25.831  1.00  0.00     0.001 A 
ATOM     77  C   UNL A   1      40.873  20.643  26.866  1.00  0.00     0.000 A 
ENDBRANCH  58  72
BRANCH  59  78
ATOM     78  C   UNL A   1      45.960  32.159  29.072  1.00  0.00    -0.014 A 
ATOM     79  C   UNL A   1      46.098  33.097  28.039  1.00  0.00     0.009 A 
ATOM     80  C   UNL A   1      46.398  32.496  30.362  1.00  0.00     0.009 A 
ATOM     81  C   UNL A   1      46.686  34.338  28.289  1.00  0.00     0.001 A 
ATOM     82  C   UNL A   1      46.961  33.748  30.614  1.00  0.00     0.001 A 
ATOM     83  C   UNL A   1      47.113  34.665  29.576  1.00  0.00     0.000 A 
ENDBRANCH  59  78
BRANCH  71  84
ATOM     84  C   UNL A   1      48.671  26.083  27.033  1.00  0.00    -0.014 A 
ATOM     85  C   UNL A   1      49.207  26.359  25.766  1.00  0.00     0.009 A 
ATOM     86  C   UNL A   1      49.475  25.447  27.991  1.00  0.00     0.009 A 
ATOM     87  C   UNL A   1      50.515  25.979  25.457  1.00  0.00     0.001 A 
ATOM     88  C   UNL A   1      50.789  25.090  27.687  1.00  0.00     0.001 A 
ATOM     89  C   UNL A   1      51.305  25.349  26.419  1.00  0.00     0.000 A 
ENDBRANCH  71  84
ENDBRANCH  45  46
ENDBRANCH  38  40
ENDBRANCH  37  38
ENDBRANCH  36  37
ENDBRANCH   1  36
TORSDOF 15
ENDMDL
MODEL 3
REMARK VINA RESULT:     -12.3      2.636      8.331
REMARK SMILES CC1(C)O[C@@H]2CC3[C@H]4CCC5=CC(=O)C=C[C@@]5(C)[C@]4(F)[C@H](O)C[C@]3(C)[C@]2(C(=O)OCCOCCOC(=O)c2ccc(-c3c4nc(c(-c5ccccc5)c5ccc([nH]5)c(-c5ccccc5)c5nc(c(-c6ccccc6)c6ccc3[nH]6)C=C5)C=C4)cc2)O1
REMARK SMILES IDX 33 1 32 2 31 3 30 4 29 5 27 6 28 7 26 8 1 9 2 10 4 11 86 12
REMARK SMILES IDX 3 13 5 14 6 15 24 16 7 17 23 18 25 19 8 20 21 21 9 22 19 23
REMARK SMILES IDX 10 24 17 25 20 26 11 27 16 28 18 29 12 30 15 31 13 32 14 33
REMARK SMILES IDX 22 34 34 36 35 37 36 38 37 39 38 40 39 41 85 42 40 43 84 44
REMARK SMILES IDX 41 45 42 46 43 47 78 48 44 49 83 50 77 51 79 52 45 53 82 54
REMARK SMILES IDX 76 55 75 56 46 58 68 59 53 60 67 61 54 62 57 63 66 64 80 65
REMARK SMILES IDX 55 66 56 67 65 69 81 70 58 71 47 72 48 73 52 74 49 75 51 76
REMARK SMILES IDX 50 77 69 78 70 79 74 80 71 81 73 82 72 83 59 84 60 85 64 86
REMARK SMILES IDX 61 87 63 88 62 89
REMARK H PARENT 22 35 79 57 57 68
REMARK Flexibility Score: inf
ROOT
ATOM      1  C   UNL A   1      31.202  32.250  26.537  1.00  0.00     0.202 C 
ENDROOT
BRANCH   1   2
ATOM      2  O   UNL A   1      31.275  31.039  25.800  1.00  0.00    -0.374 OA
BRANCH   2   3
ATOM      3  C   UNL A   1      32.316  30.113  26.076  1.00  0.00     0.202 C 
BRANCH   3   4
ATOM      4  C   UNL A   1      33.227  29.607  24.952  1.00  0.00     0.261 C 
BRANCH   4   5
ATOM      5  O   UNL A   1      33.163  28.190  24.690  1.00  0.00    -0.461 OA
BRANCH   5   6
ATOM      6  C   UNL A   1      32.166  27.871  23.829  1.00  0.00     0.341 C 
ATOM      7  O   UNL A   1      31.609  28.701  23.110  1.00  0.00    -0.249 OA
BRANCH   6   8
ATOM      8  C   UNL A   1      31.698  26.424  23.871  1.00  0.00     0.200 C 
ATOM      9  C   UNL A   1      30.600  26.986  27.035  1.00  0.00     0.075 C 
ATOM     10  C   UNL A   1      30.753  25.906  25.974  1.00  0.00     0.165 C 
ATOM     11  O   UNL A   1      29.679  25.981  25.034  1.00  0.00    -0.344 OA
ATOM     12  O   UNL A   1      32.006  26.093  25.286  1.00  0.00    -0.329 OA
ATOM     13  C   UNL A   1      30.732  24.545  26.689  1.00  0.00     0.075 C 
ATOM     14  C   UNL A   1      30.260  25.890  23.728  1.00  0.00     0.166 C 
ATOM     15  C   UNL A   1      30.424  24.339  23.285  1.00  0.00     0.040 C 
ATOM     16  C   UNL A   1      32.495  25.505  22.867  1.00  0.00     0.016 C 
ATOM     17  C   UNL A   1      31.956  24.147  23.395  1.00  0.00     0.008 C 
ATOM     18  C   UNL A   1      34.020  25.624  22.826  1.00  0.00     0.046 C 
ATOM     19  C   UNL A   1      32.040  25.800  21.398  1.00  0.00     0.015 C 
ATOM     20  C   UNL A   1      32.896  23.020  23.901  1.00  0.00     0.035 C 
ATOM     21  C   UNL A   1      34.771  24.778  23.830  1.00  0.00     0.154 C 
ATOM     22  C   UNL A   1      32.503  21.578  23.619  1.00  0.00     0.012 C 
ATOM     23  C   UNL A   1      34.411  23.269  23.686  1.00  0.00     0.152 C 
ATOM     24  C   UNL A   1      33.224  20.686  24.646  1.00  0.00     0.032 C 
ATOM     25  C   UNL A   1      35.282  22.336  24.629  1.00  0.00     0.044 C 
ATOM     26  F   UNL A   1      34.668  22.919  22.379  1.00  0.00    -0.239 F 
ATOM     27  C   UNL A   1      34.724  20.896  24.692  1.00  0.00    -0.053 C 
ATOM     28  C   UNL A   1      36.742  22.308  24.168  1.00  0.00    -0.009 C 
ATOM     29  C   UNL A   1      35.335  22.853  26.096  1.00  0.00     0.024 C 
ATOM     30  C   UNL A   1      35.541  19.840  24.880  1.00  0.00     0.052 C 
ATOM     31  C   UNL A   1      37.549  21.250  24.334  1.00  0.00     0.048 C 
ATOM     32  C   UNL A   1      37.012  20.003  24.912  1.00  0.00     0.178 C 
ATOM     33  O   UNL A   1      37.747  19.128  25.349  1.00  0.00    -0.290 OA
BRANCH  21  34
ATOM     34  O   UNL A   1      34.594  25.312  25.133  1.00  0.00    -0.390 OA
ATOM     35  H   UNL A   1      33.681  25.624  25.234  1.00  0.00     0.211 HD
ENDBRANCH  21  34
ENDBRANCH   6   8
ENDBRANCH   5   6
ENDBRANCH   4   5
ENDBRANCH   3   4
ENDBRANCH   2   3
ENDBRANCH   1   2
BRANCH   1  36
ATOM     36  C   UNL A   1      32.404  32.718  27.364  1.00  0.00     0.261 C 
BRANCH  36  37
ATOM     37  O   UNL A   1      32.389  34.117  27.685  1.00  0.00    -0.460 OA
BRANCH  37  38
ATOM     38  C   UNL A   1      33.126  34.436  28.773  1.00  0.00     0.338 C 
ATOM     39  O   UNL A   1      32.840  35.235  29.659  1.00  0.00    -0.246 OA
BRANCH  38  40
ATOM     40  C   UNL A   1      34.307  33.570  28.875  1.00  0.00     0.060 A 
ATOM     41  C   UNL A   1      34.364  32.670  29.947  1.00  0.00     0.016 A 
ATOM     42  C   UNL A   1      35.407  33.754  28.035  1.00  0.00     0.016 A 
ATOM     43  C   UNL A   1      35.545  31.994  30.226  1.00  0.00     0.010 A 
ATOM     44  C   UNL A   1      36.601  33.088  28.328  1.00  0.00     0.010 A 
ATOM     45  C   UNL A   1      36.685  32.247  29.452  1.00  0.00    -0.014 A 
BRANCH  45  46
ATOM     46  C   UNL A   1      38.000  31.792  29.956  1.00  0.00     0.031 A 
ATOM     47  C   UNL A   1      38.550  30.482  29.460  1.00  0.00     0.074 A 
ATOM     48  C   UNL A   1      38.719  32.558  30.793  1.00  0.00     0.049 A 
ATOM     49  N   UNL A   1      39.677  29.890  29.759  1.00  0.00    -0.248 NA
ATOM     50  C   UNL A   1      37.719  29.744  28.493  1.00  0.00     0.031 C 
ATOM     51  C   UNL A   1      38.319  33.872  31.294  1.00  0.00     0.029 A 
ATOM     52  N   UNL A   1      39.947  32.335  31.360  1.00  0.00    -0.354 N 
ATOM     53  C   UNL A   1      39.689  28.712  29.024  1.00  0.00     0.074 A 
ATOM     54  C   UNL A   1      38.448  28.657  28.284  1.00  0.00     0.031 C 
ATOM     55  C   UNL A   1      39.286  34.339  32.103  1.00  0.00     0.029 A 
ATOM     56  C   UNL A   1      40.356  33.346  32.194  1.00  0.00     0.049 A 
ATOM     57  H   UNL A   1      40.484  31.528  31.188  1.00  0.00     0.167 HD
ATOM     58  C   UNL A   1      40.650  27.760  28.965  1.00  0.00     0.031 A 
ATOM     59  C   UNL A   1      41.461  33.448  32.954  1.00  0.00     0.031 A 
ATOM     60  C   UNL A   1      41.880  27.806  29.707  1.00  0.00     0.049 A 
ATOM     61  C   UNL A   1      42.479  32.341  32.931  1.00  0.00     0.074 A 
ATOM     62  C   UNL A   1      42.917  26.890  29.717  1.00  0.00     0.029 A 
ATOM     63  N   UNL A   1      42.234  28.824  30.577  1.00  0.00    -0.354 N 
ATOM     64  N   UNL A   1      42.482  31.235  32.227  1.00  0.00    -0.248 NA
ATOM     65  C   UNL A   1      43.652  32.503  33.804  1.00  0.00     0.031 C 
ATOM     66  C   UNL A   1      43.882  27.334  30.627  1.00  0.00     0.029 A 
ATOM     67  C   UNL A   1      43.466  28.551  31.146  1.00  0.00     0.049 A 
ATOM     68  H   UNL A   1      41.691  29.624  30.763  1.00  0.00     0.167 HD
ATOM     69  C   UNL A   1      43.666  30.583  32.550  1.00  0.00     0.074 A 
ATOM     70  C   UNL A   1      44.360  31.422  33.506  1.00  0.00     0.031 C 
ATOM     71  C   UNL A   1      44.139  29.398  32.093  1.00  0.00     0.031 A 
BRANCH  58  72
ATOM     72  C   UNL A   1      40.385  26.569  28.089  1.00  0.00    -0.014 A 
ATOM     73  C   UNL A   1      39.607  25.491  28.540  1.00  0.00     0.009 A 
ATOM     74  C   UNL A   1      40.903  26.537  26.785  1.00  0.00     0.009 A 
ATOM     75  C   UNL A   1      39.379  24.390  27.711  1.00  0.00     0.001 A 
ATOM     76  C   UNL A   1      40.654  25.445  25.952  1.00  0.00     0.001 A 
ATOM     77  C   UNL A   1      39.900  24.370  26.417  1.00  0.00     0.000 A 
ENDBRANCH  58  72
BRANCH  59  78
ATOM     78  C   UNL A   1      41.659  34.639  33.820  1.00  0.00    -0.014 A 
ATOM     79  C   UNL A   1      42.410  35.734  33.370  1.00  0.00     0.009 A 
ATOM     80  C   UNL A   1      41.103  34.678  35.108  1.00  0.00     0.009 A 
ATOM     81  C   UNL A   1      42.622  36.834  34.203  1.00  0.00     0.001 A 
ATOM     82  C   UNL A   1      41.295  35.791  35.929  1.00  0.00     0.001 A 
ATOM     83  C   UNL A   1      42.061  36.864  35.479  1.00  0.00     0.000 A 
ENDBRANCH  59  78
BRANCH  71  84
ATOM     84  C   UNL A   1      45.485  28.958  32.594  1.00  0.00    -0.014 A 
ATOM     85  C   UNL A   1      46.665  29.338  31.937  1.00  0.00     0.009 A 
ATOM     86  C   UNL A   1      45.572  28.188  33.764  1.00  0.00     0.009 A 
ATOM     87  C   UNL A   1      47.907  28.929  32.429  1.00  0.00     0.001 A 
ATOM     88  C   UNL A   1      46.815  27.802  34.266  1.00  0.00     0.001 A 
ATOM     89  C   UNL A   1      47.980  28.166  33.594  1.00  0.00     0.000 A 
ENDBRANCH  71  84
ENDBRANCH  45  46
ENDBRANCH  38  40
ENDBRANCH  37  38
ENDBRANCH  36  37
ENDBRANCH   1  36
TORSDOF 15
ENDMDL
