MODEL 1
REMARK VINA RESULT:     -11.2      0.000      0.000
REMARK SMILES CCc1nnc(/[NH+]=C2/S/C(=C/c3ccccc3OCCC(=O)OCCOCCOC(=O)c3ccc(-c4c5nc(c(-c6ccccc6)c6ccc([nH]6)c(-c6ccccc6)c6nc(c(-c7ccccc7)c7ccc4[nH]7)C=C6)C=C5)cc3)C(=O)N2C)s1
REMARK SMILES IDX 24 1 23 2 21 3 22 4 20 5 19 6 18 7 17 8 12 9 13 10 14 11
REMARK SMILES IDX 16 12 15 13 11 14 7 15 8 16 9 18 82 19 10 20 80 21 83 22
REMARK SMILES IDX 81 23 6 24 3 25 4 26 84 27 5 28 2 29 1 30 25 31 26 32 27 33
REMARK SMILES IDX 28 34 29 35 30 36 31 37 32 38 33 39 79 40 34 41 78 42 35 43
REMARK SMILES IDX 36 44 37 45 72 46 38 47 77 48 71 49 73 50 39 51 76 52 70 53
REMARK SMILES IDX 69 54 40 56 62 57 47 58 61 59 48 60 51 61 60 62 74 63 49 64
REMARK SMILES IDX 50 65 59 67 75 68 52 69 41 70 42 71 46 72 43 73 45 74 44 75
REMARK SMILES IDX 63 76 64 77 68 78 65 79 67 80 66 81 53 82 54 83 58 84 55 85
REMARK SMILES IDX 57 86 56 87
REMARK H PARENT 7 17 73 55 51 66
REMARK Flexibility Score: inf
ROOT
ATOM      1  C   UNL A   1      39.976  21.350  26.244  1.00  0.00     0.261 C 
ENDROOT
BRANCH   1   2
ATOM      2  O   UNL A   1      39.136  22.518  26.491  1.00  0.00    -0.463 OA
BRANCH   2   3
ATOM      3  C   UNL A   1      37.995  22.558  25.728  1.00  0.00     0.309 C 
ATOM      4  O   UNL A   1      37.374  23.602  25.642  1.00  0.00    -0.252 OA
BRANCH   3   5
ATOM      5  C   UNL A   1      37.674  21.170  25.103  1.00  0.00     0.164 C 
BRANCH   5   6
ATOM      6  C   UNL A   1      36.250  20.499  24.993  1.00  0.00     0.241 C 
BRANCH   6   7
ATOM      7  O   UNL A   1      35.160  20.678  25.934  1.00  0.00    -0.492 OA
BRANCH   7   8
ATOM      8  C   UNL A   1      33.972  20.652  25.277  1.00  0.00     0.126 A 
ATOM      9  C   UNL A   1      33.539  21.821  24.665  1.00  0.00     0.018 A 
ATOM     10  C   UNL A   1      32.746  21.612  23.548  1.00  0.00     0.012 A 
ATOM     11  C   UNL A   1      32.417  20.331  23.091  1.00  0.00     0.001 A 
ATOM     12  C   UNL A   1      33.417  19.386  25.011  1.00  0.00     0.047 A 
ATOM     13  C   UNL A   1      32.644  19.220  23.878  1.00  0.00     0.004 A 
BRANCH   9  14
ATOM     14  C   UNL A   1      33.853  23.202  25.110  1.00  0.00     0.035 C 
ATOM     15  N   UNL A   1      32.651  27.702  24.294  1.00  0.00    -0.226 N 
ATOM     16  C   UNL A   1      32.526  26.651  25.032  1.00  0.00     0.271 C 
ATOM     17  H   UNL A   1      33.501  28.195  24.230  1.00  0.00     0.268 HD
ATOM     18  S   UNL A   1      33.984  25.832  25.581  1.00  0.00    -0.012 SA
ATOM     19  N   UNL A   1      31.435  25.920  25.415  1.00  0.00    -0.222 N 
ATOM     20  C   UNL A   1      33.155  24.287  25.513  1.00  0.00     0.100 C 
ATOM     21  C   UNL A   1      31.709  24.623  25.787  1.00  0.00     0.321 C 
ATOM     22  C   UNL A   1      30.045  26.347  25.507  1.00  0.00     0.252 C 
ATOM     23  O   UNL A   1      30.840  23.924  26.282  1.00  0.00    -0.250 OA
BRANCH  15  24
ATOM     24  C   UNL A   1      31.549  28.088  23.613  1.00  0.00     0.345 A 
ATOM     25  C   UNL A   1      29.834  29.428  22.638  1.00  0.00     0.138 A 
ATOM     26  N   UNL A   1      30.058  28.327  21.952  1.00  0.00    -0.067 NA
ATOM     27  S   UNL A   1      30.708  29.528  24.107  1.00  0.00    -0.044 S 
ATOM     28  N   UNL A   1      31.016  27.530  22.546  1.00  0.00     0.023 NA
BRANCH  25  29
ATOM     29  C   UNL A   1      28.948  30.539  22.189  1.00  0.00     0.068 C 
ATOM     30  C   UNL A   1      27.666  30.584  22.999  1.00  0.00     0.012 C 
ENDBRANCH  25  29
ENDBRANCH  15  24
ENDBRANCH   9  14
ENDBRANCH   7   8
ENDBRANCH   6   7
ENDBRANCH   5   6
ENDBRANCH   3   5
ENDBRANCH   2   3
ENDBRANCH   1   2
BRANCH   1  31
ATOM     31  C   UNL A   1      40.769  20.836  27.467  1.00  0.00     0.202 C 
BRANCH  31  32
ATOM     32  O   UNL A   1      42.087  20.345  27.182  1.00  0.00    -0.374 OA
BRANCH  32  33
ATOM     33  C   UNL A   1      42.487  20.322  25.807  1.00  0.00     0.202 C 
BRANCH  33  34
ATOM     34  C   UNL A   1      43.558  21.365  25.402  1.00  0.00     0.261 C 
BRANCH  34  35
ATOM     35  O   UNL A   1      42.978  22.628  25.012  1.00  0.00    -0.460 OA
BRANCH  35  36
ATOM     36  C   UNL A   1      43.759  23.734  25.101  1.00  0.00     0.338 C 
ATOM     37  O   UNL A   1      44.595  24.111  24.319  1.00  0.00    -0.246 OA
BRANCH  36  38
ATOM     38  C   UNL A   1      43.246  24.559  26.226  1.00  0.00     0.060 A 
ATOM     39  C   UNL A   1      43.646  25.899  26.257  1.00  0.00     0.016 A 
ATOM     40  C   UNL A   1      42.353  24.073  27.188  1.00  0.00     0.016 A 
ATOM     41  C   UNL A   1      43.144  26.764  27.234  1.00  0.00     0.010 A 
ATOM     42  C   UNL A   1      41.842  24.949  28.164  1.00  0.00     0.010 A 
ATOM     43  C   UNL A   1      42.240  26.300  28.199  1.00  0.00    -0.014 A 
BRANCH  43  44
ATOM     44  C   UNL A   1      41.865  27.190  29.334  1.00  0.00     0.031 A 
ATOM     45  C   UNL A   1      40.606  28.007  29.208  1.00  0.00     0.074 A 
ATOM     46  C   UNL A   1      42.568  27.240  30.483  1.00  0.00     0.049 A 
ATOM     47  N   UNL A   1      40.030  28.786  30.087  1.00  0.00    -0.248 NA
ATOM     48  C   UNL A   1      39.900  27.923  27.919  1.00  0.00     0.031 C 
ATOM     49  C   UNL A   1      43.787  26.486  30.776  1.00  0.00     0.029 A 
ATOM     50  N   UNL A   1      42.342  27.964  31.633  1.00  0.00    -0.354 N 
ATOM     51  C   UNL A   1      38.889  29.271  29.462  1.00  0.00     0.074 A 
ATOM     52  C   UNL A   1      38.882  28.744  28.116  1.00  0.00     0.031 C 
ATOM     53  C   UNL A   1      44.199  26.788  32.022  1.00  0.00     0.029 A 
ATOM     54  C   UNL A   1      43.287  27.768  32.612  1.00  0.00     0.049 A 
ATOM     55  H   UNL A   1      41.573  28.567  31.744  1.00  0.00     0.167 HD
ATOM     56  C   UNL A   1      37.914  30.067  29.961  1.00  0.00     0.031 A 
ATOM     57  C   UNL A   1      43.408  28.317  33.840  1.00  0.00     0.031 A 
ATOM     58  C   UNL A   1      37.910  30.623  31.285  1.00  0.00     0.049 A 
ATOM     59  C   UNL A   1      42.371  29.299  34.331  1.00  0.00     0.074 A 
ATOM     60  C   UNL A   1      36.948  31.420  31.879  1.00  0.00     0.029 A 
ATOM     61  N   UNL A   1      38.925  30.457  32.211  1.00  0.00    -0.354 N 
ATOM     62  N   UNL A   1      41.262  29.690  33.754  1.00  0.00    -0.248 NA
ATOM     63  C   UNL A   1      42.605  29.911  35.650  1.00  0.00     0.031 C 
ATOM     64  C   UNL A   1      37.412  31.792  33.146  1.00  0.00     0.029 A 
ATOM     65  C   UNL A   1      38.636  31.177  33.357  1.00  0.00     0.049 A 
ATOM     66  H   UNL A   1      39.732  29.909  32.076  1.00  0.00     0.167 HD
ATOM     67  C   UNL A   1      40.656  30.570  34.645  1.00  0.00     0.074 A 
ATOM     68  C   UNL A   1      41.512  30.645  35.810  1.00  0.00     0.031 C 
ATOM     69  C   UNL A   1      39.493  31.253  34.511  1.00  0.00     0.031 A 
BRANCH  56  70
ATOM     70  C   UNL A   1      36.777  30.405  29.042  1.00  0.00    -0.014 A 
ATOM     71  C   UNL A   1      36.548  31.728  28.630  1.00  0.00     0.009 A 
ATOM     72  C   UNL A   1      35.930  29.388  28.579  1.00  0.00     0.009 A 
ATOM     73  C   UNL A   1      35.469  32.029  27.798  1.00  0.00     0.001 A 
ATOM     74  C   UNL A   1      34.868  29.690  27.726  1.00  0.00     0.001 A 
ATOM     75  C   UNL A   1      34.632  31.010  27.344  1.00  0.00     0.000 A 
ENDBRANCH  56  70
BRANCH  57  76
ATOM     76  C   UNL A   1      44.574  27.988  34.706  1.00  0.00    -0.014 A 
ATOM     77  C   UNL A   1      44.509  26.940  35.637  1.00  0.00     0.009 A 
ATOM     78  C   UNL A   1      45.739  28.771  34.651  1.00  0.00     0.009 A 
ATOM     79  C   UNL A   1      45.571  26.702  36.514  1.00  0.00     0.001 A 
ATOM     80  C   UNL A   1      46.810  28.514  35.509  1.00  0.00     0.001 A 
ATOM     81  C   UNL A   1      46.722  27.487  36.448  1.00  0.00     0.000 A 
ENDBRANCH  57  76
BRANCH  69  82
ATOM     82  C   UNL A   1      39.059  32.133  35.650  1.00  0.00    -0.014 A 
ATOM     83  C   UNL A   1      39.432  33.486  35.704  1.00  0.00     0.009 A 
ATOM     84  C   UNL A   1      38.205  31.625  36.641  1.00  0.00     0.009 A 
ATOM     85  C   UNL A   1      38.976  34.304  36.740  1.00  0.00     0.001 A 
ATOM     86  C   UNL A   1      37.727  32.452  37.659  1.00  0.00     0.001 A 
ATOM     87  C   UNL A   1      38.118  33.789  37.712  1.00  0.00     0.000 A 
ENDBRANCH  69  82
ENDBRANCH  43  44
ENDBRANCH  36  38
ENDBRANCH  35  36
ENDBRANCH  34  35
ENDBRANCH  33  34
ENDBRANCH  32  33
ENDBRANCH  31  32
ENDBRANCH   1  31
TORSDOF 20
ENDMDL
MODEL 2
REMARK VINA RESULT:     -10.9      0.359      5.634
REMARK SMILES CCc1nnc(/[NH+]=C2/S/C(=C/c3ccccc3OCCC(=O)OCCOCCOC(=O)c3ccc(-c4c5nc(c(-c6ccccc6)c6ccc([nH]6)c(-c6ccccc6)c6nc(c(-c7ccccc7)c7ccc4[nH]7)C=C6)C=C5)cc3)C(=O)N2C)s1
REMARK SMILES IDX 24 1 23 2 21 3 22 4 20 5 19 6 18 7 17 8 12 9 13 10 14 11
REMARK SMILES IDX 16 12 15 13 11 14 7 15 8 16 9 18 82 19 10 20 80 21 83 22
REMARK SMILES IDX 81 23 6 24 3 25 4 26 84 27 5 28 2 29 1 30 25 31 26 32 27 33
REMARK SMILES IDX 28 34 29 35 30 36 31 37 32 38 33 39 79 40 34 41 78 42 35 43
REMARK SMILES IDX 36 44 37 45 72 46 38 47 77 48 71 49 73 50 39 51 76 52 70 53
REMARK SMILES IDX 69 54 40 56 62 57 47 58 61 59 48 60 51 61 60 62 74 63 49 64
REMARK SMILES IDX 50 65 59 67 75 68 52 69 41 70 42 71 46 72 43 73 45 74 44 75
REMARK SMILES IDX 63 76 64 77 68 78 65 79 67 80 66 81 53 82 54 83 58 84 55 85
REMARK SMILES IDX 57 86 56 87
REMARK H PARENT 7 17 73 55 51 66
REMARK Flexibility Score: inf
ROOT
ATOM      1  C   UNL A   1      40.016  21.235  26.445  1.00  0.00     0.261 C 
ENDROOT
BRANCH   1   2
ATOM      2  O   UNL A   1      39.491  22.593  26.331  1.00  0.00    -0.463 OA
BRANCH   2   3
ATOM      3  C   UNL A   1      38.235  22.662  25.780  1.00  0.00     0.309 C 
ATOM      4  O   UNL A   1      37.678  23.742  25.707  1.00  0.00    -0.252 OA
BRANCH   3   5
ATOM      5  C   UNL A   1      37.717  21.259  25.355  1.00  0.00     0.164 C 
BRANCH   5   6
ATOM      6  C   UNL A   1      36.230  20.883  24.979  1.00  0.00     0.241 C 
BRANCH   6   7
ATOM      7  O   UNL A   1      35.131  20.760  25.917  1.00  0.00    -0.492 OA
BRANCH   7   8
ATOM      8  C   UNL A   1      33.949  20.750  25.248  1.00  0.00     0.126 A 
ATOM      9  C   UNL A   1      33.610  21.875  24.508  1.00  0.00     0.018 A 
ATOM     10  C   UNL A   1      32.813  21.606  23.408  1.00  0.00     0.012 A 
ATOM     11  C   UNL A   1      32.393  20.311  23.084  1.00  0.00     0.001 A 
ATOM     12  C   UNL A   1      33.305  19.507  25.109  1.00  0.00     0.047 A 
ATOM     13  C   UNL A   1      32.531  19.277  23.988  1.00  0.00     0.004 A 
BRANCH   9  14
ATOM     14  C   UNL A   1      34.022  23.269  24.809  1.00  0.00     0.035 C 
ATOM     15  N   UNL A   1      32.703  27.748  24.058  1.00  0.00    -0.226 N 
ATOM     16  C   UNL A   1      32.733  26.733  24.855  1.00  0.00     0.271 C 
ATOM     17  H   UNL A   1      33.522  28.223  23.789  1.00  0.00     0.268 HD
ATOM     18  S   UNL A   1      34.270  25.916  25.115  1.00  0.00    -0.012 SA
ATOM     19  N   UNL A   1      31.746  26.039  25.498  1.00  0.00    -0.222 N 
ATOM     20  C   UNL A   1      33.435  24.383  25.301  1.00  0.00     0.100 C 
ATOM     21  C   UNL A   1      32.085  24.755  25.863  1.00  0.00     0.321 C 
ATOM     22  C   UNL A   1      30.411  26.493  25.867  1.00  0.00     0.252 C 
ATOM     23  O   UNL A   1      31.338  24.094  26.567  1.00  0.00    -0.250 OA
BRANCH  15  24
ATOM     24  C   UNL A   1      31.482  28.121  23.613  1.00  0.00     0.345 A 
ATOM     25  C   UNL A   1      29.597  29.443  22.992  1.00  0.00     0.138 A 
ATOM     26  N   UNL A   1      29.680  28.333  22.291  1.00  0.00    -0.067 NA
ATOM     27  S   UNL A   1      30.754  29.567  24.249  1.00  0.00    -0.044 S 
ATOM     28  N   UNL A   1      30.744  27.546  22.686  1.00  0.00     0.023 NA
BRANCH  25  29
ATOM     29  C   UNL A   1      28.632  30.545  22.720  1.00  0.00     0.068 C 
ATOM     30  C   UNL A   1      28.139  30.505  21.286  1.00  0.00     0.012 C 
ENDBRANCH  25  29
ENDBRANCH  15  24
ENDBRANCH   9  14
ENDBRANCH   7   8
ENDBRANCH   6   7
ENDBRANCH   5   6
ENDBRANCH   3   5
ENDBRANCH   2   3
ENDBRANCH   1   2
BRANCH   1  31
ATOM     31  C   UNL A   1      40.969  20.994  27.638  1.00  0.00     0.202 C 
BRANCH  31  32
ATOM     32  O   UNL A   1      42.279  20.522  27.290  1.00  0.00    -0.374 OA
BRANCH  32  33
ATOM     33  C   UNL A   1      42.585  20.426  25.894  1.00  0.00     0.202 C 
BRANCH  33  34
ATOM     34  C   UNL A   1      43.671  21.403  25.378  1.00  0.00     0.261 C 
BRANCH  34  35
ATOM     35  O   UNL A   1      43.126  22.688  25.010  1.00  0.00    -0.460 OA
BRANCH  35  36
ATOM     36  C   UNL A   1      43.962  23.755  25.030  1.00  0.00     0.338 C 
ATOM     37  O   UNL A   1      44.823  24.033  24.233  1.00  0.00    -0.246 OA
BRANCH  36  38
ATOM     38  C   UNL A   1      43.484  24.683  26.089  1.00  0.00     0.060 A 
ATOM     39  C   UNL A   1      42.584  24.161  27.024  1.00  0.00     0.016 A 
ATOM     40  C   UNL A   1      43.939  26.000  26.216  1.00  0.00     0.016 A 
ATOM     41  C   UNL A   1      42.149  24.941  28.099  1.00  0.00     0.010 A 
ATOM     42  C   UNL A   1      43.507  26.780  27.305  1.00  0.00     0.010 A 
ATOM     43  C   UNL A   1      42.602  26.259  28.251  1.00  0.00    -0.014 A 
BRANCH  43  44
ATOM     44  C   UNL A   1      41.985  27.126  29.294  1.00  0.00     0.031 A 
ATOM     45  C   UNL A   1      42.674  27.228  30.629  1.00  0.00     0.074 A 
ATOM     46  C   UNL A   1      40.881  27.866  29.066  1.00  0.00     0.049 A 
ATOM     47  N   UNL A   1      42.379  27.977  31.661  1.00  0.00    -0.248 NA
ATOM     48  C   UNL A   1      43.859  26.377  30.818  1.00  0.00     0.031 C 
ATOM     49  C   UNL A   1      40.119  27.906  27.818  1.00  0.00     0.029 A 
ATOM     50  N   UNL A   1      40.211  28.742  29.892  1.00  0.00    -0.354 N 
ATOM     51  C   UNL A   1      43.351  27.697  32.613  1.00  0.00     0.074 A 
ATOM     52  C   UNL A   1      44.209  26.674  32.059  1.00  0.00     0.031 C 
ATOM     53  C   UNL A   1      39.088  28.761  27.963  1.00  0.00     0.029 A 
ATOM     54  C   UNL A   1      39.104  29.318  29.316  1.00  0.00     0.049 A 
ATOM     55  H   UNL A   1      40.501  28.938  30.812  1.00  0.00     0.167 HD
ATOM     56  C   UNL A   1      43.535  28.252  33.833  1.00  0.00     0.031 A 
ATOM     57  C   UNL A   1      38.203  30.188  29.820  1.00  0.00     0.031 A 
ATOM     58  C   UNL A   1      42.684  29.252  34.415  1.00  0.00     0.049 A 
ATOM     59  C   UNL A   1      38.362  30.703  31.231  1.00  0.00     0.074 A 
ATOM     60  C   UNL A   1      42.814  29.885  35.638  1.00  0.00     0.029 A 
ATOM     61  N   UNL A   1      41.534  29.746  33.825  1.00  0.00    -0.354 N 
ATOM     62  N   UNL A   1      39.326  30.482  32.090  1.00  0.00    -0.248 NA
ATOM     63  C   UNL A   1      37.303  31.594  31.738  1.00  0.00     0.031 C 
ATOM     64  C   UNL A   1      41.704  30.718  35.817  1.00  0.00     0.029 A 
ATOM     65  C   UNL A   1      40.917  30.643  34.679  1.00  0.00     0.049 A 
ATOM     66  H   UNL A   1      41.204  29.497  32.931  1.00  0.00     0.167 HD
ATOM     67  C   UNL A   1      39.005  31.222  33.223  1.00  0.00     0.074 A 
ATOM     68  C   UNL A   1      37.765  31.911  32.940  1.00  0.00     0.031 C 
ATOM     69  C   UNL A   1      39.681  31.322  34.394  1.00  0.00     0.031 A 
BRANCH  56  70
ATOM     70  C   UNL A   1      44.704  27.756  34.635  1.00  0.00    -0.014 A 
ATOM     71  C   UNL A   1      44.574  26.658  35.500  1.00  0.00     0.009 A 
ATOM     72  C   UNL A   1      45.948  28.391  34.517  1.00  0.00     0.009 A 
ATOM     73  C   UNL A   1      45.663  26.228  36.259  1.00  0.00     0.001 A 
ATOM     74  C   UNL A   1      47.042  27.942  35.257  1.00  0.00     0.001 A 
ATOM     75  C   UNL A   1      46.896  26.868  36.135  1.00  0.00     0.000 A 
ENDBRANCH  56  70
BRANCH  57  76
ATOM     76  C   UNL A   1      37.034  30.624  29.008  1.00  0.00    -0.014 A 
ATOM     77  C   UNL A   1      36.897  31.960  28.598  1.00  0.00     0.009 A 
ATOM     78  C   UNL A   1      36.010  29.714  28.697  1.00  0.00     0.009 A 
ATOM     79  C   UNL A   1      35.747  32.380  27.922  1.00  0.00     0.001 A 
ATOM     80  C   UNL A   1      34.876  30.131  27.997  1.00  0.00     0.001 A 
ATOM     81  C   UNL A   1      34.739  31.466  27.619  1.00  0.00     0.000 A 
ENDBRANCH  57  76
BRANCH  69  82
ATOM     82  C   UNL A   1      39.111  32.217  35.460  1.00  0.00    -0.014 A 
ATOM     83  C   UNL A   1      38.270  31.707  36.462  1.00  0.00     0.009 A 
ATOM     84  C   UNL A   1      39.480  33.570  35.508  1.00  0.00     0.009 A 
ATOM     85  C   UNL A   1      37.793  32.541  37.476  1.00  0.00     0.001 A 
ATOM     86  C   UNL A   1      39.026  34.395  36.539  1.00  0.00     0.001 A 
ATOM     87  C   UNL A   1      38.178  33.882  37.519  1.00  0.00     0.000 A 
ENDBRANCH  69  82
ENDBRANCH  43  44
ENDBRANCH  36  38
ENDBRANCH  35  36
ENDBRANCH  34  35
ENDBRANCH  33  34
ENDBRANCH  32  33
ENDBRANCH  31  32
ENDBRANCH   1  31
TORSDOF 20
ENDMDL
MODEL 3
REMARK VINA RESULT:     -10.7      1.637      5.878
REMARK SMILES CCc1nnc(/[NH+]=C2/S/C(=C/c3ccccc3OCCC(=O)OCCOCCOC(=O)c3ccc(-c4c5nc(c(-c6ccccc6)c6ccc([nH]6)c(-c6ccccc6)c6nc(c(-c7ccccc7)c7ccc4[nH]7)C=C6)C=C5)cc3)C(=O)N2C)s1
REMARK SMILES IDX 24 1 23 2 21 3 22 4 20 5 19 6 18 7 17 8 12 9 13 10 14 11
REMARK SMILES IDX 16 12 15 13 11 14 7 15 8 16 9 18 82 19 10 20 80 21 83 22
REMARK SMILES IDX 81 23 6 24 3 25 4 26 84 27 5 28 2 29 1 30 25 31 26 32 27 33
REMARK SMILES IDX 28 34 29 35 30 36 31 37 32 38 33 39 79 40 34 41 78 42 35 43
REMARK SMILES IDX 36 44 37 45 72 46 38 47 77 48 71 49 73 50 39 51 76 52 70 53
REMARK SMILES IDX 69 54 40 56 62 57 47 58 61 59 48 60 51 61 60 62 74 63 49 64
REMARK SMILES IDX 50 65 59 67 75 68 52 69 41 70 42 71 46 72 43 73 45 74 44 75
REMARK SMILES IDX 63 76 64 77 68 78 65 79 67 80 66 81 53 82 54 83 58 84 55 85
REMARK SMILES IDX 57 86 56 87
REMARK H PARENT 7 17 73 55 51 66
REMARK Flexibility Score: inf
ROOT
ATOM      1  C   UNL A   1      40.265  22.181  26.550  1.00  0.00     0.261 C 
ENDROOT
BRANCH   1   2
ATOM      2  O   UNL A   1      38.866  21.942  26.207  1.00  0.00    -0.463 OA
BRANCH   2   3
ATOM      3  C   UNL A   1      38.144  23.086  25.973  1.00  0.00     0.309 C 
ATOM      4  O   UNL A   1      38.234  24.016  26.754  1.00  0.00    -0.252 OA
BRANCH   3   5
ATOM      5  C   UNL A   1      37.271  22.962  24.691  1.00  0.00     0.164 C 
BRANCH   5   6
ATOM      6  C   UNL A   1      36.313  21.763  24.323  1.00  0.00     0.241 C 
BRANCH   6   7
ATOM      7  O   UNL A   1      34.932  21.629  24.746  1.00  0.00    -0.492 OA
BRANCH   7   8
ATOM      8  C   UNL A   1      34.647  20.325  24.993  1.00  0.00     0.126 A 
ATOM      9  C   UNL A   1      33.311  19.950  25.055  1.00  0.00     0.018 A 
ATOM     10  C   UNL A   1      33.075  18.640  24.671  1.00  0.00     0.012 A 
ATOM     11  C   UNL A   1      34.102  17.782  24.262  1.00  0.00     0.001 A 
ATOM     12  C   UNL A   1      35.705  19.406  24.872  1.00  0.00     0.047 A 
ATOM     13  C   UNL A   1      35.426  18.114  24.472  1.00  0.00     0.004 A 
BRANCH   9  14
ATOM     14  C   UNL A   1      32.184  20.816  25.486  1.00  0.00     0.035 C 
ATOM     15  N   UNL A   1      31.176  25.323  26.499  1.00  0.00    -0.226 N 
ATOM     16  C   UNL A   1      31.138  24.357  25.644  1.00  0.00     0.271 C 
ATOM     17  H   UNL A   1      30.659  25.296  27.337  1.00  0.00     0.268 HD
ATOM     18  S   UNL A   1      30.519  22.795  26.168  1.00  0.00    -0.012 SA
ATOM     19  N   UNL A   1      31.610  24.242  24.366  1.00  0.00    -0.222 N 
ATOM     20  C   UNL A   1      31.628  21.978  25.080  1.00  0.00     0.100 C 
ATOM     21  C   UNL A   1      31.822  22.949  23.941  1.00  0.00     0.321 C 
ATOM     22  C   UNL A   1      31.882  25.300  23.401  1.00  0.00     0.252 C 
ATOM     23  O   UNL A   1      32.102  22.719  22.775  1.00  0.00    -0.250 OA
BRANCH  15  24
ATOM     24  C   UNL A   1      31.964  26.374  26.180  1.00  0.00     0.345 A 
ATOM     25  C   UNL A   1      32.760  28.595  25.839  1.00  0.00     0.138 A 
ATOM     26  N   UNL A   1      33.734  27.752  26.107  1.00  0.00    -0.067 NA
ATOM     27  S   UNL A   1      31.225  27.858  25.654  1.00  0.00    -0.044 S 
ATOM     28  N   UNL A   1      33.276  26.458  26.255  1.00  0.00     0.023 NA
BRANCH  25  29
ATOM     29  C   UNL A   1      32.923  30.074  25.747  1.00  0.00     0.068 C 
ATOM     30  C   UNL A   1      31.722  30.799  26.324  1.00  0.00     0.012 C 
ENDBRANCH  25  29
ENDBRANCH  15  24
ENDBRANCH   9  14
ENDBRANCH   7   8
ENDBRANCH   6   7
ENDBRANCH   5   6
ENDBRANCH   3   5
ENDBRANCH   2   3
ENDBRANCH   1   2
BRANCH   1  31
ATOM     31  C   UNL A   1      41.074  20.923  26.939  1.00  0.00     0.202 C 
BRANCH  31  32
ATOM     32  O   UNL A   1      42.499  21.087  26.945  1.00  0.00    -0.374 OA
BRANCH  32  33
ATOM     33  C   UNL A   1      43.196  20.758  25.738  1.00  0.00     0.202 C 
BRANCH  33  34
ATOM     34  C   UNL A   1      44.100  21.874  25.159  1.00  0.00     0.261 C 
BRANCH  34  35
ATOM     35  O   UNL A   1      43.427  23.149  25.090  1.00  0.00    -0.460 OA
BRANCH  35  36
ATOM     36  C   UNL A   1      44.168  24.264  25.304  1.00  0.00     0.338 C 
ATOM     37  O   UNL A   1      45.084  24.680  24.641  1.00  0.00    -0.246 OA
BRANCH  36  38
ATOM     38  C   UNL A   1      43.506  25.046  26.381  1.00  0.00     0.060 A 
ATOM     39  C   UNL A   1      43.770  26.419  26.416  1.00  0.00     0.016 A 
ATOM     40  C   UNL A   1      42.605  24.485  27.293  1.00  0.00     0.016 A 
ATOM     41  C   UNL A   1      43.124  27.241  27.345  1.00  0.00     0.010 A 
ATOM     42  C   UNL A   1      41.949  25.315  28.221  1.00  0.00     0.010 A 
ATOM     43  C   UNL A   1      42.210  26.700  28.259  1.00  0.00    -0.014 A 
BRANCH  43  44
ATOM     44  C   UNL A   1      41.677  27.559  29.353  1.00  0.00     0.031 A 
ATOM     45  C   UNL A   1      42.378  27.527  30.685  1.00  0.00     0.074 A 
ATOM     46  C   UNL A   1      40.642  28.405  29.176  1.00  0.00     0.049 A 
ATOM     47  N   UNL A   1      42.156  28.241  31.759  1.00  0.00    -0.248 NA
ATOM     48  C   UNL A   1      43.485  26.566  30.817  1.00  0.00     0.031 C 
ATOM     49  C   UNL A   1      39.880  28.580  27.940  1.00  0.00     0.029 A 
ATOM     50  N   UNL A   1      40.056  29.289  30.054  1.00  0.00    -0.354 N 
ATOM     51  C   UNL A   1      43.103  27.825  32.685  1.00  0.00     0.074 A 
ATOM     52  C   UNL A   1      43.865  26.762  32.069  1.00  0.00     0.031 C 
ATOM     53  C   UNL A   1      38.929  29.513  28.140  1.00  0.00     0.029 A 
ATOM     54  C   UNL A   1      39.000  29.991  29.521  1.00  0.00     0.049 A 
ATOM     55  H   UNL A   1      40.366  29.408  30.981  1.00  0.00     0.167 HD
ATOM     56  C   UNL A   1      43.341  28.293  33.932  1.00  0.00     0.031 A 
ATOM     57  C   UNL A   1      38.183  30.908  30.081  1.00  0.00     0.031 A 
ATOM     58  C   UNL A   1      42.584  29.330  34.575  1.00  0.00     0.049 A 
ATOM     59  C   UNL A   1      38.392  31.328  31.515  1.00  0.00     0.074 A 
ATOM     60  C   UNL A   1      42.775  29.881  35.830  1.00  0.00     0.029 A 
ATOM     61  N   UNL A   1      41.480  29.955  34.024  1.00  0.00    -0.354 N 
ATOM     62  N   UNL A   1      39.337  30.977  32.352  1.00  0.00    -0.248 NA
ATOM     63  C   UNL A   1      37.419  32.279  32.081  1.00  0.00     0.031 C 
ATOM     64  C   UNL A   1      41.744  30.797  36.064  1.00  0.00     0.029 A 
ATOM     65  C   UNL A   1      40.948  30.854  34.932  1.00  0.00     0.049 A 
ATOM     66  H   UNL A   1      41.125  29.786  33.121  1.00  0.00     0.167 HD
ATOM     67  C   UNL A   1      39.088  31.679  33.527  1.00  0.00     0.074 A 
ATOM     68  C   UNL A   1      37.913  32.489  33.294  1.00  0.00     0.031 C 
ATOM     69  C   UNL A   1      39.775  31.654  34.696  1.00  0.00     0.031 A 
BRANCH  56  70
ATOM     70  C   UNL A   1      44.465  27.653  34.694  1.00  0.00    -0.014 A 
ATOM     71  C   UNL A   1      45.799  28.035  34.474  1.00  0.00     0.009 A 
ATOM     72  C   UNL A   1      44.185  26.664  35.647  1.00  0.00     0.009 A 
ATOM     73  C   UNL A   1      46.833  27.410  35.171  1.00  0.00     0.001 A 
ATOM     74  C   UNL A   1      45.221  26.060  36.361  1.00  0.00     0.001 A 
ATOM     75  C   UNL A   1      46.543  26.425  36.115  1.00  0.00     0.000 A 
ENDBRANCH  56  70
BRANCH  57  76
ATOM     76  C   UNL A   1      37.052  31.489  29.304  1.00  0.00    -0.014 A 
ATOM     77  C   UNL A   1      37.142  32.776  28.751  1.00  0.00     0.009 A 
ATOM     78  C   UNL A   1      35.847  30.780  29.173  1.00  0.00     0.009 A 
ATOM     79  C   UNL A   1      36.041  33.352  28.110  1.00  0.00     0.001 A 
ATOM     80  C   UNL A   1      34.758  31.347  28.507  1.00  0.00     0.001 A 
ATOM     81  C   UNL A   1      34.851  32.636  27.986  1.00  0.00     0.000 A 
ENDBRANCH  57  76
BRANCH  69  82
ATOM     82  C   UNL A   1      39.292  32.536  35.814  1.00  0.00    -0.014 A 
ATOM     83  C   UNL A   1      38.347  32.075  36.744  1.00  0.00     0.009 A 
ATOM     84  C   UNL A   1      39.843  33.815  35.985  1.00  0.00     0.009 A 
ATOM     85  C   UNL A   1      37.949  32.887  37.809  1.00  0.00     0.001 A 
ATOM     86  C   UNL A   1      39.466  34.614  37.066  1.00  0.00     0.001 A 
ATOM     87  C   UNL A   1      38.514  34.152  37.973  1.00  0.00     0.000 A 
ENDBRANCH  69  82
ENDBRANCH  43  44
ENDBRANCH  36  38
ENDBRANCH  35  36
ENDBRANCH  34  35
ENDBRANCH  33  34
ENDBRANCH  32  33
ENDBRANCH  31  32
ENDBRANCH   1  31
TORSDOF 20
ENDMDL
