MODEL 1
REMARK VINA RESULT:     -12.3      0.000      0.000
REMARK SMILES CS(=O)(=O)c1ccc(-n2nc(C(F)(F)F)cc2-c2ccc(CC(=O)OCCOCCOC(=O)c3ccc(-c4c5nc(c(-c6ccccc6)c6ccc([nH]6)c(-c6ccccc6)c6nc(c(-c7ccccc7)c7ccc4[nH]7)C=C6)C=C5)cc3)cc2)cc1
REMARK SMILES IDX 27 1 26 2 25 3 23 4 24 5 22 6 21 7 18 8 19 9 83 10 20 11
REMARK SMILES IDX 82 12 17 13 9 14 10 15 11 16 16 17 8 18 5 19 6 20 85 21 7 22
REMARK SMILES IDX 84 23 2 24 1 25 3 26 4 27 12 28 13 29 14 30 15 31 28 32
REMARK SMILES IDX 29 33 30 34 31 35 32 36 33 37 34 38 35 39 81 40 36 41 80 42
REMARK SMILES IDX 37 43 38 44 39 45 74 46 40 47 79 48 73 49 75 50 41 51 78 52
REMARK SMILES IDX 72 53 71 54 42 56 64 57 49 58 63 59 50 60 53 61 62 62 76 63
REMARK SMILES IDX 51 64 52 65 61 67 77 68 54 69 43 70 44 71 48 72 45 73 47 74
REMARK SMILES IDX 46 75 65 76 66 77 70 78 67 79 69 80 68 81 55 82 56 83 60 84
REMARK SMILES IDX 57 85 59 86 58 87
REMARK H PARENT 75 55 53 66
REMARK Flexibility Score: inf
ROOT
ATOM      1  C   UNL A   1      41.898  20.401  27.606  1.00  0.00     0.202 C 
ENDROOT
BRANCH   1   2
ATOM      2  C   UNL A   1      40.931  20.874  26.510  1.00  0.00     0.261 C 
BRANCH   2   3
ATOM      3  O   UNL A   1      40.078  21.983  26.844  1.00  0.00    -0.463 OA
BRANCH   3   4
ATOM      4  C   UNL A   1      38.942  22.065  26.096  1.00  0.00     0.310 C 
ATOM      5  O   UNL A   1      38.431  21.115  25.510  1.00  0.00    -0.252 OA
BRANCH   4   6
ATOM      6  C   UNL A   1      38.399  23.463  25.937  1.00  0.00     0.158 C 
BRANCH   6   7
ATOM      7  C   UNL A   1      36.955  23.659  25.539  1.00  0.00    -0.037 A 
ATOM      8  C   UNL A   1      34.321  24.298  24.746  1.00  0.00     0.000 A 
ATOM      9  C   UNL A   1      35.280  23.910  23.801  1.00  0.00     0.010 A 
ATOM     10  C   UNL A   1      34.693  24.369  26.093  1.00  0.00     0.010 A 
ATOM     11  C   UNL A   1      36.577  23.581  24.193  1.00  0.00     0.005 A 
ATOM     12  C   UNL A   1      35.998  24.047  26.486  1.00  0.00     0.005 A 
BRANCH   8  13
ATOM     13  C   UNL A   1      32.966  24.653  24.321  1.00  0.00     0.075 A 
ATOM     14  N   UNL A   1      32.017  23.789  23.766  1.00  0.00    -0.233 N 
ATOM     15  N   UNL A   1      30.961  24.482  23.250  1.00  0.00    -0.163 NA
ATOM     16  C   UNL A   1      31.153  25.761  23.625  1.00  0.00     0.167 A 
ATOM     17  C   UNL A   1      32.390  25.908  24.290  1.00  0.00     0.064 A 
BRANCH  14  18
ATOM     18  C   UNL A   1      31.983  22.357  23.792  1.00  0.00     0.065 A 
ATOM     19  C   UNL A   1      32.341  19.557  23.801  1.00  0.00     0.067 A 
ATOM     20  C   UNL A   1      32.229  20.245  22.603  1.00  0.00     0.022 A 
ATOM     21  C   UNL A   1      32.227  20.256  25.007  1.00  0.00     0.022 A 
ATOM     22  C   UNL A   1      32.023  21.631  22.595  1.00  0.00     0.030 A 
ATOM     23  C   UNL A   1      32.066  21.655  25.003  1.00  0.00     0.030 A 
BRANCH  19  24
ATOM     24  S   UNL A   1      32.747  17.822  23.829  1.00  0.00     0.175 S 
ATOM     25  C   UNL A   1      34.479  17.668  24.185  1.00  0.00     0.163 C 
ATOM     26  O   UNL A   1      32.534  17.345  22.478  1.00  0.00    -0.224 OA
ATOM     27  O   UNL A   1      32.035  17.251  24.956  1.00  0.00    -0.224 OA
ENDBRANCH  19  24
ENDBRANCH  14  18
BRANCH  16  28
ATOM     28  C   UNL A   1      30.181  26.879  23.348  1.00  0.00     0.435 C 
ATOM     29  F   UNL A   1      30.314  27.416  22.109  1.00  0.00    -0.164 F 
ATOM     30  F   UNL A   1      28.889  26.469  23.471  1.00  0.00    -0.164 F 
ATOM     31  F   UNL A   1      30.332  27.906  24.231  1.00  0.00    -0.164 F 
ENDBRANCH  16  28
ENDBRANCH   8  13
ENDBRANCH   6   7
ENDBRANCH   4   6
ENDBRANCH   3   4
ENDBRANCH   2   3
ENDBRANCH   1   2
BRANCH   1  32
ATOM     32  O   UNL A   1      42.268  19.034  27.632  1.00  0.00    -0.374 OA
BRANCH  32  33
ATOM     33  C   UNL A   1      42.438  18.373  26.387  1.00  0.00     0.202 C 
BRANCH  33  34
ATOM     34  C   UNL A   1      43.775  18.528  25.673  1.00  0.00     0.261 C 
BRANCH  34  35
ATOM     35  O   UNL A   1      43.747  19.444  24.558  1.00  0.00    -0.460 OA
BRANCH  35  36
ATOM     36  C   UNL A   1      44.952  19.737  24.004  1.00  0.00     0.338 C 
ATOM     37  O   UNL A   1      45.809  18.933  23.661  1.00  0.00    -0.246 OA
BRANCH  36  38
ATOM     38  C   UNL A   1      45.268  21.159  24.258  1.00  0.00     0.060 A 
ATOM     39  C   UNL A   1      45.964  21.404  25.444  1.00  0.00     0.016 A 
ATOM     40  C   UNL A   1      44.600  22.199  23.597  1.00  0.00     0.016 A 
ATOM     41  C   UNL A   1      45.784  22.615  26.089  1.00  0.00     0.010 A 
ATOM     42  C   UNL A   1      44.428  23.421  24.250  1.00  0.00     0.010 A 
ATOM     43  C   UNL A   1      44.937  23.589  25.539  1.00  0.00    -0.014 A 
BRANCH  43  44
ATOM     44  C   UNL A   1      44.767  24.825  26.308  1.00  0.00     0.031 A 
ATOM     45  C   UNL A   1      45.985  25.631  26.338  1.00  0.00     0.074 A 
ATOM     46  C   UNL A   1      43.693  25.238  27.014  1.00  0.00     0.049 A 
ATOM     47  N   UNL A   1      46.748  25.774  27.368  1.00  0.00    -0.248 NA
ATOM     48  C   UNL A   1      46.490  26.203  25.088  1.00  0.00     0.031 C 
ATOM     49  C   UNL A   1      42.420  24.558  27.062  1.00  0.00     0.029 A 
ATOM     50  N   UNL A   1      43.467  26.340  27.809  1.00  0.00    -0.354 N 
ATOM     51  C   UNL A   1      47.684  26.701  26.968  1.00  0.00     0.074 A 
ATOM     52  C   UNL A   1      47.608  26.783  25.526  1.00  0.00     0.031 C 
ATOM     53  C   UNL A   1      41.482  25.317  27.655  1.00  0.00     0.029 A 
ATOM     54  C   UNL A   1      42.130  26.504  28.172  1.00  0.00     0.049 A 
ATOM     55  H   UNL A   1      44.182  26.952  28.095  1.00  0.00     0.167 HD
ATOM     56  C   UNL A   1      48.130  27.613  27.863  1.00  0.00     0.031 A 
ATOM     57  C   UNL A   1      41.529  27.465  28.916  1.00  0.00     0.031 A 
ATOM     58  C   UNL A   1      47.953  27.213  29.236  1.00  0.00     0.049 A 
ATOM     59  C   UNL A   1      42.517  27.984  29.874  1.00  0.00     0.074 A 
ATOM     60  C   UNL A   1      48.554  26.334  30.110  1.00  0.00     0.029 A 
ATOM     61  N   UNL A   1      46.759  27.579  29.797  1.00  0.00    -0.354 N 
ATOM     62  N   UNL A   1      42.902  27.320  30.926  1.00  0.00    -0.248 NA
ATOM     63  C   UNL A   1      43.299  29.172  29.555  1.00  0.00     0.031 C 
ATOM     64  C   UNL A   1      47.646  26.134  31.192  1.00  0.00     0.029 A 
ATOM     65  C   UNL A   1      46.503  26.889  30.956  1.00  0.00     0.049 A 
ATOM     66  H   UNL A   1      46.156  28.256  29.414  1.00  0.00     0.167 HD
ATOM     67  C   UNL A   1      44.202  27.736  31.116  1.00  0.00     0.074 A 
ATOM     68  C   UNL A   1      44.325  28.989  30.388  1.00  0.00     0.031 C 
ATOM     69  C   UNL A   1      45.165  26.857  31.507  1.00  0.00     0.031 A 
BRANCH  56  70
ATOM     70  C   UNL A   1      48.210  29.059  27.469  1.00  0.00    -0.014 A 
ATOM     71  C   UNL A   1      49.413  29.749  27.642  1.00  0.00     0.009 A 
ATOM     72  C   UNL A   1      47.058  29.824  27.174  1.00  0.00     0.009 A 
ATOM     73  C   UNL A   1      49.463  31.141  27.503  1.00  0.00     0.001 A 
ATOM     74  C   UNL A   1      47.113  31.204  26.993  1.00  0.00     0.001 A 
ATOM     75  C   UNL A   1      48.319  31.865  27.170  1.00  0.00     0.000 A 
ENDBRANCH  56  70
BRANCH  57  76
ATOM     76  C   UNL A   1      40.113  27.895  28.942  1.00  0.00    -0.014 A 
ATOM     77  C   UNL A   1      39.364  27.870  30.130  1.00  0.00     0.009 A 
ATOM     78  C   UNL A   1      39.560  28.570  27.841  1.00  0.00     0.009 A 
ATOM     79  C   UNL A   1      38.134  28.537  30.224  1.00  0.00     0.001 A 
ATOM     80  C   UNL A   1      38.329  29.230  27.933  1.00  0.00     0.001 A 
ATOM     81  C   UNL A   1      37.625  29.230  29.130  1.00  0.00     0.000 A 
ENDBRANCH  57  76
BRANCH  69  82
ATOM     82  C   UNL A   1      44.747  25.707  32.375  1.00  0.00    -0.014 A 
ATOM     83  C   UNL A   1      44.510  25.816  33.754  1.00  0.00     0.009 A 
ATOM     84  C   UNL A   1      44.560  24.458  31.760  1.00  0.00     0.009 A 
ATOM     85  C   UNL A   1      44.115  24.698  34.499  1.00  0.00     0.001 A 
ATOM     86  C   UNL A   1      44.153  23.346  32.500  1.00  0.00     0.001 A 
ATOM     87  C   UNL A   1      43.936  23.466  33.870  1.00  0.00     0.000 A 
ENDBRANCH  69  82
ENDBRANCH  43  44
ENDBRANCH  36  38
ENDBRANCH  35  36
ENDBRANCH  34  35
ENDBRANCH  33  34
ENDBRANCH  32  33
ENDBRANCH   1  32
TORSDOF 19
ENDMDL
MODEL 2
REMARK VINA RESULT:     -11.3      5.170      9.142
REMARK SMILES CS(=O)(=O)c1ccc(-n2nc(C(F)(F)F)cc2-c2ccc(CC(=O)OCCOCCOC(=O)c3ccc(-c4c5nc(c(-c6ccccc6)c6ccc([nH]6)c(-c6ccccc6)c6nc(c(-c7ccccc7)c7ccc4[nH]7)C=C6)C=C5)cc3)cc2)cc1
REMARK SMILES IDX 27 1 26 2 25 3 23 4 24 5 22 6 21 7 18 8 19 9 83 10 20 11
REMARK SMILES IDX 82 12 17 13 9 14 10 15 11 16 16 17 8 18 5 19 6 20 85 21 7 22
REMARK SMILES IDX 84 23 2 24 1 25 3 26 4 27 12 28 13 29 14 30 15 31 28 32
REMARK SMILES IDX 29 33 30 34 31 35 32 36 33 37 34 38 35 39 81 40 36 41 80 42
REMARK SMILES IDX 37 43 38 44 39 45 74 46 40 47 79 48 73 49 75 50 41 51 78 52
REMARK SMILES IDX 72 53 71 54 42 56 64 57 49 58 63 59 50 60 53 61 62 62 76 63
REMARK SMILES IDX 51 64 52 65 61 67 77 68 54 69 43 70 44 71 48 72 45 73 47 74
REMARK SMILES IDX 46 75 65 76 66 77 70 78 67 79 69 80 68 81 55 82 56 83 60 84
REMARK SMILES IDX 57 85 59 86 58 87
REMARK H PARENT 75 55 53 66
REMARK Flexibility Score: inf
ROOT
ATOM      1  C   UNL A   1      33.601  34.774  29.410  1.00  0.00     0.202 C 
ENDROOT
BRANCH   1   2
ATOM      2  C   UNL A   1      33.557  33.914  28.138  1.00  0.00     0.261 C 
BRANCH   2   3
ATOM      3  O   UNL A   1      34.253  32.656  28.191  1.00  0.00    -0.463 OA
BRANCH   3   4
ATOM      4  C   UNL A   1      33.560  31.608  27.664  1.00  0.00     0.310 C 
ATOM      5  O   UNL A   1      32.458  31.705  27.132  1.00  0.00    -0.252 OA
BRANCH   4   6
ATOM      6  C   UNL A   1      34.204  30.261  27.882  1.00  0.00     0.158 C 
BRANCH   6   7
ATOM      7  C   UNL A   1      33.750  29.078  27.061  1.00  0.00    -0.037 A 
ATOM      8  C   UNL A   1      33.060  26.704  25.697  1.00  0.00     0.000 A 
ATOM      9  C   UNL A   1      32.322  27.132  26.807  1.00  0.00     0.010 A 
ATOM     10  C   UNL A   1      34.152  27.471  25.277  1.00  0.00     0.010 A 
ATOM     11  C   UNL A   1      32.653  28.312  27.473  1.00  0.00     0.005 A 
ATOM     12  C   UNL A   1      34.490  28.651  25.950  1.00  0.00     0.005 A 
BRANCH   8  13
ATOM     13  C   UNL A   1      32.710  25.456  25.013  1.00  0.00     0.075 A 
ATOM     14  N   UNL A   1      31.560  25.221  24.254  1.00  0.00    -0.233 N 
ATOM     15  N   UNL A   1      31.418  23.894  23.973  1.00  0.00    -0.163 NA
ATOM     16  C   UNL A   1      32.555  23.312  24.402  1.00  0.00     0.167 A 
ATOM     17  C   UNL A   1      33.382  24.251  25.057  1.00  0.00     0.064 A 
BRANCH  14  18
ATOM     18  C   UNL A   1      30.653  26.170  23.680  1.00  0.00     0.065 A 
ATOM     19  C   UNL A   1      28.953  28.280  22.890  1.00  0.00     0.067 A 
ATOM     20  C   UNL A   1      28.493  27.294  23.749  1.00  0.00     0.022 A 
ATOM     21  C   UNL A   1      30.252  28.195  22.380  1.00  0.00     0.022 A 
ATOM     22  C   UNL A   1      29.326  26.229  24.121  1.00  0.00     0.030 A 
ATOM     23  C   UNL A   1      31.106  27.152  22.787  1.00  0.00     0.030 A 
BRANCH  19  24
ATOM     24  S   UNL A   1      27.959  29.714  22.524  1.00  0.00     0.175 S 
ATOM     25  C   UNL A   1      28.651  31.099  23.392  1.00  0.00     0.163 C 
ATOM     26  O   UNL A   1      26.655  29.447  23.095  1.00  0.00    -0.224 OA
ATOM     27  O   UNL A   1      28.128  29.980  21.109  1.00  0.00    -0.224 OA
ENDBRANCH  19  24
ENDBRANCH  14  18
BRANCH  16  28
ATOM     28  C   UNL A   1      32.879  21.851  24.219  1.00  0.00     0.435 C 
ATOM     29  F   UNL A   1      32.308  21.305  23.115  1.00  0.00    -0.164 F 
ATOM     30  F   UNL A   1      34.219  21.637  24.127  1.00  0.00    -0.164 F 
ATOM     31  F   UNL A   1      32.455  21.107  25.279  1.00  0.00    -0.164 F 
ENDBRANCH  16  28
ENDBRANCH   8  13
ENDBRANCH   6   7
ENDBRANCH   4   6
ENDBRANCH   3   4
ENDBRANCH   2   3
ENDBRANCH   1   2
BRANCH   1  32
ATOM     32  O   UNL A   1      33.704  34.119  30.662  1.00  0.00    -0.374 OA
BRANCH  32  33
ATOM     33  C   UNL A   1      34.851  34.390  31.455  1.00  0.00     0.202 C 
BRANCH  33  34
ATOM     34  C   UNL A   1      35.890  33.286  31.608  1.00  0.00     0.261 C 
BRANCH  34  35
ATOM     35  O   UNL A   1      36.795  33.167  30.490  1.00  0.00    -0.460 OA
BRANCH  35  36
ATOM     36  C   UNL A   1      38.118  33.248  30.790  1.00  0.00     0.338 C 
ATOM     37  O   UNL A   1      38.711  34.237  31.198  1.00  0.00    -0.246 OA
BRANCH  36  38
ATOM     38  C   UNL A   1      38.825  32.110  30.163  1.00  0.00     0.060 A 
ATOM     39  C   UNL A   1      38.075  30.936  30.060  1.00  0.00     0.016 A 
ATOM     40  C   UNL A   1      40.221  32.076  30.046  1.00  0.00     0.016 A 
ATOM     41  C   UNL A   1      38.731  29.718  30.092  1.00  0.00     0.010 A 
ATOM     42  C   UNL A   1      40.876  30.843  30.071  1.00  0.00     0.010 A 
ATOM     43  C   UNL A   1      40.129  29.671  30.194  1.00  0.00    -0.014 A 
BRANCH  43  44
ATOM     44  C   UNL A   1      40.740  28.340  30.267  1.00  0.00     0.031 A 
ATOM     45  C   UNL A   1      41.595  28.188  31.442  1.00  0.00     0.074 A 
ATOM     46  C   UNL A   1      40.664  27.327  29.378  1.00  0.00     0.049 A 
ATOM     47  N   UNL A   1      42.883  28.147  31.415  1.00  0.00    -0.248 NA
ATOM     48  C   UNL A   1      40.988  28.237  32.774  1.00  0.00     0.031 C 
ATOM     49  C   UNL A   1      39.848  27.329  28.187  1.00  0.00     0.029 A 
ATOM     50  N   UNL A   1      41.248  26.081  29.333  1.00  0.00    -0.354 N 
ATOM     51  C   UNL A   1      43.240  27.872  32.716  1.00  0.00     0.074 A 
ATOM     52  C   UNL A   1      42.077  28.130  33.536  1.00  0.00     0.031 C 
ATOM     53  C   UNL A   1      39.801  26.107  27.625  1.00  0.00     0.029 A 
ATOM     54  C   UNL A   1      40.718  25.249  28.345  1.00  0.00     0.049 A 
ATOM     55  H   UNL A   1      41.972  25.804  29.939  1.00  0.00     0.167 HD
ATOM     56  C   UNL A   1      44.300  27.064  32.950  1.00  0.00     0.031 A 
ATOM     57  C   UNL A   1      41.017  23.969  28.016  1.00  0.00     0.031 A 
ATOM     58  C   UNL A   1      45.222  26.982  31.845  1.00  0.00     0.049 A 
ATOM     59  C   UNL A   1      42.425  23.725  28.365  1.00  0.00     0.074 A 
ATOM     60  C   UNL A   1      46.193  27.786  31.288  1.00  0.00     0.029 A 
ATOM     61  N   UNL A   1      44.954  25.993  30.939  1.00  0.00    -0.354 N 
ATOM     62  N   UNL A   1      43.420  24.202  27.674  1.00  0.00    -0.248 NA
ATOM     63  C   UNL A   1      42.774  23.136  29.653  1.00  0.00     0.031 C 
ATOM     64  C   UNL A   1      46.454  27.278  29.980  1.00  0.00     0.029 A 
ATOM     65  C   UNL A   1      45.634  26.178  29.760  1.00  0.00     0.049 A 
ATOM     66  H   UNL A   1      44.346  25.238  31.112  1.00  0.00     0.167 HD
ATOM     67  C   UNL A   1      44.413  24.380  28.613  1.00  0.00     0.074 A 
ATOM     68  C   UNL A   1      44.041  23.543  29.743  1.00  0.00     0.031 C 
ATOM     69  C   UNL A   1      45.231  25.467  28.565  1.00  0.00     0.031 A 
BRANCH  56  70
ATOM     70  C   UNL A   1      44.180  25.959  33.958  1.00  0.00    -0.014 A 
ATOM     71  C   UNL A   1      45.055  25.929  35.048  1.00  0.00     0.009 A 
ATOM     72  C   UNL A   1      43.398  24.805  33.721  1.00  0.00     0.009 A 
ATOM     73  C   UNL A   1      45.125  24.803  35.876  1.00  0.00     0.001 A 
ATOM     74  C   UNL A   1      43.433  23.700  34.568  1.00  0.00     0.001 A 
ATOM     75  C   UNL A   1      44.309  23.696  35.642  1.00  0.00     0.000 A 
ENDBRANCH  56  70
BRANCH  57  76
ATOM     76  C   UNL A   1      40.201  22.958  27.306  1.00  0.00    -0.014 A 
ATOM     77  C   UNL A   1      39.023  23.315  26.629  1.00  0.00     0.009 A 
ATOM     78  C   UNL A   1      40.712  21.670  27.081  1.00  0.00     0.009 A 
ATOM     79  C   UNL A   1      38.411  22.434  25.727  1.00  0.00     0.001 A 
ATOM     80  C   UNL A   1      40.098  20.787  26.185  1.00  0.00     0.001 A 
ATOM     81  C   UNL A   1      38.958  21.176  25.493  1.00  0.00     0.000 A 
ENDBRANCH  57  76
BRANCH  69  82
ATOM     82  C   UNL A   1      45.539  26.048  27.217  1.00  0.00    -0.014 A 
ATOM     83  C   UNL A   1      44.828  27.116  26.648  1.00  0.00     0.009 A 
ATOM     84  C   UNL A   1      46.618  25.505  26.501  1.00  0.00     0.009 A 
ATOM     85  C   UNL A   1      45.178  27.612  25.386  1.00  0.00     0.001 A 
ATOM     86  C   UNL A   1      46.975  26.007  25.248  1.00  0.00     0.001 A 
ATOM     87  C   UNL A   1      46.252  27.057  24.689  1.00  0.00     0.000 A 
ENDBRANCH  69  82
ENDBRANCH  43  44
ENDBRANCH  36  38
ENDBRANCH  35  36
ENDBRANCH  34  35
ENDBRANCH  33  34
ENDBRANCH  32  33
ENDBRANCH   1  32
TORSDOF 19
ENDMDL
MODEL 3
REMARK VINA RESULT:     -11.2      4.146      8.872
REMARK SMILES CS(=O)(=O)c1ccc(-n2nc(C(F)(F)F)cc2-c2ccc(CC(=O)OCCOCCOC(=O)c3ccc(-c4c5nc(c(-c6ccccc6)c6ccc([nH]6)c(-c6ccccc6)c6nc(c(-c7ccccc7)c7ccc4[nH]7)C=C6)C=C5)cc3)cc2)cc1
REMARK SMILES IDX 27 1 26 2 25 3 23 4 24 5 22 6 21 7 18 8 19 9 83 10 20 11
REMARK SMILES IDX 82 12 17 13 9 14 10 15 11 16 16 17 8 18 5 19 6 20 85 21 7 22
REMARK SMILES IDX 84 23 2 24 1 25 3 26 4 27 12 28 13 29 14 30 15 31 28 32
REMARK SMILES IDX 29 33 30 34 31 35 32 36 33 37 34 38 35 39 81 40 36 41 80 42
REMARK SMILES IDX 37 43 38 44 39 45 74 46 40 47 79 48 73 49 75 50 41 51 78 52
REMARK SMILES IDX 72 53 71 54 42 56 64 57 49 58 63 59 50 60 53 61 62 62 76 63
REMARK SMILES IDX 51 64 52 65 61 67 77 68 54 69 43 70 44 71 48 72 45 73 47 74
REMARK SMILES IDX 46 75 65 76 66 77 70 78 67 79 69 80 68 81 55 82 56 83 60 84
REMARK SMILES IDX 57 85 59 86 58 87
REMARK H PARENT 75 55 53 66
REMARK Flexibility Score: inf
ROOT
ATOM      1  C   UNL A   1      30.707  29.619  24.170  1.00  0.00     0.202 C 
ENDROOT
BRANCH   1   2
ATOM      2  C   UNL A   1      30.861  29.053  22.750  1.00  0.00     0.261 C 
BRANCH   2   3
ATOM      3  O   UNL A   1      31.991  28.192  22.523  1.00  0.00    -0.463 OA
BRANCH   3   4
ATOM      4  C   UNL A   1      31.671  26.879  22.347  1.00  0.00     0.310 C 
ATOM      5  O   UNL A   1      31.366  26.381  21.268  1.00  0.00    -0.252 OA
BRANCH   4   6
ATOM      6  C   UNL A   1      31.608  26.076  23.623  1.00  0.00     0.158 C 
BRANCH   6   7
ATOM      7  C   UNL A   1      32.806  25.261  24.049  1.00  0.00    -0.037 A 
ATOM      8  C   UNL A   1      35.196  23.981  24.837  1.00  0.00     0.000 A 
ATOM      9  C   UNL A   1      34.341  24.551  25.789  1.00  0.00     0.010 A 
ATOM     10  C   UNL A   1      34.848  24.062  23.484  1.00  0.00     0.010 A 
ATOM     11  C   UNL A   1      33.153  25.171  25.402  1.00  0.00     0.005 A 
ATOM     12  C   UNL A   1      33.661  24.692  23.095  1.00  0.00     0.005 A 
BRANCH   8  13
ATOM     13  C   UNL A   1      36.446  23.343  25.255  1.00  0.00     0.075 A 
ATOM     14  N   UNL A   1      36.649  21.976  25.470  1.00  0.00    -0.233 N 
ATOM     15  N   UNL A   1      37.841  21.747  26.092  1.00  0.00    -0.163 NA
ATOM     16  C   UNL A   1      38.469  22.938  26.118  1.00  0.00     0.167 A 
ATOM     17  C   UNL A   1      37.632  23.956  25.609  1.00  0.00     0.064 A 
BRANCH  14  18
ATOM     18  C   UNL A   1      35.853  20.870  25.028  1.00  0.00     0.065 A 
ATOM     19  C   UNL A   1      34.281  18.571  24.567  1.00  0.00     0.067 A 
ATOM     20  C   UNL A   1      35.664  18.480  24.598  1.00  0.00     0.022 A 
ATOM     21  C   UNL A   1      33.673  19.821  24.717  1.00  0.00     0.022 A 
ATOM     22  C   UNL A   1      36.449  19.623  24.799  1.00  0.00     0.030 A 
ATOM     23  C   UNL A   1      34.455  20.966  24.964  1.00  0.00     0.030 A 
BRANCH  19  24
ATOM     24  S   UNL A   1      33.266  17.110  24.459  1.00  0.00     0.175 S 
ATOM     25  C   UNL A   1      34.084  15.806  25.342  1.00  0.00     0.163 C 
ATOM     26  O   UNL A   1      33.247  16.745  23.058  1.00  0.00    -0.224 OA
ATOM     27  O   UNL A   1      32.045  17.404  25.183  1.00  0.00    -0.224 OA
ENDBRANCH  19  24
ENDBRANCH  14  18
BRANCH  16  28
ATOM     28  C   UNL A   1      39.867  23.147  26.641  1.00  0.00     0.435 C 
ATOM     29  F   UNL A   1      40.721  22.144  26.315  1.00  0.00    -0.164 F 
ATOM     30  F   UNL A   1      40.411  24.306  26.181  1.00  0.00    -0.164 F 
ATOM     31  F   UNL A   1      39.885  23.241  28.001  1.00  0.00    -0.164 F 
ENDBRANCH  16  28
ENDBRANCH   8  13
ENDBRANCH   6   7
ENDBRANCH   4   6
ENDBRANCH   3   4
ENDBRANCH   2   3
ENDBRANCH   1   2
BRANCH   1  32
ATOM     32  O   UNL A   1      31.861  29.712  24.987  1.00  0.00    -0.374 OA
BRANCH  32  33
ATOM     33  C   UNL A   1      31.770  29.218  26.315  1.00  0.00     0.202 C 
BRANCH  33  34
ATOM     34  C   UNL A   1      32.686  29.828  27.368  1.00  0.00     0.261 C 
BRANCH  34  35
ATOM     35  O   UNL A   1      33.665  30.748  26.839  1.00  0.00    -0.460 OA
BRANCH  35  36
ATOM     36  C   UNL A   1      34.253  31.569  27.747  1.00  0.00     0.338 C 
ATOM     37  O   UNL A   1      33.765  32.580  28.235  1.00  0.00    -0.246 OA
BRANCH  36  38
ATOM     38  C   UNL A   1      35.711  31.321  27.749  1.00  0.00     0.060 A 
ATOM     39  C   UNL A   1      36.094  30.066  27.269  1.00  0.00     0.016 A 
ATOM     40  C   UNL A   1      36.595  32.089  28.518  1.00  0.00     0.016 A 
ATOM     41  C   UNL A   1      37.249  29.485  27.762  1.00  0.00     0.010 A 
ATOM     42  C   UNL A   1      37.763  31.499  29.006  1.00  0.00     0.010 A 
ATOM     43  C   UNL A   1      38.034  30.163  28.705  1.00  0.00    -0.014 A 
BRANCH  43  44
ATOM     44  C   UNL A   1      39.216  29.458  29.209  1.00  0.00     0.031 A 
ATOM     45  C   UNL A   1      39.428  29.683  30.637  1.00  0.00     0.074 A 
ATOM     46  C   UNL A   1      40.120  28.727  28.522  1.00  0.00     0.049 A 
ATOM     47  N   UNL A   1      40.364  30.417  31.135  1.00  0.00    -0.248 NA
ATOM     48  C   UNL A   1      38.436  29.184  31.591  1.00  0.00     0.031 C 
ATOM     49  C   UNL A   1      40.030  28.407  27.117  1.00  0.00     0.029 A 
ATOM     50  N   UNL A   1      41.281  28.089  28.896  1.00  0.00    -0.354 N 
ATOM     51  C   UNL A   1      40.249  30.233  32.495  1.00  0.00     0.074 A 
ATOM     52  C   UNL A   1      38.952  29.640  32.733  1.00  0.00     0.031 C 
ATOM     53  C   UNL A   1      40.944  27.484  26.767  1.00  0.00     0.029 A 
ATOM     54  C   UNL A   1      41.800  27.247  27.910  1.00  0.00     0.049 A 
ATOM     55  H   UNL A   1      41.705  28.215  29.774  1.00  0.00     0.167 HD
ATOM     56  C   UNL A   1      41.372  30.187  33.249  1.00  0.00     0.031 A 
ATOM     57  C   UNL A   1      42.897  26.451  27.919  1.00  0.00     0.031 A 
ATOM     58  C   UNL A   1      42.512  30.817  32.632  1.00  0.00     0.049 A 
ATOM     59  C   UNL A   1      43.884  27.043  28.834  1.00  0.00     0.074 A 
ATOM     60  C   UNL A   1      42.943  32.105  32.400  1.00  0.00     0.029 A 
ATOM     61  N   UNL A   1      43.275  29.994  31.848  1.00  0.00    -0.354 N 
ATOM     62  N   UNL A   1      44.578  28.104  28.540  1.00  0.00    -0.248 NA
ATOM     63  C   UNL A   1      43.954  26.607  30.224  1.00  0.00     0.031 C 
ATOM     64  C   UNL A   1      43.954  32.032  31.396  1.00  0.00     0.029 A 
ATOM     65  C   UNL A   1      44.118  30.702  31.027  1.00  0.00     0.049 A 
ATOM     66  H   UNL A   1      43.225  29.011  31.870  1.00  0.00     0.167 HD
ATOM     67  C   UNL A   1      44.787  28.706  29.761  1.00  0.00     0.074 A 
ATOM     68  C   UNL A   1      44.563  27.669  30.756  1.00  0.00     0.031 C 
ATOM     69  C   UNL A   1      44.739  30.060  29.888  1.00  0.00     0.031 A 
BRANCH  56  70
ATOM     70  C   UNL A   1      41.532  29.102  34.273  1.00  0.00    -0.014 A 
ATOM     71  C   UNL A   1      42.000  29.428  35.549  1.00  0.00     0.009 A 
ATOM     72  C   UNL A   1      41.479  27.730  33.931  1.00  0.00     0.009 A 
ATOM     73  C   UNL A   1      42.375  28.425  36.449  1.00  0.00     0.001 A 
ATOM     74  C   UNL A   1      41.811  26.729  34.839  1.00  0.00     0.001 A 
ATOM     75  C   UNL A   1      42.272  27.079  36.099  1.00  0.00     0.000 A 
ENDBRANCH  56  70
BRANCH  57  76
ATOM     76  C   UNL A   1      43.209  25.261  27.095  1.00  0.00    -0.014 A 
ATOM     77  C   UNL A   1      43.566  25.382  25.742  1.00  0.00     0.009 A 
ATOM     78  C   UNL A   1      43.397  24.010  27.706  1.00  0.00     0.009 A 
ATOM     79  C   UNL A   1      44.135  24.307  25.045  1.00  0.00     0.001 A 
ATOM     80  C   UNL A   1      43.960  22.934  27.008  1.00  0.00     0.001 A 
ATOM     81  C   UNL A   1      44.346  23.089  25.682  1.00  0.00     0.000 A 
ENDBRANCH  57  76
BRANCH  69  82
ATOM     82  C   UNL A   1      45.157  30.887  28.708  1.00  0.00    -0.014 A 
ATOM     83  C   UNL A   1      44.263  31.375  27.742  1.00  0.00     0.009 A 
ATOM     84  C   UNL A   1      46.518  31.208  28.584  1.00  0.00     0.009 A 
ATOM     85  C   UNL A   1      44.726  32.147  26.670  1.00  0.00     0.001 A 
ATOM     86  C   UNL A   1      46.979  31.989  27.522  1.00  0.00     0.001 A 
ATOM     87  C   UNL A   1      46.083  32.455  26.563  1.00  0.00     0.000 A 
ENDBRANCH  69  82
ENDBRANCH  43  44
ENDBRANCH  36  38
ENDBRANCH  35  36
ENDBRANCH  34  35
ENDBRANCH  33  34
ENDBRANCH  32  33
ENDBRANCH   1  32
TORSDOF 19
ENDMDL
