MODEL 1
REMARK VINA RESULT:      -9.8      0.000      0.000
REMARK SMILES Cc1cnc(NC(=O)NC[C@H]2CC[C@H](C(=O)OCCOCCOC(=O)c3ccc(-c4c5nc(c(-c6ccccc6)c6ccc([nH]6)c(-c6ccccc6)c6nc(c(-c7ccccc7)c7ccc4[nH]7)C=C6)C=C5)cc3)O2)s1
REMARK SMILES IDX 19 1 18 2 17 3 15 4 16 5 14 6 11 7 12 8 74 9 13 10 10 11
REMARK SMILES IDX 9 12 6 13 7 14 8 16 5 18 1 19 2 20 3 21 75 22 4 23 20 24
REMARK SMILES IDX 21 25 22 26 23 27 24 28 25 29 26 30 27 31 73 32 28 33 72 34
REMARK SMILES IDX 29 35 30 36 31 37 66 38 32 39 71 40 65 41 67 42 33 43 70 44
REMARK SMILES IDX 64 45 63 46 34 48 56 49 41 50 55 51 42 52 45 53 54 54 68 55
REMARK SMILES IDX 43 56 44 57 53 59 69 60 46 61 35 62 36 63 40 64 37 65 39 66
REMARK SMILES IDX 38 67 57 68 58 69 62 70 59 71 61 72 60 73 47 74 48 75 52 76
REMARK SMILES IDX 49 77 51 78 50 79
REMARK H PARENT 6 15 9 17 67 47 45 58
REMARK Flexibility Score: inf
ROOT
ATOM      1  C   UNL A   1      34.433  32.912  29.138  1.00  0.00     0.202 C 
ENDROOT
BRANCH   1   2
ATOM      2  C   UNL A   1      35.554  32.447  28.205  1.00  0.00     0.261 C 
BRANCH   2   3
ATOM      3  O   UNL A   1      35.062  31.526  27.215  1.00  0.00    -0.461 OA
BRANCH   3   4
ATOM      4  C   UNL A   1      34.790  30.261  27.649  1.00  0.00     0.335 C 
ATOM      5  O   UNL A   1      35.567  29.562  28.288  1.00  0.00    -0.249 OA
BRANCH   4   6
ATOM      6  C   UNL A   1      33.387  29.794  27.232  1.00  0.00     0.228 C 
ATOM      7  C   UNL A   1      32.997  27.616  26.484  1.00  0.00     0.138 C 
ATOM      8  C   UNL A   1      33.425  28.454  25.287  1.00  0.00     0.037 C 
ATOM      9  O   UNL A   1      33.178  28.434  27.649  1.00  0.00    -0.361 OA
ATOM     10  C   UNL A   1      33.090  29.849  25.738  1.00  0.00     0.047 C 
BRANCH   7  11
ATOM     11  C   UNL A   1      31.543  27.118  26.361  1.00  0.00     0.149 C 
BRANCH  11  12
ATOM     12  N   UNL A   1      31.277  25.777  26.862  1.00  0.00    -0.335 N 
ATOM     13  N   UNL A   1      31.645  24.095  25.202  1.00  0.00    -0.284 N 
ATOM     14  C   UNL A   1      31.334  24.512  26.434  1.00  0.00     0.321 C 
ATOM     15  H   UNL A   1      31.435  23.145  25.051  1.00  0.00     0.174 HD
ATOM     16  O   UNL A   1      30.944  23.652  27.233  1.00  0.00    -0.248 OA
ATOM     17  H   UNL A   1      30.960  25.813  27.794  1.00  0.00     0.165 HD
BRANCH  13  18
ATOM     18  C   UNL A   1      32.187  24.700  24.116  1.00  0.00     0.190 A 
ATOM     19  C   UNL A   1      32.603  25.526  20.421  1.00  0.00     0.058 C 
ATOM     20  C   UNL A   1      32.653  25.433  21.899  1.00  0.00     0.023 A 
ATOM     21  C   UNL A   1      33.745  25.374  22.742  1.00  0.00     0.128 A 
ATOM     22  S   UNL A   1      31.229  25.345  22.860  1.00  0.00    -0.102 S 
ATOM     23  N   UNL A   1      33.462  25.003  24.040  1.00  0.00    -0.228 NA
ENDBRANCH  13  18
ENDBRANCH  11  12
ENDBRANCH   7  11
ENDBRANCH   4   6
ENDBRANCH   3   4
ENDBRANCH   2   3
ENDBRANCH   1   2
BRANCH   1  24
ATOM     24  O   UNL A   1      33.502  33.846  28.592  1.00  0.00    -0.374 OA
BRANCH  24  25
ATOM     25  C   UNL A   1      33.798  35.232  28.745  1.00  0.00     0.202 C 
BRANCH  25  26
ATOM     26  C   UNL A   1      32.945  36.001  29.763  1.00  0.00     0.261 C 
BRANCH  26  27
ATOM     27  O   UNL A   1      32.449  35.160  30.822  1.00  0.00    -0.460 OA
BRANCH  27  28
ATOM     28  C   UNL A   1      32.675  35.634  32.068  1.00  0.00     0.338 C 
ATOM     29  O   UNL A   1      31.969  36.409  32.708  1.00  0.00    -0.246 OA
BRANCH  28  30
ATOM     30  C   UNL A   1      33.838  34.972  32.681  1.00  0.00     0.060 A 
ATOM     31  C   UNL A   1      35.050  35.673  32.674  1.00  0.00     0.016 A 
ATOM     32  C   UNL A   1      33.784  33.656  33.146  1.00  0.00     0.016 A 
ATOM     33  C   UNL A   1      36.224  35.041  33.074  1.00  0.00     0.010 A 
ATOM     34  C   UNL A   1      34.967  33.020  33.544  1.00  0.00     0.010 A 
ATOM     35  C   UNL A   1      36.199  33.696  33.472  1.00  0.00    -0.014 A 
BRANCH  35  36
ATOM     36  C   UNL A   1      37.487  32.983  33.665  1.00  0.00     0.031 A 
ATOM     37  C   UNL A   1      38.265  33.195  34.937  1.00  0.00     0.074 A 
ATOM     38  C   UNL A   1      37.921  32.092  32.756  1.00  0.00     0.049 A 
ATOM     39  N   UNL A   1      39.379  32.632  35.330  1.00  0.00    -0.248 NA
ATOM     40  C   UNL A   1      37.712  34.169  35.892  1.00  0.00     0.031 C 
ATOM     41  C   UNL A   1      37.243  31.761  31.503  1.00  0.00     0.029 A 
ATOM     42  N   UNL A   1      39.037  31.293  32.757  1.00  0.00    -0.354 N 
ATOM     43  C   UNL A   1      39.653  33.170  36.581  1.00  0.00     0.074 A 
ATOM     44  C   UNL A   1      38.615  34.137  36.862  1.00  0.00     0.031 C 
ATOM     45  C   UNL A   1      37.959  30.825  30.856  1.00  0.00     0.029 A 
ATOM     46  C   UNL A   1      39.152  30.507  31.637  1.00  0.00     0.049 A 
ATOM     47  H   UNL A   1      39.693  31.283  33.492  1.00  0.00     0.167 HD
ATOM     48  C   UNL A   1      40.669  32.879  37.429  1.00  0.00     0.031 A 
ATOM     49  C   UNL A   1      40.115  29.637  31.276  1.00  0.00     0.031 A 
ATOM     50  C   UNL A   1      41.717  31.933  37.151  1.00  0.00     0.049 A 
ATOM     51  C   UNL A   1      41.274  29.384  32.204  1.00  0.00     0.074 A 
ATOM     52  C   UNL A   1      42.794  31.579  37.945  1.00  0.00     0.029 A 
ATOM     53  N   UNL A   1      41.821  31.193  35.984  1.00  0.00    -0.354 N 
ATOM     54  N   UNL A   1      41.509  29.890  33.390  1.00  0.00    -0.248 NA
ATOM     55  C   UNL A   1      42.292  28.428  31.745  1.00  0.00     0.031 C 
ATOM     56  C   UNL A   1      43.575  30.657  37.240  1.00  0.00     0.029 A 
ATOM     57  C   UNL A   1      42.954  30.398  36.029  1.00  0.00     0.049 A 
ATOM     58  H   UNL A   1      41.184  31.227  35.234  1.00  0.00     0.167 HD
ATOM     59  C   UNL A   1      42.687  29.296  33.828  1.00  0.00     0.074 A 
ATOM     60  C   UNL A   1      43.106  28.378  32.790  1.00  0.00     0.031 C 
ATOM     61  C   UNL A   1      43.362  29.493  34.987  1.00  0.00     0.031 A 
BRANCH  48  62
ATOM     62  C   UNL A   1      40.705  33.612  38.740  1.00  0.00    -0.014 A 
ATOM     63  C   UNL A   1      40.076  33.086  39.881  1.00  0.00     0.009 A 
ATOM     64  C   UNL A   1      41.405  34.822  38.848  1.00  0.00     0.009 A 
ATOM     65  C   UNL A   1      40.126  33.773  41.095  1.00  0.00     0.001 A 
ATOM     66  C   UNL A   1      41.476  35.494  40.070  1.00  0.00     0.001 A 
ATOM     67  C   UNL A   1      40.829  34.973  41.190  1.00  0.00     0.000 A 
ENDBRANCH  48  62
BRANCH  49  68
ATOM     68  C   UNL A   1      40.043  28.950  29.960  1.00  0.00    -0.014 A 
ATOM     69  C   UNL A   1      40.604  29.529  28.812  1.00  0.00     0.009 A 
ATOM     70  C   UNL A   1      39.381  27.718  29.845  1.00  0.00     0.009 A 
ATOM     71  C   UNL A   1      40.475  28.903  27.570  1.00  0.00     0.001 A 
ATOM     72  C   UNL A   1      39.279  27.079  28.608  1.00  0.00     0.001 A 
ATOM     73  C   UNL A   1      39.817  27.677  27.470  1.00  0.00     0.000 A 
ENDBRANCH  49  68
BRANCH  61  74
ATOM     74  C   UNL A   1      44.609  28.681  35.202  1.00  0.00    -0.014 A 
ATOM     75  C   UNL A   1      44.574  27.460  35.893  1.00  0.00     0.009 A 
ATOM     76  C   UNL A   1      45.831  29.132  34.678  1.00  0.00     0.009 A 
ATOM     77  C   UNL A   1      45.746  26.726  36.090  1.00  0.00     0.001 A 
ATOM     78  C   UNL A   1      46.996  28.382  34.853  1.00  0.00     0.001 A 
ATOM     79  C   UNL A   1      46.954  27.186  35.568  1.00  0.00     0.000 A 
ENDBRANCH  61  74
ENDBRANCH  35  36
ENDBRANCH  28  30
ENDBRANCH  27  28
ENDBRANCH  26  27
ENDBRANCH  25  26
ENDBRANCH  24  25
ENDBRANCH   1  24
TORSDOF 17
ENDMDL
MODEL 2
REMARK VINA RESULT:      -9.6      1.672      6.226
REMARK SMILES Cc1cnc(NC(=O)NC[C@H]2CC[C@H](C(=O)OCCOCCOC(=O)c3ccc(-c4c5nc(c(-c6ccccc6)c6ccc([nH]6)c(-c6ccccc6)c6nc(c(-c7ccccc7)c7ccc4[nH]7)C=C6)C=C5)cc3)O2)s1
REMARK SMILES IDX 19 1 18 2 17 3 15 4 16 5 14 6 11 7 12 8 74 9 13 10 10 11
REMARK SMILES IDX 9 12 6 13 7 14 8 16 5 18 1 19 2 20 3 21 75 22 4 23 20 24
REMARK SMILES IDX 21 25 22 26 23 27 24 28 25 29 26 30 27 31 73 32 28 33 72 34
REMARK SMILES IDX 29 35 30 36 31 37 66 38 32 39 71 40 65 41 67 42 33 43 70 44
REMARK SMILES IDX 64 45 63 46 34 48 56 49 41 50 55 51 42 52 45 53 54 54 68 55
REMARK SMILES IDX 43 56 44 57 53 59 69 60 46 61 35 62 36 63 40 64 37 65 39 66
REMARK SMILES IDX 38 67 57 68 58 69 62 70 59 71 61 72 60 73 47 74 48 75 52 76
REMARK SMILES IDX 49 77 51 78 50 79
REMARK H PARENT 6 15 9 17 67 47 45 58
REMARK Flexibility Score: inf
ROOT
ATOM      1  C   UNL A   1      34.325  32.685  28.881  1.00  0.00     0.202 C 
ENDROOT
BRANCH   1   2
ATOM      2  C   UNL A   1      35.506  32.171  28.052  1.00  0.00     0.261 C 
BRANCH   2   3
ATOM      3  O   UNL A   1      35.125  31.041  27.247  1.00  0.00    -0.461 OA
BRANCH   3   4
ATOM      4  C   UNL A   1      35.312  29.811  27.805  1.00  0.00     0.335 C 
ATOM      5  O   UNL A   1      36.223  29.526  28.576  1.00  0.00    -0.249 OA
BRANCH   4   6
ATOM      6  C   UNL A   1      34.250  28.798  27.350  1.00  0.00     0.228 C 
ATOM      7  C   UNL A   1      33.643  28.592  25.104  1.00  0.00     0.138 C 
ATOM      8  C   UNL A   1      32.793  29.694  25.720  1.00  0.00     0.037 C 
ATOM      9  O   UNL A   1      34.626  28.229  26.084  1.00  0.00    -0.361 OA
ATOM     10  C   UNL A   1      32.840  29.351  27.184  1.00  0.00     0.047 C 
BRANCH   7  11
ATOM     11  C   UNL A   1      32.801  27.377  24.667  1.00  0.00     0.149 C 
BRANCH  11  12
ATOM     12  N   UNL A   1      33.186  26.743  23.413  1.00  0.00    -0.335 N 
ATOM     13  N   UNL A   1      31.566  27.082  21.686  1.00  0.00    -0.284 N 
ATOM     14  C   UNL A   1      32.728  26.623  22.163  1.00  0.00     0.321 C 
ATOM     15  H   UNL A   1      31.340  26.715  20.802  1.00  0.00     0.174 HD
ATOM     16  O   UNL A   1      33.400  25.910  21.407  1.00  0.00    -0.248 OA
ATOM     17  H   UNL A   1      34.038  26.260  23.518  1.00  0.00     0.165 HD
BRANCH  13  18
ATOM     18  C   UNL A   1      30.634  27.945  22.160  1.00  0.00     0.190 A 
ATOM     19  C   UNL A   1      27.147  29.138  23.124  1.00  0.00     0.058 C 
ATOM     20  C   UNL A   1      28.596  28.942  22.884  1.00  0.00     0.023 A 
ATOM     21  C   UNL A   1      29.531  29.819  22.369  1.00  0.00     0.128 A 
ATOM     22  S   UNL A   1      29.386  27.449  23.212  1.00  0.00    -0.102 S 
ATOM     23  N   UNL A   1      30.731  29.245  22.003  1.00  0.00    -0.228 NA
ENDBRANCH  13  18
ENDBRANCH  11  12
ENDBRANCH   7  11
ENDBRANCH   4   6
ENDBRANCH   3   4
ENDBRANCH   2   3
ENDBRANCH   1   2
BRANCH   1  24
ATOM     24  O   UNL A   1      33.564  33.748  28.308  1.00  0.00    -0.374 OA
BRANCH  24  25
ATOM     25  C   UNL A   1      34.046  35.076  28.500  1.00  0.00     0.202 C 
BRANCH  25  26
ATOM     26  C   UNL A   1      33.273  35.941  29.505  1.00  0.00     0.261 C 
BRANCH  26  27
ATOM     27  O   UNL A   1      32.628  35.160  30.530  1.00  0.00    -0.460 OA
BRANCH  27  28
ATOM     28  C   UNL A   1      32.735  35.672  31.777  1.00  0.00     0.338 C 
ATOM     29  O   UNL A   1      31.983  36.479  32.316  1.00  0.00    -0.246 OA
BRANCH  28  30
ATOM     30  C   UNL A   1      33.818  35.015  32.525  1.00  0.00     0.060 A 
ATOM     31  C   UNL A   1      35.062  35.657  32.549  1.00  0.00     0.016 A 
ATOM     32  C   UNL A   1      33.665  33.747  33.092  1.00  0.00     0.016 A 
ATOM     33  C   UNL A   1      36.172  35.009  33.084  1.00  0.00     0.010 A 
ATOM     34  C   UNL A   1      34.784  33.095  33.627  1.00  0.00     0.010 A 
ATOM     35  C   UNL A   1      36.051  33.707  33.589  1.00  0.00    -0.014 A 
BRANCH  35  36
ATOM     36  C   UNL A   1      37.284  32.955  33.934  1.00  0.00     0.031 A 
ATOM     37  C   UNL A   1      37.831  31.947  32.958  1.00  0.00     0.074 A 
ATOM     38  C   UNL A   1      37.958  33.223  35.066  1.00  0.00     0.049 A 
ATOM     39  N   UNL A   1      38.920  31.225  33.037  1.00  0.00    -0.248 NA
ATOM     40  C   UNL A   1      37.049  31.726  31.731  1.00  0.00     0.031 C 
ATOM     41  C   UNL A   1      37.560  34.204  36.076  1.00  0.00     0.029 A 
ATOM     42  N   UNL A   1      39.129  32.696  35.550  1.00  0.00    -0.354 N 
ATOM     43  C   UNL A   1      38.962  30.476  31.867  1.00  0.00     0.074 A 
ATOM     44  C   UNL A   1      37.768  30.797  31.116  1.00  0.00     0.031 C 
ATOM     45  C   UNL A   1      38.475  34.209  37.061  1.00  0.00     0.029 A 
ATOM     46  C   UNL A   1      39.508  33.219  36.762  1.00  0.00     0.049 A 
ATOM     47  H   UNL A   1      39.648  32.009  35.074  1.00  0.00     0.167 HD
ATOM     48  C   UNL A   1      39.913  29.608  31.445  1.00  0.00     0.031 A 
ATOM     49  C   UNL A   1      40.563  32.928  37.547  1.00  0.00     0.031 A 
ATOM     50  C   UNL A   1      41.094  29.268  32.192  1.00  0.00     0.049 A 
ATOM     51  C   UNL A   1      41.570  31.906  37.089  1.00  0.00     0.074 A 
ATOM     52  C   UNL A   1      42.110  28.392  31.850  1.00  0.00     0.029 A 
ATOM     53  N   UNL A   1      41.417  29.786  33.436  1.00  0.00    -0.354 N 
ATOM     54  N   UNL A   1      41.602  31.219  35.973  1.00  0.00    -0.248 NA
ATOM     55  C   UNL A   1      42.693  31.631  37.997  1.00  0.00     0.031 C 
ATOM     56  C   UNL A   1      43.025  28.346  32.908  1.00  0.00     0.029 A 
ATOM     57  C   UNL A   1      42.605  29.235  33.884  1.00  0.00     0.049 A 
ATOM     58  H   UNL A   1      40.880  30.449  33.928  1.00  0.00     0.167 HD
ATOM     59  C   UNL A   1      42.759  30.451  36.035  1.00  0.00     0.074 A 
ATOM     60  C   UNL A   1      43.410  30.771  37.288  1.00  0.00     0.031 C 
ATOM     61  C   UNL A   1      43.239  29.558  35.135  1.00  0.00     0.031 A 
BRANCH  48  62
ATOM     62  C   UNL A   1      39.702  28.948  30.111  1.00  0.00    -0.014 A 
ATOM     63  C   UNL A   1      40.091  29.583  28.920  1.00  0.00     0.009 A 
ATOM     64  C   UNL A   1      39.144  27.663  30.046  1.00  0.00     0.009 A 
ATOM     65  C   UNL A   1      39.899  28.953  27.689  1.00  0.00     0.001 A 
ATOM     66  C   UNL A   1      38.977  27.025  28.815  1.00  0.00     0.001 A 
ATOM     67  C   UNL A   1      39.346  27.674  27.638  1.00  0.00     0.000 A 
ENDBRANCH  48  62
BRANCH  49  68
ATOM     68  C   UNL A   1      40.717  33.596  38.866  1.00  0.00    -0.014 A 
ATOM     69  C   UNL A   1      41.492  34.756  39.001  1.00  0.00     0.009 A 
ATOM     70  C   UNL A   1      40.107  33.049  40.006  1.00  0.00     0.009 A 
ATOM     71  C   UNL A   1      41.679  35.339  40.258  1.00  0.00     0.001 A 
ATOM     72  C   UNL A   1      40.270  33.651  41.256  1.00  0.00     0.001 A 
ATOM     73  C   UNL A   1      41.065  34.788  41.382  1.00  0.00     0.000 A 
ENDBRANCH  49  68
BRANCH  61  74
ATOM     74  C   UNL A   1      44.544  28.887  35.463  1.00  0.00    -0.014 A 
ATOM     75  C   UNL A   1      44.586  27.696  36.203  1.00  0.00     0.009 A 
ATOM     76  C   UNL A   1      45.747  29.442  34.999  1.00  0.00     0.009 A 
ATOM     77  C   UNL A   1      45.810  27.094  36.506  1.00  0.00     0.001 A 
ATOM     78  C   UNL A   1      46.967  28.824  35.280  1.00  0.00     0.001 A 
ATOM     79  C   UNL A   1      46.998  27.658  36.042  1.00  0.00     0.000 A 
ENDBRANCH  61  74
ENDBRANCH  35  36
ENDBRANCH  28  30
ENDBRANCH  27  28
ENDBRANCH  26  27
ENDBRANCH  25  26
ENDBRANCH  24  25
ENDBRANCH   1  24
TORSDOF 17
ENDMDL
MODEL 3
REMARK VINA RESULT:      -9.6      4.562      9.075
REMARK SMILES Cc1cnc(NC(=O)NC[C@H]2CC[C@H](C(=O)OCCOCCOC(=O)c3ccc(-c4c5nc(c(-c6ccccc6)c6ccc([nH]6)c(-c6ccccc6)c6nc(c(-c7ccccc7)c7ccc4[nH]7)C=C6)C=C5)cc3)O2)s1
REMARK SMILES IDX 19 1 18 2 17 3 15 4 16 5 14 6 11 7 12 8 74 9 13 10 10 11
REMARK SMILES IDX 9 12 6 13 7 14 8 16 5 18 1 19 2 20 3 21 75 22 4 23 20 24
REMARK SMILES IDX 21 25 22 26 23 27 24 28 25 29 26 30 27 31 73 32 28 33 72 34
REMARK SMILES IDX 29 35 30 36 31 37 66 38 32 39 71 40 65 41 67 42 33 43 70 44
REMARK SMILES IDX 64 45 63 46 34 48 56 49 41 50 55 51 42 52 45 53 54 54 68 55
REMARK SMILES IDX 43 56 44 57 53 59 69 60 46 61 35 62 36 63 40 64 37 65 39 66
REMARK SMILES IDX 38 67 57 68 58 69 62 70 59 71 61 72 60 73 47 74 48 75 52 76
REMARK SMILES IDX 49 77 51 78 50 79
REMARK H PARENT 6 15 9 17 67 47 45 58
REMARK Flexibility Score: inf
ROOT
ATOM      1  C   UNL A   1      34.348  22.200  25.265  1.00  0.00     0.202 C 
ENDROOT
BRANCH   1   2
ATOM      2  C   UNL A   1      34.461  22.560  23.781  1.00  0.00     0.261 C 
BRANCH   2   3
ATOM      3  O   UNL A   1      33.188  22.956  23.242  1.00  0.00    -0.461 OA
BRANCH   3   4
ATOM      4  C   UNL A   1      33.221  23.711  22.107  1.00  0.00     0.335 C 
ATOM      5  O   UNL A   1      33.647  23.324  21.024  1.00  0.00    -0.249 OA
BRANCH   4   6
ATOM      6  C   UNL A   1      32.670  25.127  22.335  1.00  0.00     0.228 C 
ATOM      7  C   UNL A   1      34.082  26.926  22.810  1.00  0.00     0.138 C 
ATOM      8  C   UNL A   1      33.745  26.235  24.124  1.00  0.00     0.037 C 
ATOM      9  O   UNL A   1      33.560  26.099  21.760  1.00  0.00    -0.361 OA
ATOM     10  C   UNL A   1      32.460  25.527  23.790  1.00  0.00     0.047 C 
BRANCH   7  11
ATOM     11  C   UNL A   1      33.517  28.358  22.739  1.00  0.00     0.149 C 
BRANCH  11  12
ATOM     12  N   UNL A   1      32.142  28.486  22.276  1.00  0.00    -0.335 N 
ATOM     13  N   UNL A   1      30.600  28.804  24.077  1.00  0.00    -0.284 N 
ATOM     14  C   UNL A   1      30.924  28.699  22.784  1.00  0.00     0.321 C 
ATOM     15  H   UNL A   1      29.630  28.761  24.237  1.00  0.00     0.174 HD
ATOM     16  O   UNL A   1      29.989  28.679  21.974  1.00  0.00    -0.248 OA
ATOM     17  H   UNL A   1      32.096  28.385  21.297  1.00  0.00     0.165 HD
BRANCH  13  18
ATOM     18  C   UNL A   1      31.323  28.956  25.215  1.00  0.00     0.190 A 
ATOM     19  C   UNL A   1      34.060  30.376  27.451  1.00  0.00     0.058 C 
ATOM     20  C   UNL A   1      32.897  29.686  26.845  1.00  0.00     0.023 A 
ATOM     21  C   UNL A   1      32.494  28.370  26.963  1.00  0.00     0.128 A 
ATOM     22  S   UNL A   1      31.802  30.489  25.790  1.00  0.00    -0.102 S 
ATOM     23  N   UNL A   1      31.540  27.968  26.051  1.00  0.00    -0.228 NA
ENDBRANCH  13  18
ENDBRANCH  11  12
ENDBRANCH   7  11
ENDBRANCH   4   6
ENDBRANCH   3   4
ENDBRANCH   2   3
ENDBRANCH   1   2
BRANCH   1  24
ATOM     24  O   UNL A   1      35.528  21.689  25.885  1.00  0.00    -0.374 OA
BRANCH  24  25
ATOM     25  C   UNL A   1      36.571  21.228  25.028  1.00  0.00     0.202 C 
BRANCH  25  26
ATOM     26  C   UNL A   1      37.876  22.035  25.052  1.00  0.00     0.261 C 
BRANCH  26  27
ATOM     27  O   UNL A   1      38.528  22.001  26.336  1.00  0.00    -0.460 OA
BRANCH  27  28
ATOM     28  C   UNL A   1      39.769  22.540  26.350  1.00  0.00     0.338 C 
ATOM     29  O   UNL A   1      40.797  22.051  25.890  1.00  0.00    -0.246 OA
BRANCH  28  30
ATOM     30  C   UNL A   1      39.738  23.918  26.864  1.00  0.00     0.060 A 
ATOM     31  C   UNL A   1      40.562  24.856  26.231  1.00  0.00     0.016 A 
ATOM     32  C   UNL A   1      39.017  24.267  28.009  1.00  0.00     0.016 A 
ATOM     33  C   UNL A   1      40.717  26.129  26.774  1.00  0.00     0.010 A 
ATOM     34  C   UNL A   1      39.177  25.548  28.556  1.00  0.00     0.010 A 
ATOM     35  C   UNL A   1      40.058  26.471  27.964  1.00  0.00    -0.014 A 
BRANCH  35  36
ATOM     36  C   UNL A   1      40.421  27.740  28.644  1.00  0.00     0.031 A 
ATOM     37  C   UNL A   1      41.829  27.933  29.145  1.00  0.00     0.074 A 
ATOM     38  C   UNL A   1      39.533  28.745  28.743  1.00  0.00     0.049 A 
ATOM     39  N   UNL A   1      42.369  28.981  29.714  1.00  0.00    -0.248 NA
ATOM     40  C   UNL A   1      42.749  26.796  28.978  1.00  0.00     0.031 C 
ATOM     41  C   UNL A   1      38.152  28.704  28.263  1.00  0.00     0.029 A 
ATOM     42  N   UNL A   1      39.669  30.003  29.275  1.00  0.00    -0.354 N 
ATOM     43  C   UNL A   1      43.692  28.636  29.961  1.00  0.00     0.074 A 
ATOM     44  C   UNL A   1      43.862  27.268  29.522  1.00  0.00     0.031 C 
ATOM     45  C   UNL A   1      37.567  29.887  28.521  1.00  0.00     0.029 A 
ATOM     46  C   UNL A   1      38.524  30.757  29.202  1.00  0.00     0.049 A 
ATOM     47  H   UNL A   1      40.508  30.333  29.670  1.00  0.00     0.167 HD
ATOM     48  C   UNL A   1      44.683  29.391  30.493  1.00  0.00     0.031 A 
ATOM     49  C   UNL A   1      38.271  32.004  29.644  1.00  0.00     0.031 A 
ATOM     50  C   UNL A   1      44.520  30.745  30.951  1.00  0.00     0.049 A 
ATOM     51  C   UNL A   1      39.370  32.798  30.298  1.00  0.00     0.074 A 
ATOM     52  C   UNL A   1      45.465  31.586  31.513  1.00  0.00     0.029 A 
ATOM     53  N   UNL A   1      43.332  31.455  30.901  1.00  0.00    -0.354 N 
ATOM     54  N   UNL A   1      40.619  32.462  30.510  1.00  0.00    -0.248 NA
ATOM     55  C   UNL A   1      39.023  34.150  30.762  1.00  0.00     0.031 C 
ATOM     56  C   UNL A   1      44.836  32.792  31.846  1.00  0.00     0.029 A 
ATOM     57  C   UNL A   1      43.514  32.718  31.440  1.00  0.00     0.049 A 
ATOM     58  H   UNL A   1      42.483  31.113  30.537  1.00  0.00     0.167 HD
ATOM     59  C   UNL A   1      41.213  33.568  31.108  1.00  0.00     0.074 A 
ATOM     60  C   UNL A   1      40.192  34.590  31.206  1.00  0.00     0.031 C 
ATOM     61  C   UNL A   1      42.489  33.723  31.538  1.00  0.00     0.031 A 
BRANCH  48  62
ATOM     62  C   UNL A   1      46.038  28.755  30.627  1.00  0.00    -0.014 A 
ATOM     63  C   UNL A   1      46.377  28.006  31.766  1.00  0.00     0.009 A 
ATOM     64  C   UNL A   1      46.973  28.872  29.588  1.00  0.00     0.009 A 
ATOM     65  C   UNL A   1      47.636  27.412  31.871  1.00  0.00     0.001 A 
ATOM     66  C   UNL A   1      48.222  28.254  29.685  1.00  0.00     0.001 A 
ATOM     67  C   UNL A   1      48.555  27.532  30.830  1.00  0.00     0.000 A 
ENDBRANCH  48  62
BRANCH  49  68
ATOM     68  C   UNL A   1      36.908  32.581  29.504  1.00  0.00    -0.014 A 
ATOM     69  C   UNL A   1      36.543  33.304  28.359  1.00  0.00     0.009 A 
ATOM     70  C   UNL A   1      35.972  32.433  30.540  1.00  0.00     0.009 A 
ATOM     71  C   UNL A   1      35.280  33.893  28.268  1.00  0.00     0.001 A 
ATOM     72  C   UNL A   1      34.699  32.997  30.433  1.00  0.00     0.001 A 
ATOM     73  C   UNL A   1      34.359  33.736  29.302  1.00  0.00     0.000 A 
ENDBRANCH  49  68
BRANCH  61  74
ATOM     74  C   UNL A   1      42.856  35.056  32.129  1.00  0.00    -0.014 A 
ATOM     75  C   UNL A   1      42.597  35.354  33.475  1.00  0.00     0.009 A 
ATOM     76  C   UNL A   1      43.498  36.017  31.331  1.00  0.00     0.009 A 
ATOM     77  C   UNL A   1      42.937  36.602  34.002  1.00  0.00     0.001 A 
ATOM     78  C   UNL A   1      43.862  37.254  31.867  1.00  0.00     0.001 A 
ATOM     79  C   UNL A   1      43.571  37.549  33.198  1.00  0.00     0.000 A 
ENDBRANCH  61  74
ENDBRANCH  35  36
ENDBRANCH  28  30
ENDBRANCH  27  28
ENDBRANCH  26  27
ENDBRANCH  25  26
ENDBRANCH  24  25
ENDBRANCH   1  24
TORSDOF 17
ENDMDL
