MODEL 1
REMARK VINA RESULT:     -10.6      0.000      0.000
REMARK SMILES Cc1cc(C[N@H+]2CC[C@](C)(C(=O)OCCOCCOC(=O)c3ccc(-c4c5nc(c(-c6ccccc6)c6ccc([nH]6)c(-c6ccccc6)c6nc(c(-c7ccccc7)c7ccc4[nH]7)C=C6)C=C5)cc3)C2)c2ccccc2n1
REMARK SMILES IDX 16 1 15 2 14 3 13 4 11 5 12 6 9 7 6 8 7 9 70 10 8 12 10 13
REMARK SMILES IDX 5 14 4 15 1 16 2 17 3 18 77 19 76 20 71 21 75 22 72 23 74 24
REMARK SMILES IDX 73 25 17 26 18 27 19 28 20 29 21 30 22 31 23 32 69 33 24 34
REMARK SMILES IDX 68 35 25 36 26 37 27 38 62 39 28 40 67 41 61 42 63 43 29 44
REMARK SMILES IDX 66 45 60 46 59 47 30 49 52 50 37 51 51 52 38 53 41 54 50 55
REMARK SMILES IDX 64 56 39 57 40 58 49 60 65 61 42 62 31 63 32 64 36 65 33 66
REMARK SMILES IDX 35 67 34 68 53 69 54 70 58 71 55 72 57 73 56 74 43 75 44 76
REMARK SMILES IDX 48 77 45 78 47 79 46 80
REMARK H PARENT 6 11 63 48 41 59
REMARK Flexibility Score: inf
ROOT
ATOM      1  O   UNL A   1      31.416  28.902  24.986  1.00  0.00    -0.374 OA
ENDROOT
BRANCH   1   2
ATOM      2  C   UNL A   1      30.612  29.544  23.994  1.00  0.00     0.202 C 
BRANCH   2   3
ATOM      3  C   UNL A   1      29.614  28.655  23.248  1.00  0.00     0.261 C 
BRANCH   3   4
ATOM      4  O   UNL A   1      30.203  27.381  22.931  1.00  0.00    -0.463 OA
BRANCH   4   5
ATOM      5  C   UNL A   1      29.874  26.352  23.757  1.00  0.00     0.317 C 
ATOM      6  O   UNL A   1      28.805  26.244  24.345  1.00  0.00    -0.251 OA
BRANCH   5   7
ATOM      7  C   UNL A   1      31.007  25.350  23.906  1.00  0.00     0.119 C 
ATOM      8  N   UNL A   1      32.916  25.136  25.380  1.00  0.00    -0.330 N 
ATOM      9  C   UNL A   1      33.402  25.189  24.005  1.00  0.00     0.263 C 
ATOM     10  C   UNL A   1      31.450  25.080  25.353  1.00  0.00     0.281 C 
ATOM     11  H   UNL A   1      33.182  26.000  25.851  1.00  0.00     0.348 HD
ATOM     12  C   UNL A   1      32.285  25.910  23.271  1.00  0.00     0.086 C 
ATOM     13  C   UNL A   1      30.564  24.044  23.227  1.00  0.00     0.030 C 
BRANCH   8  14
ATOM     14  C   UNL A   1      33.606  24.197  26.279  1.00  0.00     0.299 C 
BRANCH  14  15
ATOM     15  C   UNL A   1      34.229  22.982  25.610  1.00  0.00     0.017 A 
ATOM     16  C   UNL A   1      33.053  19.616  24.320  1.00  0.00     0.067 C 
ATOM     17  C   UNL A   1      33.923  20.737  24.802  1.00  0.00     0.038 A 
ATOM     18  C   UNL A   1      33.378  21.952  25.182  1.00  0.00     0.033 A 
ATOM     19  N   UNL A   1      35.245  20.478  24.898  1.00  0.00    -0.253 NA
ATOM     20  C   UNL A   1      36.075  21.470  25.265  1.00  0.00     0.071 A 
ATOM     21  C   UNL A   1      35.631  22.780  25.536  1.00  0.00     0.009 A 
ATOM     22  C   UNL A   1      37.424  21.182  25.422  1.00  0.00     0.029 A 
ATOM     23  C   UNL A   1      36.601  23.788  25.764  1.00  0.00     0.011 A 
ATOM     24  C   UNL A   1      38.359  22.161  25.766  1.00  0.00     0.002 A 
ATOM     25  C   UNL A   1      37.951  23.478  25.899  1.00  0.00     0.001 A 
ENDBRANCH  14  15
ENDBRANCH   8  14
ENDBRANCH   5   7
ENDBRANCH   4   5
ENDBRANCH   3   4
ENDBRANCH   2   3
ENDBRANCH   1   2
BRANCH   1  26
ATOM     26  C   UNL A   1      31.994  29.728  25.994  1.00  0.00     0.202 C 
BRANCH  26  27
ATOM     27  C   UNL A   1      32.517  29.016  27.251  1.00  0.00     0.261 C 
BRANCH  27  28
ATOM     28  O   UNL A   1      33.953  29.032  27.355  1.00  0.00    -0.460 OA
BRANCH  28  29
ATOM     29  C   UNL A   1      34.469  30.186  27.844  1.00  0.00     0.338 C 
ATOM     30  O   UNL A   1      33.874  31.237  28.050  1.00  0.00    -0.246 OA
BRANCH  29  31
ATOM     31  C   UNL A   1      35.865  29.988  28.271  1.00  0.00     0.060 A 
ATOM     32  C   UNL A   1      36.866  30.164  27.305  1.00  0.00     0.016 A 
ATOM     33  C   UNL A   1      36.193  29.553  29.557  1.00  0.00     0.016 A 
ATOM     34  C   UNL A   1      38.193  29.863  27.609  1.00  0.00     0.010 A 
ATOM     35  C   UNL A   1      37.525  29.242  29.856  1.00  0.00     0.010 A 
ATOM     36  C   UNL A   1      38.526  29.364  28.875  1.00  0.00    -0.014 A 
BRANCH  36  37
ATOM     37  C   UNL A   1      39.895  28.848  29.120  1.00  0.00     0.031 A 
ATOM     38  C   UNL A   1      40.898  29.727  29.819  1.00  0.00     0.074 A 
ATOM     39  C   UNL A   1      40.237  27.599  28.755  1.00  0.00     0.049 A 
ATOM     40  N   UNL A   1      42.147  29.479  30.121  1.00  0.00    -0.248 NA
ATOM     41  C   UNL A   1      40.430  31.059  30.233  1.00  0.00     0.031 C 
ATOM     42  C   UNL A   1      39.348  26.629  28.119  1.00  0.00     0.029 A 
ATOM     43  N   UNL A   1      41.432  26.934  28.874  1.00  0.00    -0.354 N 
ATOM     44  C   UNL A   1      42.617  30.625  30.751  1.00  0.00     0.074 A 
ATOM     45  C   UNL A   1      41.526  31.576  30.770  1.00  0.00     0.031 C 
ATOM     46  C   UNL A   1      40.030  25.490  27.901  1.00  0.00     0.029 A 
ATOM     47  C   UNL A   1      41.409  25.664  28.353  1.00  0.00     0.049 A 
ATOM     48  H   UNL A   1      42.230  27.330  29.293  1.00  0.00     0.167 HD
ATOM     49  C   UNL A   1      43.844  30.864  31.271  1.00  0.00     0.031 A 
ATOM     50  C   UNL A   1      42.394  24.751  28.237  1.00  0.00     0.031 A 
ATOM     51  C   UNL A   1      44.932  29.923  31.257  1.00  0.00     0.049 A 
ATOM     52  C   UNL A   1      43.773  25.078  28.745  1.00  0.00     0.074 A 
ATOM     53  C   UNL A   1      46.200  30.066  31.793  1.00  0.00     0.029 A 
ATOM     54  N   UNL A   1      44.884  28.672  30.667  1.00  0.00    -0.354 N 
ATOM     55  N   UNL A   1      44.192  26.151  29.370  1.00  0.00    -0.248 NA
ATOM     56  C   UNL A   1      44.816  24.063  28.528  1.00  0.00     0.031 C 
ATOM     57  C   UNL A   1      46.939  28.921  31.476  1.00  0.00     0.029 A 
ATOM     58  C   UNL A   1      46.112  28.046  30.791  1.00  0.00     0.049 A 
ATOM     59  H   UNL A   1      44.094  28.284  30.226  1.00  0.00     0.167 HD
ATOM     60  C   UNL A   1      45.535  25.928  29.647  1.00  0.00     0.074 A 
ATOM     61  C   UNL A   1      45.859  24.615  29.132  1.00  0.00     0.031 C 
ATOM     62  C   UNL A   1      46.421  26.739  30.274  1.00  0.00     0.031 A 
BRANCH  49  63
ATOM     63  C   UNL A   1      44.093  32.219  31.872  1.00  0.00    -0.014 A 
ATOM     64  C   UNL A   1      44.547  33.292  31.090  1.00  0.00     0.009 A 
ATOM     65  C   UNL A   1      43.818  32.434  33.231  1.00  0.00     0.009 A 
ATOM     66  C   UNL A   1      44.744  34.549  31.666  1.00  0.00     0.001 A 
ATOM     67  C   UNL A   1      43.993  33.696  33.799  1.00  0.00     0.001 A 
ATOM     68  C   UNL A   1      44.463  34.752  33.018  1.00  0.00     0.000 A 
ENDBRANCH  49  63
BRANCH  50  69
ATOM     69  C   UNL A   1      42.128  23.441  27.588  1.00  0.00    -0.014 A 
ATOM     70  C   UNL A   1      41.615  22.366  28.331  1.00  0.00     0.009 A 
ATOM     71  C   UNL A   1      42.423  23.247  26.230  1.00  0.00     0.009 A 
ATOM     72  C   UNL A   1      41.429  21.118  27.732  1.00  0.00     0.001 A 
ATOM     73  C   UNL A   1      42.211  22.005  25.627  1.00  0.00     0.001 A 
ATOM     74  C   UNL A   1      41.724  20.940  26.382  1.00  0.00     0.000 A 
ENDBRANCH  50  69
BRANCH  62  75
ATOM     75  C   UNL A   1      47.818  26.218  30.468  1.00  0.00    -0.014 A 
ATOM     76  C   UNL A   1      48.769  26.285  29.439  1.00  0.00     0.009 A 
ATOM     77  C   UNL A   1      48.198  25.694  31.714  1.00  0.00     0.009 A 
ATOM     78  C   UNL A   1      50.067  25.810  29.645  1.00  0.00     0.001 A 
ATOM     79  C   UNL A   1      49.502  25.246  31.926  1.00  0.00     0.001 A 
ATOM     80  C   UNL A   1      50.433  25.296  30.889  1.00  0.00     0.000 A 
ENDBRANCH  62  75
ENDBRANCH  36  37
ENDBRANCH  29  31
ENDBRANCH  28  29
ENDBRANCH  27  28
ENDBRANCH  26  27
ENDBRANCH   1  26
TORSDOF 16
ENDMDL
MODEL 2
REMARK VINA RESULT:     -10.5      2.667      7.846
REMARK SMILES Cc1cc(C[N@H+]2CC[C@](C)(C(=O)OCCOCCOC(=O)c3ccc(-c4c5nc(c(-c6ccccc6)c6ccc([nH]6)c(-c6ccccc6)c6nc(c(-c7ccccc7)c7ccc4[nH]7)C=C6)C=C5)cc3)C2)c2ccccc2n1
REMARK SMILES IDX 16 1 15 2 14 3 13 4 11 5 12 6 9 7 6 8 7 9 70 10 8 12 10 13
REMARK SMILES IDX 5 14 4 15 1 16 2 17 3 18 77 19 76 20 71 21 75 22 72 23 74 24
REMARK SMILES IDX 73 25 17 26 18 27 19 28 20 29 21 30 22 31 23 32 69 33 24 34
REMARK SMILES IDX 68 35 25 36 26 37 27 38 62 39 28 40 67 41 61 42 63 43 29 44
REMARK SMILES IDX 66 45 60 46 59 47 30 49 52 50 37 51 51 52 38 53 41 54 50 55
REMARK SMILES IDX 64 56 39 57 40 58 49 60 65 61 42 62 31 63 32 64 36 65 33 66
REMARK SMILES IDX 35 67 34 68 53 69 54 70 58 71 55 72 57 73 56 74 43 75 44 76
REMARK SMILES IDX 48 77 45 78 47 79 46 80
REMARK H PARENT 6 11 63 48 41 59
REMARK Flexibility Score: inf
ROOT
ATOM      1  O   UNL A   1      38.704  22.109  26.057  1.00  0.00    -0.374 OA
ENDROOT
BRANCH   1   2
ATOM      2  C   UNL A   1      37.977  23.324  25.863  1.00  0.00     0.202 C 
BRANCH   2   3
ATOM      3  C   UNL A   1      36.926  23.319  24.750  1.00  0.00     0.261 C 
BRANCH   3   4
ATOM      4  O   UNL A   1      35.610  23.530  25.292  1.00  0.00    -0.463 OA
BRANCH   4   5
ATOM      5  C   UNL A   1      34.574  23.345  24.430  1.00  0.00     0.317 C 
ATOM      6  O   UNL A   1      34.378  22.322  23.786  1.00  0.00    -0.251 OA
BRANCH   5   7
ATOM      7  C   UNL A   1      33.692  24.578  24.319  1.00  0.00     0.119 C 
ATOM      8  N   UNL A   1      31.445  25.004  23.526  1.00  0.00    -0.330 N 
ATOM      9  C   UNL A   1      32.367  25.833  22.758  1.00  0.00     0.263 C 
ATOM     10  C   UNL A   1      32.199  24.334  24.592  1.00  0.00     0.281 C 
ATOM     11  H   UNL A   1      31.071  24.280  22.912  1.00  0.00     0.348 HD
ATOM     12  C   UNL A   1      33.683  25.083  22.873  1.00  0.00     0.086 C 
ATOM     13  C   UNL A   1      34.250  25.635  25.286  1.00  0.00     0.030 C 
BRANCH   8  14
ATOM     14  C   UNL A   1      30.166  25.628  23.901  1.00  0.00     0.299 C 
BRANCH  14  15
ATOM     15  C   UNL A   1      30.186  27.142  24.033  1.00  0.00     0.017 A 
ATOM     16  C   UNL A   1      29.467  30.132  21.814  1.00  0.00     0.067 C 
ATOM     17  C   UNL A   1      29.960  29.272  22.939  1.00  0.00     0.038 A 
ATOM     18  C   UNL A   1      29.725  27.908  22.952  1.00  0.00     0.033 A 
ATOM     19  N   UNL A   1      30.685  29.888  23.897  1.00  0.00    -0.253 NA
ATOM     20  C   UNL A   1      31.096  29.174  24.959  1.00  0.00     0.071 A 
ATOM     21  C   UNL A   1      30.785  27.811  25.132  1.00  0.00     0.009 A 
ATOM     22  C   UNL A   1      31.893  29.798  25.910  1.00  0.00     0.029 A 
ATOM     23  C   UNL A   1      31.133  27.189  26.358  1.00  0.00     0.011 A 
ATOM     24  C   UNL A   1      32.333  29.139  27.060  1.00  0.00     0.002 A 
ATOM     25  C   UNL A   1      31.918  27.841  27.304  1.00  0.00     0.001 A 
ENDBRANCH  14  15
ENDBRANCH   8  14
ENDBRANCH   5   7
ENDBRANCH   4   5
ENDBRANCH   3   4
ENDBRANCH   2   3
ENDBRANCH   1   2
BRANCH   1  26
ATOM     26  C   UNL A   1      38.247  20.955  25.354  1.00  0.00     0.202 C 
BRANCH  26  27
ATOM     27  C   UNL A   1      39.199  19.750  25.319  1.00  0.00     0.261 C 
BRANCH  27  28
ATOM     28  O   UNL A   1      40.122  19.724  26.424  1.00  0.00    -0.460 OA
BRANCH  28  29
ATOM     29  C   UNL A   1      41.425  19.840  26.071  1.00  0.00     0.338 C 
ATOM     30  O   UNL A   1      42.066  19.092  25.342  1.00  0.00    -0.246 OA
BRANCH  29  31
ATOM     31  C   UNL A   1      41.981  21.114  26.558  1.00  0.00     0.060 A 
ATOM     32  C   UNL A   1      41.932  21.354  27.938  1.00  0.00     0.016 A 
ATOM     33  C   UNL A   1      42.458  22.096  25.687  1.00  0.00     0.016 A 
ATOM     34  C   UNL A   1      42.319  22.592  28.448  1.00  0.00     0.010 A 
ATOM     35  C   UNL A   1      42.836  23.343  26.201  1.00  0.00     0.010 A 
ATOM     36  C   UNL A   1      42.737  23.608  27.579  1.00  0.00    -0.014 A 
BRANCH  36  37
ATOM     37  C   UNL A   1      42.941  24.981  28.104  1.00  0.00     0.031 A 
ATOM     38  C   UNL A   1      44.327  25.422  28.490  1.00  0.00     0.074 A 
ATOM     39  C   UNL A   1      41.911  25.840  28.206  1.00  0.00     0.049 A 
ATOM     40  N   UNL A   1      44.725  26.569  28.979  1.00  0.00    -0.248 NA
ATOM     41  C   UNL A   1      45.407  24.441  28.299  1.00  0.00     0.031 C 
ATOM     42  C   UNL A   1      40.530  25.558  27.818  1.00  0.00     0.029 A 
ATOM     43  N   UNL A   1      41.874  27.132  28.667  1.00  0.00    -0.354 N 
ATOM     44  C   UNL A   1      46.097  26.446  29.163  1.00  0.00     0.074 A 
ATOM     45  C   UNL A   1      46.460  25.106  28.753  1.00  0.00     0.031 C 
ATOM     46  C   UNL A   1      39.778  26.646  28.059  1.00  0.00     0.029 A 
ATOM     47  C   UNL A   1      40.618  27.688  28.648  1.00  0.00     0.049 A 
ATOM     48  H   UNL A   1      42.672  27.615  28.983  1.00  0.00     0.167 HD
ATOM     49  C   UNL A   1      46.976  27.365  29.626  1.00  0.00     0.031 A 
ATOM     50  C   UNL A   1      40.192  28.893  29.073  1.00  0.00     0.031 A 
ATOM     51  C   UNL A   1      46.622  28.697  30.035  1.00  0.00     0.049 A 
ATOM     52  C   UNL A   1      41.178  29.863  29.668  1.00  0.00     0.074 A 
ATOM     53  C   UNL A   1      47.452  29.709  30.484  1.00  0.00     0.029 A 
ATOM     54  N   UNL A   1      45.332  29.199  30.055  1.00  0.00    -0.354 N 
ATOM     55  N   UNL A   1      42.476  29.745  29.800  1.00  0.00    -0.248 NA
ATOM     56  C   UNL A   1      40.635  31.135  30.171  1.00  0.00     0.031 C 
ATOM     57  C   UNL A   1      46.656  30.806  30.831  1.00  0.00     0.029 A 
ATOM     58  C   UNL A   1      45.337  30.493  30.545  1.00  0.00     0.049 A 
ATOM     59  H   UNL A   1      44.529  28.708  29.762  1.00  0.00     0.167 HD
ATOM     60  C   UNL A   1      42.908  30.936  30.374  1.00  0.00     0.074 A 
ATOM     61  C   UNL A   1      41.736  31.766  30.554  1.00  0.00     0.031 C 
ATOM     62  C   UNL A   1      44.164  31.308  30.719  1.00  0.00     0.031 A 
BRANCH  49  63
ATOM     63  C   UNL A   1      48.414  26.948  29.755  1.00  0.00    -0.014 A 
ATOM     64  C   UNL A   1      49.341  27.193  28.730  1.00  0.00     0.009 A 
ATOM     65  C   UNL A   1      48.856  26.346  30.943  1.00  0.00     0.009 A 
ATOM     66  C   UNL A   1      50.678  26.821  28.885  1.00  0.00     0.001 A 
ATOM     67  C   UNL A   1      50.197  25.996  31.105  1.00  0.00     0.001 A 
ATOM     68  C   UNL A   1      51.106  26.227  30.074  1.00  0.00     0.000 A 
ENDBRANCH  49  63
BRANCH  50  69
ATOM     69  C   UNL A   1      38.753  29.253  28.981  1.00  0.00    -0.014 A 
ATOM     70  C   UNL A   1      37.898  29.069  30.079  1.00  0.00     0.009 A 
ATOM     71  C   UNL A   1      38.218  29.747  27.781  1.00  0.00     0.009 A 
ATOM     72  C   UNL A   1      36.534  29.346  29.967  1.00  0.00     0.001 A 
ATOM     73  C   UNL A   1      36.859  30.050  27.680  1.00  0.00     0.001 A 
ATOM     74  C   UNL A   1      36.016  29.838  28.770  1.00  0.00     0.000 A 
ENDBRANCH  50  69
BRANCH  62  75
ATOM     75  C   UNL A   1      44.343  32.684  31.296  1.00  0.00    -0.014 A 
ATOM     76  C   UNL A   1      44.489  33.807  30.467  1.00  0.00     0.009 A 
ATOM     77  C   UNL A   1      44.318  32.864  32.688  1.00  0.00     0.009 A 
ATOM     78  C   UNL A   1      44.636  35.080  31.023  1.00  0.00     0.001 A 
ATOM     79  C   UNL A   1      44.438  34.140  33.240  1.00  0.00     0.001 A 
ATOM     80  C   UNL A   1      44.606  35.246  32.407  1.00  0.00     0.000 A 
ENDBRANCH  62  75
ENDBRANCH  36  37
ENDBRANCH  29  31
ENDBRANCH  28  29
ENDBRANCH  27  28
ENDBRANCH  26  27
ENDBRANCH   1  26
TORSDOF 16
ENDMDL
MODEL 3
REMARK VINA RESULT:     -10.3      3.501      8.238
REMARK SMILES Cc1cc(C[N@H+]2CC[C@](C)(C(=O)OCCOCCOC(=O)c3ccc(-c4c5nc(c(-c6ccccc6)c6ccc([nH]6)c(-c6ccccc6)c6nc(c(-c7ccccc7)c7ccc4[nH]7)C=C6)C=C5)cc3)C2)c2ccccc2n1
REMARK SMILES IDX 16 1 15 2 14 3 13 4 11 5 12 6 9 7 6 8 7 9 70 10 8 12 10 13
REMARK SMILES IDX 5 14 4 15 1 16 2 17 3 18 77 19 76 20 71 21 75 22 72 23 74 24
REMARK SMILES IDX 73 25 17 26 18 27 19 28 20 29 21 30 22 31 23 32 69 33 24 34
REMARK SMILES IDX 68 35 25 36 26 37 27 38 62 39 28 40 67 41 61 42 63 43 29 44
REMARK SMILES IDX 66 45 60 46 59 47 30 49 52 50 37 51 51 52 38 53 41 54 50 55
REMARK SMILES IDX 64 56 39 57 40 58 49 60 65 61 42 62 31 63 32 64 36 65 33 66
REMARK SMILES IDX 35 67 34 68 53 69 54 70 58 71 55 72 57 73 56 74 43 75 44 76
REMARK SMILES IDX 48 77 45 78 47 79 46 80
REMARK H PARENT 6 11 63 48 41 59
REMARK Flexibility Score: inf
ROOT
ATOM      1  O   UNL A   1      37.612  21.264  25.275  1.00  0.00    -0.374 OA
ENDROOT
BRANCH   1   2
ATOM      2  C   UNL A   1      36.259  21.523  25.653  1.00  0.00     0.202 C 
BRANCH   2   3
ATOM      3  C   UNL A   1      35.181  21.124  24.642  1.00  0.00     0.261 C 
BRANCH   3   4
ATOM      4  O   UNL A   1      34.217  22.180  24.481  1.00  0.00    -0.463 OA
BRANCH   4   5
ATOM      5  C   UNL A   1      34.575  23.190  23.643  1.00  0.00     0.317 C 
ATOM      6  O   UNL A   1      35.498  23.135  22.839  1.00  0.00    -0.251 OA
BRANCH   5   7
ATOM      7  C   UNL A   1      33.717  24.429  23.838  1.00  0.00     0.119 C 
ATOM      8  N   UNL A   1      31.458  25.055  23.235  1.00  0.00    -0.330 N 
ATOM      9  C   UNL A   1      32.375  26.021  22.639  1.00  0.00     0.263 C 
ATOM     10  C   UNL A   1      32.228  24.154  24.100  1.00  0.00     0.281 C 
ATOM     11  H   UNL A   1      31.050  24.492  22.488  1.00  0.00     0.348 HD
ATOM     12  C   UNL A   1      33.677  25.244  22.541  1.00  0.00     0.086 C 
ATOM     13  C   UNL A   1      34.326  25.237  24.995  1.00  0.00     0.030 C 
BRANCH   8  14
ATOM     14  C   UNL A   1      30.205  25.600  23.782  1.00  0.00     0.299 C 
BRANCH  14  15
ATOM     15  C   UNL A   1      30.171  27.108  23.975  1.00  0.00     0.017 A 
ATOM     16  C   UNL A   1      29.158  30.145  21.943  1.00  0.00     0.067 C 
ATOM     17  C   UNL A   1      29.771  29.266  22.991  1.00  0.00     0.038 A 
ATOM     18  C   UNL A   1      29.596  27.893  22.965  1.00  0.00     0.033 A 
ATOM     19  N   UNL A   1      30.542  29.877  23.917  1.00  0.00    -0.253 NA
ATOM     20  C   UNL A   1      31.063  29.142  24.914  1.00  0.00     0.071 A 
ATOM     21  C   UNL A   1      30.824  27.760  25.052  1.00  0.00     0.009 A 
ATOM     22  C   UNL A   1      31.904  29.764  25.827  1.00  0.00     0.029 A 
ATOM     23  C   UNL A   1      31.291  27.108  26.222  1.00  0.00     0.011 A 
ATOM     24  C   UNL A   1      32.459  29.082  26.912  1.00  0.00     0.002 A 
ATOM     25  C   UNL A   1      32.119  27.757  27.132  1.00  0.00     0.001 A 
ENDBRANCH  14  15
ENDBRANCH   8  14
ENDBRANCH   5   7
ENDBRANCH   4   5
ENDBRANCH   3   4
ENDBRANCH   2   3
ENDBRANCH   1   2
BRANCH   1  26
ATOM     26  C   UNL A   1      37.957  19.916  24.962  1.00  0.00     0.202 C 
BRANCH  26  27
ATOM     27  C   UNL A   1      39.175  19.330  25.690  1.00  0.00     0.261 C 
BRANCH  27  28
ATOM     28  O   UNL A   1      40.299  20.229  25.731  1.00  0.00    -0.460 OA
BRANCH  28  29
ATOM     29  C   UNL A   1      40.922  20.299  26.932  1.00  0.00     0.338 C 
ATOM     30  O   UNL A   1      41.428  19.376  27.560  1.00  0.00    -0.246 OA
BRANCH  29  31
ATOM     31  C   UNL A   1      41.073  21.702  27.356  1.00  0.00     0.060 A 
ATOM     32  C   UNL A   1      40.440  22.682  26.579  1.00  0.00     0.016 A 
ATOM     33  C   UNL A   1      41.885  22.068  28.431  1.00  0.00     0.016 A 
ATOM     34  C   UNL A   1      40.651  24.033  26.848  1.00  0.00     0.010 A 
ATOM     35  C   UNL A   1      42.104  23.426  28.693  1.00  0.00     0.010 A 
ATOM     36  C   UNL A   1      41.515  24.414  27.883  1.00  0.00    -0.014 A 
BRANCH  36  37
ATOM     37  C   UNL A   1      41.900  25.840  28.025  1.00  0.00     0.031 A 
ATOM     38  C   UNL A   1      43.171  26.326  27.380  1.00  0.00     0.074 A 
ATOM     39  C   UNL A   1      41.114  26.704  28.691  1.00  0.00     0.049 A 
ATOM     40  N   UNL A   1      43.698  27.524  27.389  1.00  0.00    -0.248 NA
ATOM     41  C   UNL A   1      43.948  25.331  26.624  1.00  0.00     0.031 C 
ATOM     42  C   UNL A   1      39.834  26.376  29.317  1.00  0.00     0.029 A 
ATOM     43  N   UNL A   1      41.281  28.042  28.948  1.00  0.00    -0.354 N 
ATOM     44  C   UNL A   1      44.871  27.425  26.651  1.00  0.00     0.074 A 
ATOM     45  C   UNL A   1      44.990  26.047  26.226  1.00  0.00     0.031 C 
ATOM     46  C   UNL A   1      39.331  27.484  29.889  1.00  0.00     0.029 A 
ATOM     47  C   UNL A   1      40.268  28.590  29.697  1.00  0.00     0.049 A 
ATOM     48  H   UNL A   1      42.054  28.560  28.627  1.00  0.00     0.167 HD
ATOM     49  C   UNL A   1      45.768  28.394  26.349  1.00  0.00     0.031 A 
ATOM     50  C   UNL A   1      40.122  29.837  30.186  1.00  0.00     0.031 A 
ATOM     51  C   UNL A   1      45.656  29.765  26.768  1.00  0.00     0.049 A 
ATOM     52  C   UNL A   1      41.180  30.871  29.910  1.00  0.00     0.074 A 
ATOM     53  C   UNL A   1      46.499  30.825  26.479  1.00  0.00     0.029 A 
ATOM     54  N   UNL A   1      44.646  30.264  27.573  1.00  0.00    -0.354 N 
ATOM     55  N   UNL A   1      42.264  30.773  29.180  1.00  0.00    -0.248 NA
ATOM     56  C   UNL A   1      40.990  32.194  30.528  1.00  0.00     0.031 C 
ATOM     57  C   UNL A   1      46.029  31.954  27.158  1.00  0.00     0.029 A 
ATOM     58  C   UNL A   1      44.864  31.607  27.824  1.00  0.00     0.049 A 
ATOM     59  H   UNL A   1      43.885  29.741  27.916  1.00  0.00     0.167 HD
ATOM     60  C   UNL A   1      42.868  32.023  29.228  1.00  0.00     0.074 A 
ATOM     61  C   UNL A   1      42.026  32.867  30.048  1.00  0.00     0.031 C 
ATOM     62  C   UNL A   1      44.019  32.436  28.642  1.00  0.00     0.031 A 
BRANCH  49  63
ATOM     63  C   UNL A   1      46.979  27.997  25.554  1.00  0.00    -0.014 A 
ATOM     64  C   UNL A   1      48.191  27.670  26.181  1.00  0.00     0.009 A 
ATOM     65  C   UNL A   1      46.888  27.901  24.156  1.00  0.00     0.009 A 
ATOM     66  C   UNL A   1      49.295  27.277  25.421  1.00  0.00     0.001 A 
ATOM     67  C   UNL A   1      47.985  27.486  23.401  1.00  0.00     0.001 A 
ATOM     68  C   UNL A   1      49.190  27.181  24.033  1.00  0.00     0.000 A 
ENDBRANCH  49  63
BRANCH  50  69
ATOM     69  C   UNL A   1      38.938  30.182  31.016  1.00  0.00    -0.014 A 
ATOM     70  C   UNL A   1      38.964  30.001  32.407  1.00  0.00     0.009 A 
ATOM     71  C   UNL A   1      37.762  30.656  30.414  1.00  0.00     0.009 A 
ATOM     72  C   UNL A   1      37.827  30.264  33.175  1.00  0.00     0.001 A 
ATOM     73  C   UNL A   1      36.636  30.944  31.188  1.00  0.00     0.001 A 
ATOM     74  C   UNL A   1      36.666  30.737  32.566  1.00  0.00     0.000 A 
ENDBRANCH  50  69
BRANCH  62  75
ATOM     75  C   UNL A   1      44.418  33.871  28.839  1.00  0.00    -0.014 A 
ATOM     76  C   UNL A   1      45.351  34.239  29.819  1.00  0.00     0.009 A 
ATOM     77  C   UNL A   1      43.885  34.863  27.999  1.00  0.00     0.009 A 
ATOM     78  C   UNL A   1      45.721  35.578  29.975  1.00  0.00     0.001 A 
ATOM     79  C   UNL A   1      44.277  36.195  28.138  1.00  0.00     0.001 A 
ATOM     80  C   UNL A   1      45.188  36.552  29.132  1.00  0.00     0.000 A 
ENDBRANCH  62  75
ENDBRANCH  36  37
ENDBRANCH  29  31
ENDBRANCH  28  29
ENDBRANCH  27  28
ENDBRANCH  26  27
ENDBRANCH   1  26
TORSDOF 16
ENDMDL
