MODEL 1
REMARK VINA RESULT:     -10.4      0.000      0.000
REMARK SMILES COc1ccc2c(c1)C=C(C(=O)OCCOCCOC(=O)c1ccc(-c3c4nc(c(-c5ccccc5)c5ccc([nH]5)c(-c5ccccc5)c5nc(c(-c6ccccc6)c6ccc3[nH]6)C=C5)C=C4)cc1)[C@H](C(F)(F)F)O2
REMARK SMILES IDX 17 1 16 2 15 3 14 4 13 5 11 6 12 7 10 8 3 9 4 10 8 11 5 12
REMARK SMILES IDX 7 13 6 14 9 15 75 16 70 17 2 18 1 19 71 20 72 21 73 22 74 23
REMARK SMILES IDX 18 24 19 25 20 26 21 27 22 28 23 29 69 30 24 31 68 32 25 33
REMARK SMILES IDX 26 34 27 35 62 36 28 37 67 38 61 39 63 40 29 41 66 42 60 43
REMARK SMILES IDX 59 44 30 46 52 47 37 48 51 49 38 50 41 51 50 52 64 53 39 54
REMARK SMILES IDX 40 55 49 57 65 58 42 59 31 60 32 61 36 62 33 63 35 64 34 65
REMARK SMILES IDX 53 66 54 67 58 68 55 69 57 70 56 71 43 72 44 73 48 74 45 75
REMARK SMILES IDX 47 76 46 77
REMARK H PARENT 63 45 41 56
REMARK Flexibility Score: inf
ROOT
ATOM      1  C   UNL A   1      35.275  21.073  24.763  1.00  0.00     0.202 C 
ENDROOT
BRANCH   1   2
ATOM      2  O   UNL A   1      34.089  20.287  24.854  1.00  0.00    -0.374 OA
BRANCH   2   3
ATOM      3  C   UNL A   1      32.830  20.941  24.722  1.00  0.00     0.202 C 
BRANCH   3   4
ATOM      4  C   UNL A   1      32.430  21.433  23.329  1.00  0.00     0.261 C 
BRANCH   4   5
ATOM      5  O   UNL A   1      32.100  22.830  23.326  1.00  0.00    -0.460 OA
BRANCH   5   6
ATOM      6  C   UNL A   1      33.053  23.638  22.806  1.00  0.00     0.338 C 
ATOM      7  O   UNL A   1      34.009  23.289  22.130  1.00  0.00    -0.246 OA
BRANCH   6   8
ATOM      8  C   UNL A   1      32.742  25.052  23.065  1.00  0.00     0.087 C 
ATOM      9  C   UNL A   1      30.107  29.049  22.545  1.00  0.00     0.119 A 
ATOM     10  C   UNL A   1      30.488  29.454  23.827  1.00  0.00     0.050 A 
ATOM     11  C   UNL A   1      30.548  27.820  22.040  1.00  0.00     0.058 A 
ATOM     12  C   UNL A   1      31.349  28.657  24.584  1.00  0.00     0.051 A 
ATOM     13  C   UNL A   1      31.405  27.016  22.794  1.00  0.00     0.021 A 
ATOM     14  C   UNL A   1      31.819  27.458  24.058  1.00  0.00     0.128 A 
ATOM     15  C   UNL A   1      31.780  25.670  22.359  1.00  0.00     0.027 C 
ATOM     16  O   UNL A   1      32.637  26.711  24.867  1.00  0.00    -0.475 OA
ATOM     17  C   UNL A   1      33.502  25.797  24.142  1.00  0.00     0.316 C 
BRANCH   9  18
ATOM     18  O   UNL A   1      29.248  29.743  21.737  1.00  0.00    -0.497 OA
ATOM     19  C   UNL A   1      28.925  31.057  22.183  1.00  0.00     0.278 C 
ENDBRANCH   9  18
BRANCH  17  20
ATOM     20  C   UNL A   1      34.328  24.991  25.158  1.00  0.00     0.430 C 
ATOM     21  F   UNL A   1      35.429  24.455  24.578  1.00  0.00    -0.167 F 
ATOM     22  F   UNL A   1      34.791  25.815  26.137  1.00  0.00    -0.167 F 
ATOM     23  F   UNL A   1      33.629  24.014  25.766  1.00  0.00    -0.167 F 
ENDBRANCH  17  20
ENDBRANCH   6   8
ENDBRANCH   5   6
ENDBRANCH   4   5
ENDBRANCH   3   4
ENDBRANCH   2   3
ENDBRANCH   1   2
BRANCH   1  24
ATOM     24  C   UNL A   1      36.608  20.414  25.139  1.00  0.00     0.261 C 
BRANCH  24  25
ATOM     25  O   UNL A   1      37.735  21.294  24.983  1.00  0.00    -0.460 OA
BRANCH  25  26
ATOM     26  C   UNL A   1      38.806  20.981  25.752  1.00  0.00     0.338 C 
ATOM     27  O   UNL A   1      39.356  19.892  25.852  1.00  0.00    -0.246 OA
BRANCH  26  28
ATOM     28  C   UNL A   1      39.369  22.200  26.355  1.00  0.00     0.060 A 
ATOM     29  C   UNL A   1      38.773  23.424  26.025  1.00  0.00     0.016 A 
ATOM     30  C   UNL A   1      40.511  22.156  27.156  1.00  0.00     0.016 A 
ATOM     31  C   UNL A   1      39.344  24.617  26.463  1.00  0.00     0.010 A 
ATOM     32  C   UNL A   1      41.088  23.355  27.585  1.00  0.00     0.010 A 
ATOM     33  C   UNL A   1      40.525  24.590  27.214  1.00  0.00    -0.014 A 
BRANCH  33  34
ATOM     34  C   UNL A   1      41.249  25.855  27.487  1.00  0.00     0.031 A 
ATOM     35  C   UNL A   1      40.603  26.890  28.369  1.00  0.00     0.074 A 
ATOM     36  C   UNL A   1      42.480  26.065  26.988  1.00  0.00     0.049 A 
ATOM     37  N   UNL A   1      41.035  28.079  28.705  1.00  0.00    -0.248 NA
ATOM     38  C   UNL A   1      39.298  26.535  28.952  1.00  0.00     0.031 C 
ATOM     39  C   UNL A   1      43.237  25.117  26.171  1.00  0.00     0.029 A 
ATOM     40  N   UNL A   1      43.310  27.153  27.098  1.00  0.00    -0.354 N 
ATOM     41  C   UNL A   1      40.059  28.612  29.538  1.00  0.00     0.074 A 
ATOM     42  C   UNL A   1      38.996  27.635  29.628  1.00  0.00     0.031 C 
ATOM     43  C   UNL A   1      44.422  25.667  25.852  1.00  0.00     0.029 A 
ATOM     44  C   UNL A   1      44.490  27.016  26.408  1.00  0.00     0.049 A 
ATOM     45  H   UNL A   1      43.082  27.954  27.623  1.00  0.00     0.167 HD
ATOM     46  C   UNL A   1      40.052  29.803  30.181  1.00  0.00     0.031 A 
ATOM     47  C   UNL A   1      45.496  27.892  26.229  1.00  0.00     0.031 A 
ATOM     48  C   UNL A   1      41.099  30.784  30.079  1.00  0.00     0.049 A 
ATOM     49  C   UNL A   1      45.411  29.255  26.866  1.00  0.00     0.074 A 
ATOM     50  C   UNL A   1      41.176  32.030  30.678  1.00  0.00     0.029 A 
ATOM     51  N   UNL A   1      42.252  30.630  29.326  1.00  0.00    -0.354 N 
ATOM     52  N   UNL A   1      44.485  29.745  27.655  1.00  0.00    -0.248 NA
ATOM     53  C   UNL A   1      46.517  30.184  26.589  1.00  0.00     0.031 C 
ATOM     54  C   UNL A   1      42.355  32.649  30.248  1.00  0.00     0.029 A 
ATOM     55  C   UNL A   1      43.039  31.765  29.431  1.00  0.00     0.049 A 
ATOM     56  H   UNL A   1      42.479  29.832  28.795  1.00  0.00     0.167 HD
ATOM     57  C   UNL A   1      44.917  31.020  27.999  1.00  0.00     0.074 A 
ATOM     58  C   UNL A   1      46.193  31.223  27.345  1.00  0.00     0.031 C 
ATOM     59  C   UNL A   1      44.313  31.943  28.786  1.00  0.00     0.031 A 
BRANCH  46  60
ATOM     60  C   UNL A   1      38.863  30.120  31.044  1.00  0.00    -0.014 A 
ATOM     61  C   UNL A   1      38.747  29.593  32.340  1.00  0.00     0.009 A 
ATOM     62  C   UNL A   1      37.871  30.995  30.574  1.00  0.00     0.009 A 
ATOM     63  C   UNL A   1      37.649  29.918  33.139  1.00  0.00     0.001 A 
ATOM     64  C   UNL A   1      36.788  31.339  31.386  1.00  0.00     0.001 A 
ATOM     65  C   UNL A   1      36.675  30.794  32.664  1.00  0.00     0.000 A 
ENDBRANCH  46  60
BRANCH  47  66
ATOM     66  C   UNL A   1      46.671  27.534  25.387  1.00  0.00    -0.014 A 
ATOM     67  C   UNL A   1      46.732  27.923  24.041  1.00  0.00     0.009 A 
ATOM     68  C   UNL A   1      47.708  26.749  25.913  1.00  0.00     0.009 A 
ATOM     69  C   UNL A   1      47.786  27.498  23.228  1.00  0.00     0.001 A 
ATOM     70  C   UNL A   1      48.778  26.353  25.107  1.00  0.00     0.001 A 
ATOM     71  C   UNL A   1      48.809  26.716  23.762  1.00  0.00     0.000 A 
ENDBRANCH  47  66
BRANCH  59  72
ATOM     72  C   UNL A   1      45.050  33.231  29.031  1.00  0.00    -0.014 A 
ATOM     73  C   UNL A   1      44.840  34.361  28.226  1.00  0.00     0.009 A 
ATOM     74  C   UNL A   1      45.943  33.320  30.111  1.00  0.00     0.009 A 
ATOM     75  C   UNL A   1      45.539  35.543  28.476  1.00  0.00     0.001 A 
ATOM     76  C   UNL A   1      46.616  34.513  30.377  1.00  0.00     0.001 A 
ATOM     77  C   UNL A   1      46.422  35.621  29.553  1.00  0.00     0.000 A 
ENDBRANCH  59  72
ENDBRANCH  33  34
ENDBRANCH  26  28
ENDBRANCH  25  26
ENDBRANCH  24  25
ENDBRANCH   1  24
TORSDOF 16
ENDMDL
MODEL 2
REMARK VINA RESULT:     -10.3      2.552      6.304
REMARK SMILES COc1ccc2c(c1)C=C(C(=O)OCCOCCOC(=O)c1ccc(-c3c4nc(c(-c5ccccc5)c5ccc([nH]5)c(-c5ccccc5)c5nc(c(-c6ccccc6)c6ccc3[nH]6)C=C5)C=C4)cc1)[C@H](C(F)(F)F)O2
REMARK SMILES IDX 17 1 16 2 15 3 14 4 13 5 11 6 12 7 10 8 3 9 4 10 8 11 5 12
REMARK SMILES IDX 7 13 6 14 9 15 75 16 70 17 2 18 1 19 71 20 72 21 73 22 74 23
REMARK SMILES IDX 18 24 19 25 20 26 21 27 22 28 23 29 69 30 24 31 68 32 25 33
REMARK SMILES IDX 26 34 27 35 62 36 28 37 67 38 61 39 63 40 29 41 66 42 60 43
REMARK SMILES IDX 59 44 30 46 52 47 37 48 51 49 38 50 41 51 50 52 64 53 39 54
REMARK SMILES IDX 40 55 49 57 65 58 42 59 31 60 32 61 36 62 33 63 35 64 34 65
REMARK SMILES IDX 53 66 54 67 58 68 55 69 57 70 56 71 43 72 44 73 48 74 45 75
REMARK SMILES IDX 47 76 46 77
REMARK H PARENT 63 45 41 56
REMARK Flexibility Score: inf
ROOT
ATOM      1  C   UNL A   1      38.918  21.572  25.804  1.00  0.00     0.202 C 
ENDROOT
BRANCH   1   2
ATOM      2  O   UNL A   1      37.517  21.829  25.732  1.00  0.00    -0.374 OA
BRANCH   2   3
ATOM      3  C   UNL A   1      37.074  22.969  25.001  1.00  0.00     0.202 C 
BRANCH   3   4
ATOM      4  C   UNL A   1      36.391  22.725  23.653  1.00  0.00     0.261 C 
BRANCH   4   5
ATOM      5  O   UNL A   1      34.986  22.468  23.800  1.00  0.00    -0.460 OA
BRANCH   5   6
ATOM      6  C   UNL A   1      34.177  23.407  23.255  1.00  0.00     0.338 C 
ATOM      7  O   UNL A   1      33.834  23.477  22.084  1.00  0.00    -0.246 OA
BRANCH   6   8
ATOM      8  C   UNL A   1      33.648  24.309  24.289  1.00  0.00     0.087 C 
ATOM      9  C   UNL A   1      33.190  28.589  26.450  1.00  0.00     0.119 A 
ATOM     10  C   UNL A   1      31.905  28.229  26.865  1.00  0.00     0.050 A 
ATOM     11  C   UNL A   1      33.943  27.707  25.665  1.00  0.00     0.058 A 
ATOM     12  C   UNL A   1      31.392  26.973  26.540  1.00  0.00     0.051 A 
ATOM     13  C   UNL A   1      33.434  26.451  25.331  1.00  0.00     0.021 A 
ATOM     14  C   UNL A   1      32.163  26.084  25.797  1.00  0.00     0.128 A 
ATOM     15  C   UNL A   1      34.131  25.557  24.405  1.00  0.00     0.027 C 
ATOM     16  O   UNL A   1      31.586  24.879  25.488  1.00  0.00    -0.475 OA
ATOM     17  C   UNL A   1      32.545  23.825  25.207  1.00  0.00     0.316 C 
BRANCH   9  18
ATOM     18  O   UNL A   1      33.771  29.803  26.693  1.00  0.00    -0.497 OA
ATOM     19  C   UNL A   1      32.905  30.790  27.246  1.00  0.00     0.278 C 
ENDBRANCH   9  18
BRANCH  17  20
ATOM     20  C   UNL A   1      31.776  22.547  24.830  1.00  0.00     0.430 C 
ATOM     21  F   UNL A   1      32.541  21.445  25.013  1.00  0.00    -0.167 F 
ATOM     22  F   UNL A   1      30.704  22.393  25.654  1.00  0.00    -0.167 F 
ATOM     23  F   UNL A   1      31.304  22.555  23.569  1.00  0.00    -0.167 F 
ENDBRANCH  17  20
ENDBRANCH   6   8
ENDBRANCH   5   6
ENDBRANCH   4   5
ENDBRANCH   3   4
ENDBRANCH   2   3
ENDBRANCH   1   2
BRANCH   1  24
ATOM     24  C   UNL A   1      39.408  20.151  25.495  1.00  0.00     0.261 C 
BRANCH  24  25
ATOM     25  O   UNL A   1      40.341  19.653  26.470  1.00  0.00    -0.460 OA
BRANCH  25  26
ATOM     26  C   UNL A   1      41.642  19.737  26.100  1.00  0.00     0.338 C 
ATOM     27  O   UNL A   1      42.264  18.958  25.392  1.00  0.00    -0.246 OA
BRANCH  26  28
ATOM     28  C   UNL A   1      42.206  21.027  26.529  1.00  0.00     0.060 A 
ATOM     29  C   UNL A   1      42.171  21.331  27.896  1.00  0.00     0.016 A 
ATOM     30  C   UNL A   1      42.679  21.959  25.603  1.00  0.00     0.016 A 
ATOM     31  C   UNL A   1      42.572  22.589  28.341  1.00  0.00     0.010 A 
ATOM     32  C   UNL A   1      43.071  23.224  26.051  1.00  0.00     0.010 A 
ATOM     33  C   UNL A   1      42.988  23.555  27.416  1.00  0.00    -0.014 A 
BRANCH  33  34
ATOM     34  C   UNL A   1      43.199  24.954  27.862  1.00  0.00     0.031 A 
ATOM     35  C   UNL A   1      44.604  25.442  28.092  1.00  0.00     0.074 A 
ATOM     36  C   UNL A   1      42.157  25.789  28.024  1.00  0.00     0.049 A 
ATOM     37  N   UNL A   1      45.016  26.608  28.522  1.00  0.00    -0.248 NA
ATOM     38  C   UNL A   1      45.688  24.490  27.796  1.00  0.00     0.031 C 
ATOM     39  C   UNL A   1      40.756  25.455  27.774  1.00  0.00     0.029 A 
ATOM     40  N   UNL A   1      42.123  27.097  28.439  1.00  0.00    -0.354 N 
ATOM     41  C   UNL A   1      46.403  26.530  28.545  1.00  0.00     0.074 A 
ATOM     42  C   UNL A   1      46.763  25.195  28.123  1.00  0.00     0.031 C 
ATOM     43  C   UNL A   1      39.997  26.531  28.045  1.00  0.00     0.029 A 
ATOM     44  C   UNL A   1      40.854  27.614  28.522  1.00  0.00     0.049 A 
ATOM     45  H   UNL A   1      42.932  27.614  28.657  1.00  0.00     0.167 HD
ATOM     46  C   UNL A   1      47.300  27.490  28.876  1.00  0.00     0.031 A 
ATOM     47  C   UNL A   1      40.434  28.818  28.955  1.00  0.00     0.031 A 
ATOM     48  C   UNL A   1      46.945  28.813  29.314  1.00  0.00     0.049 A 
ATOM     49  C   UNL A   1      41.448  29.827  29.424  1.00  0.00     0.074 A 
ATOM     50  C   UNL A   1      47.781  29.851  29.690  1.00  0.00     0.029 A 
ATOM     51  N   UNL A   1      45.647  29.280  29.435  1.00  0.00    -0.354 N 
ATOM     52  N   UNL A   1      42.757  29.745  29.437  1.00  0.00    -0.248 NA
ATOM     53  C   UNL A   1      40.924  31.103  29.935  1.00  0.00     0.031 C 
ATOM     54  C   UNL A   1      46.985  30.931  30.085  1.00  0.00     0.029 A 
ATOM     55  C   UNL A   1      45.657  30.586  29.898  1.00  0.00     0.049 A 
ATOM     56  H   UNL A   1      44.836  28.761  29.225  1.00  0.00     0.167 HD
ATOM     57  C   UNL A   1      43.210  30.968  29.918  1.00  0.00     0.074 A 
ATOM     58  C   UNL A   1      42.038  31.780  30.171  1.00  0.00     0.031 C 
ATOM     59  C   UNL A   1      44.482  31.384  30.130  1.00  0.00     0.031 A 
BRANCH  46  60
ATOM     60  C   UNL A   1      48.758  27.135  28.793  1.00  0.00    -0.014 A 
ATOM     61  C   UNL A   1      49.500  27.385  27.627  1.00  0.00     0.009 A 
ATOM     62  C   UNL A   1      49.411  26.592  29.911  1.00  0.00     0.009 A 
ATOM     63  C   UNL A   1      50.860  27.074  27.575  1.00  0.00     0.001 A 
ATOM     64  C   UNL A   1      50.777  26.308  29.864  1.00  0.00     0.001 A 
ATOM     65  C   UNL A   1      51.498  26.542  28.694  1.00  0.00     0.000 A 
ENDBRANCH  46  60
BRANCH  47  66
ATOM     66  C   UNL A   1      38.982  29.142  29.000  1.00  0.00    -0.014 A 
ATOM     67  C   UNL A   1      38.336  29.688  27.880  1.00  0.00     0.009 A 
ATOM     68  C   UNL A   1      38.250  28.963  30.183  1.00  0.00     0.009 A 
ATOM     69  C   UNL A   1      37.000  30.087  27.958  1.00  0.00     0.001 A 
ATOM     70  C   UNL A   1      36.904  29.332  30.248  1.00  0.00     0.001 A 
ATOM     71  C   UNL A   1      36.284  29.906  29.141  1.00  0.00     0.000 A 
ENDBRANCH  47  66
BRANCH  59  72
ATOM     72  C   UNL A   1      44.676  32.797  30.607  1.00  0.00    -0.014 A 
ATOM     73  C   UNL A   1      44.738  33.108  31.974  1.00  0.00     0.009 A 
ATOM     74  C   UNL A   1      44.835  33.827  29.666  1.00  0.00     0.009 A 
ATOM     75  C   UNL A   1      44.918  34.429  32.389  1.00  0.00     0.001 A 
ATOM     76  C   UNL A   1      45.046  35.142  30.084  1.00  0.00     0.001 A 
ATOM     77  C   UNL A   1      45.077  35.443  31.445  1.00  0.00     0.000 A 
ENDBRANCH  59  72
ENDBRANCH  33  34
ENDBRANCH  26  28
ENDBRANCH  25  26
ENDBRANCH  24  25
ENDBRANCH   1  24
TORSDOF 16
ENDMDL
MODEL 3
REMARK VINA RESULT:     -10.3      4.165      8.319
REMARK SMILES COc1ccc2c(c1)C=C(C(=O)OCCOCCOC(=O)c1ccc(-c3c4nc(c(-c5ccccc5)c5ccc([nH]5)c(-c5ccccc5)c5nc(c(-c6ccccc6)c6ccc3[nH]6)C=C5)C=C4)cc1)[C@H](C(F)(F)F)O2
REMARK SMILES IDX 17 1 16 2 15 3 14 4 13 5 11 6 12 7 10 8 3 9 4 10 8 11 5 12
REMARK SMILES IDX 7 13 6 14 9 15 75 16 70 17 2 18 1 19 71 20 72 21 73 22 74 23
REMARK SMILES IDX 18 24 19 25 20 26 21 27 22 28 23 29 69 30 24 31 68 32 25 33
REMARK SMILES IDX 26 34 27 35 62 36 28 37 67 38 61 39 63 40 29 41 66 42 60 43
REMARK SMILES IDX 59 44 30 46 52 47 37 48 51 49 38 50 41 51 50 52 64 53 39 54
REMARK SMILES IDX 40 55 49 57 65 58 42 59 31 60 32 61 36 62 33 63 35 64 34 65
REMARK SMILES IDX 53 66 54 67 58 68 55 69 57 70 56 71 43 72 44 73 48 74 45 75
REMARK SMILES IDX 47 76 46 77
REMARK H PARENT 63 45 41 56
REMARK Flexibility Score: inf
ROOT
ATOM      1  C   UNL A   1      44.263  21.435  24.858  1.00  0.00     0.202 C 
ENDROOT
BRANCH   1   2
ATOM      2  O   UNL A   1      43.737  20.120  24.697  1.00  0.00    -0.374 OA
BRANCH   2   3
ATOM      3  C   UNL A   1      43.134  19.488  25.822  1.00  0.00     0.202 C 
BRANCH   3   4
ATOM      4  C   UNL A   1      41.610  19.570  25.950  1.00  0.00     0.261 C 
BRANCH   4   5
ATOM      5  O   UNL A   1      41.124  20.904  25.736  1.00  0.00    -0.460 OA
BRANCH   5   6
ATOM      6  C   UNL A   1      40.303  21.370  26.705  1.00  0.00     0.338 C 
ATOM      7  O   UNL A   1      40.532  21.385  27.906  1.00  0.00    -0.246 OA
BRANCH   6   8
ATOM      8  C   UNL A   1      39.098  21.981  26.124  1.00  0.00     0.087 C 
ATOM      9  C   UNL A   1      34.507  21.916  24.668  1.00  0.00     0.119 A 
ATOM     10  C   UNL A   1      34.408  23.280  24.956  1.00  0.00     0.050 A 
ATOM     11  C   UNL A   1      35.703  21.233  24.922  1.00  0.00     0.058 A 
ATOM     12  C   UNL A   1      35.515  23.971  25.451  1.00  0.00     0.051 A 
ATOM     13  C   UNL A   1      36.812  21.918  25.421  1.00  0.00     0.021 A 
ATOM     14  C   UNL A   1      36.713  23.296  25.660  1.00  0.00     0.128 A 
ATOM     15  C   UNL A   1      38.033  21.218  25.824  1.00  0.00     0.027 C 
ATOM     16  O   UNL A   1      37.751  24.030  26.174  1.00  0.00    -0.475 OA
ATOM     17  C   UNL A   1      39.062  23.476  25.884  1.00  0.00     0.316 C 
BRANCH   9  18
ATOM     18  O   UNL A   1      33.475  21.144  24.207  1.00  0.00    -0.497 OA
ATOM     19  C   UNL A   1      32.179  21.549  24.636  1.00  0.00     0.278 C 
ENDBRANCH   9  18
BRANCH  17  20
ATOM     20  C   UNL A   1      40.129  24.359  26.553  1.00  0.00     0.430 C 
ATOM     21  F   UNL A   1      41.377  23.968  26.202  1.00  0.00    -0.167 F 
ATOM     22  F   UNL A   1      40.008  25.642  26.115  1.00  0.00    -0.167 F 
ATOM     23  F   UNL A   1      40.036  24.391  27.896  1.00  0.00    -0.167 F 
ENDBRANCH  17  20
ENDBRANCH   6   8
ENDBRANCH   5   6
ENDBRANCH   4   5
ENDBRANCH   3   4
ENDBRANCH   2   3
ENDBRANCH   1   2
BRANCH   1  24
ATOM     24  C   UNL A   1      45.703  21.579  25.366  1.00  0.00     0.261 C 
BRANCH  24  25
ATOM     25  O   UNL A   1      45.853  22.621  26.347  1.00  0.00    -0.460 OA
BRANCH  25  26
ATOM     26  C   UNL A   1      45.689  23.877  25.865  1.00  0.00     0.338 C 
ATOM     27  O   UNL A   1      46.110  24.327  24.809  1.00  0.00    -0.246 OA
BRANCH  26  28
ATOM     28  C   UNL A   1      44.757  24.628  26.721  1.00  0.00     0.060 A 
ATOM     29  C   UNL A   1      44.707  26.019  26.565  1.00  0.00     0.016 A 
ATOM     30  C   UNL A   1      44.011  23.995  27.717  1.00  0.00     0.016 A 
ATOM     31  C   UNL A   1      43.939  26.791  27.435  1.00  0.00     0.010 A 
ATOM     32  C   UNL A   1      43.250  24.772  28.595  1.00  0.00     0.010 A 
ATOM     33  C   UNL A   1      43.237  26.175  28.478  1.00  0.00    -0.014 A 
BRANCH  33  34
ATOM     34  C   UNL A   1      42.607  27.008  29.530  1.00  0.00     0.031 A 
ATOM     35  C   UNL A   1      43.253  27.080  30.888  1.00  0.00     0.074 A 
ATOM     36  C   UNL A   1      41.496  27.720  29.271  1.00  0.00     0.049 A 
ATOM     37  N   UNL A   1      42.853  27.710  31.963  1.00  0.00    -0.248 NA
ATOM     38  C   UNL A   1      44.519  26.347  31.054  1.00  0.00     0.031 C 
ATOM     39  C   UNL A   1      40.811  27.783  27.981  1.00  0.00     0.029 A 
ATOM     40  N   UNL A   1      40.750  28.531  30.089  1.00  0.00    -0.354 N 
ATOM     41  C   UNL A   1      43.817  27.451  32.931  1.00  0.00     0.074 A 
ATOM     42  C   UNL A   1      44.801  26.579  32.328  1.00  0.00     0.031 C 
ATOM     43  C   UNL A   1      39.740  28.588  28.095  1.00  0.00     0.029 A 
ATOM     44  C   UNL A   1      39.644  29.065  29.472  1.00  0.00     0.049 A 
ATOM     45  H   UNL A   1      40.984  28.713  31.028  1.00  0.00     0.167 HD
ATOM     46  C   UNL A   1      43.884  27.909  34.203  1.00  0.00     0.031 A 
ATOM     47  C   UNL A   1      38.658  29.833  29.973  1.00  0.00     0.031 A 
ATOM     48  C   UNL A   1      42.898  28.761  34.810  1.00  0.00     0.049 A 
ATOM     49  C   UNL A   1      38.701  30.235  31.424  1.00  0.00     0.074 A 
ATOM     50  C   UNL A   1      42.867  29.264  36.100  1.00  0.00     0.029 A 
ATOM     51  N   UNL A   1      41.765  29.236  34.169  1.00  0.00    -0.354 N 
ATOM     52  N   UNL A   1      39.619  29.989  32.327  1.00  0.00    -0.248 NA
ATOM     53  C   UNL A   1      37.567  31.029  31.923  1.00  0.00     0.031 C 
ATOM     54  C   UNL A   1      41.690  30.004  36.253  1.00  0.00     0.029 A 
ATOM     55  C   UNL A   1      41.020  30.011  35.041  1.00  0.00     0.049 A 
ATOM     56  H   UNL A   1      41.525  29.050  33.232  1.00  0.00     0.167 HD
ATOM     57  C   UNL A   1      39.195  30.629  33.485  1.00  0.00     0.074 A 
ATOM     58  C   UNL A   1      37.944  31.287  33.168  1.00  0.00     0.031 C 
ATOM     59  C   UNL A   1      39.785  30.671  34.703  1.00  0.00     0.031 A 
BRANCH  46  60
ATOM     60  C   UNL A   1      45.061  27.481  35.033  1.00  0.00    -0.014 A 
ATOM     61  C   UNL A   1      46.230  28.257  35.089  1.00  0.00     0.009 A 
ATOM     62  C   UNL A   1      44.984  26.313  35.809  1.00  0.00     0.009 A 
ATOM     63  C   UNL A   1      47.306  27.859  35.885  1.00  0.00     0.001 A 
ATOM     64  C   UNL A   1      46.051  25.933  36.625  1.00  0.00     0.001 A 
ATOM     65  C   UNL A   1      47.213  26.702  36.657  1.00  0.00     0.000 A 
ENDBRANCH  46  60
BRANCH  47  66
ATOM     66  C   UNL A   1      37.520  30.259  29.114  1.00  0.00    -0.014 A 
ATOM     67  C   UNL A   1      37.380  31.599  28.723  1.00  0.00     0.009 A 
ATOM     68  C   UNL A   1      36.534  29.336  28.730  1.00  0.00     0.009 A 
ATOM     69  C   UNL A   1      36.257  32.014  28.003  1.00  0.00     0.001 A 
ATOM     70  C   UNL A   1      35.429  29.747  27.982  1.00  0.00     0.001 A 
ATOM     71  C   UNL A   1      35.284  31.088  27.632  1.00  0.00     0.000 A 
ENDBRANCH  47  66
BRANCH  59  72
ATOM     72  C   UNL A   1      39.119  31.500  35.766  1.00  0.00    -0.014 A 
ATOM     73  C   UNL A   1      38.153  30.953  36.625  1.00  0.00     0.009 A 
ATOM     74  C   UNL A   1      39.494  32.843  35.931  1.00  0.00     0.009 A 
ATOM     75  C   UNL A   1      37.550  31.747  37.603  1.00  0.00     0.001 A 
ATOM     76  C   UNL A   1      38.912  33.625  36.929  1.00  0.00     0.001 A 
ATOM     77  C   UNL A   1      37.932  33.079  37.758  1.00  0.00     0.000 A 
ENDBRANCH  59  72
ENDBRANCH  33  34
ENDBRANCH  26  28
ENDBRANCH  25  26
ENDBRANCH  24  25
ENDBRANCH   1  24
TORSDOF 16
ENDMDL
