MODEL 1
REMARK VINA RESULT:     -10.6      0.000      0.000
REMARK SMILES C[C@@](CC(=O)Nc1ccc(NC(=O)c2ccco2)cc1)(C(=O)OCCOCCOC(=O)c1ccc(-c2c3nc(c(-c4ccccc4)c4ccc([nH]4)c(-c4ccccc4)c4nc(c(-c5ccccc5)c5ccc2[nH]5)C=C4)C=C3)cc1)c1ccccc1
REMARK SMILES IDX 24 1 23 2 21 3 22 4 2 5 1 6 3 7 4 8 5 9 6 10 7 12 8 13 20 14
REMARK SMILES IDX 9 15 19 16 10 17 11 18 12 19 13 21 14 22 15 23 18 24 16 25
REMARK SMILES IDX 17 26 80 27 81 28 85 29 82 30 84 31 83 32 25 33 26 34 27 35
REMARK SMILES IDX 28 36 29 37 30 38 31 39 32 40 33 41 79 42 34 43 78 44 35 45
REMARK SMILES IDX 36 46 37 47 72 48 38 49 77 50 71 51 73 52 39 53 76 54 70 55
REMARK SMILES IDX 69 56 40 58 62 59 47 60 61 61 48 62 51 63 60 64 74 65 49 66
REMARK SMILES IDX 50 67 59 69 75 70 52 71 41 72 42 73 46 74 43 75 45 76 44 77
REMARK SMILES IDX 63 78 64 79 68 80 65 81 67 82 66 83 53 84 54 85 58 86 55 87
REMARK SMILES IDX 57 88 56 89
REMARK H PARENT 6 11 11 20 73 57 51 68
REMARK Flexibility Score: inf
ROOT
ATOM      1  C   UNL A   1      34.607  21.621  26.780  1.00  0.00     0.261 C 
ENDROOT
BRANCH   1   2
ATOM      2  O   UNL A   1      34.450  23.047  26.890  1.00  0.00    -0.463 OA
BRANCH   2   3
ATOM      3  C   UNL A   1      33.174  23.524  26.783  1.00  0.00     0.316 C 
ATOM      4  O   UNL A   1      32.298  23.253  27.593  1.00  0.00    -0.251 OA
BRANCH   3   5
ATOM      5  C   UNL A   1      33.005  24.437  25.522  1.00  0.00     0.099 C 
ATOM      6  C   UNL A   1      34.323  24.449  24.726  1.00  0.00     0.029 C 
BRANCH   5   7
ATOM      7  C   UNL A   1      31.898  23.845  24.610  1.00  0.00     0.123 C 
BRANCH   7   8
ATOM      8  C   UNL A   1      32.120  23.880  23.082  1.00  0.00     0.225 C 
ATOM      9  O   UNL A   1      32.568  22.885  22.504  1.00  0.00    -0.275 OA
ATOM     10  N   UNL A   1      31.651  24.913  22.302  1.00  0.00    -0.326 N 
ATOM     11  H   UNL A   1      31.475  24.677  21.362  1.00  0.00     0.169 HD
BRANCH  10  12
ATOM     12  C   UNL A   1      31.387  26.243  22.637  1.00  0.00     0.041 A 
ATOM     13  C   UNL A   1      30.157  26.608  23.151  1.00  0.00     0.028 A 
ATOM     14  C   UNL A   1      32.282  27.259  22.355  1.00  0.00     0.028 A 
ATOM     15  C   UNL A   1      29.979  27.904  23.658  1.00  0.00     0.028 A 
ATOM     16  C   UNL A   1      32.154  28.522  22.935  1.00  0.00     0.028 A 
ATOM     17  C   UNL A   1      31.027  28.825  23.690  1.00  0.00     0.041 A 
BRANCH  17  18
ATOM     18  N   UNL A   1      31.088  30.002  24.461  1.00  0.00    -0.319 N 
ATOM     19  C   UNL A   1      30.252  31.095  24.584  1.00  0.00     0.291 C 
ATOM     20  H   UNL A   1      31.889  30.057  25.029  1.00  0.00     0.170 HD
ATOM     21  O   UNL A   1      30.460  31.868  25.522  1.00  0.00    -0.265 OA
BRANCH  19  22
ATOM     22  C   UNL A   1      29.210  31.302  23.619  1.00  0.00     0.191 A 
ATOM     23  C   UNL A   1      27.841  31.112  23.668  1.00  0.00     0.056 A 
ATOM     24  O   UNL A   1      29.579  31.688  22.360  1.00  0.00    -0.459 OA
ATOM     25  C   UNL A   1      27.365  31.314  22.347  1.00  0.00     0.043 A 
ATOM     26  C   UNL A   1      28.456  31.694  21.599  1.00  0.00     0.196 A 
ENDBRANCH  19  22
ENDBRANCH  17  18
ENDBRANCH  10  12
ENDBRANCH   7   8
ENDBRANCH   5   7
BRANCH   5  27
ATOM     27  C   UNL A   1      32.746  25.933  25.931  1.00  0.00    -0.030 A 
ATOM     28  C   UNL A   1      33.764  26.917  25.865  1.00  0.00     0.005 A 
ATOM     29  C   UNL A   1      31.543  26.329  26.537  1.00  0.00     0.005 A 
ATOM     30  C   UNL A   1      33.659  28.141  26.530  1.00  0.00     0.000 A 
ATOM     31  C   UNL A   1      31.431  27.562  27.195  1.00  0.00     0.000 A 
ATOM     32  C   UNL A   1      32.501  28.450  27.223  1.00  0.00     0.000 A 
ENDBRANCH   5  27
ENDBRANCH   3   5
ENDBRANCH   2   3
ENDBRANCH   1   2
BRANCH   1  33
ATOM     33  C   UNL A   1      35.784  21.307  25.851  1.00  0.00     0.202 C 
BRANCH  33  34
ATOM     34  O   UNL A   1      36.861  22.248  25.809  1.00  0.00    -0.374 OA
BRANCH  34  35
ATOM     35  C   UNL A   1      38.086  21.817  25.228  1.00  0.00     0.202 C 
BRANCH  35  36
ATOM     36  C   UNL A   1      38.672  20.483  25.726  1.00  0.00     0.261 C 
BRANCH  36  37
ATOM     37  O   UNL A   1      39.915  20.121  25.099  1.00  0.00    -0.460 OA
BRANCH  37  38
ATOM     38  C   UNL A   1      40.894  19.798  25.982  1.00  0.00     0.338 C 
ATOM     39  O   UNL A   1      41.308  18.685  26.254  1.00  0.00    -0.246 OA
BRANCH  38  40
ATOM     40  C   UNL A   1      41.551  21.015  26.492  1.00  0.00     0.060 A 
ATOM     41  C   UNL A   1      41.444  21.269  27.866  1.00  0.00     0.016 A 
ATOM     42  C   UNL A   1      42.153  21.943  25.641  1.00  0.00     0.016 A 
ATOM     43  C   UNL A   1      41.897  22.476  28.390  1.00  0.00     0.010 A 
ATOM     44  C   UNL A   1      42.597  23.161  26.169  1.00  0.00     0.010 A 
ATOM     45  C   UNL A   1      42.437  23.447  27.538  1.00  0.00    -0.014 A 
BRANCH  45  46
ATOM     46  C   UNL A   1      42.689  24.812  28.059  1.00  0.00     0.031 A 
ATOM     47  C   UNL A   1      44.083  25.190  28.478  1.00  0.00     0.074 A 
ATOM     48  C   UNL A   1      41.697  25.717  28.128  1.00  0.00     0.049 A 
ATOM     49  N   UNL A   1      44.520  26.311  28.995  1.00  0.00    -0.248 NA
ATOM     50  C   UNL A   1      45.125  24.167  28.291  1.00  0.00     0.031 C 
ATOM     51  C   UNL A   1      40.316  25.493  27.706  1.00  0.00     0.029 A 
ATOM     52  N   UNL A   1      41.704  27.010  28.589  1.00  0.00    -0.354 N 
ATOM     53  C   UNL A   1      45.879  26.123  29.208  1.00  0.00     0.074 A 
ATOM     54  C   UNL A   1      46.192  24.773  28.789  1.00  0.00     0.031 C 
ATOM     55  C   UNL A   1      39.604  26.609  27.940  1.00  0.00     0.029 A 
ATOM     56  C   UNL A   1      40.470  27.608  28.562  1.00  0.00     0.049 A 
ATOM     57  H   UNL A   1      42.517  27.465  28.909  1.00  0.00     0.167 HD
ATOM     58  C   UNL A   1      46.788  26.996  29.706  1.00  0.00     0.031 A 
ATOM     59  C   UNL A   1      40.074  28.814  29.014  1.00  0.00     0.031 A 
ATOM     60  C   UNL A   1      46.476  28.334  30.130  1.00  0.00     0.049 A 
ATOM     61  C   UNL A   1      41.085  29.740  29.636  1.00  0.00     0.074 A 
ATOM     62  C   UNL A   1      47.332  29.303  30.625  1.00  0.00     0.029 A 
ATOM     63  N   UNL A   1      45.206  28.888  30.120  1.00  0.00    -0.354 N 
ATOM     64  N   UNL A   1      42.373  29.561  29.808  1.00  0.00    -0.248 NA
ATOM     65  C   UNL A   1      40.589  31.035  30.123  1.00  0.00     0.031 C 
ATOM     66  C   UNL A   1      46.568  30.421  30.975  1.00  0.00     0.029 A 
ATOM     67  C   UNL A   1      45.248  30.173  30.636  1.00  0.00     0.049 A 
ATOM     68  H   UNL A   1      44.394  28.437  29.795  1.00  0.00     0.167 HD
ATOM     69  C   UNL A   1      42.844  30.729  30.395  1.00  0.00     0.074 A 
ATOM     70  C   UNL A   1      41.707  31.614  30.539  1.00  0.00     0.031 C 
ATOM     71  C   UNL A   1      44.107  31.043  30.777  1.00  0.00     0.031 A 
BRANCH  58  72
ATOM     72  C   UNL A   1      48.202  26.507  29.866  1.00  0.00    -0.014 A 
ATOM     73  C   UNL A   1      48.621  25.831  31.024  1.00  0.00     0.009 A 
ATOM     74  C   UNL A   1      49.124  26.706  28.826  1.00  0.00     0.009 A 
ATOM     75  C   UNL A   1      49.944  25.402  31.151  1.00  0.00     0.001 A 
ATOM     76  C   UNL A   1      50.437  26.247  28.944  1.00  0.00     0.001 A 
ATOM     77  C   UNL A   1      50.848  25.605  30.110  1.00  0.00     0.000 A 
ENDBRANCH  58  72
BRANCH  59  78
ATOM     78  C   UNL A   1      38.641  29.201  28.928  1.00  0.00    -0.014 A 
ATOM     79  C   UNL A   1      38.105  29.722  27.742  1.00  0.00     0.009 A 
ATOM     80  C   UNL A   1      37.802  29.052  30.044  1.00  0.00     0.009 A 
ATOM     81  C   UNL A   1      36.762  30.102  27.681  1.00  0.00     0.001 A 
ATOM     82  C   UNL A   1      36.453  29.404  29.971  1.00  0.00     0.001 A 
ATOM     83  C   UNL A   1      35.936  29.937  28.792  1.00  0.00     0.000 A 
ENDBRANCH  59  78
BRANCH  71  84
ATOM     84  C   UNL A   1      44.338  32.410  31.358  1.00  0.00    -0.014 A 
ATOM     85  C   UNL A   1      44.283  32.637  32.741  1.00  0.00     0.009 A 
ATOM     86  C   UNL A   1      44.675  33.476  30.508  1.00  0.00     0.009 A 
ATOM     87  C   UNL A   1      44.534  33.909  33.258  1.00  0.00     0.001 A 
ATOM     88  C   UNL A   1      44.955  34.739  31.031  1.00  0.00     0.001 A 
ATOM     89  C   UNL A   1      44.876  34.957  32.405  1.00  0.00     0.000 A 
ENDBRANCH  71  84
ENDBRANCH  45  46
ENDBRANCH  38  40
ENDBRANCH  37  38
ENDBRANCH  36  37
ENDBRANCH  35  36
ENDBRANCH  34  35
ENDBRANCH  33  34
ENDBRANCH   1  33
TORSDOF 20
ENDMDL
MODEL 2
REMARK VINA RESULT:     -10.5      3.585      9.101
REMARK SMILES C[C@@](CC(=O)Nc1ccc(NC(=O)c2ccco2)cc1)(C(=O)OCCOCCOC(=O)c1ccc(-c2c3nc(c(-c4ccccc4)c4ccc([nH]4)c(-c4ccccc4)c4nc(c(-c5ccccc5)c5ccc2[nH]5)C=C4)C=C3)cc1)c1ccccc1
REMARK SMILES IDX 24 1 23 2 21 3 22 4 2 5 1 6 3 7 4 8 5 9 6 10 7 12 8 13 20 14
REMARK SMILES IDX 9 15 19 16 10 17 11 18 12 19 13 21 14 22 15 23 18 24 16 25
REMARK SMILES IDX 17 26 80 27 81 28 85 29 82 30 84 31 83 32 25 33 26 34 27 35
REMARK SMILES IDX 28 36 29 37 30 38 31 39 32 40 33 41 79 42 34 43 78 44 35 45
REMARK SMILES IDX 36 46 37 47 72 48 38 49 77 50 71 51 73 52 39 53 76 54 70 55
REMARK SMILES IDX 69 56 40 58 62 59 47 60 61 61 48 62 51 63 60 64 74 65 49 66
REMARK SMILES IDX 50 67 59 69 75 70 52 71 41 72 42 73 46 74 43 75 45 76 44 77
REMARK SMILES IDX 63 78 64 79 68 80 65 81 67 82 66 83 53 84 54 85 58 86 55 87
REMARK SMILES IDX 57 88 56 89
REMARK H PARENT 6 11 11 20 73 57 51 68
REMARK Flexibility Score: inf
ROOT
ATOM      1  C   UNL A   1      31.461  28.685  22.959  1.00  0.00     0.261 C 
ENDROOT
BRANCH   1   2
ATOM      2  O   UNL A   1      31.859  27.303  22.990  1.00  0.00    -0.463 OA
BRANCH   2   3
ATOM      3  C   UNL A   1      33.070  27.035  23.561  1.00  0.00     0.316 C 
ATOM      4  O   UNL A   1      34.106  27.575  23.196  1.00  0.00    -0.251 OA
BRANCH   3   5
ATOM      5  C   UNL A   1      32.944  25.979  24.710  1.00  0.00     0.099 C 
ATOM      6  C   UNL A   1      33.309  26.642  26.051  1.00  0.00     0.029 C 
BRANCH   5   7
ATOM      7  C   UNL A   1      31.471  25.498  24.798  1.00  0.00     0.123 C 
BRANCH   7   8
ATOM      8  C   UNL A   1      30.864  25.269  26.199  1.00  0.00     0.225 C 
ATOM      9  O   UNL A   1      30.199  26.162  26.733  1.00  0.00    -0.275 OA
ATOM     10  N   UNL A   1      30.866  24.030  26.801  1.00  0.00    -0.326 N 
ATOM     11  H   UNL A   1      30.145  23.886  27.456  1.00  0.00     0.169 HD
BRANCH  10  12
ATOM     12  C   UNL A   1      31.732  22.949  26.626  1.00  0.00     0.041 A 
ATOM     13  C   UNL A   1      31.542  22.055  25.589  1.00  0.00     0.028 A 
ATOM     14  C   UNL A   1      32.726  22.654  27.542  1.00  0.00     0.028 A 
ATOM     15  C   UNL A   1      32.528  21.094  25.318  1.00  0.00     0.028 A 
ATOM     16  C   UNL A   1      33.758  21.766  27.233  1.00  0.00     0.028 A 
ATOM     17  C   UNL A   1      33.716  21.042  26.048  1.00  0.00     0.041 A 
BRANCH  17  18
ATOM     18  N   UNL A   1      34.902  20.382  25.675  1.00  0.00    -0.319 N 
ATOM     19  C   UNL A   1      35.159  19.262  24.906  1.00  0.00     0.291 C 
ATOM     20  H   UNL A   1      35.715  20.803  26.034  1.00  0.00     0.170 HD
ATOM     21  O   UNL A   1      36.327  19.061  24.566  1.00  0.00    -0.265 OA
BRANCH  19  22
ATOM     22  C   UNL A   1      34.082  18.378  24.562  1.00  0.00     0.191 A 
ATOM     23  C   UNL A   1      33.417  18.134  23.374  1.00  0.00     0.056 A 
ATOM     24  O   UNL A   1      33.503  17.662  25.573  1.00  0.00    -0.459 OA
ATOM     25  C   UNL A   1      32.325  17.289  23.699  1.00  0.00     0.043 A 
ATOM     26  C   UNL A   1      32.442  17.006  25.040  1.00  0.00     0.196 A 
ENDBRANCH  19  22
ENDBRANCH  17  18
ENDBRANCH  10  12
ENDBRANCH   7   8
ENDBRANCH   5   7
BRANCH   5  27
ATOM     27  C   UNL A   1      33.976  24.807  24.524  1.00  0.00    -0.030 A 
ATOM     28  C   UNL A   1      35.107  24.662  25.365  1.00  0.00     0.005 A 
ATOM     29  C   UNL A   1      33.915  23.946  23.417  1.00  0.00     0.005 A 
ATOM     30  C   UNL A   1      36.193  23.856  25.017  1.00  0.00     0.000 A 
ATOM     31  C   UNL A   1      34.999  23.127  23.071  1.00  0.00     0.000 A 
ATOM     32  C   UNL A   1      36.152  23.111  23.850  1.00  0.00     0.000 A 
ENDBRANCH   5  27
ENDBRANCH   3   5
ENDBRANCH   2   3
ENDBRANCH   1   2
BRANCH   1  33
ATOM     33  C   UNL A   1      30.884  29.082  24.321  1.00  0.00     0.202 C 
BRANCH  33  34
ATOM     34  O   UNL A   1      30.421  30.428  24.473  1.00  0.00    -0.374 OA
BRANCH  34  35
ATOM     35  C   UNL A   1      31.008  31.209  25.508  1.00  0.00     0.202 C 
BRANCH  35  36
ATOM     36  C   UNL A   1      31.820  30.461  26.582  1.00  0.00     0.261 C 
BRANCH  36  37
ATOM     37  O   UNL A   1      33.243  30.629  26.460  1.00  0.00    -0.460 OA
BRANCH  37  38
ATOM     38  C   UNL A   1      33.757  31.552  27.311  1.00  0.00     0.338 C 
ATOM     39  O   UNL A   1      33.201  32.542  27.754  1.00  0.00    -0.246 OA
BRANCH  38  40
ATOM     40  C   UNL A   1      35.083  31.127  27.794  1.00  0.00     0.060 A 
ATOM     41  C   UNL A   1      35.246  29.768  28.095  1.00  0.00     0.016 A 
ATOM     42  C   UNL A   1      36.103  32.043  28.058  1.00  0.00     0.016 A 
ATOM     43  C   UNL A   1      36.415  29.324  28.706  1.00  0.00     0.010 A 
ATOM     44  C   UNL A   1      37.272  31.595  28.684  1.00  0.00     0.010 A 
ATOM     45  C   UNL A   1      37.417  30.242  29.044  1.00  0.00    -0.014 A 
BRANCH  45  46
ATOM     46  C   UNL A   1      38.541  29.806  29.907  1.00  0.00     0.031 A 
ATOM     47  C   UNL A   1      38.650  30.357  31.303  1.00  0.00     0.074 A 
ATOM     48  C   UNL A   1      39.437  28.905  29.468  1.00  0.00     0.049 A 
ATOM     49  N   UNL A   1      39.568  30.142  32.211  1.00  0.00    -0.248 NA
ATOM     50  C   UNL A   1      37.579  31.272  31.731  1.00  0.00     0.031 C 
ATOM     51  C   UNL A   1      39.414  28.258  28.158  1.00  0.00     0.029 A 
ATOM     52  N   UNL A   1      40.549  28.385  30.083  1.00  0.00    -0.354 N 
ATOM     53  C   UNL A   1      39.196  30.906  33.310  1.00  0.00     0.074 A 
ATOM     54  C   UNL A   1      37.984  31.609  32.947  1.00  0.00     0.031 C 
ATOM     55  C   UNL A   1      40.473  27.435  28.062  1.00  0.00     0.029 A 
ATOM     56  C   UNL A   1      41.265  27.528  29.286  1.00  0.00     0.049 A 
ATOM     57  H   UNL A   1      40.809  28.606  31.007  1.00  0.00     0.167 HD
ATOM     58  C   UNL A   1      39.808  31.014  34.513  1.00  0.00     0.031 A 
ATOM     59  C   UNL A   1      42.442  26.910  29.506  1.00  0.00     0.031 A 
ATOM     60  C   UNL A   1      41.017  30.322  34.871  1.00  0.00     0.049 A 
ATOM     61  C   UNL A   1      43.146  27.104  30.822  1.00  0.00     0.074 A 
ATOM     62  C   UNL A   1      41.700  30.345  36.075  1.00  0.00     0.029 A 
ATOM     63  N   UNL A   1      41.731  29.492  34.021  1.00  0.00    -0.354 N 
ATOM     64  N   UNL A   1      42.771  27.808  31.864  1.00  0.00    -0.248 NA
ATOM     65  C   UNL A   1      44.432  26.414  30.995  1.00  0.00     0.031 C 
ATOM     66  C   UNL A   1      42.862  29.581  35.931  1.00  0.00     0.029 A 
ATOM     67  C   UNL A   1      42.868  29.027  34.661  1.00  0.00     0.049 A 
ATOM     68  H   UNL A   1      41.470  29.266  33.099  1.00  0.00     0.167 HD
ATOM     69  C   UNL A   1      43.759  27.623  32.823  1.00  0.00     0.074 A 
ATOM     70  C   UNL A   1      44.744  26.733  32.244  1.00  0.00     0.031 C 
ATOM     71  C   UNL A   1      43.842  28.142  34.073  1.00  0.00     0.031 A 
BRANCH  58  72
ATOM     72  C   UNL A   1      39.200  31.956  35.517  1.00  0.00    -0.014 A 
ATOM     73  C   UNL A   1      39.453  33.336  35.478  1.00  0.00     0.009 A 
ATOM     74  C   UNL A   1      38.339  31.452  36.505  1.00  0.00     0.009 A 
ATOM     75  C   UNL A   1      38.887  34.185  36.432  1.00  0.00     0.001 A 
ATOM     76  C   UNL A   1      37.750  32.308  37.438  1.00  0.00     0.001 A 
ATOM     77  C   UNL A   1      38.033  33.672  37.406  1.00  0.00     0.000 A 
ENDBRANCH  58  72
BRANCH  59  78
ATOM     78  C   UNL A   1      43.049  26.076  28.435  1.00  0.00    -0.014 A 
ATOM     79  C   UNL A   1      42.772  24.705  28.344  1.00  0.00     0.009 A 
ATOM     80  C   UNL A   1      43.918  26.657  27.496  1.00  0.00     0.009 A 
ATOM     81  C   UNL A   1      43.366  23.929  27.346  1.00  0.00     0.001 A 
ATOM     82  C   UNL A   1      44.486  25.884  26.482  1.00  0.00     0.001 A 
ATOM     83  C   UNL A   1      44.217  24.519  26.413  1.00  0.00     0.000 A 
ENDBRANCH  59  78
BRANCH  71  84
ATOM     84  C   UNL A   1      45.018  27.738  34.917  1.00  0.00    -0.014 A 
ATOM     85  C   UNL A   1      46.197  28.497  34.942  1.00  0.00     0.009 A 
ATOM     86  C   UNL A   1      44.920  26.608  35.746  1.00  0.00     0.009 A 
ATOM     87  C   UNL A   1      47.264  28.118  35.760  1.00  0.00     0.001 A 
ATOM     88  C   UNL A   1      45.976  26.250  36.584  1.00  0.00     0.001 A 
ATOM     89  C   UNL A   1      47.150  27.000  36.585  1.00  0.00     0.000 A 
ENDBRANCH  71  84
ENDBRANCH  45  46
ENDBRANCH  38  40
ENDBRANCH  37  38
ENDBRANCH  36  37
ENDBRANCH  35  36
ENDBRANCH  34  35
ENDBRANCH  33  34
ENDBRANCH   1  33
TORSDOF 20
ENDMDL
MODEL 3
REMARK VINA RESULT:     -10.4      3.009      9.155
REMARK SMILES C[C@@](CC(=O)Nc1ccc(NC(=O)c2ccco2)cc1)(C(=O)OCCOCCOC(=O)c1ccc(-c2c3nc(c(-c4ccccc4)c4ccc([nH]4)c(-c4ccccc4)c4nc(c(-c5ccccc5)c5ccc2[nH]5)C=C4)C=C3)cc1)c1ccccc1
REMARK SMILES IDX 24 1 23 2 21 3 22 4 2 5 1 6 3 7 4 8 5 9 6 10 7 12 8 13 20 14
REMARK SMILES IDX 9 15 19 16 10 17 11 18 12 19 13 21 14 22 15 23 18 24 16 25
REMARK SMILES IDX 17 26 80 27 81 28 85 29 82 30 84 31 83 32 25 33 26 34 27 35
REMARK SMILES IDX 28 36 29 37 30 38 31 39 32 40 33 41 79 42 34 43 78 44 35 45
REMARK SMILES IDX 36 46 37 47 72 48 38 49 77 50 71 51 73 52 39 53 76 54 70 55
REMARK SMILES IDX 69 56 40 58 62 59 47 60 61 61 48 62 51 63 60 64 74 65 49 66
REMARK SMILES IDX 50 67 59 69 75 70 52 71 41 72 42 73 46 74 43 75 45 76 44 77
REMARK SMILES IDX 63 78 64 79 68 80 65 81 67 82 66 83 53 84 54 85 58 86 55 87
REMARK SMILES IDX 57 88 56 89
REMARK H PARENT 6 11 11 20 73 57 51 68
REMARK Flexibility Score: inf
ROOT
ATOM      1  C   UNL A   1      32.803  29.609  24.976  1.00  0.00     0.261 C 
ENDROOT
BRANCH   1   2
ATOM      2  O   UNL A   1      32.261  28.353  24.533  1.00  0.00    -0.463 OA
BRANCH   2   3
ATOM      3  C   UNL A   1      33.160  27.444  24.050  1.00  0.00     0.316 C 
ATOM      4  O   UNL A   1      33.916  27.693  23.121  1.00  0.00    -0.251 OA
BRANCH   3   5
ATOM      5  C   UNL A   1      33.085  26.090  24.834  1.00  0.00     0.099 C 
ATOM      6  C   UNL A   1      33.486  26.331  26.301  1.00  0.00     0.029 C 
BRANCH   5   7
ATOM      7  C   UNL A   1      31.623  25.571  24.814  1.00  0.00     0.123 C 
BRANCH   7   8
ATOM      8  C   UNL A   1      30.925  25.314  26.168  1.00  0.00     0.225 C 
ATOM      9  O   UNL A   1      30.238  26.202  26.683  1.00  0.00    -0.275 OA
ATOM     10  N   UNL A   1      30.874  24.060  26.734  1.00  0.00    -0.326 N 
ATOM     11  H   UNL A   1      30.111  23.907  27.338  1.00  0.00     0.169 HD
BRANCH  10  12
ATOM     12  C   UNL A   1      31.737  22.972  26.585  1.00  0.00     0.041 A 
ATOM     13  C   UNL A   1      31.576  22.084  25.538  1.00  0.00     0.028 A 
ATOM     14  C   UNL A   1      32.695  22.664  27.534  1.00  0.00     0.028 A 
ATOM     15  C   UNL A   1      32.562  21.116  25.297  1.00  0.00     0.028 A 
ATOM     16  C   UNL A   1      33.730  21.769  27.257  1.00  0.00     0.028 A 
ATOM     17  C   UNL A   1      33.723  21.051  26.068  1.00  0.00     0.041 A 
BRANCH  17  18
ATOM     18  N   UNL A   1      34.917  20.381  25.734  1.00  0.00    -0.319 N 
ATOM     19  C   UNL A   1      35.190  19.259  24.975  1.00  0.00     0.291 C 
ATOM     20  H   UNL A   1      35.720  20.798  26.119  1.00  0.00     0.170 HD
ATOM     21  O   UNL A   1      36.367  19.050  24.672  1.00  0.00    -0.265 OA
BRANCH  19  22
ATOM     22  C   UNL A   1      34.119  18.382  24.597  1.00  0.00     0.191 A 
ATOM     23  C   UNL A   1      33.425  18.212  23.412  1.00  0.00     0.056 A 
ATOM     24  O   UNL A   1      33.580  17.585  25.568  1.00  0.00    -0.459 OA
ATOM     25  C   UNL A   1      32.356  17.326  23.704  1.00  0.00     0.043 A 
ATOM     26  C   UNL A   1      32.516  16.949  25.017  1.00  0.00     0.196 A 
ENDBRANCH  19  22
ENDBRANCH  17  18
ENDBRANCH  10  12
ENDBRANCH   7   8
ENDBRANCH   5   7
BRANCH   5  27
ATOM     27  C   UNL A   1      34.126  25.051  24.278  1.00  0.00    -0.030 A 
ATOM     28  C   UNL A   1      33.869  24.277  23.119  1.00  0.00     0.005 A 
ATOM     29  C   UNL A   1      35.287  24.723  24.995  1.00  0.00     0.005 A 
ATOM     30  C   UNL A   1      34.608  23.133  22.810  1.00  0.00     0.000 A 
ATOM     31  C   UNL A   1      36.038  23.581  24.680  1.00  0.00     0.000 A 
ATOM     32  C   UNL A   1      35.677  22.767  23.612  1.00  0.00     0.000 A 
ENDBRANCH   5  27
ENDBRANCH   3   5
ENDBRANCH   2   3
ENDBRANCH   1   2
BRANCH   1  33
ATOM     33  C   UNL A   1      31.966  30.145  26.142  1.00  0.00     0.202 C 
BRANCH  33  34
ATOM     34  O   UNL A   1      31.243  31.362  25.931  1.00  0.00    -0.374 OA
BRANCH  34  35
ATOM     35  C   UNL A   1      31.510  32.444  26.817  1.00  0.00     0.202 C 
BRANCH  35  36
ATOM     36  C   UNL A   1      32.911  32.508  27.452  1.00  0.00     0.261 C 
BRANCH  36  37
ATOM     37  O   UNL A   1      33.416  33.844  27.617  1.00  0.00    -0.460 OA
BRANCH  37  38
ATOM     38  C   UNL A   1      33.473  34.247  28.912  1.00  0.00     0.338 C 
ATOM     39  O   UNL A   1      32.587  34.771  29.564  1.00  0.00    -0.246 OA
BRANCH  38  40
ATOM     40  C   UNL A   1      34.742  33.820  29.530  1.00  0.00     0.060 A 
ATOM     41  C   UNL A   1      35.922  34.128  28.840  1.00  0.00     0.016 A 
ATOM     42  C   UNL A   1      34.775  33.042  30.688  1.00  0.00     0.016 A 
ATOM     43  C   UNL A   1      37.140  33.618  29.279  1.00  0.00     0.010 A 
ATOM     44  C   UNL A   1      35.999  32.520  31.120  1.00  0.00     0.010 A 
ATOM     45  C   UNL A   1      37.180  32.775  30.396  1.00  0.00    -0.014 A 
BRANCH  45  46
ATOM     46  C   UNL A   1      38.432  32.044  30.710  1.00  0.00     0.031 A 
ATOM     47  C   UNL A   1      39.401  32.639  31.694  1.00  0.00     0.074 A 
ATOM     48  C   UNL A   1      38.688  30.847  30.153  1.00  0.00     0.049 A 
ATOM     49  N   UNL A   1      40.567  32.192  32.085  1.00  0.00    -0.248 NA
ATOM     50  C   UNL A   1      39.001  33.911  32.320  1.00  0.00     0.031 C 
ATOM     51  C   UNL A   1      37.808  30.139  29.226  1.00  0.00     0.029 A 
ATOM     52  N   UNL A   1      39.776  30.021  30.285  1.00  0.00    -0.354 N 
ATOM     53  C   UNL A   1      41.047  33.131  32.989  1.00  0.00     0.074 A 
ATOM     54  C   UNL A   1      40.059  34.186  33.069  1.00  0.00     0.031 C 
ATOM     55  C   UNL A   1      38.398  28.988  28.862  1.00  0.00     0.029 A 
ATOM     56  C   UNL A   1      39.710  28.898  29.499  1.00  0.00     0.049 A 
ATOM     57  H   UNL A   1      40.533  30.215  30.886  1.00  0.00     0.167 HD
ATOM     58  C   UNL A   1      42.206  33.118  33.690  1.00  0.00     0.031 A 
ATOM     59  C   UNL A   1      40.616  27.923  29.292  1.00  0.00     0.031 A 
ATOM     60  C   UNL A   1      43.192  32.075  33.603  1.00  0.00     0.049 A 
ATOM     61  C   UNL A   1      41.931  27.967  30.023  1.00  0.00     0.074 A 
ATOM     62  C   UNL A   1      44.387  31.958  34.293  1.00  0.00     0.029 A 
ATOM     63  N   UNL A   1      43.103  30.973  32.767  1.00  0.00    -0.354 N 
ATOM     64  N   UNL A   1      42.363  28.846  30.895  1.00  0.00    -0.248 NA
ATOM     65  C   UNL A   1      42.883  26.881  29.744  1.00  0.00     0.031 C 
ATOM     66  C   UNL A   1      45.050  30.819  33.825  1.00  0.00     0.029 A 
ATOM     67  C   UNL A   1      44.238  30.191  32.895  1.00  0.00     0.049 A 
ATOM     68  H   UNL A   1      42.345  30.775  32.170  1.00  0.00     0.167 HD
ATOM     69  C   UNL A   1      43.621  28.406  31.289  1.00  0.00     0.074 A 
ATOM     70  C   UNL A   1      43.878  27.176  30.570  1.00  0.00     0.031 C 
ATOM     71  C   UNL A   1      44.484  28.969  32.170  1.00  0.00     0.031 A 
BRANCH  58  72
ATOM     72  C   UNL A   1      42.492  34.299  34.577  1.00  0.00    -0.014 A 
ATOM     73  C   UNL A   1      43.150  35.441  34.094  1.00  0.00     0.009 A 
ATOM     74  C   UNL A   1      42.070  34.275  35.916  1.00  0.00     0.009 A 
ATOM     75  C   UNL A   1      43.415  36.517  34.945  1.00  0.00     0.001 A 
ATOM     76  C   UNL A   1      42.309  35.365  36.756  1.00  0.00     0.001 A 
ATOM     77  C   UNL A   1      42.991  36.480  36.272  1.00  0.00     0.000 A 
ENDBRANCH  58  72
BRANCH  59  78
ATOM     78  C   UNL A   1      40.323  26.836  28.320  1.00  0.00    -0.014 A 
ATOM     79  C   UNL A   1      40.838  26.877  27.017  1.00  0.00     0.009 A 
ATOM     80  C   UNL A   1      39.516  25.750  28.698  1.00  0.00     0.009 A 
ATOM     81  C   UNL A   1      40.537  25.860  26.107  1.00  0.00     0.001 A 
ATOM     82  C   UNL A   1      39.243  24.721  27.796  1.00  0.00     0.001 A 
ATOM     83  C   UNL A   1      39.746  24.781  26.498  1.00  0.00     0.000 A 
ENDBRANCH  59  78
BRANCH  71  84
ATOM     84  C   UNL A   1      45.776  28.246  32.436  1.00  0.00    -0.014 A 
ATOM     85  C   UNL A   1      45.869  27.251  33.420  1.00  0.00     0.009 A 
ATOM     86  C   UNL A   1      46.902  28.527  31.646  1.00  0.00     0.009 A 
ATOM     87  C   UNL A   1      47.071  26.571  33.625  1.00  0.00     0.001 A 
ATOM     88  C   UNL A   1      48.093  27.825  31.832  1.00  0.00     0.001 A 
ATOM     89  C   UNL A   1      48.179  26.854  32.827  1.00  0.00     0.000 A 
ENDBRANCH  71  84
ENDBRANCH  45  46
ENDBRANCH  38  40
ENDBRANCH  37  38
ENDBRANCH  36  37
ENDBRANCH  35  36
ENDBRANCH  34  35
ENDBRANCH  33  34
ENDBRANCH   1  33
TORSDOF 20
ENDMDL
