MODEL 1
REMARK VINA RESULT:      -8.8      0.000      0.000
REMARK SMILES CC(C)N(CC(F)(F)F)C(=O)N(CC(=O)OCCOCCOC(=O)c1ccc(-c2c3nc(c(-c4ccccc4)c4ccc([nH]4)c(-c4ccccc4)c4nc(c(-c5ccccc5)c5ccc2[nH]5)C=C4)C=C3)cc1)C(C)(C)C
REMARK SMILES IDX 17 1 16 2 14 3 15 4 13 5 12 6 10 7 11 8 4 9 2 10 1 11 3 12
REMARK SMILES IDX 5 13 6 14 7 15 8 16 9 17 73 18 74 19 75 20 76 21 18 22 19 23
REMARK SMILES IDX 20 24 21 25 22 26 23 27 24 28 25 29 26 30 72 31 27 32 71 33
REMARK SMILES IDX 28 34 29 35 30 36 65 37 31 38 70 39 64 40 66 41 32 42 69 43
REMARK SMILES IDX 63 44 62 45 33 47 55 48 40 49 54 50 41 51 44 52 53 53 67 54
REMARK SMILES IDX 42 55 43 56 52 58 68 59 45 60 34 61 35 62 39 63 36 64 38 65
REMARK SMILES IDX 37 66 56 67 57 68 61 69 58 70 60 71 59 72 46 73 47 74 51 75
REMARK SMILES IDX 48 76 50 77 49 78
REMARK H PARENT 66 46 44 57
REMARK Flexibility Score: inf
ROOT
ATOM      1  C   UNL A   1      33.650  27.324  26.157  1.00  0.00     0.261 C 
ENDROOT
BRANCH   1   2
ATOM      2  O   UNL A   1      33.974  27.242  24.744  1.00  0.00    -0.462 OA
BRANCH   2   3
ATOM      3  C   UNL A   1      33.920  25.994  24.205  1.00  0.00     0.325 C 
ATOM      4  O   UNL A   1      33.655  25.765  23.028  1.00  0.00    -0.250 OA
BRANCH   3   5
ATOM      5  C   UNL A   1      34.273  24.849  25.172  1.00  0.00     0.244 C 
BRANCH   5   6
ATOM      6  N   UNL A   1      34.454  23.481  24.667  1.00  0.00    -0.309 N 
BRANCH   6   7
ATOM      7  C   UNL A   1      33.474  22.700  24.053  1.00  0.00     0.321 C 
ATOM      8  O   UNL A   1      33.410  22.699  22.819  1.00  0.00    -0.248 OA
BRANCH   7   9
ATOM      9  N   UNL A   1      32.514  21.968  24.740  1.00  0.00    -0.313 N 
BRANCH   9  10
ATOM     10  C   UNL A   1      31.450  22.755  25.440  1.00  0.00     0.081 C 
ATOM     11  C   UNL A   1      31.853  23.190  26.858  1.00  0.00     0.031 C 
ATOM     12  C   UNL A   1      30.908  23.932  24.620  1.00  0.00     0.031 C 
ENDBRANCH   9  10
BRANCH   9  13
ATOM     13  C   UNL A   1      32.188  20.526  24.626  1.00  0.00     0.237 C 
BRANCH  13  14
ATOM     14  C   UNL A   1      33.076  19.579  25.436  1.00  0.00     0.406 C 
ATOM     15  F   UNL A   1      34.155  19.160  24.744  1.00  0.00    -0.169 F 
ATOM     16  F   UNL A   1      33.529  20.204  26.549  1.00  0.00    -0.169 F 
ATOM     17  F   UNL A   1      32.389  18.488  25.838  1.00  0.00    -0.169 F 
ENDBRANCH  13  14
ENDBRANCH   9  13
ENDBRANCH   7   9
ENDBRANCH   6   7
BRANCH   6  18
ATOM     18  C   UNL A   1      35.883  22.929  24.631  1.00  0.00     0.037 C 
ATOM     19  C   UNL A   1      36.492  23.081  23.216  1.00  0.00     0.034 C 
ATOM     20  C   UNL A   1      36.772  23.647  25.681  1.00  0.00     0.034 C 
ATOM     21  C   UNL A   1      36.012  21.427  25.000  1.00  0.00     0.034 C 
ENDBRANCH   6  18
ENDBRANCH   5   6
ENDBRANCH   3   5
ENDBRANCH   2   3
ENDBRANCH   1   2
BRANCH   1  22
ATOM     22  C   UNL A   1      33.739  28.753  26.712  1.00  0.00     0.202 C 
BRANCH  22  23
ATOM     23  O   UNL A   1      32.951  29.740  26.037  1.00  0.00    -0.374 OA
BRANCH  23  24
ATOM     24  C   UNL A   1      31.839  30.254  26.763  1.00  0.00     0.202 C 
BRANCH  24  25
ATOM     25  C   UNL A   1      31.811  31.777  26.950  1.00  0.00     0.261 C 
BRANCH  25  26
ATOM     26  O   UNL A   1      33.128  32.346  27.000  1.00  0.00    -0.460 OA
BRANCH  26  27
ATOM     27  C   UNL A   1      33.275  33.344  27.898  1.00  0.00     0.338 C 
ATOM     28  O   UNL A   1      32.467  34.226  28.166  1.00  0.00    -0.246 OA
BRANCH  27  29
ATOM     29  C   UNL A   1      34.514  33.167  28.676  1.00  0.00     0.060 A 
ATOM     30  C   UNL A   1      35.714  33.509  28.042  1.00  0.00     0.016 A 
ATOM     31  C   UNL A   1      34.521  32.588  29.948  1.00  0.00     0.016 A 
ATOM     32  C   UNL A   1      36.931  33.213  28.649  1.00  0.00     0.010 A 
ATOM     33  C   UNL A   1      35.748  32.286  30.554  1.00  0.00     0.010 A 
ATOM     34  C   UNL A   1      36.957  32.557  29.887  1.00  0.00    -0.014 A 
BRANCH  34  35
ATOM     35  C   UNL A   1      38.250  32.030  30.388  1.00  0.00     0.031 A 
ATOM     36  C   UNL A   1      38.777  30.734  29.835  1.00  0.00     0.074 A 
ATOM     37  C   UNL A   1      38.986  32.737  31.264  1.00  0.00     0.049 A 
ATOM     38  N   UNL A   1      39.915  30.132  30.074  1.00  0.00    -0.248 NA
ATOM     39  C   UNL A   1      37.911  30.026  28.878  1.00  0.00     0.031 C 
ATOM     40  C   UNL A   1      38.610  34.028  31.838  1.00  0.00     0.029 A 
ATOM     41  N   UNL A   1      40.217  32.469  31.811  1.00  0.00    -0.354 N 
ATOM     42  C   UNL A   1      39.904  28.981  29.296  1.00  0.00     0.074 A 
ATOM     43  C   UNL A   1      38.634  28.951  28.602  1.00  0.00     0.031 C 
ATOM     44  C   UNL A   1      39.595  34.445  32.652  1.00  0.00     0.029 A 
ATOM     45  C   UNL A   1      40.657  33.442  32.674  1.00  0.00     0.049 A 
ATOM     46  H   UNL A   1      40.734  31.657  31.603  1.00  0.00     0.167 HD
ATOM     47  C   UNL A   1      40.866  28.039  29.161  1.00  0.00     0.031 A 
ATOM     48  C   UNL A   1      41.788  33.511  33.403  1.00  0.00     0.031 A 
ATOM     49  C   UNL A   1      42.121  28.053  29.862  1.00  0.00     0.049 A 
ATOM     50  C   UNL A   1      42.805  32.406  33.301  1.00  0.00     0.074 A 
ATOM     51  C   UNL A   1      43.162  27.144  29.787  1.00  0.00     0.029 A 
ATOM     52  N   UNL A   1      42.499  29.021  30.778  1.00  0.00    -0.354 N 
ATOM     53  N   UNL A   1      42.794  31.340  32.538  1.00  0.00    -0.248 NA
ATOM     54  C   UNL A   1      43.994  32.521  34.158  1.00  0.00     0.031 C 
ATOM     55  C   UNL A   1      44.150  27.537  30.696  1.00  0.00     0.029 A 
ATOM     56  C   UNL A   1      43.745  28.718  31.298  1.00  0.00     0.049 A 
ATOM     57  H   UNL A   1      41.961  29.809  31.022  1.00  0.00     0.167 HD
ATOM     58  C   UNL A   1      43.981  30.671  32.805  1.00  0.00     0.074 A 
ATOM     59  C   UNL A   1      44.696  31.458  33.789  1.00  0.00     0.031 C 
ATOM     60  C   UNL A   1      44.440  29.508  32.280  1.00  0.00     0.031 A 
BRANCH  47  61
ATOM     61  C   UNL A   1      40.581  26.891  28.234  1.00  0.00    -0.014 A 
ATOM     62  C   UNL A   1      39.870  25.762  28.672  1.00  0.00     0.009 A 
ATOM     63  C   UNL A   1      41.003  26.952  26.897  1.00  0.00     0.009 A 
ATOM     64  C   UNL A   1      39.615  24.704  27.796  1.00  0.00     0.001 A 
ATOM     65  C   UNL A   1      40.726  25.903  26.017  1.00  0.00     0.001 A 
ATOM     66  C   UNL A   1      40.040  24.777  26.470  1.00  0.00     0.000 A 
ENDBRANCH  47  61
BRANCH  48  67
ATOM     67  C   UNL A   1      42.017  34.667  34.310  1.00  0.00    -0.014 A 
ATOM     68  C   UNL A   1      41.581  34.630  35.643  1.00  0.00     0.009 A 
ATOM     69  C   UNL A   1      42.661  35.821  33.837  1.00  0.00     0.009 A 
ATOM     70  C   UNL A   1      41.769  35.733  36.478  1.00  0.00     0.001 A 
ATOM     71  C   UNL A   1      42.870  36.913  34.682  1.00  0.00     0.001 A 
ATOM     72  C   UNL A   1      42.417  36.872  35.999  1.00  0.00     0.000 A 
ENDBRANCH  48  67
BRANCH  60  73
ATOM     73  C   UNL A   1      45.788  29.028  32.741  1.00  0.00    -0.014 A 
ATOM     74  C   UNL A   1      45.913  28.162  33.838  1.00  0.00     0.009 A 
ATOM     75  C   UNL A   1      46.940  29.412  32.038  1.00  0.00     0.009 A 
ATOM     76  C   UNL A   1      47.173  27.711  34.238  1.00  0.00     0.001 A 
ATOM     77  C   UNL A   1      48.195  28.939  32.426  1.00  0.00     0.001 A 
ATOM     78  C   UNL A   1      48.311  28.096  33.530  1.00  0.00     0.000 A 
ENDBRANCH  60  73
ENDBRANCH  34  35
ENDBRANCH  27  29
ENDBRANCH  26  27
ENDBRANCH  25  26
ENDBRANCH  24  25
ENDBRANCH  23  24
ENDBRANCH  22  23
ENDBRANCH   1  22
TORSDOF 21
ENDMDL
MODEL 2
REMARK VINA RESULT:      -8.8      2.068      6.654
REMARK SMILES CC(C)N(CC(F)(F)F)C(=O)N(CC(=O)OCCOCCOC(=O)c1ccc(-c2c3nc(c(-c4ccccc4)c4ccc([nH]4)c(-c4ccccc4)c4nc(c(-c5ccccc5)c5ccc2[nH]5)C=C4)C=C3)cc1)C(C)(C)C
REMARK SMILES IDX 17 1 16 2 14 3 15 4 13 5 12 6 10 7 11 8 4 9 2 10 1 11 3 12
REMARK SMILES IDX 5 13 6 14 7 15 8 16 9 17 73 18 74 19 75 20 76 21 18 22 19 23
REMARK SMILES IDX 20 24 21 25 22 26 23 27 24 28 25 29 26 30 72 31 27 32 71 33
REMARK SMILES IDX 28 34 29 35 30 36 65 37 31 38 70 39 64 40 66 41 32 42 69 43
REMARK SMILES IDX 63 44 62 45 33 47 55 48 40 49 54 50 41 51 44 52 53 53 67 54
REMARK SMILES IDX 42 55 43 56 52 58 68 59 45 60 34 61 35 62 39 63 36 64 38 65
REMARK SMILES IDX 37 66 56 67 57 68 61 69 58 70 60 71 59 72 46 73 47 74 51 75
REMARK SMILES IDX 48 76 50 77 49 78
REMARK H PARENT 66 46 44 57
REMARK Flexibility Score: inf
ROOT
ATOM      1  C   UNL A   1      33.014  27.443  23.535  1.00  0.00     0.261 C 
ENDROOT
BRANCH   1   2
ATOM      2  O   UNL A   1      32.726  26.019  23.507  1.00  0.00    -0.462 OA
BRANCH   2   3
ATOM      3  C   UNL A   1      33.810  25.209  23.368  1.00  0.00     0.325 C 
ATOM      4  O   UNL A   1      34.117  24.645  22.321  1.00  0.00    -0.250 OA
BRANCH   3   5
ATOM      5  C   UNL A   1      34.690  25.075  24.624  1.00  0.00     0.244 C 
BRANCH   5   6
ATOM      6  N   UNL A   1      34.843  23.772  25.287  1.00  0.00    -0.309 N 
BRANCH   6   7
ATOM      7  C   UNL A   1      33.822  23.035  25.887  1.00  0.00     0.321 C 
ATOM      8  O   UNL A   1      33.849  22.880  27.113  1.00  0.00    -0.248 OA
BRANCH   7   9
ATOM      9  N   UNL A   1      32.801  22.401  25.190  1.00  0.00    -0.313 N 
BRANCH   9  10
ATOM     10  C   UNL A   1      31.476  23.098  25.165  1.00  0.00     0.081 C 
ATOM     11  C   UNL A   1      30.891  23.235  23.751  1.00  0.00     0.031 C 
ATOM     12  C   UNL A   1      30.452  22.515  26.147  1.00  0.00     0.031 C 
ENDBRANCH   9  10
BRANCH   9  13
ATOM     13  C   UNL A   1      32.897  21.305  24.197  1.00  0.00     0.237 C 
BRANCH  13  14
ATOM     14  C   UNL A   1      33.082  19.900  24.774  1.00  0.00     0.406 C 
ATOM     15  F   UNL A   1      33.015  19.879  26.120  1.00  0.00    -0.169 F 
ATOM     16  F   UNL A   1      32.113  19.076  24.310  1.00  0.00    -0.169 F 
ATOM     17  F   UNL A   1      34.270  19.372  24.407  1.00  0.00    -0.169 F 
ENDBRANCH  13  14
ENDBRANCH   9  13
ENDBRANCH   7   9
ENDBRANCH   6   7
BRANCH   6  18
ATOM     18  C   UNL A   1      36.195  23.065  25.143  1.00  0.00     0.037 C 
ATOM     19  C   UNL A   1      36.160  21.675  25.821  1.00  0.00     0.034 C 
ATOM     20  C   UNL A   1      36.581  22.926  23.646  1.00  0.00     0.034 C 
ATOM     21  C   UNL A   1      37.397  23.822  25.767  1.00  0.00     0.034 C 
ENDBRANCH   6  18
ENDBRANCH   5   6
ENDBRANCH   3   5
ENDBRANCH   2   3
ENDBRANCH   1   2
BRANCH   1  22
ATOM     22  C   UNL A   1      32.234  28.193  24.624  1.00  0.00     0.202 C 
BRANCH  22  23
ATOM     23  O   UNL A   1      32.797  28.155  25.940  1.00  0.00    -0.374 OA
BRANCH  23  24
ATOM     24  C   UNL A   1      33.648  29.243  26.286  1.00  0.00     0.202 C 
BRANCH  24  25
ATOM     25  C   UNL A   1      32.978  30.401  27.038  1.00  0.00     0.261 C 
BRANCH  25  26
ATOM     26  O   UNL A   1      33.732  30.816  28.187  1.00  0.00    -0.460 OA
BRANCH  26  27
ATOM     27  C   UNL A   1      34.878  31.472  27.901  1.00  0.00     0.338 C 
ATOM     28  O   UNL A   1      35.003  32.658  27.623  1.00  0.00    -0.246 OA
BRANCH  27  29
ATOM     29  C   UNL A   1      36.045  30.599  28.119  1.00  0.00     0.060 A 
ATOM     30  C   UNL A   1      36.181  30.030  29.390  1.00  0.00     0.016 A 
ATOM     31  C   UNL A   1      37.036  30.420  27.149  1.00  0.00     0.016 A 
ATOM     32  C   UNL A   1      37.341  29.334  29.721  1.00  0.00     0.010 A 
ATOM     33  C   UNL A   1      38.204  29.724  27.487  1.00  0.00     0.010 A 
ATOM     34  C   UNL A   1      38.379  29.217  28.787  1.00  0.00    -0.014 A 
BRANCH  34  35
ATOM     35  C   UNL A   1      39.692  28.696  29.242  1.00  0.00     0.031 A 
ATOM     36  C   UNL A   1      40.480  29.481  30.256  1.00  0.00     0.074 A 
ATOM     37  C   UNL A   1      40.140  27.500  28.821  1.00  0.00     0.049 A 
ATOM     38  N   UNL A   1      41.609  29.176  30.846  1.00  0.00    -0.248 NA
ATOM     39  C   UNL A   1      39.916  30.777  30.667  1.00  0.00     0.031 C 
ATOM     40  C   UNL A   1      39.449  26.622  27.878  1.00  0.00     0.029 A 
ATOM     41  N   UNL A   1      41.282  26.813  29.150  1.00  0.00    -0.354 N 
ATOM     42  C   UNL A   1      41.886  30.237  31.699  1.00  0.00     0.074 A 
ATOM     43  C   UNL A   1      40.827  31.208  31.527  1.00  0.00     0.031 C 
ATOM     44  C   UNL A   1      40.179  25.506  27.710  1.00  0.00     0.029 A 
ATOM     45  C   UNL A   1      41.396  25.601  28.513  1.00  0.00     0.049 A 
ATOM     46  H   UNL A   1      41.955  27.155  29.782  1.00  0.00     0.167 HD
ATOM     47  C   UNL A   1      42.923  30.387  32.556  1.00  0.00     0.031 A 
ATOM     48  C   UNL A   1      42.375  24.678  28.569  1.00  0.00     0.031 A 
ATOM     49  C   UNL A   1      43.988  29.435  32.717  1.00  0.00     0.049 A 
ATOM     50  C   UNL A   1      43.562  24.908  29.466  1.00  0.00     0.074 A 
ATOM     51  C   UNL A   1      45.081  29.497  33.565  1.00  0.00     0.029 A 
ATOM     52  N   UNL A   1      44.101  28.253  32.004  1.00  0.00    -0.354 N 
ATOM     53  N   UNL A   1      43.796  25.901  30.289  1.00  0.00    -0.248 NA
ATOM     54  C   UNL A   1      44.616  23.883  29.444  1.00  0.00     0.031 C 
ATOM     55  C   UNL A   1      45.880  28.374  33.328  1.00  0.00     0.029 A 
ATOM     56  C   UNL A   1      45.258  27.589  32.370  1.00  0.00     0.049 A 
ATOM     57  H   UNL A   1      43.453  27.932  31.335  1.00  0.00     0.167 HD
ATOM     58  C   UNL A   1      45.009  25.611  30.899  1.00  0.00     0.074 A 
ATOM     59  C   UNL A   1      45.456  24.341  30.363  1.00  0.00     0.031 C 
ATOM     60  C   UNL A   1      45.691  26.330  31.824  1.00  0.00     0.031 A 
BRANCH  47  61
ATOM     61  C   UNL A   1      42.967  31.650  33.370  1.00  0.00    -0.014 A 
ATOM     62  C   UNL A   1      42.313  31.740  34.609  1.00  0.00     0.009 A 
ATOM     63  C   UNL A   1      43.697  32.755  32.904  1.00  0.00     0.009 A 
ATOM     64  C   UNL A   1      42.365  32.922  35.351  1.00  0.00     0.001 A 
ATOM     65  C   UNL A   1      43.766  33.928  33.659  1.00  0.00     0.001 A 
ATOM     66  C   UNL A   1      43.094  34.013  34.877  1.00  0.00     0.000 A 
ENDBRANCH  47  61
BRANCH  48  67
ATOM     67  C   UNL A   1      42.284  23.449  27.738  1.00  0.00    -0.014 A 
ATOM     68  C   UNL A   1      41.692  22.282  28.244  1.00  0.00     0.009 A 
ATOM     69  C   UNL A   1      42.806  23.435  26.434  1.00  0.00     0.009 A 
ATOM     70  C   UNL A   1      41.642  21.121  27.469  1.00  0.00     0.001 A 
ATOM     71  C   UNL A   1      42.731  22.281  25.653  1.00  0.00     0.001 A 
ATOM     72  C   UNL A   1      42.158  21.122  26.173  1.00  0.00     0.000 A 
ENDBRANCH  48  67
BRANCH  60  73
ATOM     73  C   UNL A   1      46.982  25.751  32.331  1.00  0.00    -0.014 A 
ATOM     74  C   UNL A   1      48.205  26.049  31.712  1.00  0.00     0.009 A 
ATOM     75  C   UNL A   1      46.976  24.935  33.473  1.00  0.00     0.009 A 
ATOM     76  C   UNL A   1      49.396  25.517  32.211  1.00  0.00     0.001 A 
ATOM     77  C   UNL A   1      48.171  24.426  33.985  1.00  0.00     0.001 A 
ATOM     78  C   UNL A   1      49.378  24.710  33.349  1.00  0.00     0.000 A 
ENDBRANCH  60  73
ENDBRANCH  34  35
ENDBRANCH  27  29
ENDBRANCH  26  27
ENDBRANCH  25  26
ENDBRANCH  24  25
ENDBRANCH  23  24
ENDBRANCH  22  23
ENDBRANCH   1  22
TORSDOF 21
ENDMDL
MODEL 3
REMARK VINA RESULT:      -8.8      1.779      6.210
REMARK SMILES CC(C)N(CC(F)(F)F)C(=O)N(CC(=O)OCCOCCOC(=O)c1ccc(-c2c3nc(c(-c4ccccc4)c4ccc([nH]4)c(-c4ccccc4)c4nc(c(-c5ccccc5)c5ccc2[nH]5)C=C4)C=C3)cc1)C(C)(C)C
REMARK SMILES IDX 17 1 16 2 14 3 15 4 13 5 12 6 10 7 11 8 4 9 2 10 1 11 3 12
REMARK SMILES IDX 5 13 6 14 7 15 8 16 9 17 73 18 74 19 75 20 76 21 18 22 19 23
REMARK SMILES IDX 20 24 21 25 22 26 23 27 24 28 25 29 26 30 72 31 27 32 71 33
REMARK SMILES IDX 28 34 29 35 30 36 65 37 31 38 70 39 64 40 66 41 32 42 69 43
REMARK SMILES IDX 63 44 62 45 33 47 55 48 40 49 54 50 41 51 44 52 53 53 67 54
REMARK SMILES IDX 42 55 43 56 52 58 68 59 45 60 34 61 35 62 39 63 36 64 38 65
REMARK SMILES IDX 37 66 56 67 57 68 61 69 58 70 60 71 59 72 46 73 47 74 51 75
REMARK SMILES IDX 48 76 50 77 49 78
REMARK H PARENT 66 46 44 57
REMARK Flexibility Score: inf
ROOT
ATOM      1  C   UNL A   1      32.248  28.647  27.369  1.00  0.00     0.261 C 
ENDROOT
BRANCH   1   2
ATOM      2  O   UNL A   1      32.152  27.946  26.101  1.00  0.00    -0.462 OA
BRANCH   2   3
ATOM      3  C   UNL A   1      32.128  26.588  26.186  1.00  0.00     0.325 C 
ATOM      4  O   UNL A   1      31.490  25.964  27.031  1.00  0.00    -0.250 OA
BRANCH   3   5
ATOM      5  C   UNL A   1      32.929  25.851  25.098  1.00  0.00     0.244 C 
BRANCH   5   6
ATOM      6  N   UNL A   1      32.535  24.499  24.674  1.00  0.00    -0.309 N 
BRANCH   6   7
ATOM      7  C   UNL A   1      32.698  23.330  25.417  1.00  0.00     0.321 C 
ATOM      8  O   UNL A   1      31.826  23.028  26.239  1.00  0.00    -0.248 OA
BRANCH   7   9
ATOM      9  N   UNL A   1      33.815  22.507  25.345  1.00  0.00    -0.313 N 
BRANCH   9  10
ATOM     10  C   UNL A   1      35.086  23.145  24.877  1.00  0.00     0.081 C 
ATOM     11  C   UNL A   1      36.309  22.743  25.716  1.00  0.00     0.031 C 
ATOM     12  C   UNL A   1      35.349  22.975  23.376  1.00  0.00     0.031 C 
ENDBRANCH   9  10
BRANCH   9  13
ATOM     13  C   UNL A   1      34.028  21.175  25.959  1.00  0.00     0.237 C 
BRANCH  13  14
ATOM     14  C   UNL A   1      34.001  19.986  24.996  1.00  0.00     0.406 C 
ATOM     15  F   UNL A   1      33.323  20.253  23.862  1.00  0.00    -0.169 F 
ATOM     16  F   UNL A   1      35.263  19.648  24.641  1.00  0.00    -0.169 F 
ATOM     17  F   UNL A   1      33.440  18.901  25.573  1.00  0.00    -0.169 F 
ENDBRANCH  13  14
ENDBRANCH   9  13
ENDBRANCH   7   9
ENDBRANCH   6   7
BRANCH   6  18
ATOM     18  C   UNL A   1      31.699  24.380  23.396  1.00  0.00     0.037 C 
ATOM     19  C   UNL A   1      30.267  24.919  23.627  1.00  0.00     0.034 C 
ATOM     20  C   UNL A   1      32.379  25.141  22.226  1.00  0.00     0.034 C 
ATOM     21  C   UNL A   1      31.537  22.935  22.854  1.00  0.00     0.034 C 
ENDBRANCH   6  18
ENDBRANCH   5   6
ENDBRANCH   3   5
ENDBRANCH   2   3
ENDBRANCH   1   2
BRANCH   1  22
ATOM     22  C   UNL A   1      32.777  30.081  27.225  1.00  0.00     0.202 C 
BRANCH  22  23
ATOM     23  O   UNL A   1      32.077  30.920  26.300  1.00  0.00    -0.374 OA
BRANCH  23  24
ATOM     24  C   UNL A   1      31.227  31.909  26.873  1.00  0.00     0.202 C 
BRANCH  24  25
ATOM     25  C   UNL A   1      31.764  33.346  26.845  1.00  0.00     0.261 C 
BRANCH  25  26
ATOM     26  O   UNL A   1      33.118  33.434  27.314  1.00  0.00    -0.460 OA
BRANCH  26  27
ATOM     27  C   UNL A   1      33.294  34.250  28.376  1.00  0.00     0.338 C 
ATOM     28  O   UNL A   1      32.569  35.172  28.731  1.00  0.00    -0.246 OA
BRANCH  27  29
ATOM     29  C   UNL A   1      34.429  33.797  29.199  1.00  0.00     0.060 A 
ATOM     30  C   UNL A   1      35.708  34.174  28.774  1.00  0.00     0.016 A 
ATOM     31  C   UNL A   1      34.265  32.946  30.295  1.00  0.00     0.016 A 
ATOM     32  C   UNL A   1      36.834  33.646  29.401  1.00  0.00     0.010 A 
ATOM     33  C   UNL A   1      35.400  32.412  30.921  1.00  0.00     0.010 A 
ATOM     34  C   UNL A   1      36.687  32.726  30.448  1.00  0.00    -0.014 A 
BRANCH  34  35
ATOM     35  C   UNL A   1      37.885  31.994  30.926  1.00  0.00     0.031 A 
ATOM     36  C   UNL A   1      38.424  32.289  32.300  1.00  0.00     0.074 A 
ATOM     37  C   UNL A   1      38.438  31.020  30.182  1.00  0.00     0.049 A 
ATOM     38  N   UNL A   1      39.409  31.717  32.945  1.00  0.00    -0.248 NA
ATOM     39  C   UNL A   1      37.758  33.366  33.050  1.00  0.00     0.031 C 
ATOM     40  C   UNL A   1      37.982  30.606  28.856  1.00  0.00     0.029 A 
ATOM     41  N   UNL A   1      39.500  30.191  30.449  1.00  0.00    -0.354 N 
ATOM     42  C   UNL A   1      39.478  32.359  34.176  1.00  0.00     0.074 A 
ATOM     43  C   UNL A   1      38.457  33.385  34.175  1.00  0.00     0.031 C 
ATOM     44  C   UNL A   1      38.754  29.593  28.427  1.00  0.00     0.029 A 
ATOM     45  C   UNL A   1      39.772  29.305  29.436  1.00  0.00     0.049 A 
ATOM     46  H   UNL A   1      40.017  30.229  31.286  1.00  0.00     0.167 HD
ATOM     47  C   UNL A   1      40.306  32.111  35.217  1.00  0.00     0.031 A 
ATOM     48  C   UNL A   1      40.738  28.371  29.333  1.00  0.00     0.031 A 
ATOM     49  C   UNL A   1      41.334  31.106  35.215  1.00  0.00     0.049 A 
ATOM     50  C   UNL A   1      41.703  28.174  30.471  1.00  0.00     0.074 A 
ATOM     51  C   UNL A   1      42.222  30.777  36.226  1.00  0.00     0.029 A 
ATOM     52  N   UNL A   1      41.621  30.276  34.144  1.00  0.00    -0.354 N 
ATOM     53  N   UNL A   1      41.736  28.767  31.639  1.00  0.00    -0.248 NA
ATOM     54  C   UNL A   1      42.760  27.171  30.275  1.00  0.00     0.031 C 
ATOM     55  C   UNL A   1      43.078  29.780  35.747  1.00  0.00     0.029 A 
ATOM     56  C   UNL A   1      42.689  29.454  34.457  1.00  0.00     0.049 A 
ATOM     57  H   UNL A   1      41.135  30.270  33.287  1.00  0.00     0.167 HD
ATOM     58  C   UNL A   1      42.799  28.195  32.325  1.00  0.00     0.074 A 
ATOM     59  C   UNL A   1      43.377  27.197  31.449  1.00  0.00     0.031 C 
ATOM     60  C   UNL A   1      43.255  28.470  33.572  1.00  0.00     0.031 A 
BRANCH  47  61
ATOM     61  C   UNL A   1      40.150  32.969  36.441  1.00  0.00    -0.014 A 
ATOM     62  C   UNL A   1      40.913  34.136  36.613  1.00  0.00     0.009 A 
ATOM     63  C   UNL A   1      39.208  32.622  37.421  1.00  0.00     0.009 A 
ATOM     64  C   UNL A   1      40.754  34.920  37.757  1.00  0.00     0.001 A 
ATOM     65  C   UNL A   1      39.035  33.421  38.553  1.00  0.00     0.001 A 
ATOM     66  C   UNL A   1      39.814  34.565  38.724  1.00  0.00     0.000 A 
ENDBRANCH  47  61
BRANCH  48  67
ATOM     67  C   UNL A   1      40.851  27.554  28.096  1.00  0.00    -0.014 A 
ATOM     68  C   UNL A   1      40.201  26.315  27.992  1.00  0.00     0.009 A 
ATOM     69  C   UNL A   1      41.627  28.006  27.017  1.00  0.00     0.009 A 
ATOM     70  C   UNL A   1      40.341  25.538  26.840  1.00  0.00     0.001 A 
ATOM     71  C   UNL A   1      41.745  27.239  25.857  1.00  0.00     0.001 A 
ATOM     72  C   UNL A   1      41.109  26.002  25.772  1.00  0.00     0.000 A 
ENDBRANCH  48  67
BRANCH  60  73
ATOM     73  C   UNL A   1      44.422  27.664  34.072  1.00  0.00    -0.014 A 
ATOM     74  C   UNL A   1      45.740  28.117  33.908  1.00  0.00     0.009 A 
ATOM     75  C   UNL A   1      44.194  26.461  34.756  1.00  0.00     0.009 A 
ATOM     76  C   UNL A   1      46.809  27.365  34.398  1.00  0.00     0.001 A 
ATOM     77  C   UNL A   1      45.264  25.724  35.267  1.00  0.00     0.001 A 
ATOM     78  C   UNL A   1      46.570  26.172  35.080  1.00  0.00     0.000 A 
ENDBRANCH  60  73
ENDBRANCH  34  35
ENDBRANCH  27  29
ENDBRANCH  26  27
ENDBRANCH  25  26
ENDBRANCH  24  25
ENDBRANCH  23  24
ENDBRANCH  22  23
ENDBRANCH   1  22
TORSDOF 21
ENDMDL
