MODEL 1
REMARK VINA RESULT:      -8.8      0.000      0.000
REMARK SMILES Cc1cc(C)n([C@@H](C(=O)OCCOCCOC(=O)c2ccc(-c3c4nc(c(-c5ccccc5)c5ccc([nH]5)c(-c5ccccc5)c5nc(c(-c6ccccc6)c6ccc3[nH]6)C=C5)C=C4)cc2)C(C)C)n1
REMARK SMILES IDX 14 1 13 2 12 3 11 4 10 5 8 6 9 7 7 8 6 9 1 10 2 11 3 12
REMARK SMILES IDX 70 13 4 14 5 15 67 16 68 17 69 18 15 19 16 20 17 21 18 22
REMARK SMILES IDX 19 23 20 24 66 25 21 26 65 27 22 28 23 29 24 30 59 31 25 32
REMARK SMILES IDX 64 33 58 34 60 35 26 36 63 37 57 38 56 39 27 41 49 42 34 43
REMARK SMILES IDX 48 44 35 45 38 46 47 47 61 48 36 49 37 50 46 52 62 53 39 54
REMARK SMILES IDX 28 55 29 56 33 57 30 58 32 59 31 60 50 61 51 62 55 63 52 64
REMARK SMILES IDX 54 65 53 66 40 67 41 68 45 69 42 70 44 71 43 72
REMARK H PARENT 60 40 38 51
REMARK Flexibility Score: inf
ROOT
ATOM      1  C   UNL A   1      34.181  34.373  30.846  1.00  0.00     0.202 C 
ENDROOT
BRANCH   1   2
ATOM      2  O   UNL A   1      33.737  34.280  32.194  1.00  0.00    -0.374 OA
BRANCH   2   3
ATOM      3  C   UNL A   1      34.448  33.430  33.088  1.00  0.00     0.202 C 
BRANCH   3   4
ATOM      4  C   UNL A   1      35.501  34.063  34.005  1.00  0.00     0.261 C 
BRANCH   4   5
ATOM      5  O   UNL A   1      36.399  34.972  33.332  1.00  0.00    -0.462 OA
BRANCH   5   6
ATOM      6  C   UNL A   1      37.722  34.714  33.512  1.00  0.00     0.331 C 
ATOM      7  O   UNL A   1      38.398  35.293  34.362  1.00  0.00    -0.250 OA
BRANCH   6   8
ATOM      8  C   UNL A   1      38.339  33.660  32.596  1.00  0.00     0.219 C 
BRANCH   8   9
ATOM      9  N   UNL A   1      38.683  32.379  33.253  1.00  0.00    -0.255 N 
ATOM     10  C   UNL A   1      40.340  31.053  36.116  1.00  0.00     0.069 C 
ATOM     11  C   UNL A   1      39.568  31.286  34.873  1.00  0.00     0.060 A 
ATOM     12  C   UNL A   1      38.641  30.420  34.279  1.00  0.00     0.048 A 
ATOM     13  N   UNL A   1      39.639  32.448  34.222  1.00  0.00    -0.177 NA
ATOM     14  C   UNL A   1      38.032  31.152  33.279  1.00  0.00     0.037 A 
ATOM     15  C   UNL A   1      36.842  30.724  32.501  1.00  0.00     0.066 C 
ENDBRANCH   8   9
BRANCH   8  16
ATOM     16  C   UNL A   1      39.428  34.197  31.615  1.00  0.00     0.019 C 
ATOM     17  C   UNL A   1      40.409  33.071  31.250  1.00  0.00     0.010 C 
ATOM     18  C   UNL A   1      38.901  34.810  30.312  1.00  0.00     0.010 C 
ENDBRANCH   8  16
ENDBRANCH   6   8
ENDBRANCH   5   6
ENDBRANCH   4   5
ENDBRANCH   3   4
ENDBRANCH   2   3
ENDBRANCH   1   2
BRANCH   1  19
ATOM     19  C   UNL A   1      35.263  33.410  30.375  1.00  0.00     0.261 C 
BRANCH  19  20
ATOM     20  O   UNL A   1      34.796  32.090  30.133  1.00  0.00    -0.460 OA
BRANCH  20  21
ATOM     21  C   UNL A   1      34.906  31.726  28.834  1.00  0.00     0.338 C 
ATOM     22  O   UNL A   1      34.012  31.684  28.009  1.00  0.00    -0.246 OA
BRANCH  21  23
ATOM     23  C   UNL A   1      36.223  31.112  28.632  1.00  0.00     0.060 A 
ATOM     24  C   UNL A   1      36.218  29.733  28.427  1.00  0.00     0.016 A 
ATOM     25  C   UNL A   1      37.409  31.816  28.901  1.00  0.00     0.016 A 
ATOM     26  C   UNL A   1      37.383  29.037  28.651  1.00  0.00     0.010 A 
ATOM     27  C   UNL A   1      38.577  31.115  29.128  1.00  0.00     0.010 A 
ATOM     28  C   UNL A   1      38.539  29.728  29.054  1.00  0.00    -0.014 A 
BRANCH  28  29
ATOM     29  C   UNL A   1      39.750  28.940  29.150  1.00  0.00     0.031 A 
ATOM     30  C   UNL A   1      40.062  28.613  30.559  1.00  0.00     0.074 A 
ATOM     31  C   UNL A   1      40.520  28.547  28.122  1.00  0.00     0.049 A 
ATOM     32  N   UNL A   1      40.951  29.190  31.293  1.00  0.00    -0.248 NA
ATOM     33  C   UNL A   1      39.149  27.724  31.290  1.00  0.00     0.031 C 
ATOM     34  C   UNL A   1      40.235  28.569  26.690  1.00  0.00     0.029 A 
ATOM     35  N   UNL A   1      41.747  27.961  28.184  1.00  0.00    -0.354 N 
ATOM     36  C   UNL A   1      40.846  28.597  32.541  1.00  0.00     0.074 A 
ATOM     37  C   UNL A   1      39.616  27.846  32.533  1.00  0.00     0.031 C 
ATOM     38  C   UNL A   1      41.157  27.812  26.045  1.00  0.00     0.029 A 
ATOM     39  C   UNL A   1      42.169  27.381  26.997  1.00  0.00     0.049 A 
ATOM     40  H   UNL A   1      42.291  27.949  29.004  1.00  0.00     0.167 HD
ATOM     41  C   UNL A   1      41.920  28.554  33.373  1.00  0.00     0.031 A 
ATOM     42  C   UNL A   1      43.245  26.566  26.844  1.00  0.00     0.031 A 
ATOM     43  C   UNL A   1      42.929  29.512  32.985  1.00  0.00     0.049 A 
ATOM     44  C   UNL A   1      44.155  26.799  27.991  1.00  0.00     0.074 A 
ATOM     45  C   UNL A   1      42.962  30.885  32.837  1.00  0.00     0.029 A 
ATOM     46  N   UNL A   1      44.007  29.029  32.282  1.00  0.00    -0.354 N 
ATOM     47  N   UNL A   1      44.837  27.897  28.148  1.00  0.00    -0.248 NA
ATOM     48  C   UNL A   1      43.961  26.007  29.195  1.00  0.00     0.031 C 
ATOM     49  C   UNL A   1      43.767  31.113  31.682  1.00  0.00     0.029 A 
ATOM     50  C   UNL A   1      44.245  29.880  31.236  1.00  0.00     0.049 A 
ATOM     51  H   UNL A   1      44.518  28.214  32.494  1.00  0.00     0.167 HD
ATOM     52  C   UNL A   1      44.750  28.169  29.504  1.00  0.00     0.074 A 
ATOM     53  C   UNL A   1      44.284  26.923  30.112  1.00  0.00     0.031 C 
ATOM     54  C   UNL A   1      44.788  29.454  29.966  1.00  0.00     0.031 A 
BRANCH  41  55
ATOM     55  C   UNL A   1      42.252  27.329  34.188  1.00  0.00    -0.014 A 
ATOM     56  C   UNL A   1      43.290  26.494  33.742  1.00  0.00     0.009 A 
ATOM     57  C   UNL A   1      41.397  26.802  35.177  1.00  0.00     0.009 A 
ATOM     58  C   UNL A   1      43.396  25.169  34.182  1.00  0.00     0.001 A 
ATOM     59  C   UNL A   1      41.525  25.496  35.649  1.00  0.00     0.001 A 
ATOM     60  C   UNL A   1      42.505  24.668  35.126  1.00  0.00     0.000 A 
ENDBRANCH  41  55
BRANCH  42  61
ATOM     61  C   UNL A   1      43.422  25.402  25.947  1.00  0.00    -0.014 A 
ATOM     62  C   UNL A   1      44.626  25.215  25.245  1.00  0.00     0.009 A 
ATOM     63  C   UNL A   1      42.531  24.317  26.014  1.00  0.00     0.009 A 
ATOM     64  C   UNL A   1      44.946  23.975  24.677  1.00  0.00     0.001 A 
ATOM     65  C   UNL A   1      42.849  23.079  25.444  1.00  0.00     0.001 A 
ATOM     66  C   UNL A   1      44.064  22.903  24.790  1.00  0.00     0.000 A 
ENDBRANCH  42  61
BRANCH  54  67
ATOM     67  C   UNL A   1      45.217  30.542  29.014  1.00  0.00    -0.014 A 
ATOM     68  C   UNL A   1      44.355  31.169  28.098  1.00  0.00     0.009 A 
ATOM     69  C   UNL A   1      46.525  31.037  29.139  1.00  0.00     0.009 A 
ATOM     70  C   UNL A   1      44.804  32.231  27.304  1.00  0.00     0.001 A 
ATOM     71  C   UNL A   1      46.966  32.110  28.366  1.00  0.00     0.001 A 
ATOM     72  C   UNL A   1      46.109  32.702  27.442  1.00  0.00     0.000 A 
ENDBRANCH  54  67
ENDBRANCH  28  29
ENDBRANCH  21  23
ENDBRANCH  20  21
ENDBRANCH  19  20
ENDBRANCH   1  19
TORSDOF 16
ENDMDL
MODEL 2
REMARK VINA RESULT:      -8.5      3.916      6.806
REMARK SMILES Cc1cc(C)n([C@@H](C(=O)OCCOCCOC(=O)c2ccc(-c3c4nc(c(-c5ccccc5)c5ccc([nH]5)c(-c5ccccc5)c5nc(c(-c6ccccc6)c6ccc3[nH]6)C=C5)C=C4)cc2)C(C)C)n1
REMARK SMILES IDX 14 1 13 2 12 3 11 4 10 5 8 6 9 7 7 8 6 9 1 10 2 11 3 12
REMARK SMILES IDX 70 13 4 14 5 15 67 16 68 17 69 18 15 19 16 20 17 21 18 22
REMARK SMILES IDX 19 23 20 24 66 25 21 26 65 27 22 28 23 29 24 30 59 31 25 32
REMARK SMILES IDX 64 33 58 34 60 35 26 36 63 37 57 38 56 39 27 41 49 42 34 43
REMARK SMILES IDX 48 44 35 45 38 46 47 47 61 48 36 49 37 50 46 52 62 53 39 54
REMARK SMILES IDX 28 55 29 56 33 57 30 58 32 59 31 60 50 61 51 62 55 63 52 64
REMARK SMILES IDX 54 65 53 66 40 67 41 68 45 69 42 70 44 71 43 72
REMARK H PARENT 60 40 38 51
REMARK Flexibility Score: inf
ROOT
ATOM      1  C   UNL A   1      32.958  29.732  26.131  1.00  0.00     0.202 C 
ENDROOT
BRANCH   1   2
ATOM      2  O   UNL A   1      32.081  29.958  25.035  1.00  0.00    -0.374 OA
BRANCH   2   3
ATOM      3  C   UNL A   1      31.921  28.925  24.067  1.00  0.00     0.202 C 
BRANCH   3   4
ATOM      4  C   UNL A   1      33.153  28.101  23.677  1.00  0.00     0.261 C 
BRANCH   4   5
ATOM      5  O   UNL A   1      33.167  27.681  22.295  1.00  0.00    -0.462 OA
BRANCH   5   6
ATOM      6  C   UNL A   1      33.106  26.336  22.101  1.00  0.00     0.331 C 
ATOM      7  O   UNL A   1      33.470  25.803  21.054  1.00  0.00    -0.250 OA
BRANCH   6   8
ATOM      8  C   UNL A   1      32.553  25.508  23.259  1.00  0.00     0.219 C 
BRANCH   8   9
ATOM      9  N   UNL A   1      33.474  24.478  23.790  1.00  0.00    -0.255 N 
ATOM     10  C   UNL A   1      36.631  22.948  23.164  1.00  0.00     0.069 C 
ATOM     11  C   UNL A   1      35.326  23.400  23.702  1.00  0.00     0.060 A 
ATOM     12  C   UNL A   1      34.871  23.285  25.022  1.00  0.00     0.048 A 
ATOM     13  N   UNL A   1      34.459  24.068  22.941  1.00  0.00    -0.177 NA
ATOM     14  C   UNL A   1      33.712  24.032  25.084  1.00  0.00     0.037 A 
ATOM     15  C   UNL A   1      32.974  24.374  26.326  1.00  0.00     0.066 C 
ENDBRANCH   8   9
BRANCH   8  16
ATOM     16  C   UNL A   1      31.079  25.028  23.079  1.00  0.00     0.019 C 
ATOM     17  C   UNL A   1      31.004  23.499  23.210  1.00  0.00     0.010 C 
ATOM     18  C   UNL A   1      30.061  25.639  24.050  1.00  0.00     0.010 C 
ENDBRANCH   8  16
ENDBRANCH   6   8
ENDBRANCH   5   6
ENDBRANCH   4   5
ENDBRANCH   3   4
ENDBRANCH   2   3
ENDBRANCH   1   2
BRANCH   1  19
ATOM     19  C   UNL A   1      33.044  30.797  27.218  1.00  0.00     0.261 C 
BRANCH  19  20
ATOM     20  O   UNL A   1      34.096  30.586  28.150  1.00  0.00    -0.460 OA
BRANCH  20  21
ATOM     21  C   UNL A   1      34.898  31.668  28.288  1.00  0.00     0.338 C 
ATOM     22  O   UNL A   1      34.560  32.837  28.251  1.00  0.00    -0.246 OA
BRANCH  21  23
ATOM     23  C   UNL A   1      36.294  31.227  28.206  1.00  0.00     0.060 A 
ATOM     24  C   UNL A   1      36.493  29.957  27.668  1.00  0.00     0.016 A 
ATOM     25  C   UNL A   1      37.321  31.917  28.874  1.00  0.00     0.016 A 
ATOM     26  C   UNL A   1      37.677  29.311  27.941  1.00  0.00     0.010 A 
ATOM     27  C   UNL A   1      38.508  31.267  29.147  1.00  0.00     0.010 A 
ATOM     28  C   UNL A   1      38.652  29.951  28.725  1.00  0.00    -0.014 A 
BRANCH  28  29
ATOM     29  C   UNL A   1      39.915  29.255  28.862  1.00  0.00     0.031 A 
ATOM     30  C   UNL A   1      40.216  28.973  30.282  1.00  0.00     0.074 A 
ATOM     31  C   UNL A   1      40.736  28.905  27.858  1.00  0.00     0.049 A 
ATOM     32  N   UNL A   1      41.043  29.624  31.027  1.00  0.00    -0.248 NA
ATOM     33  C   UNL A   1      39.352  28.029  31.006  1.00  0.00     0.031 C 
ATOM     34  C   UNL A   1      40.485  28.885  26.420  1.00  0.00     0.029 A 
ATOM     35  N   UNL A   1      42.001  28.411  27.958  1.00  0.00    -0.354 N 
ATOM     36  C   UNL A   1      40.951  29.043  32.282  1.00  0.00     0.074 A 
ATOM     37  C   UNL A   1      39.779  28.204  32.258  1.00  0.00     0.031 C 
ATOM     38  C   UNL A   1      41.475  28.188  25.808  1.00  0.00     0.029 A 
ATOM     39  C   UNL A   1      42.492  27.846  26.790  1.00  0.00     0.049 A 
ATOM     40  H   UNL A   1      42.524  28.451  28.790  1.00  0.00     0.167 HD
ATOM     41  C   UNL A   1      42.005  29.091  33.139  1.00  0.00     0.031 A 
ATOM     42  C   UNL A   1      43.628  27.110  26.676  1.00  0.00     0.031 A 
ATOM     43  C   UNL A   1      42.950  30.114  32.759  1.00  0.00     0.049 A 
ATOM     44  C   UNL A   1      44.491  27.426  27.839  1.00  0.00     0.074 A 
ATOM     45  C   UNL A   1      42.886  31.484  32.589  1.00  0.00     0.029 A 
ATOM     46  N   UNL A   1      44.077  29.702  32.089  1.00  0.00    -0.354 N 
ATOM     47  N   UNL A   1      45.088  28.573  27.994  1.00  0.00    -0.248 NA
ATOM     48  C   UNL A   1      44.326  26.639  29.051  1.00  0.00     0.031 C 
ATOM     49  C   UNL A   1      43.700  31.753  31.449  1.00  0.00     0.029 A 
ATOM     50  C   UNL A   1      44.278  30.552  31.035  1.00  0.00     0.049 A 
ATOM     51  H   UNL A   1      44.641  28.929  32.325  1.00  0.00     0.167 HD
ATOM     52  C   UNL A   1      44.948  28.858  29.343  1.00  0.00     0.074 A 
ATOM     53  C   UNL A   1      44.559  27.590  29.961  1.00  0.00     0.031 C 
ATOM     54  C   UNL A   1      44.881  30.149  29.785  1.00  0.00     0.031 A 
BRANCH  41  55
ATOM     55  C   UNL A   1      42.405  27.905  33.982  1.00  0.00    -0.014 A 
ATOM     56  C   UNL A   1      43.333  26.994  33.450  1.00  0.00     0.009 A 
ATOM     57  C   UNL A   1      41.686  27.485  35.118  1.00  0.00     0.009 A 
ATOM     58  C   UNL A   1      43.451  25.697  33.962  1.00  0.00     0.001 A 
ATOM     59  C   UNL A   1      41.830  26.207  35.657  1.00  0.00     0.001 A 
ATOM     60  C   UNL A   1      42.690  25.300  35.056  1.00  0.00     0.000 A 
ENDBRANCH  41  55
BRANCH  42  61
ATOM     61  C   UNL A   1      43.912  25.950  25.803  1.00  0.00    -0.014 A 
ATOM     62  C   UNL A   1      45.233  25.629  25.442  1.00  0.00     0.009 A 
ATOM     63  C   UNL A   1      42.920  24.980  25.572  1.00  0.00     0.009 A 
ATOM     64  C   UNL A   1      45.553  24.369  24.919  1.00  0.00     0.001 A 
ATOM     65  C   UNL A   1      43.240  23.724  25.046  1.00  0.00     0.001 A 
ATOM     66  C   UNL A   1      44.559  23.411  24.736  1.00  0.00     0.000 A 
ENDBRANCH  42  61
BRANCH  54  67
ATOM     67  C   UNL A   1      45.253  31.251  28.825  1.00  0.00    -0.014 A 
ATOM     68  C   UNL A   1      46.549  31.779  28.700  1.00  0.00     0.009 A 
ATOM     69  C   UNL A   1      44.269  31.687  27.923  1.00  0.00     0.009 A 
ATOM     70  C   UNL A   1      46.838  32.743  27.727  1.00  0.00     0.001 A 
ATOM     71  C   UNL A   1      44.563  32.629  26.937  1.00  0.00     0.001 A 
ATOM     72  C   UNL A   1      45.845  33.164  26.844  1.00  0.00     0.000 A 
ENDBRANCH  54  67
ENDBRANCH  28  29
ENDBRANCH  21  23
ENDBRANCH  20  21
ENDBRANCH  19  20
ENDBRANCH   1  19
TORSDOF 16
ENDMDL
MODEL 3
REMARK VINA RESULT:      -8.5      4.008      6.678
REMARK SMILES Cc1cc(C)n([C@@H](C(=O)OCCOCCOC(=O)c2ccc(-c3c4nc(c(-c5ccccc5)c5ccc([nH]5)c(-c5ccccc5)c5nc(c(-c6ccccc6)c6ccc3[nH]6)C=C5)C=C4)cc2)C(C)C)n1
REMARK SMILES IDX 14 1 13 2 12 3 11 4 10 5 8 6 9 7 7 8 6 9 1 10 2 11 3 12
REMARK SMILES IDX 70 13 4 14 5 15 67 16 68 17 69 18 15 19 16 20 17 21 18 22
REMARK SMILES IDX 19 23 20 24 66 25 21 26 65 27 22 28 23 29 24 30 59 31 25 32
REMARK SMILES IDX 64 33 58 34 60 35 26 36 63 37 57 38 56 39 27 41 49 42 34 43
REMARK SMILES IDX 48 44 35 45 38 46 47 47 61 48 36 49 37 50 46 52 62 53 39 54
REMARK SMILES IDX 28 55 29 56 33 57 30 58 32 59 31 60 50 61 51 62 55 63 52 64
REMARK SMILES IDX 54 65 53 66 40 67 41 68 45 69 42 70 44 71 43 72
REMARK H PARENT 60 40 38 51
REMARK Flexibility Score: inf
ROOT
ATOM      1  C   UNL A   1      32.998  30.521  27.250  1.00  0.00     0.202 C 
ENDROOT
BRANCH   1   2
ATOM      2  O   UNL A   1      33.727  29.720  26.329  1.00  0.00    -0.374 OA
BRANCH   2   3
ATOM      3  C   UNL A   1      34.071  28.390  26.706  1.00  0.00     0.202 C 
BRANCH   3   4
ATOM      4  C   UNL A   1      33.539  27.234  25.852  1.00  0.00     0.261 C 
BRANCH   4   5
ATOM      5  O   UNL A   1      32.286  27.517  25.192  1.00  0.00    -0.462 OA
BRANCH   5   6
ATOM      6  C   UNL A   1      31.195  26.928  25.751  1.00  0.00     0.331 C 
ATOM      7  O   UNL A   1      30.890  27.087  26.932  1.00  0.00    -0.250 OA
BRANCH   6   8
ATOM      8  C   UNL A   1      30.354  26.044  24.831  1.00  0.00     0.219 C 
BRANCH   8   9
ATOM      9  N   UNL A   1      30.997  24.776  24.419  1.00  0.00    -0.255 N 
ATOM     10  C   UNL A   1      33.273  23.436  22.027  1.00  0.00     0.069 C 
ATOM     11  C   UNL A   1      32.339  23.686  23.150  1.00  0.00     0.060 A 
ATOM     12  C   UNL A   1      32.186  22.915  24.310  1.00  0.00     0.048 A 
ATOM     13  N   UNL A   1      31.578  24.781  23.186  1.00  0.00    -0.177 NA
ATOM     14  C   UNL A   1      31.371  23.653  25.145  1.00  0.00     0.037 A 
ATOM     15  C   UNL A   1      31.085  23.338  26.567  1.00  0.00     0.066 C 
ENDBRANCH   8   9
BRANCH   8  16
ATOM     16  C   UNL A   1      29.619  26.803  23.682  1.00  0.00     0.019 C 
ATOM     17  C   UNL A   1      28.097  26.702  23.875  1.00  0.00     0.010 C 
ATOM     18  C   UNL A   1      29.982  28.285  23.529  1.00  0.00     0.010 C 
ENDBRANCH   8  16
ENDBRANCH   6   8
ENDBRANCH   5   6
ENDBRANCH   4   5
ENDBRANCH   3   4
ENDBRANCH   2   3
ENDBRANCH   1   2
BRANCH   1  19
ATOM     19  C   UNL A   1      33.544  31.900  27.597  1.00  0.00     0.261 C 
BRANCH  19  20
ATOM     20  O   UNL A   1      34.963  31.961  27.657  1.00  0.00    -0.460 OA
BRANCH  20  21
ATOM     21  C   UNL A   1      35.421  32.282  28.889  1.00  0.00     0.338 C 
ATOM     22  O   UNL A   1      35.196  33.306  29.507  1.00  0.00    -0.246 OA
BRANCH  21  23
ATOM     23  C   UNL A   1      36.469  31.326  29.261  1.00  0.00     0.060 A 
ATOM     24  C   UNL A   1      37.716  31.881  29.544  1.00  0.00     0.016 A 
ATOM     25  C   UNL A   1      36.300  29.943  29.076  1.00  0.00     0.016 A 
ATOM     26  C   UNL A   1      38.822  31.066  29.482  1.00  0.00     0.010 A 
ATOM     27  C   UNL A   1      37.411  29.127  29.012  1.00  0.00     0.010 A 
ATOM     28  C   UNL A   1      38.665  29.707  29.161  1.00  0.00    -0.014 A 
BRANCH  28  29
ATOM     29  C   UNL A   1      39.861  28.894  29.236  1.00  0.00     0.031 A 
ATOM     30  C   UNL A   1      40.236  28.627  30.642  1.00  0.00     0.074 A 
ATOM     31  C   UNL A   1      40.571  28.435  28.192  1.00  0.00     0.049 A 
ATOM     32  N   UNL A   1      41.174  29.215  31.303  1.00  0.00    -0.248 NA
ATOM     33  C   UNL A   1      39.341  27.795  31.459  1.00  0.00     0.031 C 
ATOM     34  C   UNL A   1      40.215  28.396  26.776  1.00  0.00     0.029 A 
ATOM     35  N   UNL A   1      41.786  27.822  28.222  1.00  0.00    -0.354 N 
ATOM     36  C   UNL A   1      41.118  28.685  32.582  1.00  0.00     0.074 A 
ATOM     37  C   UNL A   1      39.872  27.964  32.671  1.00  0.00     0.031 C 
ATOM     38  C   UNL A   1      41.086  27.587  26.124  1.00  0.00     0.029 A 
ATOM     39  C   UNL A   1      42.135  27.176  27.045  1.00  0.00     0.049 A 
ATOM     40  H   UNL A   1      42.369  27.836  29.014  1.00  0.00     0.167 HD
ATOM     41  C   UNL A   1      42.231  28.654  33.362  1.00  0.00     0.031 A 
ATOM     42  C   UNL A   1      43.183  26.329  26.880  1.00  0.00     0.031 A 
ATOM     43  C   UNL A   1      43.240  29.568  32.880  1.00  0.00     0.049 A 
ATOM     44  C   UNL A   1      44.155  26.593  27.968  1.00  0.00     0.074 A 
ATOM     45  C   UNL A   1      43.296  30.931  32.664  1.00  0.00     0.029 A 
ATOM     46  N   UNL A   1      44.270  29.026  32.149  1.00  0.00    -0.354 N 
ATOM     47  N   UNL A   1      44.868  27.680  28.038  1.00  0.00    -0.248 NA
ATOM     48  C   UNL A   1      44.004  25.863  29.217  1.00  0.00     0.031 C 
ATOM     49  C   UNL A   1      44.047  31.084  31.462  1.00  0.00     0.029 A 
ATOM     50  C   UNL A   1      44.475  29.820  31.053  1.00  0.00     0.049 A 
ATOM     51  H   UNL A   1      44.773  28.209  32.374  1.00  0.00     0.167 HD
ATOM     52  C   UNL A   1      44.855  28.018  29.383  1.00  0.00     0.074 A 
ATOM     53  C   UNL A   1      44.392  26.813  30.072  1.00  0.00     0.031 C 
ATOM     54  C   UNL A   1      44.944  29.322  29.780  1.00  0.00     0.031 A 
BRANCH  41  55
ATOM     55  C   UNL A   1      42.575  27.461  34.218  1.00  0.00    -0.014 A 
ATOM     56  C   UNL A   1      43.392  26.459  33.666  1.00  0.00     0.009 A 
ATOM     57  C   UNL A   1      41.887  27.133  35.403  1.00  0.00     0.009 A 
ATOM     58  C   UNL A   1      43.428  25.171  34.211  1.00  0.00     0.001 A 
ATOM     59  C   UNL A   1      41.952  25.862  35.973  1.00  0.00     0.001 A 
ATOM     60  C   UNL A   1      42.698  24.869  35.356  1.00  0.00     0.000 A 
ENDBRANCH  41  55
BRANCH  42  61
ATOM     61  C   UNL A   1      43.290  25.120  26.033  1.00  0.00    -0.014 A 
ATOM     62  C   UNL A   1      44.429  24.900  25.238  1.00  0.00     0.009 A 
ATOM     63  C   UNL A   1      42.416  24.037  26.234  1.00  0.00     0.009 A 
ATOM     64  C   UNL A   1      44.707  23.632  24.709  1.00  0.00     0.001 A 
ATOM     65  C   UNL A   1      42.692  22.773  25.703  1.00  0.00     0.001 A 
ATOM     66  C   UNL A   1      43.845  22.565  24.955  1.00  0.00     0.000 A 
ENDBRANCH  42  61
BRANCH  54  67
ATOM     67  C   UNL A   1      45.350  30.353  28.757  1.00  0.00    -0.014 A 
ATOM     68  C   UNL A   1      46.680  30.738  28.514  1.00  0.00     0.009 A 
ATOM     69  C   UNL A   1      44.348  30.866  27.917  1.00  0.00     0.009 A 
ATOM     70  C   UNL A   1      46.988  31.639  27.488  1.00  0.00     0.001 A 
ATOM     71  C   UNL A   1      44.657  31.745  26.880  1.00  0.00     0.001 A 
ATOM     72  C   UNL A   1      45.976  32.139  26.671  1.00  0.00     0.000 A 
ENDBRANCH  54  67
ENDBRANCH  28  29
ENDBRANCH  21  23
ENDBRANCH  20  21
ENDBRANCH  19  20
ENDBRANCH   1  19
TORSDOF 16
ENDMDL
