MODEL 1
REMARK VINA RESULT:     -10.1      0.000      0.000
REMARK SMILES O=C(OCCOCCOC(=O)c1ccc(-c2c(F)cccc2F)cn1)c1ccc(-c2c3nc(c(-c4ccccc4)c4ccc([nH]4)c(-c4ccccc4)c4nc(c(-c5ccccc5)c5ccc2[nH]5)C=C4)C=C3)cc1
REMARK SMILES IDX 5 1 4 2 3 3 2 4 1 5 26 6 27 7 73 8 28 9 72 10 29 11 30 12
REMARK SMILES IDX 31 13 66 14 32 15 71 16 65 17 67 18 33 19 70 20 64 21 63 22
REMARK SMILES IDX 34 24 56 25 41 26 55 27 42 28 45 29 54 30 68 31 43 32 44 33
REMARK SMILES IDX 53 35 69 36 46 37 35 38 36 39 40 40 37 41 39 42 38 43 57 44
REMARK SMILES IDX 58 45 62 46 59 47 61 48 60 49 47 50 48 51 52 52 49 53 51 54
REMARK SMILES IDX 50 55 6 56 7 57 8 58 9 59 10 60 11 61 12 62 13 63 25 64
REMARK SMILES IDX 14 65 24 66 15 67 16 68 17 69 22 70 18 71 19 72 21 73 23 74
REMARK SMILES IDX 20 75
REMARK H PARENT 67 23 45 34
REMARK Flexibility Score: inf
ROOT
ATOM      1  C   UNL A   1      32.707  33.776  27.857  1.00  0.00     0.202 C 
ENDROOT
BRANCH   1   2
ATOM      2  C   UNL A   1      34.093  33.228  28.216  1.00  0.00     0.261 C 
BRANCH   2   3
ATOM      3  O   UNL A   1      34.016  31.828  28.537  1.00  0.00    -0.460 OA
BRANCH   3   4
ATOM      4  C   UNL A   1      34.597  30.777  27.913  1.00  0.00     0.338 C 
ATOM      5  O   UNL A   1      34.011  30.280  26.951  1.00  0.00    -0.246 OA
BRANCH   4   6
ATOM      6  C   UNL A   1      35.924  30.192  28.288  1.00  0.00     0.060 A 
ATOM      7  C   UNL A   1      36.215  29.523  29.478  1.00  0.00     0.016 A 
ATOM      8  C   UNL A   1      36.943  30.266  27.317  1.00  0.00     0.016 A 
ATOM      9  C   UNL A   1      37.477  29.005  29.732  1.00  0.00     0.010 A 
ATOM     10  C   UNL A   1      38.208  29.715  27.549  1.00  0.00     0.010 A 
ATOM     11  C   UNL A   1      38.483  29.106  28.775  1.00  0.00    -0.014 A 
BRANCH  11  12
ATOM     12  C   UNL A   1      39.833  28.660  29.156  1.00  0.00     0.031 A 
ATOM     13  C   UNL A   1      40.584  29.456  30.180  1.00  0.00     0.074 A 
ATOM     14  C   UNL A   1      40.290  27.475  28.713  1.00  0.00     0.049 A 
ATOM     15  N   UNL A   1      41.736  29.204  30.740  1.00  0.00    -0.248 NA
ATOM     16  C   UNL A   1      39.936  30.691  30.654  1.00  0.00     0.031 C 
ATOM     17  C   UNL A   1      39.569  26.581  27.803  1.00  0.00     0.029 A 
ATOM     18  N   UNL A   1      41.439  26.795  29.010  1.00  0.00    -0.354 N 
ATOM     19  C   UNL A   1      41.960  30.256  31.618  1.00  0.00     0.074 A 
ATOM     20  C   UNL A   1      40.831  31.153  31.513  1.00  0.00     0.031 C 
ATOM     21  C   UNL A   1      40.273  25.448  27.655  1.00  0.00     0.029 A 
ATOM     22  C   UNL A   1      41.513  25.558  28.416  1.00  0.00     0.049 A 
ATOM     23  H   UNL A   1      42.146  27.156  29.593  1.00  0.00     0.167 HD
ATOM     24  C   UNL A   1      43.019  30.456  32.435  1.00  0.00     0.031 A 
ATOM     25  C   UNL A   1      42.483  24.628  28.481  1.00  0.00     0.031 A 
ATOM     26  C   UNL A   1      44.141  29.563  32.510  1.00  0.00     0.049 A 
ATOM     27  C   UNL A   1      43.691  24.919  29.327  1.00  0.00     0.074 A 
ATOM     28  C   UNL A   1      45.304  29.691  33.248  1.00  0.00     0.029 A 
ATOM     29  N   UNL A   1      44.233  28.366  31.813  1.00  0.00    -0.354 N 
ATOM     30  N   UNL A   1      43.919  25.943  30.117  1.00  0.00    -0.248 NA
ATOM     31  C   UNL A   1      44.779  23.934  29.284  1.00  0.00     0.031 C 
ATOM     32  C   UNL A   1      46.119  28.590  32.961  1.00  0.00     0.029 A 
ATOM     33  C   UNL A   1      45.443  27.754  32.085  1.00  0.00     0.049 A 
ATOM     34  H   UNL A   1      43.539  28.007  31.214  1.00  0.00     0.167 HD
ATOM     35  C   UNL A   1      45.169  25.720  30.676  1.00  0.00     0.074 A 
ATOM     36  C   UNL A   1      45.639  24.452  30.150  1.00  0.00     0.031 C 
ATOM     37  C   UNL A   1      45.873  26.492  31.541  1.00  0.00     0.031 A 
BRANCH  24  38
ATOM     38  C   UNL A   1      43.028  31.730  33.228  1.00  0.00    -0.014 A 
ATOM     39  C   UNL A   1      42.485  31.795  34.522  1.00  0.00     0.009 A 
ATOM     40  C   UNL A   1      43.542  32.898  32.646  1.00  0.00     0.009 A 
ATOM     41  C   UNL A   1      42.420  33.016  35.199  1.00  0.00     0.001 A 
ATOM     42  C   UNL A   1      43.497  34.112  33.335  1.00  0.00     0.001 A 
ATOM     43  C   UNL A   1      42.926  34.172  34.605  1.00  0.00     0.000 A 
ENDBRANCH  24  38
BRANCH  25  44
ATOM     44  C   UNL A   1      42.366  23.361  27.710  1.00  0.00    -0.014 A 
ATOM     45  C   UNL A   1      41.762  22.226  28.274  1.00  0.00     0.009 A 
ATOM     46  C   UNL A   1      42.872  23.276  26.403  1.00  0.00     0.009 A 
ATOM     47  C   UNL A   1      41.686  21.032  27.552  1.00  0.00     0.001 A 
ATOM     48  C   UNL A   1      42.768  22.091  25.673  1.00  0.00     0.001 A 
ATOM     49  C   UNL A   1      42.184  20.966  26.252  1.00  0.00     0.000 A 
ENDBRANCH  25  44
BRANCH  37  50
ATOM     50  C   UNL A   1      47.205  25.965  31.982  1.00  0.00    -0.014 A 
ATOM     51  C   UNL A   1      48.362  26.188  31.220  1.00  0.00     0.009 A 
ATOM     52  C   UNL A   1      47.307  25.270  33.198  1.00  0.00     0.009 A 
ATOM     53  C   UNL A   1      49.593  25.696  31.653  1.00  0.00     0.001 A 
ATOM     54  C   UNL A   1      48.545  24.803  33.639  1.00  0.00     0.001 A 
ATOM     55  C   UNL A   1      49.683  25.008  32.862  1.00  0.00     0.000 A 
ENDBRANCH  37  50
ENDBRANCH  11  12
ENDBRANCH   4   6
ENDBRANCH   3   4
ENDBRANCH   2   3
ENDBRANCH   1   2
BRANCH   1  56
ATOM     56  O   UNL A   1      32.526  35.141  28.241  1.00  0.00    -0.374 OA
BRANCH  56  57
ATOM     57  C   UNL A   1      33.675  35.783  28.802  1.00  0.00     0.202 C 
BRANCH  57  58
ATOM     58  C   UNL A   1      33.258  36.644  29.996  1.00  0.00     0.261 C 
BRANCH  58  59
ATOM     59  O   UNL A   1      32.442  35.850  30.870  1.00  0.00    -0.459 OA
BRANCH  59  60
ATOM     60  C   UNL A   1      32.561  36.153  32.194  1.00  0.00     0.356 C 
ATOM     61  O   UNL A   1      31.833  36.881  32.846  1.00  0.00    -0.244 OA
BRANCH  60  62
ATOM     62  C   UNL A   1      33.641  35.286  32.745  1.00  0.00     0.148 A 
ATOM     63  C   UNL A   1      34.911  35.800  32.970  1.00  0.00     0.037 A 
ATOM     64  N   UNL A   1      33.325  33.973  32.907  1.00  0.00    -0.249 NA
ATOM     65  C   UNL A   1      35.908  34.924  33.387  1.00  0.00     0.013 A 
ATOM     66  C   UNL A   1      34.319  33.150  33.303  1.00  0.00     0.121 A 
ATOM     67  C   UNL A   1      35.623  33.564  33.563  1.00  0.00     0.006 A 
BRANCH  67  68
ATOM     68  C   UNL A   1      36.645  32.641  34.044  1.00  0.00     0.055 A 
ATOM     69  C   UNL A   1      37.054  31.563  33.250  1.00  0.00     0.134 A 
ATOM     70  C   UNL A   1      37.231  32.770  35.307  1.00  0.00     0.134 A 
ATOM     71  F   UNL A   1      36.530  31.398  32.026  1.00  0.00    -0.206 F 
ATOM     72  C   UNL A   1      37.994  30.638  33.697  1.00  0.00     0.040 A 
ATOM     73  C   UNL A   1      38.171  31.849  35.772  1.00  0.00     0.040 A 
ATOM     74  F   UNL A   1      36.882  33.788  36.108  1.00  0.00    -0.206 F 
ATOM     75  C   UNL A   1      38.551  30.777  34.967  1.00  0.00     0.006 A 
ENDBRANCH  67  68
ENDBRANCH  60  62
ENDBRANCH  59  60
ENDBRANCH  58  59
ENDBRANCH  57  58
ENDBRANCH  56  57
ENDBRANCH   1  56
TORSDOF 15
ENDMDL
MODEL 2
REMARK VINA RESULT:     -10.0      4.835     11.328
REMARK SMILES O=C(OCCOCCOC(=O)c1ccc(-c2c(F)cccc2F)cn1)c1ccc(-c2c3nc(c(-c4ccccc4)c4ccc([nH]4)c(-c4ccccc4)c4nc(c(-c5ccccc5)c5ccc2[nH]5)C=C4)C=C3)cc1
REMARK SMILES IDX 5 1 4 2 3 3 2 4 1 5 26 6 27 7 73 8 28 9 72 10 29 11 30 12
REMARK SMILES IDX 31 13 66 14 32 15 71 16 65 17 67 18 33 19 70 20 64 21 63 22
REMARK SMILES IDX 34 24 56 25 41 26 55 27 42 28 45 29 54 30 68 31 43 32 44 33
REMARK SMILES IDX 53 35 69 36 46 37 35 38 36 39 40 40 37 41 39 42 38 43 57 44
REMARK SMILES IDX 58 45 62 46 59 47 61 48 60 49 47 50 48 51 52 52 49 53 51 54
REMARK SMILES IDX 50 55 6 56 7 57 8 58 9 59 10 60 11 61 12 62 13 63 25 64
REMARK SMILES IDX 14 65 24 66 15 67 16 68 17 69 22 70 18 71 19 72 21 73 23 74
REMARK SMILES IDX 20 75
REMARK H PARENT 67 23 45 34
REMARK Flexibility Score: inf
ROOT
ATOM      1  C   UNL A   1      41.614  19.972  26.573  1.00  0.00     0.202 C 
ENDROOT
BRANCH   1   2
ATOM      2  C   UNL A   1      40.197  20.516  26.361  1.00  0.00     0.261 C 
BRANCH   2   3
ATOM      3  O   UNL A   1      40.237  21.908  26.005  1.00  0.00    -0.460 OA
BRANCH   3   4
ATOM      4  C   UNL A   1      39.333  22.881  26.263  1.00  0.00     0.338 C 
ATOM      5  O   UNL A   1      38.148  22.647  26.026  1.00  0.00    -0.246 OA
BRANCH   4   6
ATOM      6  C   UNL A   1      39.665  24.218  26.852  1.00  0.00     0.060 A 
ATOM      7  C   UNL A   1      40.300  25.268  26.187  1.00  0.00     0.016 A 
ATOM      8  C   UNL A   1      39.230  24.452  28.171  1.00  0.00     0.016 A 
ATOM      9  C   UNL A   1      40.557  26.478  26.816  1.00  0.00     0.010 A 
ATOM     10  C   UNL A   1      39.453  25.680  28.802  1.00  0.00     0.010 A 
ATOM     11  C   UNL A   1      40.145  26.688  28.128  1.00  0.00    -0.014 A 
BRANCH  11  12
ATOM     12  C   UNL A   1      40.567  27.938  28.783  1.00  0.00     0.031 A 
ATOM     13  C   UNL A   1      39.563  29.041  28.928  1.00  0.00     0.074 A 
ATOM     14  C   UNL A   1      41.770  28.000  29.380  1.00  0.00     0.049 A 
ATOM     15  N   UNL A   1      39.674  30.183  29.550  1.00  0.00    -0.248 NA
ATOM     16  C   UNL A   1      38.247  28.815  28.306  1.00  0.00     0.031 C 
ATOM     17  C   UNL A   1      42.764  26.923  29.387  1.00  0.00     0.029 A 
ATOM     18  N   UNL A   1      42.339  28.985  30.141  1.00  0.00    -0.354 N 
ATOM     19  C   UNL A   1      38.452  30.819  29.381  1.00  0.00     0.074 A 
ATOM     20  C   UNL A   1      37.616  29.943  28.592  1.00  0.00     0.031 C 
ATOM     21  C   UNL A   1      43.800  27.290  30.158  1.00  0.00     0.029 A 
ATOM     22  C   UNL A   1      43.567  28.641  30.654  1.00  0.00     0.049 A 
ATOM     23  H   UNL A   1      41.910  29.856  30.305  1.00  0.00     0.167 HD
ATOM     24  C   UNL A   1      38.066  32.032  29.840  1.00  0.00     0.031 A 
ATOM     25  C   UNL A   1      44.404  29.351  31.433  1.00  0.00     0.031 A 
ATOM     26  C   UNL A   1      38.918  32.897  30.606  1.00  0.00     0.049 A 
ATOM     27  C   UNL A   1      43.985  30.733  31.852  1.00  0.00     0.074 A 
ATOM     28  C   UNL A   1      38.667  34.175  31.070  1.00  0.00     0.029 A 
ATOM     29  N   UNL A   1      40.200  32.560  31.021  1.00  0.00    -0.354 N 
ATOM     30  N   UNL A   1      42.845  31.349  31.643  1.00  0.00    -0.248 NA
ATOM     31  C   UNL A   1      44.970  31.520  32.604  1.00  0.00     0.031 C 
ATOM     32  C   UNL A   1      39.816  34.628  31.728  1.00  0.00     0.029 A 
ATOM     33  C   UNL A   1      40.762  33.614  31.717  1.00  0.00     0.049 A 
ATOM     34  H   UNL A   1      40.642  31.699  30.845  1.00  0.00     0.167 HD
ATOM     35  C   UNL A   1      42.968  32.591  32.250  1.00  0.00     0.074 A 
ATOM     36  C   UNL A   1      44.288  32.629  32.852  1.00  0.00     0.031 C 
ATOM     37  C   UNL A   1      42.079  33.613  32.301  1.00  0.00     0.031 A 
BRANCH  24  38
ATOM     38  C   UNL A   1      36.698  32.501  29.438  1.00  0.00    -0.014 A 
ATOM     39  C   UNL A   1      36.470  33.138  28.208  1.00  0.00     0.009 A 
ATOM     40  C   UNL A   1      35.630  32.348  30.334  1.00  0.00     0.009 A 
ATOM     41  C   UNL A   1      35.206  33.650  27.902  1.00  0.00     0.001 A 
ATOM     42  C   UNL A   1      34.362  32.839  30.016  1.00  0.00     0.001 A 
ATOM     43  C   UNL A   1      34.154  33.500  28.806  1.00  0.00     0.000 A 
ENDBRANCH  24  38
BRANCH  25  44
ATOM     44  C   UNL A   1      45.718  28.785  31.838  1.00  0.00    -0.014 A 
ATOM     45  C   UNL A   1      45.864  28.102  33.056  1.00  0.00     0.009 A 
ATOM     46  C   UNL A   1      46.842  28.935  31.010  1.00  0.00     0.009 A 
ATOM     47  C   UNL A   1      47.112  27.602  33.442  1.00  0.00     0.001 A 
ATOM     48  C   UNL A   1      48.080  28.409  31.385  1.00  0.00     0.001 A 
ATOM     49  C   UNL A   1      48.216  27.751  32.605  1.00  0.00     0.000 A 
ENDBRANCH  25  44
BRANCH  37  50
ATOM     50  C   UNL A   1      42.503  34.837  33.055  1.00  0.00    -0.014 A 
ATOM     51  C   UNL A   1      42.244  34.970  34.428  1.00  0.00     0.009 A 
ATOM     52  C   UNL A   1      43.204  35.853  32.387  1.00  0.00     0.009 A 
ATOM     53  C   UNL A   1      42.654  36.114  35.112  1.00  0.00     0.001 A 
ATOM     54  C   UNL A   1      43.635  36.984  33.081  1.00  0.00     0.001 A 
ATOM     55  C   UNL A   1      43.351  37.117  34.439  1.00  0.00     0.000 A 
ENDBRANCH  37  50
ENDBRANCH  11  12
ENDBRANCH   4   6
ENDBRANCH   3   4
ENDBRANCH   2   3
ENDBRANCH   1   2
BRANCH   1  56
ATOM     56  O   UNL A   1      42.168  19.375  25.397  1.00  0.00    -0.374 OA
BRANCH  56  57
ATOM     57  C   UNL A   1      43.433  18.730  25.570  1.00  0.00     0.202 C 
BRANCH  57  58
ATOM     58  C   UNL A   1      44.305  18.957  24.333  1.00  0.00     0.261 C 
BRANCH  58  59
ATOM     59  O   UNL A   1      44.616  20.356  24.242  1.00  0.00    -0.459 OA
BRANCH  59  60
ATOM     60  C   UNL A   1      45.778  20.722  24.852  1.00  0.00     0.356 C 
ATOM     61  O   UNL A   1      46.819  20.087  24.888  1.00  0.00    -0.244 OA
BRANCH  60  62
ATOM     62  C   UNL A   1      45.603  22.128  25.315  1.00  0.00     0.148 A 
ATOM     63  C   UNL A   1      44.657  22.439  26.282  1.00  0.00     0.037 A 
ATOM     64  N   UNL A   1      46.346  23.064  24.666  1.00  0.00    -0.249 NA
ATOM     65  C   UNL A   1      44.463  23.779  26.603  1.00  0.00     0.013 A 
ATOM     66  C   UNL A   1      46.124  24.355  24.995  1.00  0.00     0.121 A 
ATOM     67  C   UNL A   1      45.206  24.773  25.954  1.00  0.00     0.006 A 
BRANCH  67  68
ATOM     68  C   UNL A   1      45.047  26.179  26.311  1.00  0.00     0.055 A 
ATOM     69  C   UNL A   1      44.015  26.939  25.751  1.00  0.00     0.134 A 
ATOM     70  C   UNL A   1      45.921  26.827  27.190  1.00  0.00     0.134 A 
ATOM     71  F   UNL A   1      43.142  26.363  24.909  1.00  0.00    -0.206 F 
ATOM     72  C   UNL A   1      43.863  28.294  26.035  1.00  0.00     0.040 A 
ATOM     73  C   UNL A   1      45.786  28.185  27.482  1.00  0.00     0.040 A 
ATOM     74  F   UNL A   1      46.926  26.146  27.762  1.00  0.00    -0.206 F 
ATOM     75  C   UNL A   1      44.756  28.922  26.900  1.00  0.00     0.006 A 
ENDBRANCH  67  68
ENDBRANCH  60  62
ENDBRANCH  59  60
ENDBRANCH  58  59
ENDBRANCH  57  58
ENDBRANCH  56  57
ENDBRANCH   1  56
TORSDOF 15
ENDMDL
MODEL 3
REMARK VINA RESULT:     -10.0      4.668      9.927
REMARK SMILES O=C(OCCOCCOC(=O)c1ccc(-c2c(F)cccc2F)cn1)c1ccc(-c2c3nc(c(-c4ccccc4)c4ccc([nH]4)c(-c4ccccc4)c4nc(c(-c5ccccc5)c5ccc2[nH]5)C=C4)C=C3)cc1
REMARK SMILES IDX 5 1 4 2 3 3 2 4 1 5 26 6 27 7 73 8 28 9 72 10 29 11 30 12
REMARK SMILES IDX 31 13 66 14 32 15 71 16 65 17 67 18 33 19 70 20 64 21 63 22
REMARK SMILES IDX 34 24 56 25 41 26 55 27 42 28 45 29 54 30 68 31 43 32 44 33
REMARK SMILES IDX 53 35 69 36 46 37 35 38 36 39 40 40 37 41 39 42 38 43 57 44
REMARK SMILES IDX 58 45 62 46 59 47 61 48 60 49 47 50 48 51 52 52 49 53 51 54
REMARK SMILES IDX 50 55 6 56 7 57 8 58 9 59 10 60 11 61 12 62 13 63 25 64
REMARK SMILES IDX 14 65 24 66 15 67 16 68 17 69 22 70 18 71 19 72 21 73 23 74
REMARK SMILES IDX 20 75
REMARK H PARENT 67 23 45 34
REMARK Flexibility Score: inf
ROOT
ATOM      1  C   UNL A   1      36.087  21.754  25.524  1.00  0.00     0.202 C 
ENDROOT
BRANCH   1   2
ATOM      2  C   UNL A   1      37.524  21.347  25.180  1.00  0.00     0.261 C 
BRANCH   2   3
ATOM      3  O   UNL A   1      38.417  22.464  25.336  1.00  0.00    -0.460 OA
BRANCH   3   4
ATOM      4  C   UNL A   1      39.315  22.706  26.318  1.00  0.00     0.338 C 
ATOM      5  O   UNL A   1      39.948  21.752  26.772  1.00  0.00    -0.246 OA
BRANCH   4   6
ATOM      6  C   UNL A   1      39.623  24.062  26.876  1.00  0.00     0.060 A 
ATOM      7  C   UNL A   1      40.227  25.112  26.182  1.00  0.00     0.016 A 
ATOM      8  C   UNL A   1      39.196  24.314  28.194  1.00  0.00     0.016 A 
ATOM      9  C   UNL A   1      40.462  26.341  26.782  1.00  0.00     0.010 A 
ATOM     10  C   UNL A   1      39.396  25.560  28.797  1.00  0.00     0.010 A 
ATOM     11  C   UNL A   1      40.058  26.570  28.095  1.00  0.00    -0.014 A 
BRANCH  11  12
ATOM     12  C   UNL A   1      40.457  27.842  28.719  1.00  0.00     0.031 A 
ATOM     13  C   UNL A   1      41.913  28.081  28.981  1.00  0.00     0.074 A 
ATOM     14  C   UNL A   1      39.544  28.816  28.881  1.00  0.00     0.049 A 
ATOM     15  N   UNL A   1      42.506  29.155  29.427  1.00  0.00    -0.248 NA
ATOM     16  C   UNL A   1      42.825  26.966  28.678  1.00  0.00     0.031 C 
ATOM     17  C   UNL A   1      38.123  28.704  28.540  1.00  0.00     0.029 A 
ATOM     18  N   UNL A   1      39.683  30.105  29.319  1.00  0.00    -0.354 N 
ATOM     19  C   UNL A   1      43.857  28.840  29.475  1.00  0.00     0.074 A 
ATOM     20  C   UNL A   1      43.998  27.475  29.021  1.00  0.00     0.031 C 
ATOM     21  C   UNL A   1      37.532  29.894  28.737  1.00  0.00     0.029 A 
ATOM     22  C   UNL A   1      38.518  30.831  29.264  1.00  0.00     0.049 A 
ATOM     23  H   UNL A   1      40.536  30.477  29.642  1.00  0.00     0.167 HD
ATOM     24  C   UNL A   1      44.888  29.622  29.869  1.00  0.00     0.031 A 
ATOM     25  C   UNL A   1      38.282  32.110  29.610  1.00  0.00     0.031 A 
ATOM     26  C   UNL A   1      44.726  30.971  30.336  1.00  0.00     0.049 A 
ATOM     27  C   UNL A   1      39.432  32.928  30.131  1.00  0.00     0.074 A 
ATOM     28  C   UNL A   1      45.683  31.841  30.825  1.00  0.00     0.029 A 
ATOM     29  N   UNL A   1      43.512  31.644  30.367  1.00  0.00    -0.354 N 
ATOM     30  N   UNL A   1      40.700  32.605  30.222  1.00  0.00    -0.248 NA
ATOM     31  C   UNL A   1      39.115  34.281  30.607  1.00  0.00     0.031 C 
ATOM     32  C   UNL A   1      45.038  33.027  31.195  1.00  0.00     0.029 A 
ATOM     33  C   UNL A   1      43.690  32.912  30.889  1.00  0.00     0.049 A 
ATOM     34  H   UNL A   1      42.653  31.273  30.063  1.00  0.00     0.167 HD
ATOM     35  C   UNL A   1      41.339  33.718  30.751  1.00  0.00     0.074 A 
ATOM     36  C   UNL A   1      40.317  34.731  30.940  1.00  0.00     0.031 C 
ATOM     37  C   UNL A   1      42.647  33.890  31.061  1.00  0.00     0.031 A 
BRANCH  24  38
ATOM     38  C   UNL A   1      46.248  28.989  29.885  1.00  0.00    -0.014 A 
ATOM     39  C   UNL A   1      47.093  29.030  28.764  1.00  0.00     0.009 A 
ATOM     40  C   UNL A   1      46.668  28.291  31.028  1.00  0.00     0.009 A 
ATOM     41  C   UNL A   1      48.314  28.349  28.775  1.00  0.00     0.001 A 
ATOM     42  C   UNL A   1      47.898  27.631  31.044  1.00  0.00     0.001 A 
ATOM     43  C   UNL A   1      48.714  27.651  29.914  1.00  0.00     0.000 A 
ENDBRANCH  24  38
BRANCH  25  44
ATOM     44  C   UNL A   1      36.913  32.680  29.504  1.00  0.00    -0.014 A 
ATOM     45  C   UNL A   1      36.016  32.608  30.581  1.00  0.00     0.009 A 
ATOM     46  C   UNL A   1      36.490  33.293  28.313  1.00  0.00     0.009 A 
ATOM     47  C   UNL A   1      34.720  33.120  30.459  1.00  0.00     0.001 A 
ATOM     48  C   UNL A   1      35.205  33.829  28.204  1.00  0.00     0.001 A 
ATOM     49  C   UNL A   1      34.318  33.733  29.274  1.00  0.00     0.000 A 
ENDBRANCH  25  44
BRANCH  37  50
ATOM     50  C   UNL A   1      43.038  35.231  31.608  1.00  0.00    -0.014 A 
ATOM     51  C   UNL A   1      42.957  35.505  32.981  1.00  0.00     0.009 A 
ATOM     52  C   UNL A   1      43.531  36.217  30.738  1.00  0.00     0.009 A 
ATOM     53  C   UNL A   1      43.333  36.755  33.471  1.00  0.00     0.001 A 
ATOM     54  C   UNL A   1      43.930  37.457  31.236  1.00  0.00     0.001 A 
ATOM     55  C   UNL A   1      43.822  37.728  32.599  1.00  0.00     0.000 A 
ENDBRANCH  37  50
ENDBRANCH  11  12
ENDBRANCH   4   6
ENDBRANCH   3   4
ENDBRANCH   2   3
ENDBRANCH   1   2
BRANCH   1  56
ATOM     56  O   UNL A   1      35.114  20.798  25.096  1.00  0.00    -0.374 OA
BRANCH  56  57
ATOM     57  C   UNL A   1      33.749  21.159  25.329  1.00  0.00     0.202 C 
BRANCH  57  58
ATOM     58  C   UNL A   1      33.031  21.365  23.993  1.00  0.00     0.261 C 
BRANCH  58  59
ATOM     59  O   UNL A   1      32.660  22.748  23.883  1.00  0.00    -0.459 OA
BRANCH  59  60
ATOM     60  C   UNL A   1      33.635  23.562  23.388  1.00  0.00     0.356 C 
ATOM     61  O   UNL A   1      34.352  23.345  22.426  1.00  0.00    -0.244 OA
BRANCH  60  62
ATOM     62  C   UNL A   1      33.543  24.853  24.128  1.00  0.00     0.148 A 
ATOM     63  C   UNL A   1      33.145  24.876  25.457  1.00  0.00     0.037 A 
ATOM     64  N   UNL A   1      33.772  25.976  23.395  1.00  0.00    -0.249 NA
ATOM     65  C   UNL A   1      32.976  26.114  26.070  1.00  0.00     0.013 A 
ATOM     66  C   UNL A   1      33.588  27.160  24.018  1.00  0.00     0.121 A 
ATOM     67  C   UNL A   1      33.199  27.293  25.348  1.00  0.00     0.006 A 
BRANCH  67  68
ATOM     68  C   UNL A   1      33.070  28.598  25.988  1.00  0.00     0.055 A 
ATOM     69  C   UNL A   1      31.933  29.384  25.769  1.00  0.00     0.134 A 
ATOM     70  C   UNL A   1      34.071  29.126  26.809  1.00  0.00     0.134 A 
ATOM     71  F   UNL A   1      30.939  28.920  24.996  1.00  0.00    -0.206 F 
ATOM     72  C   UNL A   1      31.800  30.653  26.328  1.00  0.00     0.040 A 
ATOM     73  C   UNL A   1      33.955  30.397  27.373  1.00  0.00     0.040 A 
ATOM     74  F   UNL A   1      35.180  28.414  27.060  1.00  0.00    -0.206 F 
ATOM     75  C   UNL A   1      32.818  31.165  27.129  1.00  0.00     0.006 A 
ENDBRANCH  67  68
ENDBRANCH  60  62
ENDBRANCH  59  60
ENDBRANCH  58  59
ENDBRANCH  57  58
ENDBRANCH  56  57
ENDBRANCH   1  56
TORSDOF 15
ENDMDL
