MODEL 1
REMARK VINA RESULT:     -12.1      0.000      0.000
REMARK SMILES Cc1c(NC(=O)[C@@H]2CC=CC[C@@H]2C(=O)OCCOCCOC(=O)c2ccc(-c3c4nc(c(-c5ccccc5)c5ccc([nH]5)c(-c5ccccc5)c5nc(c(-c6ccccc6)c6ccc3[nH]6)C=C5)C=C4)cc2)cccc1C(=O)N1CCOCC1
REMARK SMILES IDX 17 1 16 2 15 3 13 4 14 5 12 6 7 7 8 8 9 9 11 10 10 11 5 12
REMARK SMILES IDX 4 13 6 15 3 16 1 17 2 18 75 19 72 20 74 21 73 22 76 23 77 24
REMARK SMILES IDX 78 25 79 26 83 27 80 28 82 29 81 30 18 31 19 32 20 33 21 34
REMARK SMILES IDX 22 35 23 36 24 37 25 38 71 39 26 40 70 41 27 42 28 43 29 44
REMARK SMILES IDX 64 45 30 46 69 47 63 48 65 49 31 50 68 51 62 52 61 53 32 55
REMARK SMILES IDX 54 56 39 57 53 58 40 59 43 60 52 61 66 62 41 63 42 64 51 66
REMARK SMILES IDX 67 67 44 68 33 69 34 70 38 71 35 72 37 73 36 74 55 75 56 76
REMARK SMILES IDX 60 77 57 78 59 79 58 80 45 81 46 82 50 83 47 84 49 85 48 86
REMARK H PARENT 4 14 65 54 43 65
REMARK Flexibility Score: inf
ROOT
ATOM      1  C   UNL A   1      34.672  23.222  26.009  1.00  0.00     0.202 C 
ENDROOT
BRANCH   1   2
ATOM      2  C   UNL A   1      35.072  24.435  25.225  1.00  0.00     0.261 C 
BRANCH   2   3
ATOM      3  O   UNL A   1      34.390  25.633  25.640  1.00  0.00    -0.463 OA
BRANCH   3   4
ATOM      4  C   UNL A   1      33.237  26.095  25.074  1.00  0.00     0.310 C 
ATOM      5  O   UNL A   1      32.237  25.453  24.859  1.00  0.00    -0.252 OA
BRANCH   4   6
ATOM      6  C   UNL A   1      33.386  27.592  24.772  1.00  0.00     0.116 C 
ATOM      7  C   UNL A   1      32.119  28.436  25.121  1.00  0.00     0.097 C 
ATOM      8  C   UNL A   1      30.907  27.988  24.265  1.00  0.00     0.041 C 
ATOM      9  C   UNL A   1      31.276  27.768  22.825  1.00  0.00    -0.030 C 
ATOM     10  C   UNL A   1      33.739  27.760  23.290  1.00  0.00     0.043 C 
ATOM     11  C   UNL A   1      32.540  27.705  22.385  1.00  0.00    -0.030 C 
BRANCH   7  12
ATOM     12  C   UNL A   1      31.915  28.393  26.632  1.00  0.00     0.228 C 
ATOM     13  N   UNL A   1      32.451  29.259  27.521  1.00  0.00    -0.326 N 
ATOM     14  H   UNL A   1      31.905  29.359  28.335  1.00  0.00     0.169 HD
ATOM     15  O   UNL A   1      31.246  27.487  27.141  1.00  0.00    -0.274 OA
BRANCH  13  16
ATOM     16  C   UNL A   1      33.613  30.049  27.542  1.00  0.00     0.044 A 
ATOM     17  C   UNL A   1      32.108  32.057  27.333  1.00  0.00     0.047 C 
ATOM     18  C   UNL A   1      33.460  31.461  27.620  1.00  0.00    -0.015 A 
ATOM     19  C   UNL A   1      34.586  32.253  27.942  1.00  0.00     0.045 A 
ATOM     20  C   UNL A   1      34.887  29.489  27.615  1.00  0.00     0.026 A 
ATOM     21  C   UNL A   1      35.854  31.642  27.972  1.00  0.00     0.014 A 
ATOM     22  C   UNL A   1      36.011  30.282  27.765  1.00  0.00     0.003 A 
BRANCH  19  23
ATOM     23  C   UNL A   1      34.623  33.741  28.132  1.00  0.00     0.254 C 
ATOM     24  O   UNL A   1      34.797  34.447  27.137  1.00  0.00    -0.269 OA
ATOM     25  N   UNL A   1      34.356  34.323  29.360  1.00  0.00    -0.334 N 
ATOM     26  C   UNL A   1      35.094  34.066  30.602  1.00  0.00     0.148 C 
ATOM     27  C   UNL A   1      33.678  35.612  29.335  1.00  0.00     0.148 C 
ATOM     28  C   UNL A   1      34.227  34.363  31.843  1.00  0.00     0.181 C 
ATOM     29  C   UNL A   1      32.778  35.735  30.560  1.00  0.00     0.181 C 
ATOM     30  O   UNL A   1      33.563  35.635  31.760  1.00  0.00    -0.378 OA
ENDBRANCH  19  23
ENDBRANCH  13  16
ENDBRANCH   7  12
ENDBRANCH   4   6
ENDBRANCH   3   4
ENDBRANCH   2   3
ENDBRANCH   1   2
BRANCH   1  31
ATOM     31  O   UNL A   1      35.742  22.305  25.896  1.00  0.00    -0.374 OA
BRANCH  31  32
ATOM     32  C   UNL A   1      36.329  22.196  24.617  1.00  0.00     0.202 C 
BRANCH  32  33
ATOM     33  C   UNL A   1      37.519  21.229  24.588  1.00  0.00     0.261 C 
BRANCH  33  34
ATOM     34  O   UNL A   1      38.140  21.162  25.890  1.00  0.00    -0.460 OA
BRANCH  34  35
ATOM     35  C   UNL A   1      39.455  21.512  25.944  1.00  0.00     0.338 C 
ATOM     36  O   UNL A   1      40.379  20.862  25.480  1.00  0.00    -0.246 OA
BRANCH  35  37
ATOM     37  C   UNL A   1      39.639  22.643  26.899  1.00  0.00     0.060 A 
ATOM     38  C   UNL A   1      38.944  23.851  26.702  1.00  0.00     0.016 A 
ATOM     39  C   UNL A   1      40.753  22.610  27.735  1.00  0.00     0.016 A 
ATOM     40  C   UNL A   1      39.466  25.048  27.205  1.00  0.00     0.010 A 
ATOM     41  C   UNL A   1      41.342  23.802  28.085  1.00  0.00     0.010 A 
ATOM     42  C   UNL A   1      40.718  25.026  27.811  1.00  0.00    -0.014 A 
BRANCH  42  43
ATOM     43  C   UNL A   1      41.506  26.193  28.197  1.00  0.00     0.031 A 
ATOM     44  C   UNL A   1      40.761  27.436  28.447  1.00  0.00     0.074 A 
ATOM     45  C   UNL A   1      42.817  26.107  28.523  1.00  0.00     0.049 A 
ATOM     46  N   UNL A   1      41.301  28.602  28.436  1.00  0.00    -0.248 NA
ATOM     47  C   UNL A   1      39.309  27.489  28.644  1.00  0.00     0.031 C 
ATOM     48  C   UNL A   1      43.645  27.032  29.297  1.00  0.00     0.029 A 
ATOM     49  N   UNL A   1      43.738  25.125  28.153  1.00  0.00    -0.354 N 
ATOM     50  C   UNL A   1      40.406  29.434  29.057  1.00  0.00     0.074 A 
ATOM     51  C   UNL A   1      39.133  28.780  28.926  1.00  0.00     0.031 C 
ATOM     52  C   UNL A   1      44.944  26.758  29.064  1.00  0.00     0.029 A 
ATOM     53  C   UNL A   1      44.990  25.727  28.035  1.00  0.00     0.049 A 
ATOM     54  H   UNL A   1      43.538  24.172  28.001  1.00  0.00     0.167 HD
ATOM     55  C   UNL A   1      40.890  30.453  29.817  1.00  0.00     0.031 A 
ATOM     56  C   UNL A   1      45.615  25.759  26.829  1.00  0.00     0.031 A 
ATOM     57  C   UNL A   1      42.356  30.586  29.668  1.00  0.00     0.049 A 
ATOM     58  C   UNL A   1      45.756  27.195  26.422  1.00  0.00     0.074 A 
ATOM     59  C   UNL A   1      43.431  30.471  30.534  1.00  0.00     0.029 A 
ATOM     60  N   UNL A   1      42.917  30.556  28.385  1.00  0.00    -0.354 N 
ATOM     61  N   UNL A   1      45.031  28.148  26.944  1.00  0.00    -0.248 NA
ATOM     62  C   UNL A   1      46.731  27.695  25.472  1.00  0.00     0.031 C 
ATOM     63  C   UNL A   1      44.627  30.351  29.752  1.00  0.00     0.029 A 
ATOM     64  C   UNL A   1      44.294  30.433  28.409  1.00  0.00     0.049 A 
ATOM     65  H   UNL A   1      42.389  30.617  27.557  1.00  0.00     0.167 HD
ATOM     66  C   UNL A   1      45.513  29.360  26.571  1.00  0.00     0.074 A 
ATOM     67  C   UNL A   1      46.503  29.021  25.553  1.00  0.00     0.031 C 
ATOM     68  C   UNL A   1      45.066  30.514  27.157  1.00  0.00     0.031 A 
BRANCH  55  69
ATOM     69  C   UNL A   1      40.053  31.168  30.867  1.00  0.00    -0.014 A 
ATOM     70  C   UNL A   1      39.145  32.164  30.475  1.00  0.00     0.009 A 
ATOM     71  C   UNL A   1      40.143  30.959  32.262  1.00  0.00     0.009 A 
ATOM     72  C   UNL A   1      38.377  32.885  31.408  1.00  0.00     0.001 A 
ATOM     73  C   UNL A   1      39.360  31.648  33.198  1.00  0.00     0.001 A 
ATOM     74  C   UNL A   1      38.474  32.618  32.770  1.00  0.00     0.000 A 
ENDBRANCH  55  69
BRANCH  56  75
ATOM     75  C   UNL A   1      45.331  24.556  25.979  1.00  0.00    -0.014 A 
ATOM     76  C   UNL A   1      45.866  23.314  26.390  1.00  0.00     0.009 A 
ATOM     77  C   UNL A   1      44.250  24.521  25.090  1.00  0.00     0.009 A 
ATOM     78  C   UNL A   1      45.289  22.091  26.017  1.00  0.00     0.001 A 
ATOM     79  C   UNL A   1      43.658  23.295  24.730  1.00  0.00     0.001 A 
ATOM     80  C   UNL A   1      44.154  22.086  25.219  1.00  0.00     0.000 A 
ENDBRANCH  56  75
BRANCH  68  81
ATOM     81  C   UNL A   1      45.258  31.873  26.546  1.00  0.00    -0.014 A 
ATOM     82  C   UNL A   1      44.273  32.600  25.878  1.00  0.00     0.009 A 
ATOM     83  C   UNL A   1      46.508  32.510  26.711  1.00  0.00     0.009 A 
ATOM     84  C   UNL A   1      44.463  33.947  25.557  1.00  0.00     0.001 A 
ATOM     85  C   UNL A   1      46.717  33.841  26.365  1.00  0.00     0.001 A 
ATOM     86  C   UNL A   1      45.675  34.574  25.825  1.00  0.00     0.000 A 
ENDBRANCH  68  81
ENDBRANCH  42  43
ENDBRANCH  35  37
ENDBRANCH  34  35
ENDBRANCH  33  34
ENDBRANCH  32  33
ENDBRANCH  31  32
ENDBRANCH   1  31
TORSDOF 17
ENDMDL
MODEL 2
REMARK VINA RESULT:     -12.1      3.590     10.543
REMARK SMILES Cc1c(NC(=O)[C@@H]2CC=CC[C@@H]2C(=O)OCCOCCOC(=O)c2ccc(-c3c4nc(c(-c5ccccc5)c5ccc([nH]5)c(-c5ccccc5)c5nc(c(-c6ccccc6)c6ccc3[nH]6)C=C5)C=C4)cc2)cccc1C(=O)N1CCOCC1
REMARK SMILES IDX 17 1 16 2 15 3 13 4 14 5 12 6 7 7 8 8 9 9 11 10 10 11 5 12
REMARK SMILES IDX 4 13 6 15 3 16 1 17 2 18 75 19 72 20 74 21 73 22 76 23 77 24
REMARK SMILES IDX 78 25 79 26 83 27 80 28 82 29 81 30 18 31 19 32 20 33 21 34
REMARK SMILES IDX 22 35 23 36 24 37 25 38 71 39 26 40 70 41 27 42 28 43 29 44
REMARK SMILES IDX 64 45 30 46 69 47 63 48 65 49 31 50 68 51 62 52 61 53 32 55
REMARK SMILES IDX 54 56 39 57 53 58 40 59 43 60 52 61 66 62 41 63 42 64 51 66
REMARK SMILES IDX 67 67 44 68 33 69 34 70 38 71 35 72 37 73 36 74 55 75 56 76
REMARK SMILES IDX 60 77 57 78 59 79 58 80 45 81 46 82 50 83 47 84 49 85 48 86
REMARK H PARENT 4 14 65 54 43 65
REMARK Flexibility Score: inf
ROOT
ATOM      1  C   UNL A   1      32.678  30.374  27.240  1.00  0.00     0.202 C 
ENDROOT
BRANCH   1   2
ATOM      2  C   UNL A   1      32.092  30.153  25.878  1.00  0.00     0.261 C 
BRANCH   2   3
ATOM      3  O   UNL A   1      31.702  28.788  25.640  1.00  0.00    -0.463 OA
BRANCH   3   4
ATOM      4  C   UNL A   1      32.507  27.851  25.057  1.00  0.00     0.310 C 
ATOM      5  O   UNL A   1      33.713  27.823  25.091  1.00  0.00    -0.252 OA
BRANCH   4   6
ATOM      6  C   UNL A   1      31.635  26.796  24.364  1.00  0.00     0.116 C 
ATOM      7  C   UNL A   1      32.166  25.335  24.521  1.00  0.00     0.097 C 
ATOM      8  C   UNL A   1      33.558  25.183  23.857  1.00  0.00     0.041 C 
ATOM      9  C   UNL A   1      33.627  25.855  22.515  1.00  0.00    -0.030 C 
ATOM     10  C   UNL A   1      31.516  27.156  22.879  1.00  0.00     0.043 C 
ATOM     11  C   UNL A   1      32.695  26.707  22.064  1.00  0.00    -0.030 C 
BRANCH   7  12
ATOM     12  C   UNL A   1      32.090  24.952  25.995  1.00  0.00     0.228 C 
ATOM     13  N   UNL A   1      32.852  24.015  26.603  1.00  0.00    -0.326 N 
ATOM     14  H   UNL A   1      32.984  24.194  27.562  1.00  0.00     0.169 HD
ATOM     15  O   UNL A   1      31.250  25.483  26.730  1.00  0.00    -0.274 OA
BRANCH  13  16
ATOM     16  C   UNL A   1      33.498  22.845  26.170  1.00  0.00     0.044 A 
ATOM     17  C   UNL A   1      31.226  21.970  25.533  1.00  0.00     0.047 C 
ATOM     18  C   UNL A   1      32.726  21.874  25.474  1.00  0.00    -0.015 A 
ATOM     19  C   UNL A   1      33.395  20.844  24.772  1.00  0.00     0.045 A 
ATOM     20  C   UNL A   1      34.876  22.672  26.290  1.00  0.00     0.026 A 
ATOM     21  C   UNL A   1      34.783  20.696  24.954  1.00  0.00     0.014 A 
ATOM     22  C   UNL A   1      35.511  21.573  25.742  1.00  0.00     0.003 A 
BRANCH  19  23
ATOM     23  C   UNL A   1      32.773  19.768  23.933  1.00  0.00     0.254 C 
ATOM     24  O   UNL A   1      32.151  20.108  22.926  1.00  0.00    -0.269 OA
ATOM     25  N   UNL A   1      32.980  18.426  24.204  1.00  0.00    -0.334 N 
ATOM     26  C   UNL A   1      32.643  17.750  25.462  1.00  0.00     0.148 C 
ATOM     27  C   UNL A   1      33.040  17.532  23.054  1.00  0.00     0.148 C 
ATOM     28  C   UNL A   1      33.507  16.489  25.670  1.00  0.00     0.181 C 
ATOM     29  C   UNL A   1      34.003  16.388  23.353  1.00  0.00     0.181 C 
ATOM     30  O   UNL A   1      33.553  15.652  24.502  1.00  0.00    -0.378 OA
ENDBRANCH  19  23
ENDBRANCH  13  16
ENDBRANCH   7  12
ENDBRANCH   4   6
ENDBRANCH   3   4
ENDBRANCH   2   3
ENDBRANCH   1   2
BRANCH   1  31
ATOM     31  O   UNL A   1      34.073  30.499  27.057  1.00  0.00    -0.374 OA
BRANCH  31  32
ATOM     32  C   UNL A   1      34.730  31.408  27.914  1.00  0.00     0.202 C 
BRANCH  32  33
ATOM     33  C   UNL A   1      33.988  32.744  28.047  1.00  0.00     0.261 C 
BRANCH  33  34
ATOM     34  O   UNL A   1      33.830  33.091  29.440  1.00  0.00    -0.460 OA
BRANCH  34  35
ATOM     35  C   UNL A   1      34.380  34.275  29.828  1.00  0.00     0.338 C 
ATOM     36  O   UNL A   1      33.941  35.381  29.553  1.00  0.00    -0.246 OA
BRANCH  35  37
ATOM     37  C   UNL A   1      35.746  34.042  30.379  1.00  0.00     0.060 A 
ATOM     38  C   UNL A   1      36.880  34.394  29.623  1.00  0.00     0.016 A 
ATOM     39  C   UNL A   1      35.870  33.158  31.448  1.00  0.00     0.016 A 
ATOM     40  C   UNL A   1      38.094  33.731  29.834  1.00  0.00     0.010 A 
ATOM     41  C   UNL A   1      37.015  32.402  31.540  1.00  0.00     0.010 A 
ATOM     42  C   UNL A   1      38.125  32.666  30.728  1.00  0.00    -0.014 A 
BRANCH  42  43
ATOM     43  C   UNL A   1      39.233  31.734  30.915  1.00  0.00     0.031 A 
ATOM     44  C   UNL A   1      39.080  30.402  30.310  1.00  0.00     0.074 A 
ATOM     45  C   UNL A   1      40.428  32.119  31.422  1.00  0.00     0.049 A 
ATOM     46  N   UNL A   1      39.764  29.375  30.671  1.00  0.00    -0.248 NA
ATOM     47  C   UNL A   1      38.070  30.079  29.297  1.00  0.00     0.031 C 
ATOM     48  C   UNL A   1      41.736  31.474  31.311  1.00  0.00     0.029 A 
ATOM     49  N   UNL A   1      40.708  33.219  32.234  1.00  0.00    -0.354 N 
ATOM     50  C   UNL A   1      39.614  28.455  29.666  1.00  0.00     0.074 A 
ATOM     51  C   UNL A   1      38.392  28.820  29.004  1.00  0.00     0.031 C 
ATOM     52  C   UNL A   1      42.554  31.977  32.256  1.00  0.00     0.029 A 
ATOM     53  C   UNL A   1      41.758  32.874  33.084  1.00  0.00     0.049 A 
ATOM     54  H   UNL A   1      40.245  34.088  32.211  1.00  0.00     0.167 HD
ATOM     55  C   UNL A   1      40.667  27.647  29.368  1.00  0.00     0.031 A 
ATOM     56  C   UNL A   1      41.557  32.833  34.427  1.00  0.00     0.031 A 
ATOM     57  C   UNL A   1      41.758  27.797  30.355  1.00  0.00     0.049 A 
ATOM     58  C   UNL A   1      41.761  31.419  34.880  1.00  0.00     0.074 A 
ATOM     59  C   UNL A   1      43.074  28.224  30.286  1.00  0.00     0.029 A 
ATOM     60  N   UNL A   1      41.447  27.795  31.721  1.00  0.00    -0.354 N 
ATOM     61  N   UNL A   1      41.714  30.404  34.060  1.00  0.00    -0.248 NA
ATOM     62  C   UNL A   1      42.089  31.022  36.237  1.00  0.00     0.031 C 
ATOM     63  C   UNL A   1      43.529  28.494  31.618  1.00  0.00     0.029 A 
ATOM     64  C   UNL A   1      42.510  28.197  32.510  1.00  0.00     0.049 A 
ATOM     65  H   UNL A   1      40.568  27.536  32.081  1.00  0.00     0.167 HD
ATOM     66  C   UNL A   1      42.153  29.281  34.680  1.00  0.00     0.074 A 
ATOM     67  C   UNL A   1      42.261  29.696  36.075  1.00  0.00     0.031 C 
ATOM     68  C   UNL A   1      42.407  28.133  33.977  1.00  0.00     0.031 A 
BRANCH  55  69
ATOM     69  C   UNL A   1      40.784  26.900  28.048  1.00  0.00    -0.014 A 
ATOM     70  C   UNL A   1      41.692  27.344  27.074  1.00  0.00     0.009 A 
ATOM     71  C   UNL A   1      39.997  25.790  27.666  1.00  0.00     0.009 A 
ATOM     72  C   UNL A   1      41.811  26.715  25.821  1.00  0.00     0.001 A 
ATOM     73  C   UNL A   1      40.129  25.136  26.433  1.00  0.00     0.001 A 
ATOM     74  C   UNL A   1      41.039  25.603  25.505  1.00  0.00     0.000 A 
ENDBRANCH  55  69
BRANCH  56  75
ATOM     75  C   UNL A   1      40.566  33.850  34.911  1.00  0.00    -0.014 A 
ATOM     76  C   UNL A   1      39.468  33.392  35.675  1.00  0.00     0.009 A 
ATOM     77  C   UNL A   1      40.894  35.207  35.017  1.00  0.00     0.009 A 
ATOM     78  C   UNL A   1      38.791  34.221  36.582  1.00  0.00     0.001 A 
ATOM     79  C   UNL A   1      40.228  36.035  35.941  1.00  0.00     0.001 A 
ATOM     80  C   UNL A   1      39.203  35.536  36.746  1.00  0.00     0.000 A 
ENDBRANCH  56  75
BRANCH  68  81
ATOM     81  C   UNL A   1      42.516  26.781  34.624  1.00  0.00    -0.014 A 
ATOM     82  C   UNL A   1      41.552  26.207  35.451  1.00  0.00     0.009 A 
ATOM     83  C   UNL A   1      43.645  25.986  34.327  1.00  0.00     0.009 A 
ATOM     84  C   UNL A   1      41.619  24.857  35.810  1.00  0.00     0.001 A 
ATOM     85  C   UNL A   1      43.738  24.652  34.707  1.00  0.00     0.001 A 
ATOM     86  C   UNL A   1      42.699  24.074  35.416  1.00  0.00     0.000 A 
ENDBRANCH  68  81
ENDBRANCH  42  43
ENDBRANCH  35  37
ENDBRANCH  34  35
ENDBRANCH  33  34
ENDBRANCH  32  33
ENDBRANCH  31  32
ENDBRANCH   1  31
TORSDOF 17
ENDMDL
MODEL 3
REMARK VINA RESULT:     -11.9      3.093     10.288
REMARK SMILES Cc1c(NC(=O)[C@@H]2CC=CC[C@@H]2C(=O)OCCOCCOC(=O)c2ccc(-c3c4nc(c(-c5ccccc5)c5ccc([nH]5)c(-c5ccccc5)c5nc(c(-c6ccccc6)c6ccc3[nH]6)C=C5)C=C4)cc2)cccc1C(=O)N1CCOCC1
REMARK SMILES IDX 17 1 16 2 15 3 13 4 14 5 12 6 7 7 8 8 9 9 11 10 10 11 5 12
REMARK SMILES IDX 4 13 6 15 3 16 1 17 2 18 75 19 72 20 74 21 73 22 76 23 77 24
REMARK SMILES IDX 78 25 79 26 83 27 80 28 82 29 81 30 18 31 19 32 20 33 21 34
REMARK SMILES IDX 22 35 23 36 24 37 25 38 71 39 26 40 70 41 27 42 28 43 29 44
REMARK SMILES IDX 64 45 30 46 69 47 63 48 65 49 31 50 68 51 62 52 61 53 32 55
REMARK SMILES IDX 54 56 39 57 53 58 40 59 43 60 52 61 66 62 41 63 42 64 51 66
REMARK SMILES IDX 67 67 44 68 33 69 34 70 38 71 35 72 37 73 36 74 55 75 56 76
REMARK SMILES IDX 60 77 57 78 59 79 58 80 45 81 46 82 50 83 47 84 49 85 48 86
REMARK H PARENT 4 14 65 54 43 65
REMARK Flexibility Score: inf
ROOT
ATOM      1  C   UNL A   1      33.013  28.070  26.855  1.00  0.00     0.202 C 
ENDROOT
BRANCH   1   2
ATOM      2  C   UNL A   1      33.911  27.207  26.022  1.00  0.00     0.261 C 
BRANCH   2   3
ATOM      3  O   UNL A   1      33.594  25.805  26.108  1.00  0.00    -0.463 OA
BRANCH   3   4
ATOM      4  C   UNL A   1      34.020  24.866  25.212  1.00  0.00     0.310 C 
ATOM      5  O   UNL A   1      33.958  24.945  24.008  1.00  0.00    -0.252 OA
BRANCH   4   6
ATOM      6  C   UNL A   1      34.634  23.683  25.972  1.00  0.00     0.116 C 
ATOM      7  C   UNL A   1      34.919  22.436  25.076  1.00  0.00     0.097 C 
ATOM      8  C   UNL A   1      33.603  21.873  24.483  1.00  0.00     0.041 C 
ATOM      9  C   UNL A   1      32.497  21.817  25.500  1.00  0.00    -0.030 C 
ATOM     10  C   UNL A   1      33.697  23.302  27.124  1.00  0.00     0.043 C 
ATOM     11  C   UNL A   1      32.556  22.423  26.693  1.00  0.00    -0.030 C 
BRANCH   7  12
ATOM     12  C   UNL A   1      35.996  22.809  24.063  1.00  0.00     0.228 C 
ATOM     13  N   UNL A   1      37.330  22.743  24.275  1.00  0.00    -0.326 N 
ATOM     14  H   UNL A   1      37.841  22.597  23.446  1.00  0.00     0.169 HD
ATOM     15  O   UNL A   1      35.676  23.252  22.954  1.00  0.00    -0.274 OA
BRANCH  13  16
ATOM     16  C   UNL A   1      38.147  22.838  25.414  1.00  0.00     0.044 A 
ATOM     17  C   UNL A   1      38.593  20.374  25.151  1.00  0.00     0.047 C 
ATOM     18  C   UNL A   1      38.925  21.703  25.774  1.00  0.00    -0.015 A 
ATOM     19  C   UNL A   1      39.966  21.861  26.718  1.00  0.00     0.045 A 
ATOM     20  C   UNL A   1      38.308  24.033  26.112  1.00  0.00     0.026 A 
ATOM     21  C   UNL A   1      40.064  23.079  27.417  1.00  0.00     0.014 A 
ATOM     22  C   UNL A   1      39.214  24.140  27.151  1.00  0.00     0.003 A 
BRANCH  19  23
ATOM     23  C   UNL A   1      40.933  20.812  27.184  1.00  0.00     0.254 C 
ATOM     24  O   UNL A   1      40.582  20.069  28.101  1.00  0.00    -0.269 OA
ATOM     25  N   UNL A   1      42.138  20.598  26.537  1.00  0.00    -0.334 N 
ATOM     26  C   UNL A   1      43.193  21.601  26.350  1.00  0.00     0.148 C 
ATOM     27  C   UNL A   1      42.621  19.224  26.498  1.00  0.00     0.148 C 
ATOM     28  C   UNL A   1      44.080  21.263  25.133  1.00  0.00     0.181 C 
ATOM     29  C   UNL A   1      43.391  18.994  25.202  1.00  0.00     0.181 C 
ATOM     30  O   UNL A   1      44.511  19.892  25.129  1.00  0.00    -0.378 OA
ENDBRANCH  19  23
ENDBRANCH  13  16
ENDBRANCH   7  12
ENDBRANCH   4   6
ENDBRANCH   3   4
ENDBRANCH   2   3
ENDBRANCH   1   2
BRANCH   1  31
ATOM     31  O   UNL A   1      33.041  29.355  26.268  1.00  0.00    -0.374 OA
BRANCH  31  32
ATOM     32  C   UNL A   1      33.086  30.444  27.166  1.00  0.00     0.202 C 
BRANCH  32  33
ATOM     33  C   UNL A   1      34.515  30.824  27.571  1.00  0.00     0.261 C 
BRANCH  33  34
ATOM     34  O   UNL A   1      34.631  32.257  27.710  1.00  0.00    -0.460 OA
BRANCH  34  35
ATOM     35  C   UNL A   1      34.524  32.746  28.976  1.00  0.00     0.338 C 
ATOM     36  O   UNL A   1      33.559  33.349  29.421  1.00  0.00    -0.246 OA
BRANCH  35  37
ATOM     37  C   UNL A   1      35.855  32.705  29.649  1.00  0.00     0.060 A 
ATOM     38  C   UNL A   1      36.993  33.207  28.988  1.00  0.00     0.016 A 
ATOM     39  C   UNL A   1      36.004  31.851  30.738  1.00  0.00     0.016 A 
ATOM     40  C   UNL A   1      38.262  32.718  29.315  1.00  0.00     0.010 A 
ATOM     41  C   UNL A   1      37.228  31.259  30.941  1.00  0.00     0.010 A 
ATOM     42  C   UNL A   1      38.360  31.671  30.225  1.00  0.00    -0.014 A 
BRANCH  42  43
ATOM     43  C   UNL A   1      39.563  30.900  30.522  1.00  0.00     0.031 A 
ATOM     44  C   UNL A   1      39.728  29.633  29.795  1.00  0.00     0.074 A 
ATOM     45  C   UNL A   1      40.584  31.403  31.255  1.00  0.00     0.049 A 
ATOM     46  N   UNL A   1      40.508  28.687  30.183  1.00  0.00    -0.248 NA
ATOM     47  C   UNL A   1      38.956  29.272  28.601  1.00  0.00     0.031 C 
ATOM     48  C   UNL A   1      41.982  30.977  31.317  1.00  0.00     0.029 A 
ATOM     49  N   UNL A   1      40.549  32.441  32.189  1.00  0.00    -0.354 N 
ATOM     50  C   UNL A   1      40.670  27.867  29.097  1.00  0.00     0.074 A 
ATOM     51  C   UNL A   1      39.523  28.114  28.267  1.00  0.00     0.031 C 
ATOM     52  C   UNL A   1      42.549  31.493  32.426  1.00  0.00     0.029 A 
ATOM     53  C   UNL A   1      41.496  32.167  33.175  1.00  0.00     0.049 A 
ATOM     54  H   UNL A   1      39.958  33.228  32.158  1.00  0.00     0.167 HD
ATOM     55  C   UNL A   1      41.876  27.262  28.918  1.00  0.00     0.031 A 
ATOM     56  C   UNL A   1      41.097  31.954  34.457  1.00  0.00     0.031 A 
ATOM     57  C   UNL A   1      42.760  27.468  30.087  1.00  0.00     0.049 A 
ATOM     58  C   UNL A   1      41.459  30.546  34.823  1.00  0.00     0.074 A 
ATOM     59  C   UNL A   1      43.982  28.092  30.277  1.00  0.00     0.029 A 
ATOM     60  N   UNL A   1      42.245  27.274  31.374  1.00  0.00    -0.354 N 
ATOM     61  N   UNL A   1      41.709  29.628  33.927  1.00  0.00    -0.248 NA
ATOM     62  C   UNL A   1      41.633  30.061  36.179  1.00  0.00     0.031 C 
ATOM     63  C   UNL A   1      44.173  28.284  31.686  1.00  0.00     0.029 A 
ATOM     64  C   UNL A   1      43.090  27.743  32.362  1.00  0.00     0.049 A 
ATOM     65  H   UNL A   1      41.375  26.849  31.557  1.00  0.00     0.167 HD
ATOM     66  C   UNL A   1      42.226  28.524  34.521  1.00  0.00     0.074 A 
ATOM     67  C   UNL A   1      42.045  28.800  35.943  1.00  0.00     0.031 C 
ATOM     68  C   UNL A   1      42.773  27.509  33.781  1.00  0.00     0.031 A 
BRANCH  55  69
ATOM     69  C   UNL A   1      42.319  26.687  27.582  1.00  0.00    -0.014 A 
ATOM     70  C   UNL A   1      42.060  27.395  26.397  1.00  0.00     0.009 A 
ATOM     71  C   UNL A   1      42.942  25.431  27.401  1.00  0.00     0.009 A 
ATOM     72  C   UNL A   1      42.411  26.889  25.132  1.00  0.00     0.001 A 
ATOM     73  C   UNL A   1      43.325  24.932  26.149  1.00  0.00     0.001 A 
ATOM     74  C   UNL A   1      43.056  25.663  25.008  1.00  0.00     0.000 A 
ENDBRANCH  55  69
BRANCH  56  75
ATOM     75  C   UNL A   1      39.889  32.754  34.845  1.00  0.00    -0.014 A 
ATOM     76  C   UNL A   1      39.986  34.163  34.797  1.00  0.00     0.009 A 
ATOM     77  C   UNL A   1      38.603  32.202  34.824  1.00  0.00     0.009 A 
ATOM     78  C   UNL A   1      38.861  34.985  34.632  1.00  0.00     0.001 A 
ATOM     79  C   UNL A   1      37.474  33.024  34.639  1.00  0.00     0.001 A 
ATOM     80  C   UNL A   1      37.605  34.407  34.508  1.00  0.00     0.000 A 
ENDBRANCH  56  75
BRANCH  68  81
ATOM     81  C   UNL A   1      43.001  26.127  34.326  1.00  0.00    -0.014 A 
ATOM     82  C   UNL A   1      42.142  25.454  35.193  1.00  0.00     0.009 A 
ATOM     83  C   UNL A   1      44.135  25.412  33.881  1.00  0.00     0.009 A 
ATOM     84  C   UNL A   1      42.304  24.090  35.455  1.00  0.00     0.001 A 
ATOM     85  C   UNL A   1      44.323  24.063  34.164  1.00  0.00     0.001 A 
ATOM     86  C   UNL A   1      43.380  23.390  34.920  1.00  0.00     0.000 A 
ENDBRANCH  68  81
ENDBRANCH  42  43
ENDBRANCH  35  37
ENDBRANCH  34  35
ENDBRANCH  33  34
ENDBRANCH  32  33
ENDBRANCH  31  32
ENDBRANCH   1  31
TORSDOF 17
ENDMDL
