MODEL 1
REMARK VINA RESULT:     -10.9      0.000      0.000
REMARK SMILES Cc1ncccc1NC(=O)Nc1ccc(C(=O)OCCOCCOC(=O)c2ccc(-c3c4nc(c(-c5ccccc5)c5ccc([nH]5)c(-c5ccccc5)c5nc(c(-c6ccccc6)c6ccc3[nH]6)C=C5)C=C4)cc2)c(O)c1
REMARK SMILES IDX 21 1 20 2 19 3 18 4 16 5 17 6 15 7 12 8 13 9 77 10 14 11
REMARK SMILES IDX 75 12 11 13 8 14 9 15 10 17 7 19 1 20 2 21 3 22 4 23 6 24
REMARK SMILES IDX 5 25 76 26 22 28 23 29 24 30 25 31 26 32 27 33 28 34 74 35
REMARK SMILES IDX 29 36 73 37 30 38 31 39 32 40 67 41 33 42 72 43 66 44 68 45
REMARK SMILES IDX 34 46 71 47 65 48 64 49 35 51 57 52 42 53 56 54 43 55 46 56
REMARK SMILES IDX 55 57 69 58 44 59 45 60 54 62 70 63 47 64 36 65 37 66 41 67
REMARK SMILES IDX 38 68 40 69 39 70 58 71 59 72 63 73 60 74 62 75 61 76 48 77
REMARK SMILES IDX 49 78 53 79 50 80 52 81 51 82
REMARK H PARENT 8 16 11 18 76 27 68 50 46 61
REMARK Flexibility Score: inf
ROOT
ATOM      1  O   UNL A   1      41.599  21.485  26.808  1.00  0.00    -0.374 OA
ENDROOT
BRANCH   1   2
ATOM      2  C   UNL A   1      40.304  20.988  26.472  1.00  0.00     0.202 C 
BRANCH   2   3
ATOM      3  C   UNL A   1      39.279  22.082  26.163  1.00  0.00     0.261 C 
BRANCH   3   4
ATOM      4  O   UNL A   1      37.991  21.513  25.834  1.00  0.00    -0.460 OA
BRANCH   4   5
ATOM      5  C   UNL A   1      37.142  22.330  25.155  1.00  0.00     0.341 C 
ATOM      6  O   UNL A   1      37.408  22.981  24.160  1.00  0.00    -0.246 OA
BRANCH   5   7
ATOM      7  C   UNL A   1      35.774  22.256  25.734  1.00  0.00     0.101 A 
ATOM      8  C   UNL A   1      33.143  22.347  26.727  1.00  0.00     0.046 A 
ATOM      9  C   UNL A   1      33.942  23.490  26.763  1.00  0.00     0.027 A 
ATOM     10  C   UNL A   1      33.693  21.135  26.291  1.00  0.00     0.073 A 
ATOM     11  C   UNL A   1      35.255  23.439  26.284  1.00  0.00     0.022 A 
ATOM     12  C   UNL A   1      34.980  21.103  25.746  1.00  0.00     0.132 A 
BRANCH   8  13
ATOM     13  N   UNL A   1      31.772  22.359  27.036  1.00  0.00    -0.308 N 
ATOM     14  N   UNL A   1      30.715  23.760  25.409  1.00  0.00    -0.306 N 
ATOM     15  C   UNL A   1      30.758  23.158  26.624  1.00  0.00     0.323 C 
ATOM     16  H   UNL A   1      30.081  24.513  25.369  1.00  0.00     0.171 HD
ATOM     17  O   UNL A   1      29.794  23.319  27.378  1.00  0.00    -0.248 OA
ATOM     18  H   UNL A   1      31.497  21.658  27.671  1.00  0.00     0.171 HD
BRANCH  14  19
ATOM     19  C   UNL A   1      31.390  23.533  24.188  1.00  0.00     0.064 A 
ATOM     20  C   UNL A   1      31.772  26.026  23.724  1.00  0.00     0.069 C 
ATOM     21  C   UNL A   1      32.046  24.568  23.506  1.00  0.00     0.061 A 
ATOM     22  N   UNL A   1      32.918  24.333  22.487  1.00  0.00    -0.259 NA
ATOM     23  C   UNL A   1      33.084  23.063  22.079  1.00  0.00     0.111 A 
ATOM     24  C   UNL A   1      31.446  22.272  23.598  1.00  0.00     0.030 A 
ATOM     25  C   UNL A   1      32.333  22.014  22.563  1.00  0.00     0.022 A 
ENDBRANCH  14  19
ENDBRANCH   8  13
BRANCH  12  26
ATOM     26  O   UNL A   1      35.361  19.905  25.206  1.00  0.00    -0.507 OA
ATOM     27  H   UNL A   1      36.262  19.648  25.223  1.00  0.00     0.293 HD
ENDBRANCH  12  26
ENDBRANCH   5   7
ENDBRANCH   4   5
ENDBRANCH   3   4
ENDBRANCH   2   3
ENDBRANCH   1   2
BRANCH   1  28
ATOM     28  C   UNL A   1      42.692  20.904  26.097  1.00  0.00     0.202 C 
BRANCH  28  29
ATOM     29  C   UNL A   1      43.587  21.934  25.397  1.00  0.00     0.261 C 
BRANCH  29  30
ATOM     30  O   UNL A   1      42.835  23.121  25.097  1.00  0.00    -0.460 OA
BRANCH  30  31
ATOM     31  C   UNL A   1      43.548  24.267  25.186  1.00  0.00     0.338 C 
ATOM     32  O   UNL A   1      44.527  24.588  24.536  1.00  0.00    -0.246 OA
BRANCH  31  33
ATOM     33  C   UNL A   1      42.851  25.204  26.079  1.00  0.00     0.060 A 
ATOM     34  C   UNL A   1      43.475  26.435  26.313  1.00  0.00     0.016 A 
ATOM     35  C   UNL A   1      41.654  24.873  26.718  1.00  0.00     0.016 A 
ATOM     36  C   UNL A   1      42.938  27.317  27.243  1.00  0.00     0.010 A 
ATOM     37  C   UNL A   1      41.116  25.761  27.654  1.00  0.00     0.010 A 
ATOM     38  C   UNL A   1      41.781  26.965  27.949  1.00  0.00    -0.014 A 
BRANCH  38  39
ATOM     39  C   UNL A   1      41.365  27.796  29.102  1.00  0.00     0.031 A 
ATOM     40  C   UNL A   1      42.136  27.695  30.387  1.00  0.00     0.074 A 
ATOM     41  C   UNL A   1      40.344  28.661  28.986  1.00  0.00     0.049 A 
ATOM     42  N   UNL A   1      41.963  28.342  31.510  1.00  0.00    -0.248 NA
ATOM     43  C   UNL A   1      43.251  26.733  30.410  1.00  0.00     0.031 C 
ATOM     44  C   UNL A   1      39.545  28.869  27.779  1.00  0.00     0.029 A 
ATOM     45  N   UNL A   1      39.807  29.526  29.904  1.00  0.00    -0.354 N 
ATOM     46  C   UNL A   1      42.937  27.859  32.375  1.00  0.00     0.074 A 
ATOM     47  C   UNL A   1      43.678  26.846  31.658  1.00  0.00     0.031 C 
ATOM     48  C   UNL A   1      38.613  29.803  28.034  1.00  0.00     0.029 A 
ATOM     49  C   UNL A   1      38.733  30.233  29.425  1.00  0.00     0.049 A 
ATOM     50  H   UNL A   1      40.158  29.630  30.818  1.00  0.00     0.167 HD
ATOM     51  C   UNL A   1      43.193  28.230  33.652  1.00  0.00     0.031 A 
ATOM     52  C   UNL A   1      37.928  31.117  30.044  1.00  0.00     0.031 A 
ATOM     53  C   UNL A   1      42.445  29.230  34.366  1.00  0.00     0.049 A 
ATOM     54  C   UNL A   1      38.196  31.475  31.480  1.00  0.00     0.074 A 
ATOM     55  C   UNL A   1      42.644  29.703  35.651  1.00  0.00     0.029 A 
ATOM     56  N   UNL A   1      41.343  29.900  33.857  1.00  0.00    -0.354 N 
ATOM     57  N   UNL A   1      39.147  31.045  32.274  1.00  0.00    -0.248 NA
ATOM     58  C   UNL A   1      37.286  32.448  32.100  1.00  0.00     0.031 C 
ATOM     59  C   UNL A   1      41.624  30.616  35.941  1.00  0.00     0.029 A 
ATOM     60  C   UNL A   1      40.828  30.757  34.815  1.00  0.00     0.049 A 
ATOM     61  H   UNL A   1      40.980  29.785  32.949  1.00  0.00     0.167 HD
ATOM     62  C   UNL A   1      38.963  31.708  33.481  1.00  0.00     0.074 A 
ATOM     63  C   UNL A   1      37.819  32.581  33.307  1.00  0.00     0.031 C 
ATOM     64  C   UNL A   1      39.679  31.607  34.628  1.00  0.00     0.031 A 
BRANCH  51  65
ATOM     65  C   UNL A   1      44.300  27.508  34.368  1.00  0.00    -0.014 A 
ATOM     66  C   UNL A   1      45.623  27.980  34.344  1.00  0.00     0.009 A 
ATOM     67  C   UNL A   1      44.013  26.335  35.083  1.00  0.00     0.009 A 
ATOM     68  C   UNL A   1      46.640  27.268  34.985  1.00  0.00     0.001 A 
ATOM     69  C   UNL A   1      45.027  25.641  35.747  1.00  0.00     0.001 A 
ATOM     70  C   UNL A   1      46.340  26.101  35.686  1.00  0.00     0.000 A 
ENDBRANCH  51  65
BRANCH  52  71
ATOM     71  C   UNL A   1      36.783  31.708  29.306  1.00  0.00    -0.014 A 
ATOM     72  C   UNL A   1      36.885  32.976  28.715  1.00  0.00     0.009 A 
ATOM     73  C   UNL A   1      35.584  30.990  29.170  1.00  0.00     0.009 A 
ATOM     74  C   UNL A   1      35.804  33.517  28.014  1.00  0.00     0.001 A 
ATOM     75  C   UNL A   1      34.516  31.521  28.447  1.00  0.00     0.001 A 
ATOM     76  C   UNL A   1      34.624  32.786  27.874  1.00  0.00     0.000 A 
ENDBRANCH  52  71
BRANCH  64  77
ATOM     77  C   UNL A   1      39.258  32.477  35.779  1.00  0.00    -0.014 A 
ATOM     78  C   UNL A   1      38.322  32.031  36.726  1.00  0.00     0.009 A 
ATOM     79  C   UNL A   1      39.841  33.744  35.944  1.00  0.00     0.009 A 
ATOM     80  C   UNL A   1      37.956  32.851  37.795  1.00  0.00     0.001 A 
ATOM     81  C   UNL A   1      39.495  34.549  37.030  1.00  0.00     0.001 A 
ATOM     82  C   UNL A   1      38.546  34.105  37.950  1.00  0.00     0.000 A 
ENDBRANCH  64  77
ENDBRANCH  38  39
ENDBRANCH  31  33
ENDBRANCH  30  31
ENDBRANCH  29  30
ENDBRANCH  28  29
ENDBRANCH   1  28
TORSDOF 17
ENDMDL
MODEL 2
REMARK VINA RESULT:     -10.8      3.742      7.646
REMARK SMILES Cc1ncccc1NC(=O)Nc1ccc(C(=O)OCCOCCOC(=O)c2ccc(-c3c4nc(c(-c5ccccc5)c5ccc([nH]5)c(-c5ccccc5)c5nc(c(-c6ccccc6)c6ccc3[nH]6)C=C5)C=C4)cc2)c(O)c1
REMARK SMILES IDX 21 1 20 2 19 3 18 4 16 5 17 6 15 7 12 8 13 9 77 10 14 11
REMARK SMILES IDX 75 12 11 13 8 14 9 15 10 17 7 19 1 20 2 21 3 22 4 23 6 24
REMARK SMILES IDX 5 25 76 26 22 28 23 29 24 30 25 31 26 32 27 33 28 34 74 35
REMARK SMILES IDX 29 36 73 37 30 38 31 39 32 40 67 41 33 42 72 43 66 44 68 45
REMARK SMILES IDX 34 46 71 47 65 48 64 49 35 51 57 52 42 53 56 54 43 55 46 56
REMARK SMILES IDX 55 57 69 58 44 59 45 60 54 62 70 63 47 64 36 65 37 66 41 67
REMARK SMILES IDX 38 68 40 69 39 70 58 71 59 72 63 73 60 74 62 75 61 76 48 77
REMARK SMILES IDX 49 78 53 79 50 80 52 81 51 82
REMARK H PARENT 8 16 11 18 76 27 68 50 46 61
REMARK Flexibility Score: inf
ROOT
ATOM      1  O   UNL A   1      34.418  19.878  24.804  1.00  0.00    -0.374 OA
ENDROOT
BRANCH   1   2
ATOM      2  C   UNL A   1      33.126  20.148  25.345  1.00  0.00     0.202 C 
BRANCH   2   3
ATOM      3  C   UNL A   1      32.246  21.022  24.447  1.00  0.00     0.261 C 
BRANCH   3   4
ATOM      4  O   UNL A   1      32.719  22.388  24.423  1.00  0.00    -0.460 OA
BRANCH   4   5
ATOM      5  C   UNL A   1      31.768  23.337  24.214  1.00  0.00     0.341 C 
ATOM      6  O   UNL A   1      30.754  23.209  23.551  1.00  0.00    -0.246 OA
BRANCH   5   7
ATOM      7  C   UNL A   1      32.073  24.562  25.000  1.00  0.00     0.101 A 
ATOM      8  C   UNL A   1      32.823  26.939  26.306  1.00  0.00     0.046 A 
ATOM      9  C   UNL A   1      33.796  26.132  25.713  1.00  0.00     0.027 A 
ATOM     10  C   UNL A   1      31.492  26.505  26.335  1.00  0.00     0.073 A 
ATOM     11  C   UNL A   1      33.423  24.943  25.078  1.00  0.00     0.022 A 
ATOM     12  C   UNL A   1      31.112  25.355  25.639  1.00  0.00     0.132 A 
BRANCH   8  13
ATOM     13  N   UNL A   1      33.097  28.219  26.816  1.00  0.00    -0.308 N 
ATOM     14  N   UNL A   1      33.123  29.712  24.944  1.00  0.00    -0.306 N 
ATOM     15  C   UNL A   1      33.470  29.374  26.212  1.00  0.00     0.323 C 
ATOM     16  H   UNL A   1      33.689  30.419  24.561  1.00  0.00     0.171 HD
ATOM     17  O   UNL A   1      34.130  30.190  26.862  1.00  0.00    -0.248 OA
ATOM     18  H   UNL A   1      33.000  28.291  27.793  1.00  0.00     0.171 HD
BRANCH  14  19
ATOM     19  C   UNL A   1      32.119  29.259  24.060  1.00  0.00     0.064 A 
ATOM     20  C   UNL A   1      33.781  28.186  22.429  1.00  0.00     0.069 C 
ATOM     21  C   UNL A   1      32.409  28.389  22.998  1.00  0.00     0.061 A 
ATOM     22  N   UNL A   1      31.438  27.733  22.306  1.00  0.00    -0.259 NA
ATOM     23  C   UNL A   1      30.157  28.001  22.608  1.00  0.00     0.111 A 
ATOM     24  C   UNL A   1      30.787  29.645  24.194  1.00  0.00     0.030 A 
ATOM     25  C   UNL A   1      29.785  28.983  23.499  1.00  0.00     0.022 A 
ENDBRANCH  14  19
ENDBRANCH   8  13
BRANCH  12  26
ATOM     26  O   UNL A   1      29.767  25.108  25.599  1.00  0.00    -0.507 OA
ATOM     27  H   UNL A   1      29.268  25.099  26.392  1.00  0.00     0.293 HD
ENDBRANCH  12  26
ENDBRANCH   5   7
ENDBRANCH   4   5
ENDBRANCH   3   4
ENDBRANCH   2   3
ENDBRANCH   1   2
BRANCH   1  28
ATOM     28  C   UNL A   1      35.427  20.848  25.087  1.00  0.00     0.202 C 
BRANCH  28  29
ATOM     29  C   UNL A   1      36.855  20.299  24.981  1.00  0.00     0.261 C 
BRANCH  29  30
ATOM     30  O   UNL A   1      37.808  21.364  25.124  1.00  0.00    -0.460 OA
BRANCH  30  31
ATOM     31  C   UNL A   1      38.896  21.041  25.860  1.00  0.00     0.338 C 
ATOM     32  O   UNL A   1      39.457  19.962  25.925  1.00  0.00    -0.246 OA
BRANCH  31  33
ATOM     33  C   UNL A   1      39.457  22.262  26.458  1.00  0.00     0.060 A 
ATOM     34  C   UNL A   1      38.848  23.473  26.107  1.00  0.00     0.016 A 
ATOM     35  C   UNL A   1      40.578  22.236  27.289  1.00  0.00     0.016 A 
ATOM     36  C   UNL A   1      39.403  24.674  26.533  1.00  0.00     0.010 A 
ATOM     37  C   UNL A   1      41.135  23.445  27.716  1.00  0.00     0.010 A 
ATOM     38  C   UNL A   1      40.573  24.666  27.302  1.00  0.00    -0.014 A 
BRANCH  38  39
ATOM     39  C   UNL A   1      41.284  25.944  27.536  1.00  0.00     0.031 A 
ATOM     40  C   UNL A   1      40.640  26.987  28.406  1.00  0.00     0.074 A 
ATOM     41  C   UNL A   1      42.505  26.150  27.017  1.00  0.00     0.049 A 
ATOM     42  N   UNL A   1      41.091  28.162  28.761  1.00  0.00    -0.248 NA
ATOM     43  C   UNL A   1      39.309  26.661  28.944  1.00  0.00     0.031 C 
ATOM     44  C   UNL A   1      43.242  25.198  26.186  1.00  0.00     0.029 A 
ATOM     45  N   UNL A   1      43.340  27.233  27.116  1.00  0.00    -0.354 N 
ATOM     46  C   UNL A   1      40.096  28.720  29.555  1.00  0.00     0.074 A 
ATOM     47  C   UNL A   1      39.008  27.769  29.604  1.00  0.00     0.031 C 
ATOM     48  C   UNL A   1      44.422  25.744  25.846  1.00  0.00     0.029 A 
ATOM     49  C   UNL A   1      44.508  27.088  26.411  1.00  0.00     0.049 A 
ATOM     50  H   UNL A   1      43.123  28.036  27.642  1.00  0.00     0.167 HD
ATOM     51  C   UNL A   1      40.092  29.916  30.189  1.00  0.00     0.031 A 
ATOM     52  C   UNL A   1      45.526  27.952  26.228  1.00  0.00     0.031 A 
ATOM     53  C   UNL A   1      41.171  30.865  30.126  1.00  0.00     0.049 A 
ATOM     54  C   UNL A   1      45.477  29.297  26.896  1.00  0.00     0.074 A 
ATOM     55  C   UNL A   1      41.281  32.091  30.758  1.00  0.00     0.029 A 
ATOM     56  N   UNL A   1      42.324  30.696  29.374  1.00  0.00    -0.354 N 
ATOM     57  N   UNL A   1      44.551  29.797  27.680  1.00  0.00    -0.248 NA
ATOM     58  C   UNL A   1      46.617  30.194  26.663  1.00  0.00     0.031 C 
ATOM     59  C   UNL A   1      42.473  32.691  30.339  1.00  0.00     0.029 A 
ATOM     60  C   UNL A   1      43.135  31.812  29.496  1.00  0.00     0.049 A 
ATOM     61  H   UNL A   1      42.535  29.901  28.833  1.00  0.00     0.167 HD
ATOM     62  C   UNL A   1      45.005  31.057  28.050  1.00  0.00     0.074 A 
ATOM     63  C   UNL A   1      46.297  31.237  27.417  1.00  0.00     0.031 C 
ATOM     64  C   UNL A   1      44.410  31.979  28.846  1.00  0.00     0.031 A 
BRANCH  51  65
ATOM     65  C   UNL A   1      38.855  30.280  30.962  1.00  0.00    -0.014 A 
ATOM     66  C   UNL A   1      38.708  29.942  32.317  1.00  0.00     0.009 A 
ATOM     67  C   UNL A   1      37.818  30.976  30.321  1.00  0.00     0.009 A 
ATOM     68  C   UNL A   1      37.531  30.257  33.001  1.00  0.00     0.001 A 
ATOM     69  C   UNL A   1      36.655  31.315  31.015  1.00  0.00     0.001 A 
ATOM     70  C   UNL A   1      36.507  30.944  32.350  1.00  0.00     0.000 A 
ENDBRANCH  51  65
BRANCH  52  71
ATOM     71  C   UNL A   1      46.666  27.566  25.358  1.00  0.00    -0.014 A 
ATOM     72  C   UNL A   1      46.700  27.943  24.007  1.00  0.00     0.009 A 
ATOM     73  C   UNL A   1      47.741  26.834  25.887  1.00  0.00     0.009 A 
ATOM     74  C   UNL A   1      47.783  27.583  23.202  1.00  0.00     0.001 A 
ATOM     75  C   UNL A   1      48.834  26.499  25.086  1.00  0.00     0.001 A 
ATOM     76  C   UNL A   1      48.851  26.868  23.743  1.00  0.00     0.000 A 
ENDBRANCH  52  71
BRANCH  64  77
ATOM     77  C   UNL A   1      45.159  33.259  29.092  1.00  0.00    -0.014 A 
ATOM     78  C   UNL A   1      45.005  34.368  28.245  1.00  0.00     0.009 A 
ATOM     79  C   UNL A   1      45.994  33.372  30.215  1.00  0.00     0.009 A 
ATOM     80  C   UNL A   1      45.699  35.552  28.501  1.00  0.00     0.001 A 
ATOM     81  C   UNL A   1      46.664  34.566  30.485  1.00  0.00     0.001 A 
ATOM     82  C   UNL A   1      46.523  35.652  29.622  1.00  0.00     0.000 A 
ENDBRANCH  64  77
ENDBRANCH  38  39
ENDBRANCH  31  33
ENDBRANCH  30  31
ENDBRANCH  29  30
ENDBRANCH  28  29
ENDBRANCH   1  28
TORSDOF 17
ENDMDL
MODEL 3
REMARK VINA RESULT:     -10.8      3.785      6.451
REMARK SMILES Cc1ncccc1NC(=O)Nc1ccc(C(=O)OCCOCCOC(=O)c2ccc(-c3c4nc(c(-c5ccccc5)c5ccc([nH]5)c(-c5ccccc5)c5nc(c(-c6ccccc6)c6ccc3[nH]6)C=C5)C=C4)cc2)c(O)c1
REMARK SMILES IDX 21 1 20 2 19 3 18 4 16 5 17 6 15 7 12 8 13 9 77 10 14 11
REMARK SMILES IDX 75 12 11 13 8 14 9 15 10 17 7 19 1 20 2 21 3 22 4 23 6 24
REMARK SMILES IDX 5 25 76 26 22 28 23 29 24 30 25 31 26 32 27 33 28 34 74 35
REMARK SMILES IDX 29 36 73 37 30 38 31 39 32 40 67 41 33 42 72 43 66 44 68 45
REMARK SMILES IDX 34 46 71 47 65 48 64 49 35 51 57 52 42 53 56 54 43 55 46 56
REMARK SMILES IDX 55 57 69 58 44 59 45 60 54 62 70 63 47 64 36 65 37 66 41 67
REMARK SMILES IDX 38 68 40 69 39 70 58 71 59 72 63 73 60 74 62 75 61 76 48 77
REMARK SMILES IDX 49 78 53 79 50 80 52 81 51 82
REMARK H PARENT 8 16 11 18 76 27 68 50 46 61
REMARK Flexibility Score: inf
ROOT
ATOM      1  O   UNL A   1      34.952  20.227  24.688  1.00  0.00    -0.374 OA
ENDROOT
BRANCH   1   2
ATOM      2  C   UNL A   1      33.661  20.672  25.101  1.00  0.00     0.202 C 
BRANCH   2   3
ATOM      3  C   UNL A   1      32.777  21.168  23.954  1.00  0.00     0.261 C 
BRANCH   3   4
ATOM      4  O   UNL A   1      33.021  22.565  23.673  1.00  0.00    -0.460 OA
BRANCH   4   5
ATOM      5  C   UNL A   1      31.955  23.394  23.837  1.00  0.00     0.341 C 
ATOM      6  O   UNL A   1      30.833  23.222  23.396  1.00  0.00    -0.246 OA
BRANCH   5   7
ATOM      7  C   UNL A   1      32.309  24.526  24.733  1.00  0.00     0.101 A 
ATOM      8  C   UNL A   1      33.160  26.732  26.259  1.00  0.00     0.046 A 
ATOM      9  C   UNL A   1      34.100  25.916  25.629  1.00  0.00     0.027 A 
ATOM     10  C   UNL A   1      31.804  26.385  26.213  1.00  0.00     0.073 A 
ATOM     11  C   UNL A   1      33.676  24.811  24.883  1.00  0.00     0.022 A 
ATOM     12  C   UNL A   1      31.378  25.323  25.410  1.00  0.00     0.132 A 
BRANCH   8  13
ATOM     13  N   UNL A   1      33.495  27.945  26.886  1.00  0.00    -0.308 N 
ATOM     14  N   UNL A   1      33.464  29.626  25.182  1.00  0.00    -0.306 N 
ATOM     15  C   UNL A   1      33.868  29.148  26.386  1.00  0.00     0.323 C 
ATOM     16  H   UNL A   1      34.029  30.358  24.844  1.00  0.00     0.171 HD
ATOM     17  O   UNL A   1      34.582  29.876  27.081  1.00  0.00    -0.248 OA
ATOM     18  H   UNL A   1      33.451  27.915  27.869  1.00  0.00     0.171 HD
BRANCH  14  19
ATOM     19  C   UNL A   1      32.403  29.292  24.311  1.00  0.00     0.064 A 
ATOM     20  C   UNL A   1      33.948  28.364  22.487  1.00  0.00     0.069 C 
ATOM     21  C   UNL A   1      32.614  28.535  23.149  1.00  0.00     0.061 A 
ATOM     22  N   UNL A   1      31.590  27.976  22.446  1.00  0.00    -0.259 NA
ATOM     23  C   UNL A   1      30.334  28.238  22.845  1.00  0.00     0.111 A 
ATOM     24  C   UNL A   1      31.091  29.690  24.558  1.00  0.00     0.030 A 
ATOM     25  C   UNL A   1      30.036  29.127  23.854  1.00  0.00     0.022 A 
ENDBRANCH  14  19
ENDBRANCH   8  13
BRANCH  12  26
ATOM     26  O   UNL A   1      30.021  25.168  25.310  1.00  0.00    -0.507 OA
ATOM     27  H   UNL A   1      29.506  25.045  26.082  1.00  0.00     0.293 HD
ENDBRANCH  12  26
ENDBRANCH   5   7
ENDBRANCH   4   5
ENDBRANCH   3   4
ENDBRANCH   2   3
ENDBRANCH   1   2
BRANCH   1  28
ATOM     28  C   UNL A   1      36.009  21.177  24.823  1.00  0.00     0.202 C 
BRANCH  28  29
ATOM     29  C   UNL A   1      37.338  20.557  25.272  1.00  0.00     0.261 C 
BRANCH  29  30
ATOM     30  O   UNL A   1      38.375  21.551  25.269  1.00  0.00    -0.460 OA
BRANCH  30  31
ATOM     31  C   UNL A   1      39.391  21.297  26.125  1.00  0.00     0.338 C 
ATOM     32  O   UNL A   1      39.999  20.252  26.271  1.00  0.00    -0.246 OA
BRANCH  31  33
ATOM     33  C   UNL A   1      39.815  22.553  26.761  1.00  0.00     0.060 A 
ATOM     34  C   UNL A   1      39.119  23.711  26.395  1.00  0.00     0.016 A 
ATOM     35  C   UNL A   1      40.896  22.614  27.643  1.00  0.00     0.016 A 
ATOM     36  C   UNL A   1      39.546  24.951  26.858  1.00  0.00     0.010 A 
ATOM     37  C   UNL A   1      41.325  23.861  28.107  1.00  0.00     0.010 A 
ATOM     38  C   UNL A   1      40.676  25.034  27.680  1.00  0.00    -0.014 A 
BRANCH  38  39
ATOM     39  C   UNL A   1      41.261  26.366  27.959  1.00  0.00     0.031 A 
ATOM     40  C   UNL A   1      42.593  26.716  27.360  1.00  0.00     0.074 A 
ATOM     41  C   UNL A   1      40.589  27.264  28.699  1.00  0.00     0.049 A 
ATOM     42  N   UNL A   1      43.277  27.827  27.453  1.00  0.00    -0.248 NA
ATOM     43  C   UNL A   1      43.242  25.673  26.549  1.00  0.00     0.031 C 
ATOM     44  C   UNL A   1      39.276  27.048  29.303  1.00  0.00     0.029 A 
ATOM     45  N   UNL A   1      40.927  28.541  29.065  1.00  0.00    -0.354 N 
ATOM     46  C   UNL A   1      44.440  27.614  26.723  1.00  0.00     0.074 A 
ATOM     47  C   UNL A   1      44.383  26.260  26.219  1.00  0.00     0.031 C 
ATOM     48  C   UNL A   1      38.920  28.158  29.972  1.00  0.00     0.029 A 
ATOM     49  C   UNL A   1      39.991  29.146  29.864  1.00  0.00     0.049 A 
ATOM     50  H   UNL A   1      41.760  28.982  28.781  1.00  0.00     0.167 HD
ATOM     51  C   UNL A   1      45.462  28.470  26.491  1.00  0.00     0.031 A 
ATOM     52  C   UNL A   1      40.004  30.356  30.456  1.00  0.00     0.031 A 
ATOM     53  C   UNL A   1      45.521  29.812  27.006  1.00  0.00     0.049 A 
ATOM     54  C   UNL A   1      41.174  31.272  30.230  1.00  0.00     0.074 A 
ATOM     55  C   UNL A   1      46.496  30.773  26.803  1.00  0.00     0.029 A 
ATOM     56  N   UNL A   1      44.568  30.377  27.840  1.00  0.00    -0.354 N 
ATOM     57  N   UNL A   1      42.247  31.076  29.502  1.00  0.00    -0.248 NA
ATOM     58  C   UNL A   1      41.130  32.579  30.900  1.00  0.00     0.031 C 
ATOM     59  C   UNL A   1      46.162  31.899  27.564  1.00  0.00     0.029 A 
ATOM     60  C   UNL A   1      44.949  31.662  28.191  1.00  0.00     0.049 A 
ATOM     61  H   UNL A   1      43.742  29.932  28.139  1.00  0.00     0.167 HD
ATOM     62  C   UNL A   1      42.997  32.241  29.609  1.00  0.00     0.074 A 
ATOM     63  C   UNL A   1      42.246  33.144  30.459  1.00  0.00     0.031 C 
ATOM     64  C   UNL A   1      44.196  32.539  29.050  1.00  0.00     0.031 A 
BRANCH  51  65
ATOM     65  C   UNL A   1      46.621  27.956  25.684  1.00  0.00    -0.014 A 
ATOM     66  C   UNL A   1      47.734  27.356  26.294  1.00  0.00     0.009 A 
ATOM     67  C   UNL A   1      46.596  28.072  24.285  1.00  0.00     0.009 A 
ATOM     68  C   UNL A   1      48.816  26.922  25.524  1.00  0.00     0.001 A 
ATOM     69  C   UNL A   1      47.666  27.611  23.515  1.00  0.00     0.001 A 
ATOM     70  C   UNL A   1      48.780  27.049  24.135  1.00  0.00     0.000 A 
ENDBRANCH  51  65
BRANCH  52  71
ATOM     71  C   UNL A   1      38.873  30.754  31.333  1.00  0.00    -0.014 A 
ATOM     72  C   UNL A   1      38.898  30.480  32.708  1.00  0.00     0.009 A 
ATOM     73  C   UNL A   1      37.769  31.435  30.796  1.00  0.00     0.009 A 
ATOM     74  C   UNL A   1      37.833  30.868  33.524  1.00  0.00     0.001 A 
ATOM     75  C   UNL A   1      36.718  31.846  31.618  1.00  0.00     0.001 A 
ATOM     76  C   UNL A   1      36.748  31.557  32.980  1.00  0.00     0.000 A 
ENDBRANCH  52  71
BRANCH  64  77
ATOM     77  C   UNL A   1      44.761  33.905  29.324  1.00  0.00    -0.014 A 
ATOM     78  C   UNL A   1      45.631  34.131  30.402  1.00  0.00     0.009 A 
ATOM     79  C   UNL A   1      44.453  34.971  28.463  1.00  0.00     0.009 A 
ATOM     80  C   UNL A   1      46.156  35.404  30.630  1.00  0.00     0.001 A 
ATOM     81  C   UNL A   1      45.002  36.236  28.676  1.00  0.00     0.001 A 
ATOM     82  C   UNL A   1      45.846  36.453  29.765  1.00  0.00     0.000 A 
ENDBRANCH  64  77
ENDBRANCH  38  39
ENDBRANCH  31  33
ENDBRANCH  30  31
ENDBRANCH  29  30
ENDBRANCH  28  29
ENDBRANCH   1  28
TORSDOF 17
ENDMDL
