MODEL 1
REMARK VINA RESULT:      -9.4      0.000      0.000
REMARK SMILES C[NH2+][C@@]1(C(=O)OCCOCCOC(=O)c2ccc(-c3c4nc(c(-c5ccccc5)c5ccc([nH]5)c(-c5ccccc5)c5nc(c(-c6ccccc6)c6ccc3[nH]6)C=C5)C=C4)cc2)CC[C@H]([NH+]2CC[NH+](C)CC2)C1
REMARK SMILES IDX 10 1 9 2 8 3 7 4 6 5 4 6 5 7 3 8 63 9 73 10 64 11 65 12 2 13
REMARK SMILES IDX 1 14 66 17 67 18 72 19 68 21 71 22 69 23 70 24 11 26 12 27
REMARK SMILES IDX 13 28 14 29 15 30 16 31 62 32 17 33 61 34 18 35 19 36 20 37
REMARK SMILES IDX 55 38 21 39 60 40 54 41 56 42 22 43 59 44 53 45 52 46 23 48
REMARK SMILES IDX 45 49 30 50 44 51 31 52 34 53 43 54 57 55 32 56 33 57 42 59
REMARK SMILES IDX 58 60 35 61 24 62 25 63 29 64 26 65 28 66 27 67 46 68 47 69
REMARK SMILES IDX 51 70 48 71 50 72 49 73 36 74 37 75 41 76 38 77 40 78 39 79
REMARK H PARENT 2 15 2 16 66 20 69 25 56 47 34 58
REMARK Flexibility Score: inf
ROOT
ATOM      1  C   UNL A   1      32.622  30.844  26.933  1.00  0.00     0.202 C 
ENDROOT
BRANCH   1   2
ATOM      2  O   UNL A   1      31.849  29.699  27.283  1.00  0.00    -0.374 OA
BRANCH   2   3
ATOM      3  C   UNL A   1      32.439  28.421  27.029  1.00  0.00     0.202 C 
BRANCH   3   4
ATOM      4  C   UNL A   1      33.774  28.471  26.279  1.00  0.00     0.261 C 
BRANCH   4   5
ATOM      5  O   UNL A   1      33.675  27.637  25.108  1.00  0.00    -0.459 OA
BRANCH   5   6
ATOM      6  C   UNL A   1      33.018  28.145  24.040  1.00  0.00     0.368 C 
ATOM      7  O   UNL A   1      33.102  29.320  23.694  1.00  0.00    -0.245 OA
BRANCH   6   8
ATOM      8  C   UNL A   1      32.172  27.064  23.271  1.00  0.00     0.200 C 
ATOM      9  C   UNL A   1      30.688  27.414  23.486  1.00  0.00     0.087 C 
ATOM     10  C   UNL A   1      32.247  25.603  23.772  1.00  0.00     0.146 C 
ATOM     11  C   UNL A   1      30.268  26.664  24.750  1.00  0.00     0.072 C 
ATOM     12  C   UNL A   1      31.105  25.382  24.788  1.00  0.00     0.191 C 
BRANCH   8  13
ATOM     13  N   UNL A   1      32.716  27.099  21.890  1.00  0.00    -0.334 N 
ATOM     14  C   UNL A   1      32.776  25.847  21.168  1.00  0.00     0.331 C 
ATOM     15  H   UNL A   1      32.133  27.736  21.347  1.00  0.00     0.347 HD
ATOM     16  H   UNL A   1      33.688  27.386  21.998  1.00  0.00     0.347 HD
ENDBRANCH   8  13
BRANCH  12  17
ATOM     17  N   UNL A   1      31.501  24.777  26.067  1.00  0.00    -0.323 N 
ATOM     18  C   UNL A   1      32.892  24.298  26.144  1.00  0.00     0.324 C 
ATOM     19  C   UNL A   1      30.642  23.731  26.627  1.00  0.00     0.324 C 
ATOM     20  H   UNL A   1      31.384  25.610  26.645  1.00  0.00     0.348 HD
ATOM     21  C   UNL A   1      33.143  22.867  25.597  1.00  0.00     0.324 C 
ATOM     22  C   UNL A   1      30.779  22.345  25.979  1.00  0.00     0.324 C 
ATOM     23  N   UNL A   1      32.160  21.842  26.008  1.00  0.00    -0.328 N 
ATOM     24  C   UNL A   1      32.276  20.651  25.166  1.00  0.00     0.333 C 
ATOM     25  H   UNL A   1      32.376  21.597  26.974  1.00  0.00     0.348 HD
ENDBRANCH  12  17
ENDBRANCH   6   8
ENDBRANCH   5   6
ENDBRANCH   4   5
ENDBRANCH   3   4
ENDBRANCH   2   3
ENDBRANCH   1   2
BRANCH   1  26
ATOM     26  C   UNL A   1      32.003  32.201  27.297  1.00  0.00     0.261 C 
BRANCH  26  27
ATOM     27  O   UNL A   1      32.901  33.308  27.096  1.00  0.00    -0.460 OA
BRANCH  27  28
ATOM     28  C   UNL A   1      33.154  34.048  28.200  1.00  0.00     0.338 C 
ATOM     29  O   UNL A   1      32.409  34.860  28.733  1.00  0.00    -0.246 OA
BRANCH  28  30
ATOM     30  C   UNL A   1      34.438  33.643  28.807  1.00  0.00     0.060 A 
ATOM     31  C   UNL A   1      35.613  33.951  28.112  1.00  0.00     0.016 A 
ATOM     32  C   UNL A   1      34.496  32.923  30.002  1.00  0.00     0.016 A 
ATOM     33  C   UNL A   1      36.846  33.498  28.584  1.00  0.00     0.010 A 
ATOM     34  C   UNL A   1      35.737  32.484  30.483  1.00  0.00     0.010 A 
ATOM     35  C   UNL A   1      36.916  32.729  29.754  1.00  0.00    -0.014 A 
BRANCH  35  36
ATOM     36  C   UNL A   1      38.189  32.050  30.117  1.00  0.00     0.031 A 
ATOM     37  C   UNL A   1      39.115  32.711  31.107  1.00  0.00     0.074 A 
ATOM     38  C   UNL A   1      38.510  30.843  29.617  1.00  0.00     0.049 A 
ATOM     39  N   UNL A   1      40.276  32.308  31.561  1.00  0.00    -0.248 NA
ATOM     40  C   UNL A   1      38.673  34.005  31.656  1.00  0.00     0.031 C 
ATOM     41  C   UNL A   1      37.699  30.069  28.679  1.00  0.00     0.029 A 
ATOM     42  N   UNL A   1      39.616  30.055  29.835  1.00  0.00    -0.354 N 
ATOM     43  C   UNL A   1      40.706  33.301  32.432  1.00  0.00     0.074 A 
ATOM     44  C   UNL A   1      39.704  34.343  32.415  1.00  0.00     0.031 C 
ATOM     45  C   UNL A   1      38.328  28.911  28.410  1.00  0.00     0.029 A 
ATOM     46  C   UNL A   1      39.605  28.880  29.123  1.00  0.00     0.049 A 
ATOM     47  H   UNL A   1      40.345  30.307  30.446  1.00  0.00     0.167 HD
ATOM     48  C   UNL A   1      41.830  33.343  33.189  1.00  0.00     0.031 A 
ATOM     49  C   UNL A   1      40.529  27.902  29.036  1.00  0.00     0.031 A 
ATOM     50  C   UNL A   1      42.837  32.315  33.209  1.00  0.00     0.049 A 
ATOM     51  C   UNL A   1      41.808  28.007  29.826  1.00  0.00     0.074 A 
ATOM     52  C   UNL A   1      43.997  32.263  33.962  1.00  0.00     0.029 A 
ATOM     53  N   UNL A   1      42.808  31.165  32.437  1.00  0.00    -0.354 N 
ATOM     54  N   UNL A   1      42.188  28.937  30.670  1.00  0.00    -0.248 NA
ATOM     55  C   UNL A   1      42.785  26.921  29.654  1.00  0.00     0.031 C 
ATOM     56  C   UNL A   1      44.704  31.113  33.596  1.00  0.00     0.029 A 
ATOM     57  C   UNL A   1      43.947  30.413  32.671  1.00  0.00     0.049 A 
ATOM     58  H   UNL A   1      42.085  30.919  31.816  1.00  0.00     0.167 HD
ATOM     59  C   UNL A   1      43.428  28.531  31.151  1.00  0.00     0.074 A 
ATOM     60  C   UNL A   1      43.730  27.264  30.519  1.00  0.00     0.031 C 
ATOM     61  C   UNL A   1      44.241  29.152  32.040  1.00  0.00     0.031 A 
BRANCH  48  62
ATOM     62  C   UNL A   1      42.047  34.566  34.038  1.00  0.00    -0.014 A 
ATOM     63  C   UNL A   1      41.651  34.605  35.384  1.00  0.00     0.009 A 
ATOM     64  C   UNL A   1      42.693  35.686  33.488  1.00  0.00     0.009 A 
ATOM     65  C   UNL A   1      41.862  35.754  36.151  1.00  0.00     0.001 A 
ATOM     66  C   UNL A   1      42.933  36.820  34.267  1.00  0.00     0.001 A 
ATOM     67  C   UNL A   1      42.508  36.856  35.593  1.00  0.00     0.000 A 
ENDBRANCH  48  62
BRANCH  49  68
ATOM     68  C   UNL A   1      40.296  26.731  28.144  1.00  0.00    -0.014 A 
ATOM     69  C   UNL A   1      39.604  25.602  28.607  1.00  0.00     0.009 A 
ATOM     70  C   UNL A   1      40.801  26.726  26.834  1.00  0.00     0.009 A 
ATOM     71  C   UNL A   1      39.448  24.481  27.786  1.00  0.00     0.001 A 
ATOM     72  C   UNL A   1      40.614  25.617  26.005  1.00  0.00     0.001 A 
ATOM     73  C   UNL A   1      39.949  24.492  26.485  1.00  0.00     0.000 A 
ENDBRANCH  49  68
BRANCH  61  74
ATOM     74  C   UNL A   1      45.520  28.454  32.423  1.00  0.00    -0.014 A 
ATOM     75  C   UNL A   1      46.726  28.706  31.750  1.00  0.00     0.009 A 
ATOM     76  C   UNL A   1      45.524  27.562  33.507  1.00  0.00     0.009 A 
ATOM     77  C   UNL A   1      47.900  28.052  32.134  1.00  0.00     0.001 A 
ATOM     78  C   UNL A   1      46.705  26.935  33.911  1.00  0.00     0.001 A 
ATOM     79  C   UNL A   1      47.890  27.173  33.217  1.00  0.00     0.000 A 
ENDBRANCH  61  74
ENDBRANCH  35  36
ENDBRANCH  28  30
ENDBRANCH  27  28
ENDBRANCH  26  27
ENDBRANCH   1  26
TORSDOF 16
ENDMDL
MODEL 2
REMARK VINA RESULT:      -9.4      2.229      3.553
REMARK SMILES C[NH2+][C@@]1(C(=O)OCCOCCOC(=O)c2ccc(-c3c4nc(c(-c5ccccc5)c5ccc([nH]5)c(-c5ccccc5)c5nc(c(-c6ccccc6)c6ccc3[nH]6)C=C5)C=C4)cc2)CC[C@H]([NH+]2CC[NH+](C)CC2)C1
REMARK SMILES IDX 10 1 9 2 8 3 7 4 6 5 4 6 5 7 3 8 63 9 73 10 64 11 65 12 2 13
REMARK SMILES IDX 1 14 66 17 67 18 72 19 68 21 71 22 69 23 70 24 11 26 12 27
REMARK SMILES IDX 13 28 14 29 15 30 16 31 62 32 17 33 61 34 18 35 19 36 20 37
REMARK SMILES IDX 55 38 21 39 60 40 54 41 56 42 22 43 59 44 53 45 52 46 23 48
REMARK SMILES IDX 45 49 30 50 44 51 31 52 34 53 43 54 57 55 32 56 33 57 42 59
REMARK SMILES IDX 58 60 35 61 24 62 25 63 29 64 26 65 28 66 27 67 46 68 47 69
REMARK SMILES IDX 51 70 48 71 50 72 49 73 36 74 37 75 41 76 38 77 40 78 39 79
REMARK H PARENT 2 15 2 16 66 20 69 25 56 47 34 58
REMARK Flexibility Score: inf
ROOT
ATOM      1  C   UNL A   1      31.869  29.917  25.675  1.00  0.00     0.202 C 
ENDROOT
BRANCH   1   2
ATOM      2  O   UNL A   1      31.494  28.643  25.157  1.00  0.00    -0.374 OA
BRANCH   2   3
ATOM      3  C   UNL A   1      30.868  28.629  23.871  1.00  0.00     0.202 C 
BRANCH   3   4
ATOM      4  C   UNL A   1      30.300  27.270  23.451  1.00  0.00     0.261 C 
BRANCH   4   5
ATOM      5  O   UNL A   1      30.212  26.429  24.618  1.00  0.00    -0.459 OA
BRANCH   5   6
ATOM      6  C   UNL A   1      30.529  25.123  24.465  1.00  0.00     0.368 C 
ATOM      7  O   UNL A   1      30.390  24.516  23.407  1.00  0.00    -0.245 OA
BRANCH   6   8
ATOM      8  C   UNL A   1      31.129  24.482  25.770  1.00  0.00     0.200 C 
ATOM      9  C   UNL A   1      32.230  25.433  26.277  1.00  0.00     0.087 C 
ATOM     10  C   UNL A   1      31.886  23.140  25.630  1.00  0.00     0.146 C 
ATOM     11  C   UNL A   1      33.520  24.964  25.602  1.00  0.00     0.072 C 
ATOM     12  C   UNL A   1      33.384  23.450  25.419  1.00  0.00     0.191 C 
BRANCH   8  13
ATOM     13  N   UNL A   1      29.944  24.247  26.633  1.00  0.00    -0.334 N 
ATOM     14  C   UNL A   1      29.703  22.892  27.076  1.00  0.00     0.331 C 
ATOM     15  H   UNL A   1      30.051  24.827  27.466  1.00  0.00     0.347 HD
ATOM     16  H   UNL A   1      29.142  24.478  26.045  1.00  0.00     0.347 HD
ENDBRANCH   8  13
BRANCH  12  17
ATOM     17  N   UNL A   1      34.019  22.768  24.284  1.00  0.00    -0.323 N 
ATOM     18  C   UNL A   1      34.406  21.365  24.516  1.00  0.00     0.324 C 
ATOM     19  C   UNL A   1      35.145  23.434  23.625  1.00  0.00     0.324 C 
ATOM     20  H   UNL A   1      33.223  22.812  23.646  1.00  0.00     0.348 HD
ATOM     21  C   UNL A   1      35.790  21.150  25.185  1.00  0.00     0.324 C 
ATOM     22  C   UNL A   1      36.488  23.353  24.369  1.00  0.00     0.324 C 
ATOM     23  N   UNL A   1      36.897  21.968  24.647  1.00  0.00    -0.328 N 
ATOM     24  C   UNL A   1      38.037  21.958  25.564  1.00  0.00     0.333 C 
ATOM     25  H   UNL A   1      37.171  21.546  23.760  1.00  0.00     0.348 HD
ENDBRANCH  12  17
ENDBRANCH   6   8
ENDBRANCH   5   6
ENDBRANCH   4   5
ENDBRANCH   3   4
ENDBRANCH   2   3
ENDBRANCH   1   2
BRANCH   1  26
ATOM     26  C   UNL A   1      32.596  29.896  27.027  1.00  0.00     0.261 C 
BRANCH  26  27
ATOM     27  O   UNL A   1      34.016  30.100  26.913  1.00  0.00    -0.460 OA
BRANCH  27  28
ATOM     28  C   UNL A   1      34.508  31.128  27.643  1.00  0.00     0.338 C 
ATOM     29  O   UNL A   1      34.001  32.231  27.801  1.00  0.00    -0.246 OA
BRANCH  28  30
ATOM     30  C   UNL A   1      35.712  30.703  28.382  1.00  0.00     0.060 A 
ATOM     31  C   UNL A   1      36.922  31.340  28.080  1.00  0.00     0.016 A 
ATOM     32  C   UNL A   1      35.680  29.662  29.314  1.00  0.00     0.016 A 
ATOM     33  C   UNL A   1      38.109  30.906  28.669  1.00  0.00     0.010 A 
ATOM     34  C   UNL A   1      36.871  29.240  29.917  1.00  0.00     0.010 A 
ATOM     35  C   UNL A   1      38.101  29.827  29.566  1.00  0.00    -0.014 A 
BRANCH  35  36
ATOM     36  C   UNL A   1      39.386  29.218  30.001  1.00  0.00     0.031 A 
ATOM     37  C   UNL A   1      40.079  29.762  31.225  1.00  0.00     0.074 A 
ATOM     38  C   UNL A   1      39.921  28.165  29.352  1.00  0.00     0.049 A 
ATOM     39  N   UNL A   1      41.207  29.393  31.778  1.00  0.00    -0.248 NA
ATOM     40  C   UNL A   1      39.409  30.877  31.915  1.00  0.00     0.031 C 
ATOM     41  C   UNL A   1      39.348  27.511  28.177  1.00  0.00     0.029 A 
ATOM     42  N   UNL A   1      41.075  27.460  29.601  1.00  0.00    -0.354 N 
ATOM     43  C   UNL A   1      41.388  30.237  32.867  1.00  0.00     0.074 A 
ATOM     44  C   UNL A   1      40.276  31.161  32.875  1.00  0.00     0.031 C 
ATOM     45  C   UNL A   1      40.147  26.493  27.812  1.00  0.00     0.029 A 
ATOM     46  C   UNL A   1      41.308  26.449  28.700  1.00  0.00     0.049 A 
ATOM     47  H   UNL A   1      41.677  27.660  30.354  1.00  0.00     0.167 HD
ATOM     48  C   UNL A   1      42.384  30.241  33.787  1.00  0.00     0.031 A 
ATOM     49  C   UNL A   1      42.349  25.599  28.590  1.00  0.00     0.031 A 
ATOM     50  C   UNL A   1      43.497  29.330  33.785  1.00  0.00     0.049 A 
ATOM     51  C   UNL A   1      43.485  25.674  29.578  1.00  0.00     0.074 A 
ATOM     52  C   UNL A   1      44.542  29.246  34.690  1.00  0.00     0.029 A 
ATOM     53  N   UNL A   1      43.718  28.352  32.828  1.00  0.00    -0.354 N 
ATOM     54  N   UNL A   1      43.627  26.456  30.621  1.00  0.00    -0.248 NA
ATOM     55  C   UNL A   1      44.603  24.740  29.374  1.00  0.00     0.031 C 
ATOM     56  C   UNL A   1      45.428  28.261  34.244  1.00  0.00     0.029 A 
ATOM     57  C   UNL A   1      44.898  27.683  33.103  1.00  0.00     0.049 A 
ATOM     58  H   UNL A   1      43.123  28.162  32.067  1.00  0.00     0.167 HD
ATOM     59  C   UNL A   1      44.830  26.087  31.213  1.00  0.00     0.074 A 
ATOM     60  C   UNL A   1      45.370  25.000  30.424  1.00  0.00     0.031 C 
ATOM     61  C   UNL A   1      45.430  26.600  32.314  1.00  0.00     0.031 A 
BRANCH  48  62
ATOM     62  C   UNL A   1      42.329  31.293  34.861  1.00  0.00    -0.014 A 
ATOM     63  C   UNL A   1      41.696  31.054  36.091  1.00  0.00     0.009 A 
ATOM     64  C   UNL A   1      42.954  32.533  34.649  1.00  0.00     0.009 A 
ATOM     65  C   UNL A   1      41.657  32.049  37.071  1.00  0.00     0.001 A 
ATOM     66  C   UNL A   1      42.943  33.512  35.644  1.00  0.00     0.001 A 
ATOM     67  C   UNL A   1      42.286  33.273  36.849  1.00  0.00     0.000 A 
ENDBRANCH  48  62
BRANCH  49  68
ATOM     68  C   UNL A   1      42.388  24.605  27.481  1.00  0.00    -0.014 A 
ATOM     69  C   UNL A   1      41.805  23.338  27.632  1.00  0.00     0.009 A 
ATOM     70  C   UNL A   1      43.043  24.910  26.277  1.00  0.00     0.009 A 
ATOM     71  C   UNL A   1      41.904  22.387  26.612  1.00  0.00     0.001 A 
ATOM     72  C   UNL A   1      43.111  23.969  25.248  1.00  0.00     0.001 A 
ATOM     73  C   UNL A   1      42.552  22.705  25.419  1.00  0.00     0.000 A 
ENDBRANCH  49  68
BRANCH  61  74
ATOM     74  C   UNL A   1      46.721  25.969  32.766  1.00  0.00    -0.014 A 
ATOM     75  C   UNL A   1      47.966  26.435  32.313  1.00  0.00     0.009 A 
ATOM     76  C   UNL A   1      46.689  24.918  33.696  1.00  0.00     0.009 A 
ATOM     77  C   UNL A   1      49.149  25.836  32.757  1.00  0.00     0.001 A 
ATOM     78  C   UNL A   1      47.873  24.344  34.164  1.00  0.00     0.001 A 
ATOM     79  C   UNL A   1      49.101  24.796  33.686  1.00  0.00     0.000 A 
ENDBRANCH  61  74
ENDBRANCH  35  36
ENDBRANCH  28  30
ENDBRANCH  27  28
ENDBRANCH  26  27
ENDBRANCH   1  26
TORSDOF 16
ENDMDL
MODEL 3
REMARK VINA RESULT:      -9.4      2.539      3.740
REMARK SMILES C[NH2+][C@@]1(C(=O)OCCOCCOC(=O)c2ccc(-c3c4nc(c(-c5ccccc5)c5ccc([nH]5)c(-c5ccccc5)c5nc(c(-c6ccccc6)c6ccc3[nH]6)C=C5)C=C4)cc2)CC[C@H]([NH+]2CC[NH+](C)CC2)C1
REMARK SMILES IDX 10 1 9 2 8 3 7 4 6 5 4 6 5 7 3 8 63 9 73 10 64 11 65 12 2 13
REMARK SMILES IDX 1 14 66 17 67 18 72 19 68 21 71 22 69 23 70 24 11 26 12 27
REMARK SMILES IDX 13 28 14 29 15 30 16 31 62 32 17 33 61 34 18 35 19 36 20 37
REMARK SMILES IDX 55 38 21 39 60 40 54 41 56 42 22 43 59 44 53 45 52 46 23 48
REMARK SMILES IDX 45 49 30 50 44 51 31 52 34 53 43 54 57 55 32 56 33 57 42 59
REMARK SMILES IDX 58 60 35 61 24 62 25 63 29 64 26 65 28 66 27 67 46 68 47 69
REMARK SMILES IDX 51 70 48 71 50 72 49 73 36 74 37 75 41 76 38 77 40 78 39 79
REMARK H PARENT 2 15 2 16 66 20 69 25 56 47 34 58
REMARK Flexibility Score: inf
ROOT
ATOM      1  C   UNL A   1      31.732  29.004  26.751  1.00  0.00     0.202 C 
ENDROOT
BRANCH   1   2
ATOM      2  O   UNL A   1      32.011  28.401  25.490  1.00  0.00    -0.374 OA
BRANCH   2   3
ATOM      3  C   UNL A   1      31.034  28.577  24.461  1.00  0.00     0.202 C 
BRANCH   3   4
ATOM      4  C   UNL A   1      30.551  27.277  23.809  1.00  0.00     0.261 C 
BRANCH   4   5
ATOM      5  O   UNL A   1      30.193  26.347  24.850  1.00  0.00    -0.459 OA
BRANCH   5   6
ATOM      6  C   UNL A   1      30.444  25.037  24.623  1.00  0.00     0.368 C 
ATOM      7  O   UNL A   1      30.292  24.503  23.528  1.00  0.00    -0.245 OA
BRANCH   6   8
ATOM      8  C   UNL A   1      30.986  24.288  25.896  1.00  0.00     0.200 C 
ATOM      9  C   UNL A   1      32.147  25.130  26.456  1.00  0.00     0.087 C 
ATOM     10  C   UNL A   1      31.645  22.904  25.690  1.00  0.00     0.146 C 
ATOM     11  C   UNL A   1      33.406  24.605  25.764  1.00  0.00     0.072 C 
ATOM     12  C   UNL A   1      33.163  23.116  25.502  1.00  0.00     0.191 C 
BRANCH   8  13
ATOM     13  N   UNL A   1      29.779  24.096  26.740  1.00  0.00    -0.334 N 
ATOM     14  C   UNL A   1      29.527  22.764  27.245  1.00  0.00     0.331 C 
ATOM     15  H   UNL A   1      29.866  24.716  27.545  1.00  0.00     0.347 HD
ATOM     16  H   UNL A   1      28.992  24.295  26.122  1.00  0.00     0.347 HD
ENDBRANCH   8  13
BRANCH  12  17
ATOM     17  N   UNL A   1      33.756  22.449  24.335  1.00  0.00    -0.323 N 
ATOM     18  C   UNL A   1      34.212  21.065  24.553  1.00  0.00     0.324 C 
ATOM     19  C   UNL A   1      34.815  23.152  23.608  1.00  0.00     0.324 C 
ATOM     20  H   UNL A   1      32.924  22.456  23.745  1.00  0.00     0.348 HD
ATOM     21  C   UNL A   1      35.640  20.909  25.141  1.00  0.00     0.324 C 
ATOM     22  C   UNL A   1      36.202  23.130  24.271  1.00  0.00     0.324 C 
ATOM     23  N   UNL A   1      36.680  21.765  24.533  1.00  0.00    -0.328 N 
ATOM     24  C   UNL A   1      37.872  21.808  25.382  1.00  0.00     0.333 C 
ATOM     25  H   UNL A   1      36.919  21.346  23.635  1.00  0.00     0.348 HD
ENDBRANCH  12  17
ENDBRANCH   6   8
ENDBRANCH   5   6
ENDBRANCH   4   5
ENDBRANCH   3   4
ENDBRANCH   2   3
ENDBRANCH   1   2
BRANCH   1  26
ATOM     26  C   UNL A   1      31.934  30.524  26.820  1.00  0.00     0.261 C 
BRANCH  26  27
ATOM     27  O   UNL A   1      33.285  30.933  26.541  1.00  0.00    -0.460 OA
BRANCH  27  28
ATOM     28  C   UNL A   1      33.823  31.788  27.440  1.00  0.00     0.338 C 
ATOM     29  O   UNL A   1      33.294  32.780  27.926  1.00  0.00    -0.246 OA
BRANCH  28  30
ATOM     30  C   UNL A   1      35.132  31.288  27.905  1.00  0.00     0.060 A 
ATOM     31  C   UNL A   1      35.267  29.910  28.110  1.00  0.00     0.016 A 
ATOM     32  C   UNL A   1      36.193  32.150  28.194  1.00  0.00     0.016 A 
ATOM     33  C   UNL A   1      36.446  29.395  28.652  1.00  0.00     0.010 A 
ATOM     34  C   UNL A   1      37.382  31.627  28.721  1.00  0.00     0.010 A 
ATOM     35  C   UNL A   1      37.500  30.252  28.996  1.00  0.00    -0.014 A 
BRANCH  35  36
ATOM     36  C   UNL A   1      38.647  29.732  29.789  1.00  0.00     0.031 A 
ATOM     37  C   UNL A   1      38.790  30.150  31.231  1.00  0.00     0.074 A 
ATOM     38  C   UNL A   1      39.532  28.866  29.261  1.00  0.00     0.049 A 
ATOM     39  N   UNL A   1      39.712  29.829  32.104  1.00  0.00    -0.248 NA
ATOM     40  C   UNL A   1      37.755  31.055  31.757  1.00  0.00     0.031 C 
ATOM     41  C   UNL A   1      39.501  28.347  27.894  1.00  0.00     0.029 A 
ATOM     42  N   UNL A   1      40.635  28.268  29.823  1.00  0.00    -0.354 N 
ATOM     43  C   UNL A   1      39.377  30.502  33.272  1.00  0.00     0.074 A 
ATOM     44  C   UNL A   1      38.191  31.279  32.987  1.00  0.00     0.031 C 
ATOM     45  C   UNL A   1      40.532  27.499  27.727  1.00  0.00     0.029 A 
ATOM     46  C   UNL A   1      41.318  27.448  28.958  1.00  0.00     0.049 A 
ATOM     47  H   UNL A   1      40.908  28.412  30.758  1.00  0.00     0.167 HD
ATOM     48  C   UNL A   1      39.992  30.474  34.480  1.00  0.00     0.031 A 
ATOM     49  C   UNL A   1      42.461  26.752  29.131  1.00  0.00     0.031 A 
ATOM     50  C   UNL A   1      41.175  29.709  34.773  1.00  0.00     0.049 A 
ATOM     51  C   UNL A   1      43.171  26.798  30.460  1.00  0.00     0.074 A 
ATOM     52  C   UNL A   1      41.854  29.602  35.974  1.00  0.00     0.029 A 
ATOM     53  N   UNL A   1      41.860  28.929  33.855  1.00  0.00    -0.354 N 
ATOM     54  N   UNL A   1      42.825  27.413  31.565  1.00  0.00    -0.248 NA
ATOM     55  C   UNL A   1      44.430  26.043  30.565  1.00  0.00     0.031 C 
ATOM     56  C   UNL A   1      42.988  28.810  35.766  1.00  0.00     0.029 A 
ATOM     57  C   UNL A   1      42.973  28.364  34.455  1.00  0.00     0.049 A 
ATOM     58  H   UNL A   1      41.594  28.796  32.916  1.00  0.00     0.167 HD
ATOM     59  C   UNL A   1      43.804  27.095  32.500  1.00  0.00     0.074 A 
ATOM     60  C   UNL A   1      44.748  26.218  31.840  1.00  0.00     0.031 C 
ATOM     61  C   UNL A   1      43.908  27.491  33.793  1.00  0.00     0.031 A 
BRANCH  48  62
ATOM     62  C   UNL A   1      39.409  31.327  35.573  1.00  0.00    -0.014 A 
ATOM     63  C   UNL A   1      39.873  32.629  35.815  1.00  0.00     0.009 A 
ATOM     64  C   UNL A   1      38.350  30.829  36.352  1.00  0.00     0.009 A 
ATOM     65  C   UNL A   1      39.317  33.400  36.838  1.00  0.00     0.001 A 
ATOM     66  C   UNL A   1      37.773  31.615  37.350  1.00  0.00     0.001 A 
ATOM     67  C   UNL A   1      38.264  32.895  37.599  1.00  0.00     0.000 A 
ENDBRANCH  48  62
BRANCH  49  68
ATOM     68  C   UNL A   1      43.031  25.959  28.006  1.00  0.00    -0.014 A 
ATOM     69  C   UNL A   1      43.901  26.551  27.078  1.00  0.00     0.009 A 
ATOM     70  C   UNL A   1      42.675  24.612  27.836  1.00  0.00     0.009 A 
ATOM     71  C   UNL A   1      44.379  25.819  25.988  1.00  0.00     0.001 A 
ATOM     72  C   UNL A   1      43.181  23.873  26.764  1.00  0.00     0.001 A 
ATOM     73  C   UNL A   1      44.023  24.479  25.835  1.00  0.00     0.000 A 
ENDBRANCH  49  68
BRANCH  61  74
ATOM     74  C   UNL A   1      45.058  26.948  34.600  1.00  0.00    -0.014 A 
ATOM     75  C   UNL A   1      46.279  27.634  34.693  1.00  0.00     0.009 A 
ATOM     76  C   UNL A   1      44.897  25.751  35.315  1.00  0.00     0.009 A 
ATOM     77  C   UNL A   1      47.326  27.111  35.459  1.00  0.00     0.001 A 
ATOM     78  C   UNL A   1      45.932  25.248  36.107  1.00  0.00     0.001 A 
ATOM     79  C   UNL A   1      47.149  25.923  36.169  1.00  0.00     0.000 A 
ENDBRANCH  61  74
ENDBRANCH  35  36
ENDBRANCH  28  30
ENDBRANCH  27  28
ENDBRANCH  26  27
ENDBRANCH   1  26
TORSDOF 16
ENDMDL
