MODEL 1
REMARK VINA RESULT:      -9.8      0.000      0.000
REMARK SMILES CC(C)[NH2+][C@]1(C(=O)OCCOCCOC(=O)c2ccc(-c3c4nc(c(-c5ccccc5)c5ccc([nH]5)c(-c5ccccc5)c5nc(c(-c6ccccc6)c6ccc3[nH]6)C=C5)C=C4)cc2)CCC[C@@H](Sc2ccc(Cl)cc2)C1
REMARK SMILES IDX 11 1 10 2 9 3 8 4 6 5 7 6 5 7 65 8 77 9 66 10 68 11 67 12
REMARK SMILES IDX 4 13 2 16 1 17 3 18 69 19 70 20 71 21 76 22 72 23 75 24
REMARK SMILES IDX 73 25 74 26 12 27 13 28 14 29 15 30 16 31 17 32 18 33 64 34
REMARK SMILES IDX 19 35 63 36 20 37 21 38 22 39 57 40 23 41 62 42 56 43 58 44
REMARK SMILES IDX 24 45 61 46 55 47 54 48 25 50 47 51 32 52 46 53 33 54 36 55
REMARK SMILES IDX 45 56 59 57 34 58 35 59 44 61 60 62 37 63 26 64 27 65 31 66
REMARK SMILES IDX 28 67 30 68 29 69 48 70 49 71 53 72 50 73 52 74 51 75 38 76
REMARK SMILES IDX 39 77 43 78 40 79 42 80 41 81
REMARK H PARENT 4 14 4 15 58 49 36 60
REMARK Flexibility Score: inf
ROOT
ATOM      1  O   UNL A   1      31.585  29.065  25.950  1.00  0.00    -0.374 OA
ENDROOT
BRANCH   1   2
ATOM      2  C   UNL A   1      31.064  29.264  24.640  1.00  0.00     0.202 C 
BRANCH   2   3
ATOM      3  C   UNL A   1      31.755  28.496  23.511  1.00  0.00     0.261 C 
BRANCH   3   4
ATOM      4  O   UNL A   1      31.891  27.094  23.792  1.00  0.00    -0.459 OA
BRANCH   4   5
ATOM      5  C   UNL A   1      33.170  26.666  23.970  1.00  0.00     0.368 C 
ATOM      6  O   UNL A   1      34.165  27.317  23.657  1.00  0.00    -0.245 OA
BRANCH   5   7
ATOM      7  C   UNL A   1      33.290  25.196  24.510  1.00  0.00     0.195 C 
ATOM      8  C   UNL A   1      32.469  25.216  25.829  1.00  0.00     0.081 C 
ATOM      9  C   UNL A   1      32.643  24.155  23.549  1.00  0.00     0.096 C 
ATOM     10  C   UNL A   1      32.202  23.861  26.475  1.00  0.00     0.008 C 
ATOM     11  C   UNL A   1      32.437  22.775  24.198  1.00  0.00     0.058 C 
ATOM     12  C   UNL A   1      31.614  22.865  25.486  1.00  0.00     0.015 C 
BRANCH   7  13
ATOM     13  N   UNL A   1      34.760  24.978  24.575  1.00  0.00    -0.330 N 
ATOM     14  H   UNL A   1      35.126  25.261  23.666  1.00  0.00     0.347 HD
ATOM     15  H   UNL A   1      35.010  25.510  25.410  1.00  0.00     0.347 HD
BRANCH  13  16
ATOM     16  C   UNL A   1      35.359  23.683  24.864  1.00  0.00     0.176 C 
ATOM     17  C   UNL A   1      36.144  23.291  23.605  1.00  0.00     0.075 C 
ATOM     18  C   UNL A   1      36.335  23.721  26.044  1.00  0.00     0.075 C 
ENDBRANCH  13  16
ENDBRANCH   7  13
BRANCH  11  19
ATOM     19  S   UNL A   1      31.778  21.537  22.985  1.00  0.00    -0.122 SA
BRANCH  19  20
ATOM     20  C   UNL A   1      32.627  20.033  23.424  1.00  0.00     0.008 A 
ATOM     21  C   UNL A   1      32.265  18.822  22.819  1.00  0.00     0.016 A 
ATOM     22  C   UNL A   1      33.615  20.037  24.411  1.00  0.00     0.016 A 
ATOM     23  C   UNL A   1      32.913  17.634  23.169  1.00  0.00     0.021 A 
ATOM     24  C   UNL A   1      34.258  18.848  24.768  1.00  0.00     0.021 A 
ATOM     25  C   UNL A   1      33.911  17.653  24.140  1.00  0.00     0.041 A 
ATOM     26  Cl  UNL A   1      34.717  16.195  24.570  1.00  0.00    -0.084 Cl
ENDBRANCH  19  20
ENDBRANCH  11  19
ENDBRANCH   5   7
ENDBRANCH   4   5
ENDBRANCH   3   4
ENDBRANCH   2   3
ENDBRANCH   1   2
BRANCH   1  27
ATOM     27  C   UNL A   1      32.892  29.569  26.225  1.00  0.00     0.202 C 
BRANCH  27  28
ATOM     28  C   UNL A   1      32.978  30.689  27.266  1.00  0.00     0.261 C 
BRANCH  28  29
ATOM     29  O   UNL A   1      34.282  31.306  27.282  1.00  0.00    -0.460 OA
BRANCH  29  30
ATOM     30  C   UNL A   1      34.850  31.387  28.508  1.00  0.00     0.338 C 
ATOM     31  O   UNL A   1      34.388  31.939  29.500  1.00  0.00    -0.246 OA
BRANCH  30  32
ATOM     32  C   UNL A   1      36.064  30.558  28.576  1.00  0.00     0.060 A 
ATOM     33  C   UNL A   1      36.414  30.020  29.823  1.00  0.00     0.016 A 
ATOM     34  C   UNL A   1      36.913  30.410  27.479  1.00  0.00     0.016 A 
ATOM     35  C   UNL A   1      37.636  29.371  29.988  1.00  0.00     0.010 A 
ATOM     36  C   UNL A   1      38.147  29.769  27.650  1.00  0.00     0.010 A 
ATOM     37  C   UNL A   1      38.529  29.278  28.912  1.00  0.00    -0.014 A 
BRANCH  37  38
ATOM     38  C   UNL A   1      39.910  28.787  29.147  1.00  0.00     0.031 A 
ATOM     39  C   UNL A   1      40.907  29.686  29.826  1.00  0.00     0.074 A 
ATOM     40  C   UNL A   1      40.270  27.540  28.792  1.00  0.00     0.049 A 
ATOM     41  N   UNL A   1      42.165  29.461  30.114  1.00  0.00    -0.248 NA
ATOM     42  C   UNL A   1      40.421  31.012  30.241  1.00  0.00     0.031 C 
ATOM     43  C   UNL A   1      39.391  26.549  28.174  1.00  0.00     0.029 A 
ATOM     44  N   UNL A   1      41.479  26.899  28.903  1.00  0.00    -0.354 N 
ATOM     45  C   UNL A   1      42.621  30.615  30.741  1.00  0.00     0.074 A 
ATOM     46  C   UNL A   1      41.513  31.546  30.770  1.00  0.00     0.031 C 
ATOM     47  C   UNL A   1      40.093  25.425  27.952  1.00  0.00     0.029 A 
ATOM     48  C   UNL A   1      41.475  25.628  28.384  1.00  0.00     0.049 A 
ATOM     49  H   UNL A   1      42.271  27.310  29.316  1.00  0.00     0.167 HD
ATOM     50  C   UNL A   1      43.848  30.877  31.248  1.00  0.00     0.031 A 
ATOM     51  C   UNL A   1      42.477  24.737  28.250  1.00  0.00     0.031 A 
ATOM     52  C   UNL A   1      44.959  29.965  31.209  1.00  0.00     0.049 A 
ATOM     53  C   UNL A   1      43.857  25.088  28.734  1.00  0.00     0.074 A 
ATOM     54  C   UNL A   1      46.236  30.139  31.715  1.00  0.00     0.029 A 
ATOM     55  N   UNL A   1      44.929  28.711  30.621  1.00  0.00    -0.354 N 
ATOM     56  N   UNL A   1      44.267  26.173  29.346  1.00  0.00    -0.248 NA
ATOM     57  C   UNL A   1      44.914  24.090  28.508  1.00  0.00     0.031 C 
ATOM     58  C   UNL A   1      46.994  29.010  31.385  1.00  0.00     0.029 A 
ATOM     59  C   UNL A   1      46.174  28.114  30.720  1.00  0.00     0.049 A 
ATOM     60  H   UNL A   1      44.139  28.306  30.195  1.00  0.00     0.167 HD
ATOM     61  C   UNL A   1      45.620  25.979  29.596  1.00  0.00     0.074 A 
ATOM     62  C   UNL A   1      45.961  24.669  29.082  1.00  0.00     0.031 C 
ATOM     63  C   UNL A   1      46.502  26.812  30.200  1.00  0.00     0.031 A 
BRANCH  50  64
ATOM     64  C   UNL A   1      44.065  32.230  31.864  1.00  0.00    -0.014 A 
ATOM     65  C   UNL A   1      44.493  33.321  31.092  1.00  0.00     0.009 A 
ATOM     66  C   UNL A   1      43.801  32.423  33.229  1.00  0.00     0.009 A 
ATOM     67  C   UNL A   1      44.680  34.573  31.682  1.00  0.00     0.001 A 
ATOM     68  C   UNL A   1      43.967  33.680  33.811  1.00  0.00     0.001 A 
ATOM     69  C   UNL A   1      44.413  34.752  33.039  1.00  0.00     0.000 A 
ENDBRANCH  50  64
BRANCH  51  70
ATOM     70  C   UNL A   1      42.223  23.428  27.595  1.00  0.00    -0.014 A 
ATOM     71  C   UNL A   1      41.825  22.315  28.350  1.00  0.00     0.009 A 
ATOM     72  C   UNL A   1      42.397  23.284  26.210  1.00  0.00     0.009 A 
ATOM     73  C   UNL A   1      41.626  21.078  27.731  1.00  0.00     0.001 A 
ATOM     74  C   UNL A   1      42.174  22.052  25.591  1.00  0.00     0.001 A 
ATOM     75  C   UNL A   1      41.797  20.948  26.353  1.00  0.00     0.000 A 
ENDBRANCH  51  70
BRANCH  63  76
ATOM     76  C   UNL A   1      47.914  26.326  30.362  1.00  0.00    -0.014 A 
ATOM     77  C   UNL A   1      48.344  25.735  31.560  1.00  0.00     0.009 A 
ATOM     78  C   UNL A   1      48.810  26.417  29.286  1.00  0.00     0.009 A 
ATOM     79  C   UNL A   1      49.655  25.268  31.684  1.00  0.00     0.001 A 
ATOM     80  C   UNL A   1      50.111  25.926  29.404  1.00  0.00     0.001 A 
ATOM     81  C   UNL A   1      50.535  25.359  30.605  1.00  0.00     0.000 A 
ENDBRANCH  63  76
ENDBRANCH  37  38
ENDBRANCH  30  32
ENDBRANCH  29  30
ENDBRANCH  28  29
ENDBRANCH  27  28
ENDBRANCH   1  27
TORSDOF 18
ENDMDL
MODEL 2
REMARK VINA RESULT:      -9.8      2.019      2.938
REMARK SMILES CC(C)[NH2+][C@]1(C(=O)OCCOCCOC(=O)c2ccc(-c3c4nc(c(-c5ccccc5)c5ccc([nH]5)c(-c5ccccc5)c5nc(c(-c6ccccc6)c6ccc3[nH]6)C=C5)C=C4)cc2)CCC[C@@H](Sc2ccc(Cl)cc2)C1
REMARK SMILES IDX 11 1 10 2 9 3 8 4 6 5 7 6 5 7 65 8 77 9 66 10 68 11 67 12
REMARK SMILES IDX 4 13 2 16 1 17 3 18 69 19 70 20 71 21 76 22 72 23 75 24
REMARK SMILES IDX 73 25 74 26 12 27 13 28 14 29 15 30 16 31 17 32 18 33 64 34
REMARK SMILES IDX 19 35 63 36 20 37 21 38 22 39 57 40 23 41 62 42 56 43 58 44
REMARK SMILES IDX 24 45 61 46 55 47 54 48 25 50 47 51 32 52 46 53 33 54 36 55
REMARK SMILES IDX 45 56 59 57 34 58 35 59 44 61 60 62 37 63 26 64 27 65 31 66
REMARK SMILES IDX 28 67 30 68 29 69 48 70 49 71 53 72 50 73 52 74 51 75 38 76
REMARK SMILES IDX 39 77 43 78 40 79 42 80 41 81
REMARK H PARENT 4 14 4 15 58 49 36 60
REMARK Flexibility Score: inf
ROOT
ATOM      1  O   UNL A   1      34.533  31.146  27.326  1.00  0.00    -0.374 OA
ENDROOT
BRANCH   1   2
ATOM      2  C   UNL A   1      33.845  29.908  27.175  1.00  0.00     0.202 C 
BRANCH   2   3
ATOM      3  C   UNL A   1      32.359  29.996  26.822  1.00  0.00     0.261 C 
BRANCH   3   4
ATOM      4  O   UNL A   1      31.934  28.950  25.933  1.00  0.00    -0.459 OA
BRANCH   4   5
ATOM      5  C   UNL A   1      31.682  27.755  26.532  1.00  0.00     0.368 C 
ATOM      6  O   UNL A   1      31.183  27.635  27.650  1.00  0.00    -0.245 OA
BRANCH   5   7
ATOM      7  C   UNL A   1      32.192  26.508  25.726  1.00  0.00     0.195 C 
ATOM      8  C   UNL A   1      33.711  26.778  25.544  1.00  0.00     0.081 C 
ATOM      9  C   UNL A   1      32.025  25.178  26.519  1.00  0.00     0.096 C 
ATOM     10  C   UNL A   1      34.538  25.621  24.993  1.00  0.00     0.008 C 
ATOM     11  C   UNL A   1      32.817  24.006  25.914  1.00  0.00     0.058 C 
ATOM     12  C   UNL A   1      34.306  24.334  25.771  1.00  0.00     0.015 C 
BRANCH   7  13
ATOM     13  N   UNL A   1      31.310  26.496  24.528  1.00  0.00    -0.330 N 
ATOM     14  H   UNL A   1      30.906  27.430  24.467  1.00  0.00     0.347 HD
ATOM     15  H   UNL A   1      31.952  26.172  23.803  1.00  0.00     0.347 HD
BRANCH  13  16
ATOM     16  C   UNL A   1      30.199  25.567  24.369  1.00  0.00     0.176 C 
ATOM     17  C   UNL A   1      28.963  26.433  24.090  1.00  0.00     0.075 C 
ATOM     18  C   UNL A   1      30.384  24.604  23.193  1.00  0.00     0.075 C 
ENDBRANCH  13  16
ENDBRANCH   7  13
BRANCH  11  19
ATOM     19  S   UNL A   1      32.494  22.419  26.817  1.00  0.00    -0.122 SA
BRANCH  19  20
ATOM     20  C   UNL A   1      32.532  21.191  25.527  1.00  0.00     0.008 A 
ATOM     21  C   UNL A   1      32.167  21.536  24.219  1.00  0.00     0.016 A 
ATOM     22  C   UNL A   1      32.868  19.867  25.817  1.00  0.00     0.016 A 
ATOM     23  C   UNL A   1      32.178  20.574  23.204  1.00  0.00     0.021 A 
ATOM     24  C   UNL A   1      32.870  18.902  24.805  1.00  0.00     0.021 A 
ATOM     25  C   UNL A   1      32.534  19.261  23.501  1.00  0.00     0.041 A 
ATOM     26  Cl  UNL A   1      32.555  18.076  22.255  1.00  0.00    -0.084 Cl
ENDBRANCH  19  20
ENDBRANCH  11  19
ENDBRANCH   5   7
ENDBRANCH   4   5
ENDBRANCH   3   4
ENDBRANCH   2   3
ENDBRANCH   1   2
BRANCH   1  27
ATOM     27  C   UNL A   1      33.851  32.203  28.001  1.00  0.00     0.202 C 
BRANCH  27  28
ATOM     28  C   UNL A   1      34.503  32.711  29.290  1.00  0.00     0.261 C 
BRANCH  28  29
ATOM     29  O   UNL A   1      35.057  31.632  30.071  1.00  0.00    -0.460 OA
BRANCH  29  30
ATOM     30  C   UNL A   1      36.188  31.949  30.743  1.00  0.00     0.338 C 
ATOM     31  O   UNL A   1      36.296  32.740  31.674  1.00  0.00    -0.246 OA
BRANCH  30  32
ATOM     32  C   UNL A   1      37.301  31.080  30.332  1.00  0.00     0.060 A 
ATOM     33  C   UNL A   1      38.123  30.555  31.340  1.00  0.00     0.016 A 
ATOM     34  C   UNL A   1      37.615  30.878  28.987  1.00  0.00     0.016 A 
ATOM     35  C   UNL A   1      39.288  29.867  31.006  1.00  0.00     0.010 A 
ATOM     36  C   UNL A   1      38.793  30.197  28.654  1.00  0.00     0.010 A 
ATOM     37  C   UNL A   1      39.652  29.719  29.661  1.00  0.00    -0.014 A 
BRANCH  37  38
ATOM     38  C   UNL A   1      40.994  29.184  29.321  1.00  0.00     0.031 A 
ATOM     39  C   UNL A   1      42.193  30.090  29.405  1.00  0.00     0.074 A 
ATOM     40  C   UNL A   1      41.156  27.895  28.972  1.00  0.00     0.049 A 
ATOM     41  N   UNL A   1      43.448  29.830  29.138  1.00  0.00    -0.248 NA
ATOM     42  C   UNL A   1      41.944  31.470  29.854  1.00  0.00     0.031 C 
ATOM     43  C   UNL A   1      40.090  26.897  28.902  1.00  0.00     0.029 A 
ATOM     44  N   UNL A   1      42.289  27.207  28.611  1.00  0.00    -0.354 N 
ATOM     45  C   UNL A   1      44.138  31.011  29.384  1.00  0.00     0.074 A 
ATOM     46  C   UNL A   1      43.160  31.994  29.799  1.00  0.00     0.031 C 
ATOM     47  C   UNL A   1      40.618  25.724  28.512  1.00  0.00     0.029 A 
ATOM     48  C   UNL A   1      42.051  25.897  28.276  1.00  0.00     0.049 A 
ATOM     49  H   UNL A   1      43.184  27.614  28.595  1.00  0.00     0.167 HD
ATOM     50  C   UNL A   1      45.465  31.257  29.278  1.00  0.00     0.031 A 
ATOM     51  C   UNL A   1      42.889  24.951  27.811  1.00  0.00     0.031 A 
ATOM     52  C   UNL A   1      46.443  30.292  28.853  1.00  0.00     0.049 A 
ATOM     53  C   UNL A   1      44.344  25.275  27.609  1.00  0.00     0.074 A 
ATOM     54  C   UNL A   1      47.813  30.447  28.732  1.00  0.00     0.029 A 
ATOM     55  N   UNL A   1      46.152  28.994  28.466  1.00  0.00    -0.354 N 
ATOM     56  N   UNL A   1      44.986  26.388  27.868  1.00  0.00    -0.248 NA
ATOM     57  C   UNL A   1      45.190  24.211  27.048  1.00  0.00     0.031 C 
ATOM     58  C   UNL A   1      48.345  29.258  28.222  1.00  0.00     0.029 A 
ATOM     59  C   UNL A   1      47.312  28.348  28.074  1.00  0.00     0.049 A 
ATOM     60  H   UNL A   1      45.253  28.591  28.469  1.00  0.00     0.167 HD
ATOM     61  C   UNL A   1      46.311  26.152  27.524  1.00  0.00     0.074 A 
ATOM     62  C   UNL A   1      46.385  24.786  27.048  1.00  0.00     0.031 C 
ATOM     63  C   UNL A   1      47.372  26.990  27.597  1.00  0.00     0.031 A 
BRANCH  50  64
ATOM     64  C   UNL A   1      45.937  32.647  29.599  1.00  0.00    -0.014 A 
ATOM     65  C   UNL A   1      46.001  33.640  28.609  1.00  0.00     0.009 A 
ATOM     66  C   UNL A   1      46.286  32.976  30.918  1.00  0.00     0.009 A 
ATOM     67  C   UNL A   1      46.434  34.928  28.930  1.00  0.00     0.001 A 
ATOM     68  C   UNL A   1      46.696  34.270  31.240  1.00  0.00     0.001 A 
ATOM     69  C   UNL A   1      46.777  35.243  30.245  1.00  0.00     0.000 A 
ENDBRANCH  50  64
BRANCH  51  70
ATOM     70  C   UNL A   1      42.367  23.603  27.467  1.00  0.00    -0.014 A 
ATOM     71  C   UNL A   1      42.064  22.674  28.473  1.00  0.00     0.009 A 
ATOM     72  C   UNL A   1      42.189  23.234  26.124  1.00  0.00     0.009 A 
ATOM     73  C   UNL A   1      41.611  21.395  28.140  1.00  0.00     0.001 A 
ATOM     74  C   UNL A   1      41.713  21.963  25.796  1.00  0.00     0.001 A 
ATOM     75  C   UNL A   1      41.432  21.042  26.802  1.00  0.00     0.000 A 
ENDBRANCH  51  70
BRANCH  63  76
ATOM     76  C   UNL A   1      48.710  26.453  27.177  1.00  0.00    -0.014 A 
ATOM     77  C   UNL A   1      49.511  25.723  28.070  1.00  0.00     0.009 A 
ATOM     78  C   UNL A   1      49.152  26.637  25.858  1.00  0.00     0.009 A 
ATOM     79  C   UNL A   1      50.742  25.210  27.654  1.00  0.00     0.001 A 
ATOM     80  C   UNL A   1      50.371  26.102  25.439  1.00  0.00     0.001 A 
ATOM     81  C   UNL A   1      51.168  25.396  26.338  1.00  0.00     0.000 A 
ENDBRANCH  63  76
ENDBRANCH  37  38
ENDBRANCH  30  32
ENDBRANCH  29  30
ENDBRANCH  28  29
ENDBRANCH  27  28
ENDBRANCH   1  27
TORSDOF 18
ENDMDL
MODEL 3
REMARK VINA RESULT:      -9.7      1.420      2.250
REMARK SMILES CC(C)[NH2+][C@]1(C(=O)OCCOCCOC(=O)c2ccc(-c3c4nc(c(-c5ccccc5)c5ccc([nH]5)c(-c5ccccc5)c5nc(c(-c6ccccc6)c6ccc3[nH]6)C=C5)C=C4)cc2)CCC[C@@H](Sc2ccc(Cl)cc2)C1
REMARK SMILES IDX 11 1 10 2 9 3 8 4 6 5 7 6 5 7 65 8 77 9 66 10 68 11 67 12
REMARK SMILES IDX 4 13 2 16 1 17 3 18 69 19 70 20 71 21 76 22 72 23 75 24
REMARK SMILES IDX 73 25 74 26 12 27 13 28 14 29 15 30 16 31 17 32 18 33 64 34
REMARK SMILES IDX 19 35 63 36 20 37 21 38 22 39 57 40 23 41 62 42 56 43 58 44
REMARK SMILES IDX 24 45 61 46 55 47 54 48 25 50 47 51 32 52 46 53 33 54 36 55
REMARK SMILES IDX 45 56 59 57 34 58 35 59 44 61 60 62 37 63 26 64 27 65 31 66
REMARK SMILES IDX 28 67 30 68 29 69 48 70 49 71 53 72 50 73 52 74 51 75 38 76
REMARK SMILES IDX 39 77 43 78 40 79 42 80 41 81
REMARK H PARENT 4 14 4 15 58 49 36 60
REMARK Flexibility Score: inf
ROOT
ATOM      1  O   UNL A   1      31.577  29.390  26.035  1.00  0.00    -0.374 OA
ENDROOT
BRANCH   1   2
ATOM      2  C   UNL A   1      31.033  30.479  25.295  1.00  0.00     0.202 C 
BRANCH   2   3
ATOM      3  C   UNL A   1      30.215  30.115  24.054  1.00  0.00     0.261 C 
BRANCH   3   4
ATOM      4  O   UNL A   1      29.960  28.705  23.948  1.00  0.00    -0.459 OA
BRANCH   4   5
ATOM      5  C   UNL A   1      30.533  28.099  22.873  1.00  0.00     0.368 C 
ATOM      6  O   UNL A   1      30.214  28.319  21.705  1.00  0.00    -0.245 OA
BRANCH   5   7
ATOM      7  C   UNL A   1      31.577  26.985  23.240  1.00  0.00     0.195 C 
ATOM      8  C   UNL A   1      32.881  27.777  23.528  1.00  0.00     0.081 C 
ATOM      9  C   UNL A   1      31.185  26.206  24.530  1.00  0.00     0.096 C 
ATOM     10  C   UNL A   1      34.029  26.983  24.143  1.00  0.00     0.008 C 
ATOM     11  C   UNL A   1      32.336  25.360  25.102  1.00  0.00     0.058 C 
ATOM     12  C   UNL A   1      33.586  26.202  25.372  1.00  0.00     0.015 C 
BRANCH   7  13
ATOM     13  N   UNL A   1      31.527  26.074  22.064  1.00  0.00    -0.330 N 
ATOM     14  H   UNL A   1      31.049  25.231  22.383  1.00  0.00     0.347 HD
ATOM     15  H   UNL A   1      31.090  26.671  21.361  1.00  0.00     0.347 HD
BRANCH  13  16
ATOM     16  C   UNL A   1      32.719  25.619  21.362  1.00  0.00     0.176 C 
ATOM     17  C   UNL A   1      32.995  24.200  21.876  1.00  0.00     0.075 C 
ATOM     18  C   UNL A   1      32.532  25.550  19.844  1.00  0.00     0.075 C 
ENDBRANCH  13  16
ENDBRANCH   7  13
BRANCH  11  19
ATOM     19  S   UNL A   1      31.792  24.358  26.564  1.00  0.00    -0.122 SA
BRANCH  19  20
ATOM     20  C   UNL A   1      32.298  22.702  26.146  1.00  0.00     0.008 A 
ATOM     21  C   UNL A   1      33.374  22.107  26.817  1.00  0.00     0.016 A 
ATOM     22  C   UNL A   1      31.669  22.007  25.110  1.00  0.00     0.016 A 
ATOM     23  C   UNL A   1      33.790  20.814  26.484  1.00  0.00     0.021 A 
ATOM     24  C   UNL A   1      32.089  20.718  24.770  1.00  0.00     0.021 A 
ATOM     25  C   UNL A   1      33.142  20.123  25.463  1.00  0.00     0.041 A 
ATOM     26  Cl  UNL A   1      33.644  18.530  25.053  1.00  0.00    -0.084 Cl
ENDBRANCH  19  20
ENDBRANCH  11  19
ENDBRANCH   5   7
ENDBRANCH   4   5
ENDBRANCH   3   4
ENDBRANCH   2   3
ENDBRANCH   1   2
BRANCH   1  27
ATOM     27  C   UNL A   1      32.293  29.696  27.231  1.00  0.00     0.202 C 
BRANCH  27  28
ATOM     28  C   UNL A   1      32.875  31.109  27.325  1.00  0.00     0.261 C 
BRANCH  28  29
ATOM     29  O   UNL A   1      34.315  31.103  27.239  1.00  0.00    -0.460 OA
BRANCH  29  30
ATOM     30  C   UNL A   1      34.949  31.284  28.421  1.00  0.00     0.338 C 
ATOM     31  O   UNL A   1      34.543  31.921  29.386  1.00  0.00    -0.246 OA
BRANCH  30  32
ATOM     32  C   UNL A   1      36.164  30.457  28.494  1.00  0.00     0.060 A 
ATOM     33  C   UNL A   1      36.475  29.867  29.727  1.00  0.00     0.016 A 
ATOM     34  C   UNL A   1      37.048  30.358  27.419  1.00  0.00     0.016 A 
ATOM     35  C   UNL A   1      37.695  29.215  29.904  1.00  0.00     0.010 A 
ATOM     36  C   UNL A   1      38.279  29.714  27.603  1.00  0.00     0.010 A 
ATOM     37  C   UNL A   1      38.622  29.170  28.855  1.00  0.00    -0.014 A 
BRANCH  37  38
ATOM     38  C   UNL A   1      39.997  28.674  29.113  1.00  0.00     0.031 A 
ATOM     39  C   UNL A   1      40.986  29.569  29.810  1.00  0.00     0.074 A 
ATOM     40  C   UNL A   1      40.358  27.426  28.764  1.00  0.00     0.049 A 
ATOM     41  N   UNL A   1      42.237  29.340  30.119  1.00  0.00    -0.248 NA
ATOM     42  C   UNL A   1      40.498  30.897  30.216  1.00  0.00     0.031 C 
ATOM     43  C   UNL A   1      39.486  26.438  28.131  1.00  0.00     0.029 A 
ATOM     44  N   UNL A   1      41.562  26.780  28.897  1.00  0.00    -0.354 N 
ATOM     45  C   UNL A   1      42.687  30.491  30.753  1.00  0.00     0.074 A 
ATOM     46  C   UNL A   1      41.582  31.426  30.764  1.00  0.00     0.031 C 
ATOM     47  C   UNL A   1      40.187  25.311  27.922  1.00  0.00     0.029 A 
ATOM     48  C   UNL A   1      41.562  25.508  28.377  1.00  0.00     0.049 A 
ATOM     49  H   UNL A   1      42.349  27.188  29.323  1.00  0.00     0.167 HD
ATOM     50  C   UNL A   1      43.907  30.749  31.281  1.00  0.00     0.031 A 
ATOM     51  C   UNL A   1      42.562  24.614  28.260  1.00  0.00     0.031 A 
ATOM     52  C   UNL A   1      45.014  29.832  31.262  1.00  0.00     0.049 A 
ATOM     53  C   UNL A   1      43.936  24.960  28.768  1.00  0.00     0.074 A 
ATOM     54  C   UNL A   1      46.283  30.001  31.789  1.00  0.00     0.029 A 
ATOM     55  N   UNL A   1      44.989  28.578  30.673  1.00  0.00    -0.354 N 
ATOM     56  N   UNL A   1      44.340  26.043  29.387  1.00  0.00    -0.248 NA
ATOM     57  C   UNL A   1      44.992  23.958  28.560  1.00  0.00     0.031 C 
ATOM     58  C   UNL A   1      47.042  28.869  31.473  1.00  0.00     0.029 A 
ATOM     59  C   UNL A   1      46.230  27.976  30.794  1.00  0.00     0.049 A 
ATOM     60  H   UNL A   1      44.205  28.176  30.234  1.00  0.00     0.167 HD
ATOM     61  C   UNL A   1      45.687  25.843  29.660  1.00  0.00     0.074 A 
ATOM     62  C   UNL A   1      46.031  24.532  29.152  1.00  0.00     0.031 C 
ATOM     63  C   UNL A   1      46.561  26.673  30.279  1.00  0.00     0.031 A 
BRANCH  50  64
ATOM     64  C   UNL A   1      44.118  32.101  31.901  1.00  0.00    -0.014 A 
ATOM     65  C   UNL A   1      43.867  32.323  33.264  1.00  0.00     0.009 A 
ATOM     66  C   UNL A   1      44.612  33.155  31.118  1.00  0.00     0.009 A 
ATOM     67  C   UNL A   1      44.079  33.585  33.823  1.00  0.00     0.001 A 
ATOM     68  C   UNL A   1      44.845  34.409  31.684  1.00  0.00     0.001 A 
ATOM     69  C   UNL A   1      44.571  34.625  33.034  1.00  0.00     0.000 A 
ENDBRANCH  50  64
BRANCH  51  70
ATOM     70  C   UNL A   1      42.315  23.306  27.601  1.00  0.00    -0.014 A 
ATOM     71  C   UNL A   1      42.532  23.145  26.225  1.00  0.00     0.009 A 
ATOM     72  C   UNL A   1      41.839  22.217  28.347  1.00  0.00     0.009 A 
ATOM     73  C   UNL A   1      42.260  21.922  25.606  1.00  0.00     0.001 A 
ATOM     74  C   UNL A   1      41.591  20.989  27.730  1.00  0.00     0.001 A 
ATOM     75  C   UNL A   1      41.793  20.845  26.359  1.00  0.00     0.000 A 
ENDBRANCH  51  70
BRANCH  63  76
ATOM     76  C   UNL A   1      47.969  26.182  30.465  1.00  0.00    -0.014 A 
ATOM     77  C   UNL A   1      48.398  25.660  31.696  1.00  0.00     0.009 A 
ATOM     78  C   UNL A   1      48.861  26.196  29.382  1.00  0.00     0.009 A 
ATOM     79  C   UNL A   1      49.703  25.186  31.844  1.00  0.00     0.001 A 
ATOM     80  C   UNL A   1      50.157  25.698  29.526  1.00  0.00     0.001 A 
ATOM     81  C   UNL A   1      50.579  25.201  30.758  1.00  0.00     0.000 A 
ENDBRANCH  63  76
ENDBRANCH  37  38
ENDBRANCH  30  32
ENDBRANCH  29  30
ENDBRANCH  28  29
ENDBRANCH  27  28
ENDBRANCH   1  27
TORSDOF 18
ENDMDL
