MODEL 1
REMARK VINA RESULT:      -9.7      0.000      0.000
REMARK SMILES CC[N@@H+]1CC[C@H](C[NH2+]Cc2cc(C(=O)OCCOCCOC(=O)c3ccc(-c4c5nc(c(-c6ccccc6)c6ccc([nH]6)c(-c6ccccc6)c6nc(c(-c7ccccc7)c7ccc4[nH]7)C=C6)C=C5)cc3)cs2)C1
REMARK SMILES IDX 16 1 15 2 13 3 14 4 12 5 10 6 11 7 73 8 72 9 9 10 8 11 7 14
REMARK SMILES IDX 6 15 3 16 4 17 74 18 5 20 2 21 1 22 17 23 18 24 19 25 20 26
REMARK SMILES IDX 21 27 22 28 23 29 24 30 25 31 71 32 26 33 70 34 27 35 28 36
REMARK SMILES IDX 29 37 64 38 30 39 69 40 63 41 65 42 31 43 68 44 62 45 61 46
REMARK SMILES IDX 32 48 54 49 39 50 53 51 40 52 43 53 52 54 66 55 41 56 42 57
REMARK SMILES IDX 51 59 67 60 44 61 33 62 34 63 38 64 35 65 37 66 36 67 55 68
REMARK SMILES IDX 56 69 60 70 57 71 59 72 58 73 45 74 46 75 50 76 47 77 49 78
REMARK SMILES IDX 48 79
REMARK H PARENT 8 12 8 13 3 19 65 47 43 58
REMARK Flexibility Score: inf
ROOT
ATOM      1  C   UNL A   1      34.163  33.788  28.591  1.00  0.00     0.261 C 
ENDROOT
BRANCH   1   2
ATOM      2  O   UNL A   1      34.109  32.353  28.694  1.00  0.00    -0.460 OA
BRANCH   2   3
ATOM      3  C   UNL A   1      34.977  31.679  27.888  1.00  0.00     0.339 C 
ATOM      4  O   UNL A   1      36.180  31.894  27.815  1.00  0.00    -0.246 OA
BRANCH   3   5
ATOM      5  C   UNL A   1      34.336  30.540  27.240  1.00  0.00     0.071 A 
ATOM      6  C   UNL A   1      32.717  29.190  26.208  1.00  0.00     0.059 A 
ATOM      7  C   UNL A   1      32.996  30.440  26.733  1.00  0.00     0.037 A 
ATOM      8  S   UNL A   1      34.003  28.093  26.510  1.00  0.00    -0.142 S 
ATOM      9  C   UNL A   1      35.005  29.337  27.097  1.00  0.00     0.081 A 
BRANCH   6  10
ATOM     10  C   UNL A   1      31.496  28.725  25.457  1.00  0.00     0.308 C 
BRANCH  10  11
ATOM     11  N   UNL A   1      31.457  29.238  24.078  1.00  0.00    -0.341 N 
ATOM     12  H   UNL A   1      30.834  30.045  24.044  1.00  0.00     0.346 HD
ATOM     13  H   UNL A   1      32.407  29.494  23.810  1.00  0.00     0.346 HD
BRANCH  11  14
ATOM     14  C   UNL A   1      30.976  28.228  23.128  1.00  0.00     0.270 C 
BRANCH  14  15
ATOM     15  C   UNL A   1      29.690  28.629  22.398  1.00  0.00     0.105 C 
ATOM     16  N   UNL A   1      28.582  30.788  22.362  1.00  0.00    -0.335 N 
ATOM     17  C   UNL A   1      27.622  29.777  22.798  1.00  0.00     0.262 C 
ATOM     18  C   UNL A   1      29.776  30.078  21.890  1.00  0.00     0.271 C 
ATOM     19  H   UNL A   1      28.183  31.326  21.593  1.00  0.00     0.348 HD
ATOM     20  C   UNL A   1      28.446  28.601  23.280  1.00  0.00     0.076 C 
BRANCH  16  21
ATOM     21  C   UNL A   1      28.843  31.851  23.337  1.00  0.00     0.258 C 
ATOM     22  C   UNL A   1      28.703  33.301  22.882  1.00  0.00     0.071 C 
ENDBRANCH  16  21
ENDBRANCH  14  15
ENDBRANCH  11  14
ENDBRANCH  10  11
ENDBRANCH   6  10
ENDBRANCH   3   5
ENDBRANCH   2   3
ENDBRANCH   1   2
BRANCH   1  23
ATOM     23  C   UNL A   1      33.637  34.421  29.885  1.00  0.00     0.202 C 
BRANCH  23  24
ATOM     24  O   UNL A   1      34.505  34.225  31.004  1.00  0.00    -0.374 OA
BRANCH  24  25
ATOM     25  C   UNL A   1      33.979  34.617  32.274  1.00  0.00     0.202 C 
BRANCH  25  26
ATOM     26  C   UNL A   1      34.387  33.697  33.426  1.00  0.00     0.261 C 
BRANCH  26  27
ATOM     27  O   UNL A   1      35.134  32.578  32.914  1.00  0.00    -0.460 OA
BRANCH  27  28
ATOM     28  C   UNL A   1      36.332  32.367  33.506  1.00  0.00     0.338 C 
ATOM     29  O   UNL A   1      36.631  32.583  34.668  1.00  0.00    -0.246 OA
BRANCH  28  30
ATOM     30  C   UNL A   1      37.227  31.657  32.568  1.00  0.00     0.060 A 
ATOM     31  C   UNL A   1      38.220  30.843  33.127  1.00  0.00     0.016 A 
ATOM     32  C   UNL A   1      37.128  31.802  31.181  1.00  0.00     0.016 A 
ATOM     33  C   UNL A   1      39.150  30.213  32.305  1.00  0.00     0.010 A 
ATOM     34  C   UNL A   1      38.067  31.174  30.356  1.00  0.00     0.010 A 
ATOM     35  C   UNL A   1      39.103  30.407  30.919  1.00  0.00    -0.014 A 
BRANCH  35  36
ATOM     36  C   UNL A   1      40.230  29.934  30.083  1.00  0.00     0.031 A 
ATOM     37  C   UNL A   1      41.400  30.850  29.857  1.00  0.00     0.074 A 
ATOM     38  C   UNL A   1      40.236  28.693  29.567  1.00  0.00     0.049 A 
ATOM     39  N   UNL A   1      42.499  30.638  29.179  1.00  0.00    -0.248 NA
ATOM     40  C   UNL A   1      41.322  32.181  30.482  1.00  0.00     0.031 C 
ATOM     41  C   UNL A   1      39.184  27.694  29.748  1.00  0.00     0.029 A 
ATOM     42  N   UNL A   1      41.172  28.062  28.788  1.00  0.00    -0.354 N 
ATOM     43  C   UNL A   1      43.243  31.806  29.297  1.00  0.00     0.074 A 
ATOM     44  C   UNL A   1      42.460  32.732  30.088  1.00  0.00     0.031 C 
ATOM     45  C   UNL A   1      39.532  26.573  29.091  1.00  0.00     0.029 A 
ATOM     46  C   UNL A   1      40.818  26.785  28.430  1.00  0.00     0.049 A 
ATOM     47  H   UNL A   1      42.017  28.485  28.510  1.00  0.00     0.167 HD
ATOM     48  C   UNL A   1      44.471  32.082  28.800  1.00  0.00     0.031 A 
ATOM     49  C   UNL A   1      41.456  25.895  27.648  1.00  0.00     0.031 A 
ATOM     50  C   UNL A   1      45.248  31.174  28.002  1.00  0.00     0.049 A 
ATOM     51  C   UNL A   1      42.785  26.254  27.040  1.00  0.00     0.074 A 
ATOM     52  C   UNL A   1      46.509  31.362  27.463  1.00  0.00     0.029 A 
ATOM     53  N   UNL A   1      44.832  29.910  27.620  1.00  0.00    -0.354 N 
ATOM     54  N   UNL A   1      43.488  27.351  27.182  1.00  0.00    -0.248 NA
ATOM     55  C   UNL A   1      43.407  25.248  26.166  1.00  0.00     0.031 C 
ATOM     56  C   UNL A   1      46.837  30.224  26.717  1.00  0.00     0.029 A 
ATOM     57  C   UNL A   1      45.798  29.315  26.829  1.00  0.00     0.049 A 
ATOM     58  H   UNL A   1      43.974  29.497  27.873  1.00  0.00     0.167 HD
ATOM     59  C   UNL A   1      44.643  27.159  26.434  1.00  0.00     0.074 A 
ATOM     60  C   UNL A   1      44.552  25.837  25.850  1.00  0.00     0.031 C 
ATOM     61  C   UNL A   1      45.688  28.002  26.251  1.00  0.00     0.031 A 
BRANCH  48  62
ATOM     62  C   UNL A   1      45.034  33.443  29.088  1.00  0.00    -0.014 A 
ATOM     63  C   UNL A   1      44.642  34.563  28.337  1.00  0.00     0.009 A 
ATOM     64  C   UNL A   1      45.953  33.611  30.134  1.00  0.00     0.009 A 
ATOM     65  C   UNL A   1      45.184  35.820  28.610  1.00  0.00     0.001 A 
ATOM     66  C   UNL A   1      46.477  34.872  30.419  1.00  0.00     0.001 A 
ATOM     67  C   UNL A   1      46.098  35.974  29.652  1.00  0.00     0.000 A 
ENDBRANCH  48  62
BRANCH  49  68
ATOM     68  C   UNL A   1      40.838  24.572  27.374  1.00  0.00    -0.014 A 
ATOM     69  C   UNL A   1      39.697  24.470  26.565  1.00  0.00     0.009 A 
ATOM     70  C   UNL A   1      41.378  23.408  27.941  1.00  0.00     0.009 A 
ATOM     71  C   UNL A   1      39.097  23.228  26.345  1.00  0.00     0.001 A 
ATOM     72  C   UNL A   1      40.789  22.165  27.701  1.00  0.00     0.001 A 
ATOM     73  C   UNL A   1      39.645  22.077  26.910  1.00  0.00     0.000 A 
ENDBRANCH  49  68
BRANCH  61  74
ATOM     74  C   UNL A   1      46.825  27.512  25.401  1.00  0.00    -0.014 A 
ATOM     75  C   UNL A   1      46.921  27.863  24.046  1.00  0.00     0.009 A 
ATOM     76  C   UNL A   1      47.834  26.724  25.976  1.00  0.00     0.009 A 
ATOM     77  C   UNL A   1      47.993  27.412  23.276  1.00  0.00     0.001 A 
ATOM     78  C   UNL A   1      48.917  26.293  25.208  1.00  0.00     0.001 A 
ATOM     79  C   UNL A   1      48.992  26.631  23.858  1.00  0.00     0.000 A 
ENDBRANCH  61  74
ENDBRANCH  35  36
ENDBRANCH  28  30
ENDBRANCH  27  28
ENDBRANCH  26  27
ENDBRANCH  25  26
ENDBRANCH  24  25
ENDBRANCH  23  24
ENDBRANCH   1  23
TORSDOF 19
ENDMDL
MODEL 2
REMARK VINA RESULT:      -9.7      0.536      5.943
REMARK SMILES CC[N@@H+]1CC[C@H](C[NH2+]Cc2cc(C(=O)OCCOCCOC(=O)c3ccc(-c4c5nc(c(-c6ccccc6)c6ccc([nH]6)c(-c6ccccc6)c6nc(c(-c7ccccc7)c7ccc4[nH]7)C=C6)C=C5)cc3)cs2)C1
REMARK SMILES IDX 16 1 15 2 13 3 14 4 12 5 10 6 11 7 73 8 72 9 9 10 8 11 7 14
REMARK SMILES IDX 6 15 3 16 4 17 74 18 5 20 2 21 1 22 17 23 18 24 19 25 20 26
REMARK SMILES IDX 21 27 22 28 23 29 24 30 25 31 71 32 26 33 70 34 27 35 28 36
REMARK SMILES IDX 29 37 64 38 30 39 69 40 63 41 65 42 31 43 68 44 62 45 61 46
REMARK SMILES IDX 32 48 54 49 39 50 53 51 40 52 43 53 52 54 66 55 41 56 42 57
REMARK SMILES IDX 51 59 67 60 44 61 33 62 34 63 38 64 35 65 37 66 36 67 55 68
REMARK SMILES IDX 56 69 60 70 57 71 59 72 58 73 45 74 46 75 50 76 47 77 49 78
REMARK SMILES IDX 48 79
REMARK H PARENT 8 12 8 13 3 19 65 47 43 58
REMARK Flexibility Score: inf
ROOT
ATOM      1  C   UNL A   1      34.463  33.465  28.351  1.00  0.00     0.261 C 
ENDROOT
BRANCH   1   2
ATOM      2  O   UNL A   1      34.181  32.061  28.500  1.00  0.00    -0.460 OA
BRANCH   2   3
ATOM      3  C   UNL A   1      34.994  31.226  27.794  1.00  0.00     0.339 C 
ATOM      4  O   UNL A   1      36.218  31.247  27.823  1.00  0.00    -0.246 OA
BRANCH   3   5
ATOM      5  C   UNL A   1      34.236  30.176  27.123  1.00  0.00     0.071 A 
ATOM      6  C   UNL A   1      32.498  29.044  26.024  1.00  0.00     0.059 A 
ATOM      7  C   UNL A   1      32.918  30.251  26.556  1.00  0.00     0.037 A 
ATOM      8  S   UNL A   1      33.610  27.788  26.391  1.00  0.00    -0.142 S 
ATOM      9  C   UNL A   1      34.743  28.893  27.017  1.00  0.00     0.081 A 
BRANCH   6  10
ATOM     10  C   UNL A   1      31.261  28.739  25.220  1.00  0.00     0.308 C 
BRANCH  10  11
ATOM     11  N   UNL A   1      31.068  29.684  24.108  1.00  0.00    -0.341 N 
ATOM     12  H   UNL A   1      30.181  30.171  24.240  1.00  0.00     0.346 HD
ATOM     13  H   UNL A   1      31.852  30.336  24.109  1.00  0.00     0.346 HD
BRANCH  11  14
ATOM     14  C   UNL A   1      31.046  29.005  22.807  1.00  0.00     0.270 C 
BRANCH  14  15
ATOM     15  C   UNL A   1      29.645  28.873  22.202  1.00  0.00     0.105 C 
ATOM     16  N   UNL A   1      27.829  30.484  22.225  1.00  0.00    -0.335 N 
ATOM     17  C   UNL A   1      27.343  29.224  22.783  1.00  0.00     0.262 C 
ATOM     18  C   UNL A   1      29.154  30.223  21.652  1.00  0.00     0.271 C 
ATOM     19  H   UNL A   1      27.198  30.796  21.489  1.00  0.00     0.348 HD
ATOM     20  C   UNL A   1      28.577  28.454  23.207  1.00  0.00     0.076 C 
BRANCH  16  21
ATOM     21  C   UNL A   1      27.770  31.626  23.142  1.00  0.00     0.258 C 
ATOM     22  C   UNL A   1      28.582  32.872  22.799  1.00  0.00     0.071 C 
ENDBRANCH  16  21
ENDBRANCH  14  15
ENDBRANCH  11  14
ENDBRANCH  10  11
ENDBRANCH   6  10
ENDBRANCH   3   5
ENDBRANCH   2   3
ENDBRANCH   1   2
BRANCH   1  23
ATOM     23  C   UNL A   1      33.988  34.224  29.595  1.00  0.00     0.202 C 
BRANCH  23  24
ATOM     24  O   UNL A   1      34.832  34.031  30.733  1.00  0.00    -0.374 OA
BRANCH  24  25
ATOM     25  C   UNL A   1      34.289  34.450  31.988  1.00  0.00     0.202 C 
BRANCH  25  26
ATOM     26  C   UNL A   1      34.871  33.710  33.193  1.00  0.00     0.261 C 
BRANCH  26  27
ATOM     27  O   UNL A   1      35.446  32.462  32.767  1.00  0.00    -0.460 OA
BRANCH  27  28
ATOM     28  C   UNL A   1      36.569  32.092  33.425  1.00  0.00     0.338 C 
ATOM     29  O   UNL A   1      36.770  32.134  34.627  1.00  0.00    -0.246 OA
BRANCH  28  30
ATOM     30  C   UNL A   1      37.505  31.448  32.479  1.00  0.00     0.060 A 
ATOM     31  C   UNL A   1      38.564  30.714  33.029  1.00  0.00     0.016 A 
ATOM     32  C   UNL A   1      37.379  31.578  31.093  1.00  0.00     0.016 A 
ATOM     33  C   UNL A   1      39.530  30.154  32.199  1.00  0.00     0.010 A 
ATOM     34  C   UNL A   1      38.354  31.020  30.259  1.00  0.00     0.010 A 
ATOM     35  C   UNL A   1      39.452  30.337  30.812  1.00  0.00    -0.014 A 
BRANCH  35  36
ATOM     36  C   UNL A   1      40.602  29.947  29.964  1.00  0.00     0.031 A 
ATOM     37  C   UNL A   1      40.571  28.615  29.268  1.00  0.00     0.074 A 
ATOM     38  C   UNL A   1      41.639  30.781  29.779  1.00  0.00     0.049 A 
ATOM     39  N   UNL A   1      41.456  28.079  28.466  1.00  0.00    -0.248 NA
ATOM     40  C   UNL A   1      39.383  27.777  29.505  1.00  0.00     0.031 C 
ATOM     41  C   UNL A   1      41.770  32.115  30.362  1.00  0.00     0.029 A 
ATOM     42  N   UNL A   1      42.782  30.623  29.037  1.00  0.00    -0.354 N 
ATOM     43  C   UNL A   1      40.931  26.845  28.102  1.00  0.00     0.074 A 
ATOM     44  C   UNL A   1      39.667  26.699  28.791  1.00  0.00     0.031 C 
ATOM     45  C   UNL A   1      42.933  32.654  29.957  1.00  0.00     0.029 A 
ATOM     46  C   UNL A   1      43.635  31.695  29.106  1.00  0.00     0.049 A 
ATOM     47  H   UNL A   1      42.972  29.816  28.505  1.00  0.00     0.167 HD
ATOM     48  C   UNL A   1      41.451  25.918  27.264  1.00  0.00     0.031 A 
ATOM     49  C   UNL A   1      44.849  31.875  28.554  1.00  0.00     0.031 A 
ATOM     50  C   UNL A   1      42.712  26.048  26.588  1.00  0.00     0.049 A 
ATOM     51  C   UNL A   1      45.443  30.796  27.689  1.00  0.00     0.074 A 
ATOM     52  C   UNL A   1      43.316  25.166  25.710  1.00  0.00     0.029 A 
ATOM     53  N   UNL A   1      43.569  27.128  26.726  1.00  0.00    -0.354 N 
ATOM     54  N   UNL A   1      44.924  29.647  27.332  1.00  0.00    -0.248 NA
ATOM     55  C   UNL A   1      46.788  31.045  27.150  1.00  0.00     0.031 C 
ATOM     56  C   UNL A   1      44.561  25.694  25.349  1.00  0.00     0.029 A 
ATOM     57  C   UNL A   1      44.710  26.922  25.970  1.00  0.00     0.049 A 
ATOM     58  H   UNL A   1      43.393  27.923  27.280  1.00  0.00     0.167 HD
ATOM     59  C   UNL A   1      45.869  29.044  26.510  1.00  0.00     0.074 A 
ATOM     60  C   UNL A   1      46.987  29.960  26.413  1.00  0.00     0.031 C 
ATOM     61  C   UNL A   1      45.815  27.841  25.890  1.00  0.00     0.031 A 
BRANCH  48  62
ATOM     62  C   UNL A   1      40.655  24.662  27.057  1.00  0.00    -0.014 A 
ATOM     63  C   UNL A   1      41.076  23.440  27.604  1.00  0.00     0.009 A 
ATOM     64  C   UNL A   1      39.461  24.706  26.323  1.00  0.00     0.009 A 
ATOM     65  C   UNL A   1      40.330  22.279  27.393  1.00  0.00     0.001 A 
ATOM     66  C   UNL A   1      38.707  23.548  26.131  1.00  0.00     0.001 A 
ATOM     67  C   UNL A   1      39.146  22.335  26.659  1.00  0.00     0.000 A 
ENDBRANCH  48  62
BRANCH  49  68
ATOM     68  C   UNL A   1      45.604  33.127  28.816  1.00  0.00    -0.014 A 
ATOM     69  C   UNL A   1      45.449  34.244  27.981  1.00  0.00     0.009 A 
ATOM     70  C   UNL A   1      46.502  33.200  29.892  1.00  0.00     0.009 A 
ATOM     71  C   UNL A   1      46.193  35.403  28.209  1.00  0.00     0.001 A 
ATOM     72  C   UNL A   1      47.227  34.368  30.131  1.00  0.00     0.001 A 
ATOM     73  C   UNL A   1      47.078  35.466  29.285  1.00  0.00     0.000 A 
ENDBRANCH  49  68
BRANCH  61  74
ATOM     74  C   UNL A   1      46.987  27.456  25.034  1.00  0.00    -0.014 A 
ATOM     75  C   UNL A   1      47.055  27.837  23.686  1.00  0.00     0.009 A 
ATOM     76  C   UNL A   1      48.055  26.741  25.598  1.00  0.00     0.009 A 
ATOM     77  C   UNL A   1      48.160  27.485  22.909  1.00  0.00     0.001 A 
ATOM     78  C   UNL A   1      49.169  26.409  24.825  1.00  0.00     0.001 A 
ATOM     79  C   UNL A   1      49.217  26.775  23.480  1.00  0.00     0.000 A 
ENDBRANCH  61  74
ENDBRANCH  35  36
ENDBRANCH  28  30
ENDBRANCH  27  28
ENDBRANCH  26  27
ENDBRANCH  25  26
ENDBRANCH  24  25
ENDBRANCH  23  24
ENDBRANCH   1  23
TORSDOF 19
ENDMDL
MODEL 3
REMARK VINA RESULT:      -9.3      5.723     11.281
REMARK SMILES CC[N@@H+]1CC[C@H](C[NH2+]Cc2cc(C(=O)OCCOCCOC(=O)c3ccc(-c4c5nc(c(-c6ccccc6)c6ccc([nH]6)c(-c6ccccc6)c6nc(c(-c7ccccc7)c7ccc4[nH]7)C=C6)C=C5)cc3)cs2)C1
REMARK SMILES IDX 16 1 15 2 13 3 14 4 12 5 10 6 11 7 73 8 72 9 9 10 8 11 7 14
REMARK SMILES IDX 6 15 3 16 4 17 74 18 5 20 2 21 1 22 17 23 18 24 19 25 20 26
REMARK SMILES IDX 21 27 22 28 23 29 24 30 25 31 71 32 26 33 70 34 27 35 28 36
REMARK SMILES IDX 29 37 64 38 30 39 69 40 63 41 65 42 31 43 68 44 62 45 61 46
REMARK SMILES IDX 32 48 54 49 39 50 53 51 40 52 43 53 52 54 66 55 41 56 42 57
REMARK SMILES IDX 51 59 67 60 44 61 33 62 34 63 38 64 35 65 37 66 36 67 55 68
REMARK SMILES IDX 56 69 60 70 57 71 59 72 58 73 45 74 46 75 50 76 47 77 49 78
REMARK SMILES IDX 48 79
REMARK H PARENT 8 12 8 13 3 19 65 47 43 58
REMARK Flexibility Score: inf
ROOT
ATOM      1  C   UNL A   1      41.831  19.246  25.789  1.00  0.00     0.261 C 
ENDROOT
BRANCH   1   2
ATOM      2  O   UNL A   1      41.187  20.532  25.724  1.00  0.00    -0.460 OA
BRANCH   2   3
ATOM      3  C   UNL A   1      40.521  20.907  26.852  1.00  0.00     0.339 C 
ATOM      4  O   UNL A   1      40.786  20.524  27.985  1.00  0.00    -0.246 OA
BRANCH   3   5
ATOM      5  C   UNL A   1      39.553  21.964  26.581  1.00  0.00     0.071 A 
ATOM      6  C   UNL A   1      37.733  23.131  25.667  1.00  0.00     0.059 A 
ATOM      7  C   UNL A   1      38.416  21.928  25.704  1.00  0.00     0.037 A 
ATOM      8  S   UNL A   1      38.581  24.348  26.533  1.00  0.00    -0.142 S 
ATOM      9  C   UNL A   1      39.693  23.216  27.150  1.00  0.00     0.081 A 
BRANCH   6  10
ATOM     10  C   UNL A   1      36.423  23.461  24.999  1.00  0.00     0.308 C 
BRANCH  10  11
ATOM     11  N   UNL A   1      36.119  22.552  23.881  1.00  0.00    -0.341 N 
ATOM     12  H   UNL A   1      36.337  23.025  23.004  1.00  0.00     0.346 HD
ATOM     13  H   UNL A   1      36.684  21.711  23.997  1.00  0.00     0.346 HD
BRANCH  11  14
ATOM     14  C   UNL A   1      34.707  22.151  23.867  1.00  0.00     0.270 C 
BRANCH  14  15
ATOM     15  C   UNL A   1      34.316  21.225  25.022  1.00  0.00     0.105 C 
ATOM     16  N   UNL A   1      34.122  18.805  25.021  1.00  0.00    -0.335 N 
ATOM     17  C   UNL A   1      32.862  19.376  25.494  1.00  0.00     0.262 C 
ATOM     18  C   UNL A   1      35.095  19.900  24.952  1.00  0.00     0.271 C 
ATOM     19  H   UNL A   1      34.448  18.104  25.686  1.00  0.00     0.348 HD
ATOM     20  C   UNL A   1      32.848  20.811  25.011  1.00  0.00     0.076 C 
BRANCH  16  21
ATOM     21  C   UNL A   1      34.013  18.000  23.801  1.00  0.00     0.258 C 
ATOM     22  C   UNL A   1      33.918  16.484  23.941  1.00  0.00     0.071 C 
ENDBRANCH  16  21
ENDBRANCH  14  15
ENDBRANCH  11  14
ENDBRANCH  10  11
ENDBRANCH   6  10
ENDBRANCH   3   5
ENDBRANCH   2   3
ENDBRANCH   1   2
BRANCH   1  23
ATOM     23  C   UNL A   1      43.345  19.415  25.622  1.00  0.00     0.202 C 
BRANCH  23  24
ATOM     24  O   UNL A   1      43.724  20.722  25.184  1.00  0.00    -0.374 OA
BRANCH  24  25
ATOM     25  C   UNL A   1      44.349  21.551  26.168  1.00  0.00     0.202 C 
BRANCH  25  26
ATOM     26  C   UNL A   1      45.534  22.359  25.637  1.00  0.00     0.261 C 
BRANCH  26  27
ATOM     27  O   UNL A   1      45.500  23.690  26.183  1.00  0.00    -0.460 OA
BRANCH  27  28
ATOM     28  C   UNL A   1      44.675  24.552  25.547  1.00  0.00     0.338 C 
ATOM     29  O   UNL A   1      44.479  24.640  24.347  1.00  0.00    -0.246 OA
BRANCH  28  30
ATOM     30  C   UNL A   1      43.879  25.299  26.544  1.00  0.00     0.060 A 
ATOM     31  C   UNL A   1      43.967  26.696  26.513  1.00  0.00     0.016 A 
ATOM     32  C   UNL A   1      43.091  24.660  27.507  1.00  0.00     0.016 A 
ATOM     33  C   UNL A   1      43.313  27.458  27.477  1.00  0.00     0.010 A 
ATOM     34  C   UNL A   1      42.439  25.427  28.478  1.00  0.00     0.010 A 
ATOM     35  C   UNL A   1      42.577  26.826  28.487  1.00  0.00    -0.014 A 
BRANCH  35  36
ATOM     36  C   UNL A   1      42.089  27.625  29.635  1.00  0.00     0.031 A 
ATOM     37  C   UNL A   1      40.795  28.378  29.497  1.00  0.00     0.074 A 
ATOM     38  C   UNL A   1      42.762  27.647  30.798  1.00  0.00     0.049 A 
ATOM     39  N   UNL A   1      40.173  29.122  30.375  1.00  0.00    -0.248 NA
ATOM     40  C   UNL A   1      40.111  28.274  28.197  1.00  0.00     0.031 C 
ATOM     41  C   UNL A   1      44.004  26.927  31.074  1.00  0.00     0.029 A 
ATOM     42  N   UNL A   1      42.483  28.302  31.971  1.00  0.00    -0.354 N 
ATOM     43  C   UNL A   1      39.024  29.573  29.736  1.00  0.00     0.074 A 
ATOM     44  C   UNL A   1      39.050  29.043  28.390  1.00  0.00     0.031 C 
ATOM     45  C   UNL A   1      44.383  27.185  32.338  1.00  0.00     0.029 A 
ATOM     46  C   UNL A   1      43.423  28.101  32.949  1.00  0.00     0.049 A 
ATOM     47  H   UNL A   1      41.684  28.864  32.097  1.00  0.00     0.167 HD
ATOM     48  C   UNL A   1      38.032  30.352  30.227  1.00  0.00     0.031 A 
ATOM     49  C   UNL A   1      43.504  28.611  34.193  1.00  0.00     0.031 A 
ATOM     50  C   UNL A   1      38.007  30.894  31.557  1.00  0.00     0.049 A 
ATOM     51  C   UNL A   1      42.430  29.540  34.689  1.00  0.00     0.074 A 
ATOM     52  C   UNL A   1      37.037  31.686  32.148  1.00  0.00     0.029 A 
ATOM     53  N   UNL A   1      39.004  30.710  32.500  1.00  0.00    -0.354 N 
ATOM     54  N   UNL A   1      41.337  29.936  34.084  1.00  0.00    -0.248 NA
ATOM     55  C   UNL A   1      42.601  30.087  36.043  1.00  0.00     0.031 C 
ATOM     56  C   UNL A   1      37.471  32.015  33.437  1.00  0.00     0.029 A 
ATOM     57  C   UNL A   1      38.688  31.394  33.660  1.00  0.00     0.049 A 
ATOM     58  H   UNL A   1      39.818  30.171  32.364  1.00  0.00     0.167 HD
ATOM     59  C   UNL A   1      40.681  30.761  34.989  1.00  0.00     0.074 A 
ATOM     60  C   UNL A   1      41.492  30.800  36.188  1.00  0.00     0.031 C 
ATOM     61  C   UNL A   1      39.510  31.426  34.841  1.00  0.00     0.031 A 
BRANCH  48  62
ATOM     62  C   UNL A   1      36.903  30.685  29.296  1.00  0.00    -0.014 A 
ATOM     63  C   UNL A   1      35.907  29.742  28.999  1.00  0.00     0.009 A 
ATOM     64  C   UNL A   1      36.825  31.964  28.725  1.00  0.00     0.009 A 
ATOM     65  C   UNL A   1      34.870  30.066  28.122  1.00  0.00     0.001 A 
ATOM     66  C   UNL A   1      35.775  32.292  27.866  1.00  0.00     0.001 A 
ATOM     67  C   UNL A   1      34.803  31.340  27.559  1.00  0.00     0.000 A 
ENDBRANCH  48  62
BRANCH  49  68
ATOM     68  C   UNL A   1      44.660  28.269  35.060  1.00  0.00    -0.014 A 
ATOM     69  C   UNL A   1      45.831  29.040  35.027  1.00  0.00     0.009 A 
ATOM     70  C   UNL A   1      44.602  27.153  35.909  1.00  0.00     0.009 A 
ATOM     71  C   UNL A   1      46.929  28.688  35.815  1.00  0.00     0.001 A 
ATOM     72  C   UNL A   1      45.694  26.817  36.712  1.00  0.00     0.001 A 
ATOM     73  C   UNL A   1      46.859  27.580  36.659  1.00  0.00     0.000 A 
ENDBRANCH  49  68
BRANCH  61  74
ATOM     74  C   UNL A   1      39.026  32.233  36.011  1.00  0.00    -0.014 A 
ATOM     75  C   UNL A   1      38.106  31.701  36.927  1.00  0.00     0.009 A 
ATOM     76  C   UNL A   1      39.530  33.526  36.221  1.00  0.00     0.009 A 
ATOM     77  C   UNL A   1      37.680  32.460  38.019  1.00  0.00     0.001 A 
ATOM     78  C   UNL A   1      39.119  34.274  37.326  1.00  0.00     0.001 A 
ATOM     79  C   UNL A   1      38.189  33.743  38.219  1.00  0.00     0.000 A 
ENDBRANCH  61  74
ENDBRANCH  35  36
ENDBRANCH  28  30
ENDBRANCH  27  28
ENDBRANCH  26  27
ENDBRANCH  25  26
ENDBRANCH  24  25
ENDBRANCH  23  24
ENDBRANCH   1  23
TORSDOF 19
ENDMDL
