MODEL 1
REMARK VINA RESULT:      -9.7      0.000      0.000
REMARK SMILES CC[N@@H+]1CCO[C@@H](Cn2cc(C(=O)OCCOCCOC(=O)c3ccc(-c4c5nc(c(-c6ccccc6)c6ccc([nH]6)c(-c6ccccc6)c6nc(c(-c7ccccc7)c7ccc4[nH]7)C=C6)C=C5)cc3)nn2)C1
REMARK SMILES IDX 16 1 15 2 14 3 12 4 13 5 11 6 9 7 10 8 72 9 71 10 8 11 7 12
REMARK SMILES IDX 3 13 4 14 73 15 5 17 6 18 2 19 1 20 17 21 18 22 19 23 20 24
REMARK SMILES IDX 21 25 22 26 23 27 24 28 70 29 25 30 69 31 26 32 27 33 28 34
REMARK SMILES IDX 63 35 29 36 68 37 62 38 64 39 30 40 67 41 61 42 60 43 31 45
REMARK SMILES IDX 53 46 38 47 52 48 39 49 42 50 51 51 65 52 40 53 41 54 50 56
REMARK SMILES IDX 66 57 43 58 32 59 33 60 37 61 34 62 36 63 35 64 54 65 55 66
REMARK SMILES IDX 59 67 56 68 58 69 57 70 44 71 45 72 49 73 46 74 48 75 47 76
REMARK H PARENT 3 16 64 44 42 55
REMARK Flexibility Score: inf
ROOT
ATOM      1  C   UNL A   1      33.933  32.593  28.338  1.00  0.00     0.202 C 
ENDROOT
BRANCH   1   2
ATOM      2  C   UNL A   1      33.523  31.588  27.260  1.00  0.00     0.261 C 
BRANCH   2   3
ATOM      3  O   UNL A   1      33.300  30.273  27.795  1.00  0.00    -0.458 OA
BRANCH   3   4
ATOM      4  C   UNL A   1      33.853  29.259  27.058  1.00  0.00     0.360 C 
ATOM      5  O   UNL A   1      35.048  29.009  27.021  1.00  0.00    -0.244 OA
BRANCH   4   6
ATOM      6  C   UNL A   1      32.853  28.439  26.389  1.00  0.00     0.190 A 
ATOM      7  N   UNL A   1      31.368  27.639  25.040  1.00  0.00    -0.249 N 
ATOM      8  C   UNL A   1      31.780  28.818  25.604  1.00  0.00     0.147 A 
ATOM      9  N   UNL A   1      31.952  26.590  25.638  1.00  0.00    -0.066 NA
ATOM     10  N   UNL A   1      32.901  27.066  26.430  1.00  0.00    -0.123 NA
BRANCH   7  11
ATOM     11  C   UNL A   1      30.752  27.456  23.740  1.00  0.00     0.184 C 
BRANCH  11  12
ATOM     12  C   UNL A   1      29.675  28.518  23.492  1.00  0.00     0.194 C 
ATOM     13  N   UNL A   1      29.097  30.605  22.235  1.00  0.00    -0.331 N 
ATOM     14  C   UNL A   1      27.760  30.017  22.024  1.00  0.00     0.291 C 
ATOM     15  C   UNL A   1      30.076  29.519  22.384  1.00  0.00     0.296 C 
ATOM     16  H   UNL A   1      29.396  31.123  21.409  1.00  0.00     0.348 HD
ATOM     17  C   UNL A   1      27.398  28.907  23.033  1.00  0.00     0.222 C 
ATOM     18  O   UNL A   1      28.423  27.897  23.139  1.00  0.00    -0.365 OA
BRANCH  13  19
ATOM     19  C   UNL A   1      29.109  31.688  23.228  1.00  0.00     0.258 C 
ATOM     20  C   UNL A   1      28.757  33.111  22.801  1.00  0.00     0.071 C 
ENDBRANCH  13  19
ENDBRANCH  11  12
ENDBRANCH   7  11
ENDBRANCH   4   6
ENDBRANCH   3   4
ENDBRANCH   2   3
ENDBRANCH   1   2
BRANCH   1  21
ATOM     21  O   UNL A   1      33.527  33.952  28.194  1.00  0.00    -0.374 OA
BRANCH  21  22
ATOM     22  C   UNL A   1      34.057  34.965  29.039  1.00  0.00     0.202 C 
BRANCH  22  23
ATOM     23  C   UNL A   1      33.107  35.754  29.928  1.00  0.00     0.261 C 
BRANCH  23  24
ATOM     24  O   UNL A   1      32.532  34.970  30.962  1.00  0.00    -0.460 OA
BRANCH  24  25
ATOM     25  C   UNL A   1      32.846  35.412  32.202  1.00  0.00     0.338 C 
ATOM     26  O   UNL A   1      32.335  36.333  32.813  1.00  0.00    -0.246 OA
BRANCH  25  27
ATOM     27  C   UNL A   1      34.057  34.721  32.646  1.00  0.00     0.060 A 
ATOM     28  C   UNL A   1      35.177  35.521  32.888  1.00  0.00     0.016 A 
ATOM     29  C   UNL A   1      34.149  33.331  32.487  1.00  0.00     0.016 A 
ATOM     30  C   UNL A   1      36.421  34.955  32.746  1.00  0.00     0.010 A 
ATOM     31  C   UNL A   1      35.389  32.775  32.315  1.00  0.00     0.010 A 
ATOM     32  C   UNL A   1      36.501  33.612  32.364  1.00  0.00    -0.014 A 
BRANCH  32  33
ATOM     33  C   UNL A   1      37.808  33.042  32.139  1.00  0.00     0.031 A 
ATOM     34  C   UNL A   1      38.633  33.060  33.368  1.00  0.00     0.074 A 
ATOM     35  C   UNL A   1      38.130  32.443  30.977  1.00  0.00     0.049 A 
ATOM     36  N   UNL A   1      39.716  33.727  33.578  1.00  0.00    -0.248 NA
ATOM     37  C   UNL A   1      38.077  32.414  34.573  1.00  0.00     0.031 C 
ATOM     38  C   UNL A   1      37.249  32.143  29.843  1.00  0.00     0.029 A 
ATOM     39  N   UNL A   1      39.296  31.849  30.614  1.00  0.00    -0.354 N 
ATOM     40  C   UNL A   1      40.095  33.403  34.875  1.00  0.00     0.074 A 
ATOM     41  C   UNL A   1      38.951  32.798  35.501  1.00  0.00     0.031 C 
ATOM     42  C   UNL A   1      37.836  31.206  29.062  1.00  0.00     0.029 A 
ATOM     43  C   UNL A   1      39.170  30.935  29.574  1.00  0.00     0.049 A 
ATOM     44  H   UNL A   1      40.156  32.049  31.049  1.00  0.00     0.167 HD
ATOM     45  C   UNL A   1      41.410  33.343  35.221  1.00  0.00     0.031 A 
ATOM     46  C   UNL A   1      40.064  29.969  29.237  1.00  0.00     0.031 A 
ATOM     47  C   UNL A   1      42.235  34.061  34.284  1.00  0.00     0.049 A 
ATOM     48  C   UNL A   1      41.352  30.301  29.896  1.00  0.00     0.074 A 
ATOM     49  C   UNL A   1      42.276  35.365  33.830  1.00  0.00     0.029 A 
ATOM     50  N   UNL A   1      42.928  33.314  33.361  1.00  0.00    -0.354 N 
ATOM     51  N   UNL A   1      42.091  31.318  29.559  1.00  0.00    -0.248 NA
ATOM     52  C   UNL A   1      41.573  29.790  31.242  1.00  0.00     0.031 C 
ATOM     53  C   UNL A   1      42.573  35.261  32.440  1.00  0.00     0.029 A 
ATOM     54  C   UNL A   1      42.780  33.915  32.138  1.00  0.00     0.049 A 
ATOM     55  H   UNL A   1      43.439  32.493  33.545  1.00  0.00     0.167 HD
ATOM     56  C   UNL A   1      42.518  31.857  30.764  1.00  0.00     0.074 A 
ATOM     57  C   UNL A   1      42.239  30.825  31.762  1.00  0.00     0.031 C 
ATOM     58  C   UNL A   1      42.775  33.193  30.886  1.00  0.00     0.031 A 
BRANCH  45  59
ATOM     59  C   UNL A   1      41.954  32.243  36.099  1.00  0.00    -0.014 A 
ATOM     60  C   UNL A   1      42.758  32.599  37.193  1.00  0.00     0.009 A 
ATOM     61  C   UNL A   1      41.957  30.882  35.730  1.00  0.00     0.009 A 
ATOM     62  C   UNL A   1      43.581  31.659  37.824  1.00  0.00     0.001 A 
ATOM     63  C   UNL A   1      42.742  29.933  36.384  1.00  0.00     0.001 A 
ATOM     64  C   UNL A   1      43.579  30.329  37.414  1.00  0.00     0.000 A 
ENDBRANCH  45  59
BRANCH  46  65
ATOM     65  C   UNL A   1      39.810  28.621  28.675  1.00  0.00    -0.014 A 
ATOM     66  C   UNL A   1      40.375  28.237  27.447  1.00  0.00     0.009 A 
ATOM     67  C   UNL A   1      39.240  27.611  29.471  1.00  0.00     0.009 A 
ATOM     68  C   UNL A   1      40.404  26.891  27.054  1.00  0.00     0.001 A 
ATOM     69  C   UNL A   1      39.263  26.268  29.076  1.00  0.00     0.001 A 
ATOM     70  C   UNL A   1      39.860  25.906  27.875  1.00  0.00     0.000 A 
ENDBRANCH  46  65
BRANCH  58  71
ATOM     71  C   UNL A   1      42.840  34.022  29.627  1.00  0.00    -0.014 A 
ATOM     72  C   UNL A   1      41.789  34.840  29.170  1.00  0.00     0.009 A 
ATOM     73  C   UNL A   1      44.066  34.079  28.946  1.00  0.00     0.009 A 
ATOM     74  C   UNL A   1      41.953  35.652  28.042  1.00  0.00     0.001 A 
ATOM     75  C   UNL A   1      44.236  34.907  27.836  1.00  0.00     0.001 A 
ATOM     76  C   UNL A   1      43.178  35.686  27.378  1.00  0.00     0.000 A 
ENDBRANCH  58  71
ENDBRANCH  32  33
ENDBRANCH  25  27
ENDBRANCH  24  25
ENDBRANCH  23  24
ENDBRANCH  22  23
ENDBRANCH  21  22
ENDBRANCH   1  21
TORSDOF 17
ENDMDL
MODEL 2
REMARK VINA RESULT:      -9.7      4.346     10.290
REMARK SMILES CC[N@@H+]1CCO[C@@H](Cn2cc(C(=O)OCCOCCOC(=O)c3ccc(-c4c5nc(c(-c6ccccc6)c6ccc([nH]6)c(-c6ccccc6)c6nc(c(-c7ccccc7)c7ccc4[nH]7)C=C6)C=C5)cc3)nn2)C1
REMARK SMILES IDX 16 1 15 2 14 3 12 4 13 5 11 6 9 7 10 8 72 9 71 10 8 11 7 12
REMARK SMILES IDX 3 13 4 14 73 15 5 17 6 18 2 19 1 20 17 21 18 22 19 23 20 24
REMARK SMILES IDX 21 25 22 26 23 27 24 28 70 29 25 30 69 31 26 32 27 33 28 34
REMARK SMILES IDX 63 35 29 36 68 37 62 38 64 39 30 40 67 41 61 42 60 43 31 45
REMARK SMILES IDX 53 46 38 47 52 48 39 49 42 50 51 51 65 52 40 53 41 54 50 56
REMARK SMILES IDX 66 57 43 58 32 59 33 60 37 61 34 62 36 63 35 64 54 65 55 66
REMARK SMILES IDX 59 67 56 68 58 69 57 70 44 71 45 72 49 73 46 74 48 75 47 76
REMARK H PARENT 3 16 64 44 42 55
REMARK Flexibility Score: inf
ROOT
ATOM      1  C   UNL A   1      34.952  34.696  34.025  1.00  0.00     0.202 C 
ENDROOT
BRANCH   1   2
ATOM      2  C   UNL A   1      36.307  34.091  34.401  1.00  0.00     0.261 C 
BRANCH   2   3
ATOM      3  O   UNL A   1      36.344  33.641  35.766  1.00  0.00    -0.458 OA
BRANCH   3   4
ATOM      4  C   UNL A   1      37.319  32.716  36.031  1.00  0.00     0.360 C 
ATOM      5  O   UNL A   1      37.873  32.036  35.180  1.00  0.00    -0.244 OA
BRANCH   4   6
ATOM      6  C   UNL A   1      37.702  32.689  37.435  1.00  0.00     0.190 A 
ATOM      7  N   UNL A   1      37.795  32.382  39.572  1.00  0.00    -0.249 N 
ATOM      8  C   UNL A   1      36.910  32.680  38.569  1.00  0.00     0.147 A 
ATOM      9  N   UNL A   1      39.062  32.478  39.139  1.00  0.00    -0.066 NA
ATOM     10  N   UNL A   1      39.019  32.614  37.822  1.00  0.00    -0.123 NA
BRANCH   7  11
ATOM     11  C   UNL A   1      37.522  31.657  40.798  1.00  0.00     0.184 C 
BRANCH  11  12
ATOM     12  C   UNL A   1      36.515  32.418  41.668  1.00  0.00     0.194 C 
ATOM     13  N   UNL A   1      34.100  32.660  42.284  1.00  0.00    -0.331 N 
ATOM     14  C   UNL A   1      34.547  32.792  43.684  1.00  0.00     0.291 C 
ATOM     15  C   UNL A   1      35.081  31.854  41.544  1.00  0.00     0.296 C 
ATOM     16  H   UNL A   1      33.228  32.133  42.233  1.00  0.00     0.348 HD
ATOM     17  C   UNL A   1      36.026  33.212  43.831  1.00  0.00     0.222 C 
ATOM     18  O   UNL A   1      36.918  32.388  43.052  1.00  0.00    -0.365 OA
BRANCH  13  19
ATOM     19  C   UNL A   1      33.660  33.929  41.688  1.00  0.00     0.258 C 
ATOM     20  C   UNL A   1      32.969  33.927  40.326  1.00  0.00     0.071 C 
ENDBRANCH  13  19
ENDBRANCH  11  12
ENDBRANCH   7  11
ENDBRANCH   4   6
ENDBRANCH   3   4
ENDBRANCH   2   3
ENDBRANCH   1   2
BRANCH   1  21
ATOM     21  O   UNL A   1      34.916  36.031  33.526  1.00  0.00    -0.374 OA
BRANCH  21  22
ATOM     22  C   UNL A   1      33.693  36.616  33.098  1.00  0.00     0.202 C 
BRANCH  22  23
ATOM     23  C   UNL A   1      33.353  36.609  31.615  1.00  0.00     0.261 C 
BRANCH  23  24
ATOM     24  O   UNL A   1      33.014  35.320  31.129  1.00  0.00    -0.460 OA
BRANCH  24  25
ATOM     25  C   UNL A   1      33.204  35.187  29.795  1.00  0.00     0.338 C 
ATOM     26  O   UNL A   1      32.582  35.727  28.899  1.00  0.00    -0.246 OA
BRANCH  25  27
ATOM     27  C   UNL A   1      34.179  34.118  29.571  1.00  0.00     0.060 A 
ATOM     28  C   UNL A   1      34.476  33.307  30.670  1.00  0.00     0.016 A 
ATOM     29  C   UNL A   1      34.990  34.160  28.430  1.00  0.00     0.016 A 
ATOM     30  C   UNL A   1      35.711  32.706  30.718  1.00  0.00     0.010 A 
ATOM     31  C   UNL A   1      36.233  33.586  28.492  1.00  0.00     0.010 A 
ATOM     32  C   UNL A   1      36.604  32.940  29.668  1.00  0.00    -0.014 A 
BRANCH  32  33
ATOM     33  C   UNL A   1      37.928  32.372  29.757  1.00  0.00     0.031 A 
ATOM     34  C   UNL A   1      37.938  30.940  29.381  1.00  0.00     0.074 A 
ATOM     35  C   UNL A   1      39.011  33.132  30.009  1.00  0.00     0.049 A 
ATOM     36  N   UNL A   1      38.199  29.930  30.139  1.00  0.00    -0.248 NA
ATOM     37  C   UNL A   1      37.396  30.579  28.057  1.00  0.00     0.031 C 
ATOM     38  C   UNL A   1      39.085  34.594  30.095  1.00  0.00     0.029 A 
ATOM     39  N   UNL A   1      40.314  32.761  30.108  1.00  0.00    -0.354 N 
ATOM     40  C   UNL A   1      38.071  28.818  29.316  1.00  0.00     0.074 A 
ATOM     41  C   UNL A   1      37.361  29.250  28.143  1.00  0.00     0.031 C 
ATOM     42  C   UNL A   1      40.376  34.981  29.963  1.00  0.00     0.029 A 
ATOM     43  C   UNL A   1      41.218  33.797  29.904  1.00  0.00     0.049 A 
ATOM     44  H   UNL A   1      40.593  31.839  30.307  1.00  0.00     0.167 HD
ATOM     45  C   UNL A   1      38.851  27.719  29.505  1.00  0.00     0.031 A 
ATOM     46  C   UNL A   1      42.539  33.668  29.610  1.00  0.00     0.031 A 
ATOM     47  C   UNL A   1      39.416  27.694  30.830  1.00  0.00     0.049 A 
ATOM     48  C   UNL A   1      42.935  32.274  29.932  1.00  0.00     0.074 A 
ATOM     49  C   UNL A   1      38.890  27.705  32.107  1.00  0.00     0.029 A 
ATOM     50  N   UNL A   1      40.731  28.072  30.956  1.00  0.00    -0.354 N 
ATOM     51  N   UNL A   1      43.001  31.808  31.145  1.00  0.00    -0.248 NA
ATOM     52  C   UNL A   1      42.785  31.273  28.886  1.00  0.00     0.031 C 
ATOM     53  C   UNL A   1      39.769  28.537  32.860  1.00  0.00     0.029 A 
ATOM     54  C   UNL A   1      40.824  28.918  32.030  1.00  0.00     0.049 A 
ATOM     55  H   UNL A   1      41.475  27.787  30.378  1.00  0.00     0.167 HD
ATOM     56  C   UNL A   1      42.447  30.538  31.063  1.00  0.00     0.074 A 
ATOM     57  C   UNL A   1      42.411  30.230  29.634  1.00  0.00     0.031 C 
ATOM     58  C   UNL A   1      41.795  29.984  32.128  1.00  0.00     0.031 A 
BRANCH  45  59
ATOM     59  C   UNL A   1      39.471  26.973  28.349  1.00  0.00    -0.014 A 
ATOM     60  C   UNL A   1      39.486  25.570  28.391  1.00  0.00     0.009 A 
ATOM     61  C   UNL A   1      40.293  27.584  27.379  1.00  0.00     0.009 A 
ATOM     62  C   UNL A   1      40.339  24.829  27.566  1.00  0.00     0.001 A 
ATOM     63  C   UNL A   1      41.113  26.848  26.525  1.00  0.00     0.001 A 
ATOM     64  C   UNL A   1      41.158  25.468  26.640  1.00  0.00     0.000 A 
ENDBRANCH  45  59
BRANCH  46  65
ATOM     65  C   UNL A   1      43.394  34.540  28.771  1.00  0.00    -0.014 A 
ATOM     66  C   UNL A   1      43.048  34.816  27.437  1.00  0.00     0.009 A 
ATOM     67  C   UNL A   1      44.404  35.327  29.355  1.00  0.00     0.009 A 
ATOM     68  C   UNL A   1      43.660  35.863  26.732  1.00  0.00     0.001 A 
ATOM     69  C   UNL A   1      45.019  36.368  28.651  1.00  0.00     0.001 A 
ATOM     70  C   UNL A   1      44.636  36.647  27.344  1.00  0.00     0.000 A 
ENDBRANCH  46  65
BRANCH  58  71
ATOM     71  C   UNL A   1      41.918  30.666  33.469  1.00  0.00    -0.014 A 
ATOM     72  C   UNL A   1      41.204  31.825  33.829  1.00  0.00     0.009 A 
ATOM     73  C   UNL A   1      42.690  30.032  34.454  1.00  0.00     0.009 A 
ATOM     74  C   UNL A   1      41.299  32.351  35.123  1.00  0.00     0.001 A 
ATOM     75  C   UNL A   1      42.765  30.544  35.750  1.00  0.00     0.001 A 
ATOM     76  C   UNL A   1      42.077  31.707  36.082  1.00  0.00     0.000 A 
ENDBRANCH  58  71
ENDBRANCH  32  33
ENDBRANCH  25  27
ENDBRANCH  24  25
ENDBRANCH  23  24
ENDBRANCH  22  23
ENDBRANCH  21  22
ENDBRANCH   1  21
TORSDOF 17
ENDMDL
MODEL 3
REMARK VINA RESULT:      -9.4      1.609      2.740
REMARK SMILES CC[N@@H+]1CCO[C@@H](Cn2cc(C(=O)OCCOCCOC(=O)c3ccc(-c4c5nc(c(-c6ccccc6)c6ccc([nH]6)c(-c6ccccc6)c6nc(c(-c7ccccc7)c7ccc4[nH]7)C=C6)C=C5)cc3)nn2)C1
REMARK SMILES IDX 16 1 15 2 14 3 12 4 13 5 11 6 9 7 10 8 72 9 71 10 8 11 7 12
REMARK SMILES IDX 3 13 4 14 73 15 5 17 6 18 2 19 1 20 17 21 18 22 19 23 20 24
REMARK SMILES IDX 21 25 22 26 23 27 24 28 70 29 25 30 69 31 26 32 27 33 28 34
REMARK SMILES IDX 63 35 29 36 68 37 62 38 64 39 30 40 67 41 61 42 60 43 31 45
REMARK SMILES IDX 53 46 38 47 52 48 39 49 42 50 51 51 65 52 40 53 41 54 50 56
REMARK SMILES IDX 66 57 43 58 32 59 33 60 37 61 34 62 36 63 35 64 54 65 55 66
REMARK SMILES IDX 59 67 56 68 58 69 57 70 44 71 45 72 49 73 46 74 48 75 47 76
REMARK H PARENT 3 16 64 44 42 55
REMARK Flexibility Score: inf
ROOT
ATOM      1  C   UNL A   1      33.821  32.377  28.269  1.00  0.00     0.202 C 
ENDROOT
BRANCH   1   2
ATOM      2  C   UNL A   1      33.370  31.462  27.128  1.00  0.00     0.261 C 
BRANCH   2   3
ATOM      3  O   UNL A   1      32.633  30.322  27.601  1.00  0.00    -0.458 OA
BRANCH   3   4
ATOM      4  C   UNL A   1      33.096  29.118  27.140  1.00  0.00     0.360 C 
ATOM      5  O   UNL A   1      34.248  28.730  27.264  1.00  0.00    -0.244 OA
BRANCH   4   6
ATOM      6  C   UNL A   1      32.044  28.293  26.564  1.00  0.00     0.190 A 
ATOM      7  N   UNL A   1      30.743  27.186  25.242  1.00  0.00    -0.249 N 
ATOM      8  C   UNL A   1      31.458  28.353  25.313  1.00  0.00     0.147 A 
ATOM      9  N   UNL A   1      30.667  26.595  26.444  1.00  0.00    -0.066 NA
ATOM     10  N   UNL A   1      31.501  27.233  27.251  1.00  0.00    -0.123 NA
BRANCH   7  11
ATOM     11  C   UNL A   1      30.448  26.408  24.054  1.00  0.00     0.184 C 
BRANCH  11  12
ATOM     12  C   UNL A   1      31.456  25.264  23.887  1.00  0.00     0.194 C 
ATOM     13  N   UNL A   1      31.736  22.831  23.366  1.00  0.00    -0.331 N 
ATOM     14  C   UNL A   1      32.900  23.217  22.547  1.00  0.00     0.291 C 
ATOM     15  C   UNL A   1      30.788  23.954  23.408  1.00  0.00     0.296 C 
ATOM     16  H   UNL A   1      31.224  22.067  22.927  1.00  0.00     0.348 HD
ATOM     17  C   UNL A   1      33.492  24.596  22.911  1.00  0.00     0.222 C 
ATOM     18  O   UNL A   1      32.493  25.635  22.957  1.00  0.00    -0.365 OA
BRANCH  13  19
ATOM     19  C   UNL A   1      32.102  22.190  24.637  1.00  0.00     0.258 C 
ATOM     20  C   UNL A   1      32.392  20.690  24.672  1.00  0.00     0.071 C 
ENDBRANCH  13  19
ENDBRANCH  11  12
ENDBRANCH   7  11
ENDBRANCH   4   6
ENDBRANCH   3   4
ENDBRANCH   2   3
ENDBRANCH   1   2
BRANCH   1  21
ATOM     21  O   UNL A   1      33.491  33.763  28.204  1.00  0.00    -0.374 OA
BRANCH  21  22
ATOM     22  C   UNL A   1      34.122  34.703  29.064  1.00  0.00     0.202 C 
BRANCH  22  23
ATOM     23  C   UNL A   1      33.255  35.629  29.904  1.00  0.00     0.261 C 
BRANCH  23  24
ATOM     24  O   UNL A   1      32.553  34.951  30.934  1.00  0.00    -0.460 OA
BRANCH  24  25
ATOM     25  C   UNL A   1      32.862  35.400  32.173  1.00  0.00     0.338 C 
ATOM     26  O   UNL A   1      32.346  36.320  32.779  1.00  0.00    -0.246 OA
BRANCH  25  27
ATOM     27  C   UNL A   1      34.076  34.716  32.622  1.00  0.00     0.060 A 
ATOM     28  C   UNL A   1      35.194  35.522  32.854  1.00  0.00     0.016 A 
ATOM     29  C   UNL A   1      34.172  33.326  32.476  1.00  0.00     0.016 A 
ATOM     30  C   UNL A   1      36.440  34.959  32.715  1.00  0.00     0.010 A 
ATOM     31  C   UNL A   1      35.414  32.772  32.307  1.00  0.00     0.010 A 
ATOM     32  C   UNL A   1      36.523  33.613  32.346  1.00  0.00    -0.014 A 
BRANCH  32  33
ATOM     33  C   UNL A   1      37.831  33.045  32.124  1.00  0.00     0.031 A 
ATOM     34  C   UNL A   1      38.652  33.058  33.356  1.00  0.00     0.074 A 
ATOM     35  C   UNL A   1      38.159  32.451  30.960  1.00  0.00     0.049 A 
ATOM     36  N   UNL A   1      39.734  33.725  33.574  1.00  0.00    -0.248 NA
ATOM     37  C   UNL A   1      38.091  32.407  34.557  1.00  0.00     0.031 C 
ATOM     38  C   UNL A   1      37.283  32.155  29.822  1.00  0.00     0.029 A 
ATOM     39  N   UNL A   1      39.327  31.859  30.600  1.00  0.00    -0.354 N 
ATOM     40  C   UNL A   1      40.107  33.396  34.871  1.00  0.00     0.074 A 
ATOM     41  C   UNL A   1      38.961  32.787  35.490  1.00  0.00     0.031 C 
ATOM     42  C   UNL A   1      37.874  31.222  29.039  1.00  0.00     0.029 A 
ATOM     43  C   UNL A   1      39.206  30.950  29.556  1.00  0.00     0.049 A 
ATOM     44  H   UNL A   1      40.185  32.058  31.040  1.00  0.00     0.167 HD
ATOM     45  C   UNL A   1      41.420  33.336  35.222  1.00  0.00     0.031 A 
ATOM     46  C   UNL A   1      40.103  29.986  29.219  1.00  0.00     0.031 A 
ATOM     47  C   UNL A   1      42.249  34.058  34.292  1.00  0.00     0.049 A 
ATOM     48  C   UNL A   1      41.387  30.316  29.884  1.00  0.00     0.074 A 
ATOM     49  C   UNL A   1      42.291  35.364  33.843  1.00  0.00     0.029 A 
ATOM     50  N   UNL A   1      42.946  33.316  33.368  1.00  0.00    -0.354 N 
ATOM     51  N   UNL A   1      42.127  31.335  29.554  1.00  0.00    -0.248 NA
ATOM     52  C   UNL A   1      41.603  29.799  31.229  1.00  0.00     0.031 C 
ATOM     53  C   UNL A   1      42.593  35.266  32.454  1.00  0.00     0.029 A 
ATOM     54  C   UNL A   1      42.803  33.921  32.148  1.00  0.00     0.049 A 
ATOM     55  H   UNL A   1      43.457  32.494  33.551  1.00  0.00     0.167 HD
ATOM     56  C   UNL A   1      42.549  31.869  30.763  1.00  0.00     0.074 A 
ATOM     57  C   UNL A   1      42.266  30.833  31.756  1.00  0.00     0.031 C 
ATOM     58  C   UNL A   1      42.804  33.205  30.892  1.00  0.00     0.031 A 
BRANCH  45  59
ATOM     59  C   UNL A   1      41.962  32.233  36.098  1.00  0.00    -0.014 A 
ATOM     60  C   UNL A   1      42.781  32.583  37.183  1.00  0.00     0.009 A 
ATOM     61  C   UNL A   1      41.947  30.870  35.732  1.00  0.00     0.009 A 
ATOM     62  C   UNL A   1      43.600  31.636  37.808  1.00  0.00     0.001 A 
ATOM     63  C   UNL A   1      42.728  29.915  36.381  1.00  0.00     0.001 A 
ATOM     64  C   UNL A   1      43.580  30.305  37.402  1.00  0.00     0.000 A 
ENDBRANCH  45  59
BRANCH  46  65
ATOM     65  C   UNL A   1      39.852  28.640  28.650  1.00  0.00    -0.014 A 
ATOM     66  C   UNL A   1      40.409  28.267  27.414  1.00  0.00     0.009 A 
ATOM     67  C   UNL A   1      39.295  27.621  29.444  1.00  0.00     0.009 A 
ATOM     68  C   UNL A   1      40.442  26.924  27.012  1.00  0.00     0.001 A 
ATOM     69  C   UNL A   1      39.322  26.281  29.040  1.00  0.00     0.001 A 
ATOM     70  C   UNL A   1      39.911  25.930  27.831  1.00  0.00     0.000 A 
ENDBRANCH  46  65
BRANCH  58  71
ATOM     71  C   UNL A   1      42.874  34.039  29.637  1.00  0.00    -0.014 A 
ATOM     72  C   UNL A   1      41.804  34.811  29.147  1.00  0.00     0.009 A 
ATOM     73  C   UNL A   1      44.118  34.151  28.996  1.00  0.00     0.009 A 
ATOM     74  C   UNL A   1      41.968  35.633  28.026  1.00  0.00     0.001 A 
ATOM     75  C   UNL A   1      44.287  34.988  27.893  1.00  0.00     0.001 A 
ATOM     76  C   UNL A   1      43.211  35.722  27.403  1.00  0.00     0.000 A 
ENDBRANCH  58  71
ENDBRANCH  32  33
ENDBRANCH  25  27
ENDBRANCH  24  25
ENDBRANCH  23  24
ENDBRANCH  22  23
ENDBRANCH  21  22
ENDBRANCH   1  21
TORSDOF 17
ENDMDL
