MODEL 1
REMARK VINA RESULT:     -10.2      0.000      0.000
REMARK SMILES Cc1ncccc1NC(=O)NC[C@H]1CCC[C@H]1C(=O)OCCOCCOC(=O)c1ccc(-c2c3nc(c(-c4ccccc4)c4ccc([nH]4)c(-c4ccccc4)c4nc(c(-c5ccccc5)c5ccc2[nH]5)C=C4)C=C3)cc1
REMARK SMILES IDX 22 1 21 2 20 3 18 4 19 5 17 6 13 7 14 8 15 9 16 10 12 11
REMARK SMILES IDX 11 12 8 13 9 14 10 16 7 18 1 19 2 20 3 21 4 22 6 23 5 24
REMARK SMILES IDX 23 25 24 26 25 27 26 28 27 29 28 30 29 31 30 32 76 33 31 34
REMARK SMILES IDX 75 35 32 36 33 37 34 38 69 39 35 40 74 41 68 42 70 43 36 44
REMARK SMILES IDX 73 45 67 46 66 47 37 49 59 50 44 51 58 52 45 53 48 54 57 55
REMARK SMILES IDX 71 56 46 57 47 58 56 60 72 61 49 62 38 63 39 64 43 65 40 66
REMARK SMILES IDX 42 67 41 68 60 69 61 70 65 71 62 72 64 73 63 74 50 75 51 76
REMARK SMILES IDX 55 77 52 78 54 79 53 80
REMARK H PARENT 8 15 11 17 70 48 48 59
REMARK Flexibility Score: inf
ROOT
ATOM      1  C   UNL A   1      33.926  29.354  27.255  1.00  0.00     0.202 C 
ENDROOT
BRANCH   1   2
ATOM      2  C   UNL A   1      32.776  28.344  27.219  1.00  0.00     0.261 C 
BRANCH   2   3
ATOM      3  O   UNL A   1      33.069  27.305  26.262  1.00  0.00    -0.463 OA
BRANCH   3   4
ATOM      4  C   UNL A   1      32.271  27.244  25.171  1.00  0.00     0.309 C 
ATOM      5  O   UNL A   1      31.227  27.869  25.032  1.00  0.00    -0.252 OA
BRANCH   4   6
ATOM      6  C   UNL A   1      32.827  26.345  24.086  1.00  0.00     0.104 C 
ATOM      7  C   UNL A   1      32.359  24.878  24.010  1.00  0.00     0.022 C 
ATOM      8  C   UNL A   1      33.019  24.449  22.698  1.00  0.00     0.006 C 
ATOM      9  C   UNL A   1      32.904  25.653  21.766  1.00  0.00     0.001 C 
ATOM     10  C   UNL A   1      32.684  26.874  22.665  1.00  0.00     0.016 C 
BRANCH   7  11
ATOM     11  C   UNL A   1      30.850  24.576  24.079  1.00  0.00     0.122 C 
BRANCH  11  12
ATOM     12  N   UNL A   1      30.301  24.195  25.355  1.00  0.00    -0.338 N 
ATOM     13  N   UNL A   1      31.317  22.370  26.550  1.00  0.00    -0.306 N 
ATOM     14  C   UNL A   1      30.492  23.394  26.384  1.00  0.00     0.319 C 
ATOM     15  H   UNL A   1      31.141  21.971  27.432  1.00  0.00     0.171 HD
ATOM     16  O   UNL A   1      29.729  23.606  27.341  1.00  0.00    -0.249 OA
ATOM     17  H   UNL A   1      29.487  24.725  25.517  1.00  0.00     0.165 HD
BRANCH  13  18
ATOM     18  C   UNL A   1      32.349  21.645  25.933  1.00  0.00     0.064 A 
ATOM     19  C   UNL A   1      34.050  22.442  27.709  1.00  0.00     0.069 C 
ATOM     20  C   UNL A   1      33.652  21.673  26.479  1.00  0.00     0.061 A 
ATOM     21  N   UNL A   1      34.703  20.985  25.943  1.00  0.00    -0.259 NA
ATOM     22  C   UNL A   1      34.487  20.250  24.839  1.00  0.00     0.111 A 
ATOM     23  C   UNL A   1      32.204  20.902  24.772  1.00  0.00     0.030 A 
ATOM     24  C   UNL A   1      33.263  20.181  24.221  1.00  0.00     0.022 A 
ENDBRANCH  13  18
ENDBRANCH  11  12
ENDBRANCH   7  11
ENDBRANCH   4   6
ENDBRANCH   3   4
ENDBRANCH   2   3
ENDBRANCH   1   2
BRANCH   1  25
ATOM     25  O   UNL A   1      33.573  30.694  26.907  1.00  0.00    -0.374 OA
BRANCH  25  26
ATOM     26  C   UNL A   1      32.187  31.024  26.903  1.00  0.00     0.202 C 
BRANCH  26  27
ATOM     27  C   UNL A   1      31.837  32.474  27.285  1.00  0.00     0.261 C 
BRANCH  27  28
ATOM     28  O   UNL A   1      32.959  33.374  27.186  1.00  0.00    -0.460 OA
BRANCH  28  29
ATOM     29  C   UNL A   1      33.174  34.131  28.291  1.00  0.00     0.338 C 
ATOM     30  O   UNL A   1      32.403  34.935  28.785  1.00  0.00    -0.246 OA
BRANCH  29  31
ATOM     31  C   UNL A   1      34.435  33.738  28.960  1.00  0.00     0.060 A 
ATOM     32  C   UNL A   1      35.628  34.127  28.339  1.00  0.00     0.016 A 
ATOM     33  C   UNL A   1      34.468  32.945  30.109  1.00  0.00     0.016 A 
ATOM     34  C   UNL A   1      36.854  33.670  28.820  1.00  0.00     0.010 A 
ATOM     35  C   UNL A   1      35.703  32.485  30.592  1.00  0.00     0.010 A 
ATOM     36  C   UNL A   1      36.900  32.808  29.924  1.00  0.00    -0.014 A 
BRANCH  36  37
ATOM     37  C   UNL A   1      38.184  32.140  30.267  1.00  0.00     0.031 A 
ATOM     38  C   UNL A   1      39.100  32.777  31.279  1.00  0.00     0.074 A 
ATOM     39  C   UNL A   1      38.506  30.945  29.741  1.00  0.00     0.049 A 
ATOM     40  N   UNL A   1      40.247  32.349  31.747  1.00  0.00    -0.248 NA
ATOM     41  C   UNL A   1      38.667  34.066  31.840  1.00  0.00     0.031 C 
ATOM     42  C   UNL A   1      37.691  30.192  28.789  1.00  0.00     0.029 A 
ATOM     43  N   UNL A   1      39.607  30.149  29.947  1.00  0.00    -0.354 N 
ATOM     44  C   UNL A   1      40.675  33.319  32.647  1.00  0.00     0.074 A 
ATOM     45  C   UNL A   1      39.682  34.371  32.634  1.00  0.00     0.031 C 
ATOM     46  C   UNL A   1      38.316  29.036  28.502  1.00  0.00     0.029 A 
ATOM     47  C   UNL A   1      39.590  28.985  29.219  1.00  0.00     0.049 A 
ATOM     48  H   UNL A   1      40.339  30.391  30.559  1.00  0.00     0.167 HD
ATOM     49  C   UNL A   1      41.788  33.332  33.421  1.00  0.00     0.031 A 
ATOM     50  C   UNL A   1      40.502  27.998  29.125  1.00  0.00     0.031 A 
ATOM     51  C   UNL A   1      42.785  32.294  33.433  1.00  0.00     0.049 A 
ATOM     52  C   UNL A   1      41.773  28.077  29.930  1.00  0.00     0.074 A 
ATOM     53  C   UNL A   1      43.934  32.213  34.200  1.00  0.00     0.029 A 
ATOM     54  N   UNL A   1      42.759  31.164  32.631  1.00  0.00    -0.354 N 
ATOM     55  N   UNL A   1      42.149  28.984  30.799  1.00  0.00    -0.248 NA
ATOM     56  C   UNL A   1      42.743  26.987  29.744  1.00  0.00     0.031 C 
ATOM     57  C   UNL A   1      44.638  31.068  33.815  1.00  0.00     0.029 A 
ATOM     58  C   UNL A   1      43.891  30.397  32.859  1.00  0.00     0.049 A 
ATOM     59  H   UNL A   1      42.043  30.937  31.995  1.00  0.00     0.167 HD
ATOM     60  C   UNL A   1      43.381  28.559  31.283  1.00  0.00     0.074 A 
ATOM     61  C   UNL A   1      43.683  27.306  30.623  1.00  0.00     0.031 C 
ATOM     62  C   UNL A   1      44.188  29.154  32.196  1.00  0.00     0.031 A 
BRANCH  49  63
ATOM     63  C   UNL A   1      42.009  34.539  34.292  1.00  0.00    -0.014 A 
ATOM     64  C   UNL A   1      41.576  34.571  35.628  1.00  0.00     0.009 A 
ATOM     65  C   UNL A   1      42.692  35.652  33.775  1.00  0.00     0.009 A 
ATOM     66  C   UNL A   1      41.787  35.707  36.412  1.00  0.00     0.001 A 
ATOM     67  C   UNL A   1      42.930  36.773  34.571  1.00  0.00     0.001 A 
ATOM     68  C   UNL A   1      42.467  36.805  35.885  1.00  0.00     0.000 A 
ENDBRANCH  49  63
BRANCH  50  69
ATOM     69  C   UNL A   1      40.259  26.845  28.217  1.00  0.00    -0.014 A 
ATOM     70  C   UNL A   1      39.550  25.718  28.661  1.00  0.00     0.009 A 
ATOM     71  C   UNL A   1      40.754  26.860  26.904  1.00  0.00     0.009 A 
ATOM     72  C   UNL A   1      39.363  24.621  27.816  1.00  0.00     0.001 A 
ATOM     73  C   UNL A   1      40.538  25.775  26.051  1.00  0.00     0.001 A 
ATOM     74  C   UNL A   1      39.851  24.653  26.510  1.00  0.00     0.000 A 
ENDBRANCH  50  69
BRANCH  62  75
ATOM     75  C   UNL A   1      45.460  28.440  32.570  1.00  0.00    -0.014 A 
ATOM     76  C   UNL A   1      45.492  27.485  33.598  1.00  0.00     0.009 A 
ATOM     77  C   UNL A   1      46.638  28.697  31.849  1.00  0.00     0.009 A 
ATOM     78  C   UNL A   1      46.684  26.831  33.920  1.00  0.00     0.001 A 
ATOM     79  C   UNL A   1      47.819  28.019  32.151  1.00  0.00     0.001 A 
ATOM     80  C   UNL A   1      47.845  27.094  33.193  1.00  0.00     0.000 A 
ENDBRANCH  62  75
ENDBRANCH  36  37
ENDBRANCH  29  31
ENDBRANCH  28  29
ENDBRANCH  27  28
ENDBRANCH  26  27
ENDBRANCH  25  26
ENDBRANCH   1  25
TORSDOF 17
ENDMDL
MODEL 2
REMARK VINA RESULT:     -10.1      3.821      8.554
REMARK SMILES Cc1ncccc1NC(=O)NC[C@H]1CCC[C@H]1C(=O)OCCOCCOC(=O)c1ccc(-c2c3nc(c(-c4ccccc4)c4ccc([nH]4)c(-c4ccccc4)c4nc(c(-c5ccccc5)c5ccc2[nH]5)C=C4)C=C3)cc1
REMARK SMILES IDX 22 1 21 2 20 3 18 4 19 5 17 6 13 7 14 8 15 9 16 10 12 11
REMARK SMILES IDX 11 12 8 13 9 14 10 16 7 18 1 19 2 20 3 21 4 22 6 23 5 24
REMARK SMILES IDX 23 25 24 26 25 27 26 28 27 29 28 30 29 31 30 32 76 33 31 34
REMARK SMILES IDX 75 35 32 36 33 37 34 38 69 39 35 40 74 41 68 42 70 43 36 44
REMARK SMILES IDX 73 45 67 46 66 47 37 49 59 50 44 51 58 52 45 53 48 54 57 55
REMARK SMILES IDX 71 56 46 57 47 58 56 60 72 61 49 62 38 63 39 64 43 65 40 66
REMARK SMILES IDX 42 67 41 68 60 69 61 70 65 71 62 72 64 73 63 74 50 75 51 76
REMARK SMILES IDX 55 77 52 78 54 79 53 80
REMARK H PARENT 8 15 11 17 70 48 48 59
REMARK Flexibility Score: inf
ROOT
ATOM      1  C   UNL A   1      34.270  22.182  23.894  1.00  0.00     0.202 C 
ENDROOT
BRANCH   1   2
ATOM      2  C   UNL A   1      34.074  23.470  23.090  1.00  0.00     0.261 C 
BRANCH   2   3
ATOM      3  O   UNL A   1      32.685  23.613  22.729  1.00  0.00    -0.463 OA
BRANCH   3   4
ATOM      4  C   UNL A   1      32.131  24.832  22.925  1.00  0.00     0.309 C 
ATOM      5  O   UNL A   1      31.932  25.659  22.044  1.00  0.00    -0.252 OA
BRANCH   4   6
ATOM      6  C   UNL A   1      31.723  25.068  24.365  1.00  0.00     0.104 C 
ATOM      7  C   UNL A   1      30.854  26.293  24.711  1.00  0.00     0.022 C 
ATOM      8  C   UNL A   1      30.556  26.008  26.184  1.00  0.00     0.006 C 
ATOM      9  C   UNL A   1      30.353  24.498  26.279  1.00  0.00     0.001 C 
ATOM     10  C   UNL A   1      31.029  23.893  25.045  1.00  0.00     0.016 C 
BRANCH   7  11
ATOM     11  C   UNL A   1      29.601  26.578  23.863  1.00  0.00     0.122 C 
BRANCH  11  12
ATOM     12  N   UNL A   1      29.645  27.696  22.955  1.00  0.00    -0.338 N 
ATOM     13  N   UNL A   1      31.173  29.497  23.418  1.00  0.00    -0.306 N 
ATOM     14  C   UNL A   1      30.289  28.817  22.701  1.00  0.00     0.319 C 
ATOM     15  H   UNL A   1      31.397  30.322  22.931  1.00  0.00     0.171 HD
ATOM     16  O   UNL A   1      29.972  29.352  21.626  1.00  0.00    -0.249 OA
ATOM     17  H   UNL A   1      28.938  27.581  22.281  1.00  0.00     0.165 HD
BRANCH  13  18
ATOM     18  C   UNL A   1      31.905  29.476  24.616  1.00  0.00     0.064 A 
ATOM     19  C   UNL A   1      33.950  28.448  23.413  1.00  0.00     0.069 C 
ATOM     20  C   UNL A   1      33.228  28.979  24.622  1.00  0.00     0.061 A 
ATOM     21  N   UNL A   1      34.007  28.937  25.743  1.00  0.00    -0.259 NA
ATOM     22  C   UNL A   1      33.487  29.386  26.897  1.00  0.00     0.111 A 
ATOM     23  C   UNL A   1      31.415  29.883  25.847  1.00  0.00     0.030 A 
ATOM     24  C   UNL A   1      32.202  29.862  26.997  1.00  0.00     0.022 A 
ENDBRANCH  13  18
ENDBRANCH  11  12
ENDBRANCH   7  11
ENDBRANCH   4   6
ENDBRANCH   3   4
ENDBRANCH   2   3
ENDBRANCH   1   2
BRANCH   1  25
ATOM     25  O   UNL A   1      34.225  22.337  25.314  1.00  0.00    -0.374 OA
BRANCH  25  26
ATOM     26  C   UNL A   1      35.400  21.999  26.045  1.00  0.00     0.202 C 
BRANCH  26  27
ATOM     27  C   UNL A   1      36.418  21.107  25.312  1.00  0.00     0.261 C 
BRANCH  27  28
ATOM     28  O   UNL A   1      37.642  21.795  24.982  1.00  0.00    -0.460 OA
BRANCH  28  29
ATOM     29  C   UNL A   1      38.707  21.451  25.750  1.00  0.00     0.338 C 
ATOM     30  O   UNL A   1      39.274  20.374  25.769  1.00  0.00    -0.246 OA
BRANCH  29  31
ATOM     31  C   UNL A   1      39.234  22.631  26.473  1.00  0.00     0.060 A 
ATOM     32  C   UNL A   1      38.585  23.852  26.251  1.00  0.00     0.016 A 
ATOM     33  C   UNL A   1      40.374  22.579  27.278  1.00  0.00     0.016 A 
ATOM     34  C   UNL A   1      39.109  25.033  26.773  1.00  0.00     0.010 A 
ATOM     35  C   UNL A   1      40.901  23.769  27.803  1.00  0.00     0.010 A 
ATOM     36  C   UNL A   1      40.297  25.008  27.516  1.00  0.00    -0.014 A 
BRANCH  36  37
ATOM     37  C   UNL A   1      40.967  26.293  27.852  1.00  0.00     0.031 A 
ATOM     38  C   UNL A   1      42.323  26.595  27.269  1.00  0.00     0.074 A 
ATOM     39  C   UNL A   1      40.352  27.218  28.612  1.00  0.00     0.049 A 
ATOM     40  N   UNL A   1      43.067  27.664  27.404  1.00  0.00    -0.248 NA
ATOM     41  C   UNL A   1      42.920  25.553  26.418  1.00  0.00     0.031 C 
ATOM     42  C   UNL A   1      39.021  27.080  29.201  1.00  0.00     0.029 A 
ATOM     43  N   UNL A   1      40.770  28.465  29.007  1.00  0.00    -0.354 N 
ATOM     44  C   UNL A   1      44.220  27.421  26.666  1.00  0.00     0.074 A 
ATOM     45  C   UNL A   1      44.091  26.090  26.113  1.00  0.00     0.031 C 
ATOM     46  C   UNL A   1      38.726  28.207  29.874  1.00  0.00     0.029 A 
ATOM     47  C   UNL A   1      39.861  29.127  29.795  1.00  0.00     0.049 A 
ATOM     48  H   UNL A   1      41.639  28.849  28.750  1.00  0.00     0.167 HD
ATOM     49  C   UNL A   1      45.287  28.231  26.459  1.00  0.00     0.031 A 
ATOM     50  C   UNL A   1      39.936  30.328  30.400  1.00  0.00     0.031 A 
ATOM     51  C   UNL A   1      45.427  29.552  27.012  1.00  0.00     0.049 A 
ATOM     52  C   UNL A   1      41.170  31.175  30.225  1.00  0.00     0.074 A 
ATOM     53  C   UNL A   1      46.463  30.453  26.839  1.00  0.00     0.029 A 
ATOM     54  N   UNL A   1      44.510  30.156  27.858  1.00  0.00    -0.354 N 
ATOM     55  N   UNL A   1      42.238  30.945  29.500  1.00  0.00    -0.248 NA
ATOM     56  C   UNL A   1      41.203  32.454  30.950  1.00  0.00     0.031 C 
ATOM     57  C   UNL A   1      46.206  31.575  27.632  1.00  0.00     0.029 A 
ATOM     58  C   UNL A   1      44.974  31.404  28.243  1.00  0.00     0.049 A 
ATOM     59  H   UNL A   1      43.655  29.759  28.142  1.00  0.00     0.167 HD
ATOM     60  C   UNL A   1      43.053  32.060  29.658  1.00  0.00     0.074 A 
ATOM     61  C   UNL A   1      42.350  32.973  30.535  1.00  0.00     0.031 C 
ATOM     62  C   UNL A   1      44.273  32.306  29.120  1.00  0.00     0.031 A 
BRANCH  49  63
ATOM     63  C   UNL A   1      46.416  27.686  25.626  1.00  0.00    -0.014 A 
ATOM     64  C   UNL A   1      46.514  27.957  24.251  1.00  0.00     0.009 A 
ATOM     65  C   UNL A   1      47.418  26.915  26.236  1.00  0.00     0.009 A 
ATOM     66  C   UNL A   1      47.568  27.433  23.501  1.00  0.00     0.001 A 
ATOM     67  C   UNL A   1      48.488  26.419  25.490  1.00  0.00     0.001 A 
ATOM     68  C   UNL A   1      48.556  26.668  24.121  1.00  0.00     0.000 A 
ENDBRANCH  49  63
BRANCH  50  69
ATOM     69  C   UNL A   1      38.812  30.806  31.248  1.00  0.00    -0.014 A 
ATOM     70  C   UNL A   1      38.773  30.514  32.621  1.00  0.00     0.009 A 
ATOM     71  C   UNL A   1      37.759  31.541  30.682  1.00  0.00     0.009 A 
ATOM     72  C   UNL A   1      37.692  30.930  33.403  1.00  0.00     0.001 A 
ATOM     73  C   UNL A   1      36.696  31.983  31.473  1.00  0.00     0.001 A 
ATOM     74  C   UNL A   1      36.658  31.668  32.830  1.00  0.00     0.000 A 
ENDBRANCH  50  69
BRANCH  62  75
ATOM     75  C   UNL A   1      44.915  33.632  29.430  1.00  0.00    -0.014 A 
ATOM     76  C   UNL A   1      44.603  34.789  28.698  1.00  0.00     0.009 A 
ATOM     77  C   UNL A   1      45.815  33.734  30.504  1.00  0.00     0.009 A 
ATOM     78  C   UNL A   1      45.208  36.009  29.011  1.00  0.00     0.001 A 
ATOM     79  C   UNL A   1      46.393  34.960  30.835  1.00  0.00     0.001 A 
ATOM     80  C   UNL A   1      46.097  36.095  30.082  1.00  0.00     0.000 A 
ENDBRANCH  62  75
ENDBRANCH  36  37
ENDBRANCH  29  31
ENDBRANCH  28  29
ENDBRANCH  27  28
ENDBRANCH  26  27
ENDBRANCH  25  26
ENDBRANCH   1  25
TORSDOF 17
ENDMDL
MODEL 3
REMARK VINA RESULT:     -10.1      2.856      8.084
REMARK SMILES Cc1ncccc1NC(=O)NC[C@H]1CCC[C@H]1C(=O)OCCOCCOC(=O)c1ccc(-c2c3nc(c(-c4ccccc4)c4ccc([nH]4)c(-c4ccccc4)c4nc(c(-c5ccccc5)c5ccc2[nH]5)C=C4)C=C3)cc1
REMARK SMILES IDX 22 1 21 2 20 3 18 4 19 5 17 6 13 7 14 8 15 9 16 10 12 11
REMARK SMILES IDX 11 12 8 13 9 14 10 16 7 18 1 19 2 20 3 21 4 22 6 23 5 24
REMARK SMILES IDX 23 25 24 26 25 27 26 28 27 29 28 30 29 31 30 32 76 33 31 34
REMARK SMILES IDX 75 35 32 36 33 37 34 38 69 39 35 40 74 41 68 42 70 43 36 44
REMARK SMILES IDX 73 45 67 46 66 47 37 49 59 50 44 51 58 52 45 53 48 54 57 55
REMARK SMILES IDX 71 56 46 57 47 58 56 60 72 61 49 62 38 63 39 64 43 65 40 66
REMARK SMILES IDX 42 67 41 68 60 69 61 70 65 71 62 72 64 73 63 74 50 75 51 76
REMARK SMILES IDX 55 77 52 78 54 79 53 80
REMARK H PARENT 8 15 11 17 70 48 48 59
REMARK Flexibility Score: inf
ROOT
ATOM      1  C   UNL A   1      37.802  20.958  25.249  1.00  0.00     0.202 C 
ENDROOT
BRANCH   1   2
ATOM      2  C   UNL A   1      36.946  21.847  24.344  1.00  0.00     0.261 C 
BRANCH   2   3
ATOM      3  O   UNL A   1      35.550  21.663  24.657  1.00  0.00    -0.463 OA
BRANCH   3   4
ATOM      4  C   UNL A   1      34.941  22.671  25.323  1.00  0.00     0.309 C 
ATOM      5  O   UNL A   1      34.632  22.639  26.508  1.00  0.00    -0.252 OA
BRANCH   4   6
ATOM      6  C   UNL A   1      34.715  23.894  24.460  1.00  0.00     0.104 C 
ATOM      7  C   UNL A   1      33.519  23.920  23.487  1.00  0.00     0.022 C 
ATOM      8  C   UNL A   1      33.593  25.368  23.001  1.00  0.00     0.006 C 
ATOM      9  C   UNL A   1      33.989  26.193  24.223  1.00  0.00     0.001 C 
ATOM     10  C   UNL A   1      34.633  25.217  25.212  1.00  0.00     0.016 C 
BRANCH   7  11
ATOM     11  C   UNL A   1      32.130  23.505  24.008  1.00  0.00     0.122 C 
BRANCH  11  12
ATOM     12  N   UNL A   1      31.918  23.517  25.433  1.00  0.00    -0.338 N 
ATOM     13  N   UNL A   1      31.105  25.534  26.463  1.00  0.00    -0.306 N 
ATOM     14  C   UNL A   1      31.453  24.256  26.420  1.00  0.00     0.319 C 
ATOM     15  H   UNL A   1      30.856  25.756  27.389  1.00  0.00     0.171 HD
ATOM     16  O   UNL A   1      31.380  23.662  27.508  1.00  0.00    -0.249 OA
ATOM     17  H   UNL A   1      32.237  22.662  25.804  1.00  0.00     0.165 HD
BRANCH  13  18
ATOM     18  C   UNL A   1      30.961  26.688  25.675  1.00  0.00     0.064 A 
ATOM     19  C   UNL A   1      32.183  28.119  27.447  1.00  0.00     0.069 C 
ATOM     20  C   UNL A   1      31.472  27.922  26.136  1.00  0.00     0.061 A 
ATOM     21  N   UNL A   1      31.381  29.083  25.423  1.00  0.00    -0.259 NA
ATOM     22  C   UNL A   1      30.770  29.050  24.227  1.00  0.00     0.111 A 
ATOM     23  C   UNL A   1      30.307  26.731  24.454  1.00  0.00     0.030 A 
ATOM     24  C   UNL A   1      30.219  27.904  23.706  1.00  0.00     0.022 A 
ENDBRANCH  13  18
ENDBRANCH  11  12
ENDBRANCH   7  11
ENDBRANCH   4   6
ENDBRANCH   3   4
ENDBRANCH   2   3
ENDBRANCH   1   2
BRANCH   1  25
ATOM     25  O   UNL A   1      38.776  21.645  26.036  1.00  0.00    -0.374 OA
BRANCH  25  26
ATOM     26  C   UNL A   1      40.047  21.021  26.194  1.00  0.00     0.202 C 
BRANCH  26  27
ATOM     27  C   UNL A   1      41.270  21.953  26.123  1.00  0.00     0.261 C 
BRANCH  27  28
ATOM     28  O   UNL A   1      41.186  23.070  27.031  1.00  0.00    -0.460 OA
BRANCH  28  29
ATOM     29  C   UNL A   1      41.695  24.231  26.545  1.00  0.00     0.338 C 
ATOM     30  O   UNL A   1      42.302  24.379  25.499  1.00  0.00    -0.246 OA
BRANCH  29  31
ATOM     31  C   UNL A   1      41.269  25.379  27.378  1.00  0.00     0.060 A 
ATOM     32  C   UNL A   1      42.113  26.496  27.393  1.00  0.00     0.016 A 
ATOM     33  C   UNL A   1      40.131  25.348  28.186  1.00  0.00     0.016 A 
ATOM     34  C   UNL A   1      41.863  27.555  28.264  1.00  0.00     0.010 A 
ATOM     35  C   UNL A   1      39.881  26.414  29.063  1.00  0.00     0.010 A 
ATOM     36  C   UNL A   1      40.770  27.503  29.140  1.00  0.00    -0.014 A 
BRANCH  36  37
ATOM     37  C   UNL A   1      40.661  28.518  30.223  1.00  0.00     0.031 A 
ATOM     38  C   UNL A   1      39.590  29.574  30.142  1.00  0.00     0.074 A 
ATOM     39  C   UNL A   1      41.459  28.465  31.305  1.00  0.00     0.049 A 
ATOM     40  N   UNL A   1      39.299  30.529  30.990  1.00  0.00    -0.248 NA
ATOM     41  C   UNL A   1      38.731  29.549  28.947  1.00  0.00     0.031 C 
ATOM     42  C   UNL A   1      42.505  27.470  31.538  1.00  0.00     0.029 A 
ATOM     43  N   UNL A   1      41.503  29.267  32.419  1.00  0.00    -0.354 N 
ATOM     44  C   UNL A   1      38.233  31.223  30.428  1.00  0.00     0.074 A 
ATOM     45  C   UNL A   1      37.951  30.600  29.153  1.00  0.00     0.031 C 
ATOM     46  C   UNL A   1      43.079  27.715  32.729  1.00  0.00     0.029 A 
ATOM     47  C   UNL A   1      42.469  28.903  33.323  1.00  0.00     0.049 A 
ATOM     48  H   UNL A   1      40.897  30.031  32.556  1.00  0.00     0.167 HD
ATOM     49  C   UNL A   1      37.544  32.278  30.928  1.00  0.00     0.031 A 
ATOM     50  C   UNL A   1      42.835  29.471  34.489  1.00  0.00     0.031 A 
ATOM     51  C   UNL A   1      37.824  32.909  32.191  1.00  0.00     0.049 A 
ATOM     52  C   UNL A   1      42.111  30.696  34.984  1.00  0.00     0.074 A 
ATOM     53  C   UNL A   1      37.164  33.970  32.788  1.00  0.00     0.029 A 
ATOM     54  N   UNL A   1      38.854  32.548  33.044  1.00  0.00    -0.354 N 
ATOM     55  N   UNL A   1      41.086  31.321  34.457  1.00  0.00    -0.248 NA
ATOM     56  C   UNL A   1      42.593  31.287  36.240  1.00  0.00     0.031 C 
ATOM     57  C   UNL A   1      37.836  34.294  33.971  1.00  0.00     0.029 A 
ATOM     58  C   UNL A   1      38.870  33.389  34.147  1.00  0.00     0.049 A 
ATOM     59  H   UNL A   1      39.480  31.804  32.893  1.00  0.00     0.167 HD
ATOM     60  C   UNL A   1      40.783  32.359  35.332  1.00  0.00     0.074 A 
ATOM     61  C   UNL A   1      41.723  32.270  36.429  1.00  0.00     0.031 C 
ATOM     62  C   UNL A   1      39.811  33.299  35.234  1.00  0.00     0.031 A 
BRANCH  49  63
ATOM     63  C   UNL A   1      36.440  32.847  30.079  1.00  0.00    -0.014 A 
ATOM     64  C   UNL A   1      36.653  33.952  29.238  1.00  0.00     0.009 A 
ATOM     65  C   UNL A   1      35.172  32.245  30.095  1.00  0.00     0.009 A 
ATOM     66  C   UNL A   1      35.608  34.465  28.466  1.00  0.00     0.001 A 
ATOM     67  C   UNL A   1      34.139  32.739  29.299  1.00  0.00     0.001 A 
ATOM     68  C   UNL A   1      34.354  33.856  28.493  1.00  0.00     0.000 A 
ENDBRANCH  49  63
BRANCH  50  69
ATOM     69  C   UNL A   1      43.961  28.897  35.274  1.00  0.00    -0.014 A 
ATOM     70  C   UNL A   1      45.275  29.355  35.087  1.00  0.00     0.009 A 
ATOM     71  C   UNL A   1      43.728  27.870  36.202  1.00  0.00     0.009 A 
ATOM     72  C   UNL A   1      46.332  28.781  35.797  1.00  0.00     0.001 A 
ATOM     73  C   UNL A   1      44.783  27.320  36.934  1.00  0.00     0.001 A 
ATOM     74  C   UNL A   1      46.085  27.769  36.724  1.00  0.00     0.000 A 
ENDBRANCH  50  69
BRANCH  62  75
ATOM     75  C   UNL A   1      39.683  34.286  36.363  1.00  0.00    -0.014 A 
ATOM     76  C   UNL A   1      38.983  33.973  37.538  1.00  0.00     0.009 A 
ATOM     77  C   UNL A   1      40.313  35.539  36.264  1.00  0.00     0.009 A 
ATOM     78  C   UNL A   1      38.886  34.905  38.574  1.00  0.00     0.001 A 
ATOM     79  C   UNL A   1      40.241  36.456  37.313  1.00  0.00     0.001 A 
ATOM     80  C   UNL A   1      39.519  36.143  38.464  1.00  0.00     0.000 A 
ENDBRANCH  62  75
ENDBRANCH  36  37
ENDBRANCH  29  31
ENDBRANCH  28  29
ENDBRANCH  27  28
ENDBRANCH  26  27
ENDBRANCH  25  26
ENDBRANCH   1  25
TORSDOF 17
ENDMDL
