MODEL 1
REMARK VINA RESULT:     -10.1      0.000      0.000
REMARK SMILES C[C@H](C(=O)OCCOCCOC(=O)c1ccc(-c2c3nc(c(-c4ccccc4)c4ccc([nH]4)c(-c4ccccc4)c4nc(c(-c5ccccc5)c5ccc2[nH]5)C=C4)C=C3)cc1)N1CCc2ccccc21
REMARK SMILES IDX 9 1 8 2 7 3 6 4 5 5 3 6 4 7 2 8 1 9 62 10 63 11 70 12 64 13
REMARK SMILES IDX 65 14 69 15 66 16 68 17 67 18 10 19 11 20 12 21 13 22 14 23
REMARK SMILES IDX 15 24 61 25 16 26 60 27 17 28 18 29 19 30 54 31 20 32 59 33
REMARK SMILES IDX 53 34 55 35 21 36 58 37 52 38 51 39 22 41 44 42 29 43 43 44
REMARK SMILES IDX 30 45 33 46 42 47 56 48 31 49 32 50 41 52 57 53 34 54 23 55
REMARK SMILES IDX 24 56 28 57 25 58 27 59 26 60 45 61 46 62 50 63 47 64 49 65
REMARK SMILES IDX 48 66 35 67 36 68 40 69 37 70 39 71 38 72
REMARK H PARENT 55 40 33 51
REMARK Flexibility Score: inf
ROOT
ATOM      1  C   UNL A   1      45.913  21.591  24.235  1.00  0.00     0.202 C 
ENDROOT
BRANCH   1   2
ATOM      2  O   UNL A   1      45.704  20.851  25.437  1.00  0.00    -0.374 OA
BRANCH   2   3
ATOM      3  C   UNL A   1      45.411  19.458  25.319  1.00  0.00     0.202 C 
BRANCH   3   4
ATOM      4  C   UNL A   1      44.135  19.043  24.578  1.00  0.00     0.261 C 
BRANCH   4   5
ATOM      5  O   UNL A   1      42.985  19.720  25.105  1.00  0.00    -0.462 OA
BRANCH   5   6
ATOM      6  C   UNL A   1      42.266  18.990  26.011  1.00  0.00     0.328 C 
ATOM      7  O   UNL A   1      42.391  17.780  26.163  1.00  0.00    -0.250 OA
BRANCH   6   8
ATOM      8  C   UNL A   1      41.311  19.895  26.810  1.00  0.00     0.189 C 
ATOM      9  C   UNL A   1      42.063  21.030  27.508  1.00  0.00     0.044 C 
BRANCH   8  10
ATOM     10  N   UNL A   1      40.210  20.449  26.009  1.00  0.00    -0.358 N 
ATOM     11  C   UNL A   1      39.299  19.600  25.239  1.00  0.00     0.122 C 
ATOM     12  C   UNL A   1      39.595  21.681  26.166  1.00  0.00     0.041 A 
ATOM     13  C   UNL A   1      37.932  20.310  25.191  1.00  0.00     0.059 C 
ATOM     14  C   UNL A   1      38.286  21.678  25.673  1.00  0.00    -0.023 A 
ATOM     15  C   UNL A   1      40.101  22.842  26.727  1.00  0.00     0.026 A 
ATOM     16  C   UNL A   1      37.464  22.794  25.742  1.00  0.00     0.006 A 
ATOM     17  C   UNL A   1      39.292  23.982  26.796  1.00  0.00     0.002 A 
ATOM     18  C   UNL A   1      37.979  23.957  26.311  1.00  0.00     0.000 A 
ENDBRANCH   8  10
ENDBRANCH   6   8
ENDBRANCH   5   6
ENDBRANCH   4   5
ENDBRANCH   3   4
ENDBRANCH   2   3
ENDBRANCH   1   2
BRANCH   1  19
ATOM     19  C   UNL A   1      44.910  22.696  23.878  1.00  0.00     0.261 C 
BRANCH  19  20
ATOM     20  O   UNL A   1      44.361  23.370  25.014  1.00  0.00    -0.460 OA
BRANCH  20  21
ATOM     21  C   UNL A   1      44.870  24.607  25.216  1.00  0.00     0.338 C 
ATOM     22  O   UNL A   1      45.804  25.142  24.635  1.00  0.00    -0.246 OA
BRANCH  21  23
ATOM     23  C   UNL A   1      44.008  25.324  26.163  1.00  0.00     0.060 A 
ATOM     24  C   UNL A   1      43.982  26.721  26.086  1.00  0.00     0.016 A 
ATOM     25  C   UNL A   1      43.263  24.637  27.124  1.00  0.00     0.016 A 
ATOM     26  C   UNL A   1      43.238  27.446  27.005  1.00  0.00     0.010 A 
ATOM     27  C   UNL A   1      42.525  25.366  28.053  1.00  0.00     0.010 A 
ATOM     28  C   UNL A   1      42.543  26.772  28.018  1.00  0.00    -0.014 A 
BRANCH  28  29
ATOM     29  C   UNL A   1      41.987  27.548  29.143  1.00  0.00     0.031 A 
ATOM     30  C   UNL A   1      42.717  27.521  30.455  1.00  0.00     0.074 A 
ATOM     31  C   UNL A   1      40.879  28.287  28.976  1.00  0.00     0.049 A 
ATOM     32  N   UNL A   1      42.422  28.119  31.579  1.00  0.00    -0.248 NA
ATOM     33  C   UNL A   1      43.944  26.706  30.508  1.00  0.00     0.031 C 
ATOM     34  C   UNL A   1      40.127  28.413  27.728  1.00  0.00     0.029 A 
ATOM     35  N   UNL A   1      40.198  29.076  29.863  1.00  0.00    -0.354 N 
ATOM     36  C   UNL A   1      43.418  27.745  32.472  1.00  0.00     0.074 A 
ATOM     37  C   UNL A   1      44.305  26.843  31.775  1.00  0.00     0.031 C 
ATOM     38  C   UNL A   1      39.086  29.238  27.930  1.00  0.00     0.029 A 
ATOM     39  C   UNL A   1      39.082  29.667  29.325  1.00  0.00     0.049 A 
ATOM     40  H   UNL A   1      40.481  29.207  30.798  1.00  0.00     0.167 HD
ATOM     41  C   UNL A   1      43.578  28.126  33.761  1.00  0.00     0.031 A 
ATOM     42  C   UNL A   1      38.158  30.453  29.907  1.00  0.00     0.031 A 
ATOM     43  C   UNL A   1      42.677  29.014  34.444  1.00  0.00     0.049 A 
ATOM     44  C   UNL A   1      38.319  30.803  31.363  1.00  0.00     0.074 A 
ATOM     45  C   UNL A   1      42.748  29.485  35.744  1.00  0.00     0.029 A 
ATOM     46  N   UNL A   1      41.531  29.557  33.881  1.00  0.00    -0.354 N 
ATOM     47  N   UNL A   1      39.280  30.471  32.192  1.00  0.00    -0.248 NA
ATOM     48  C   UNL A   1      37.272  31.643  31.958  1.00  0.00     0.031 C 
ATOM     49  C   UNL A   1      41.609  30.259  35.986  1.00  0.00     0.029 A 
ATOM     50  C   UNL A   1      40.868  30.331  34.816  1.00  0.00     0.049 A 
ATOM     51  H   UNL A   1      41.235  29.413  32.953  1.00  0.00     0.167 HD
ATOM     52  C   UNL A   1      38.971  31.087  33.398  1.00  0.00     0.074 A 
ATOM     53  C   UNL A   1      37.742  31.824  33.185  1.00  0.00     0.031 C 
ATOM     54  C   UNL A   1      39.643  31.051  34.576  1.00  0.00     0.031 A 
BRANCH  41  55
ATOM     55  C   UNL A   1      44.740  27.546  34.518  1.00  0.00    -0.014 A 
ATOM     56  C   UNL A   1      46.013  28.141  34.481  1.00  0.00     0.009 A 
ATOM     57  C   UNL A   1      44.555  26.393  35.296  1.00  0.00     0.009 A 
ATOM     58  C   UNL A   1      47.081  27.570  35.178  1.00  0.00     0.001 A 
ATOM     59  C   UNL A   1      45.616  25.842  36.016  1.00  0.00     0.001 A 
ATOM     60  C   UNL A   1      46.880  26.425  35.949  1.00  0.00     0.000 A 
ENDBRANCH  41  55
BRANCH  42  61
ATOM     61  C   UNL A   1      36.999  30.953  29.121  1.00  0.00    -0.014 A 
ATOM     62  C   UNL A   1      36.938  32.292  28.705  1.00  0.00     0.009 A 
ATOM     63  C   UNL A   1      35.941  30.093  28.788  1.00  0.00     0.009 A 
ATOM     64  C   UNL A   1      35.830  32.764  27.995  1.00  0.00     0.001 A 
ATOM     65  C   UNL A   1      34.850  30.560  28.051  1.00  0.00     0.001 A 
ATOM     66  C   UNL A   1      34.791  31.896  27.665  1.00  0.00     0.000 A 
ENDBRANCH  42  61
BRANCH  54  67
ATOM     67  C   UNL A   1      39.081  31.863  35.710  1.00  0.00    -0.014 A 
ATOM     68  C   UNL A   1      39.368  33.230  35.844  1.00  0.00     0.009 A 
ATOM     69  C   UNL A   1      38.213  31.254  36.631  1.00  0.00     0.009 A 
ATOM     70  C   UNL A   1      38.827  33.962  36.902  1.00  0.00     0.001 A 
ATOM     71  C   UNL A   1      37.646  31.997  37.666  1.00  0.00     0.001 A 
ATOM     72  C   UNL A   1      37.963  33.347  37.808  1.00  0.00     0.000 A 
ENDBRANCH  54  67
ENDBRANCH  28  29
ENDBRANCH  21  23
ENDBRANCH  20  21
ENDBRANCH  19  20
ENDBRANCH   1  19
TORSDOF 15
ENDMDL
MODEL 2
REMARK VINA RESULT:      -9.9      5.448     10.408
REMARK SMILES C[C@H](C(=O)OCCOCCOC(=O)c1ccc(-c2c3nc(c(-c4ccccc4)c4ccc([nH]4)c(-c4ccccc4)c4nc(c(-c5ccccc5)c5ccc2[nH]5)C=C4)C=C3)cc1)N1CCc2ccccc21
REMARK SMILES IDX 9 1 8 2 7 3 6 4 5 5 3 6 4 7 2 8 1 9 62 10 63 11 70 12 64 13
REMARK SMILES IDX 65 14 69 15 66 16 68 17 67 18 10 19 11 20 12 21 13 22 14 23
REMARK SMILES IDX 15 24 61 25 16 26 60 27 17 28 18 29 19 30 54 31 20 32 59 33
REMARK SMILES IDX 53 34 55 35 21 36 58 37 52 38 51 39 22 41 44 42 29 43 43 44
REMARK SMILES IDX 30 45 33 46 42 47 56 48 31 49 32 50 41 52 57 53 34 54 23 55
REMARK SMILES IDX 24 56 28 57 25 58 27 59 26 60 45 61 46 62 50 63 47 64 49 65
REMARK SMILES IDX 48 66 35 67 36 68 40 69 37 70 39 71 38 72
REMARK H PARENT 55 40 33 51
REMARK Flexibility Score: inf
ROOT
ATOM      1  C   UNL A   1      31.416  32.280  26.809  1.00  0.00     0.202 C 
ENDROOT
BRANCH   1   2
ATOM      2  O   UNL A   1      31.762  30.896  26.775  1.00  0.00    -0.374 OA
BRANCH   2   3
ATOM      3  C   UNL A   1      33.130  30.547  26.994  1.00  0.00     0.202 C 
BRANCH   3   4
ATOM      4  C   UNL A   1      33.707  29.351  26.228  1.00  0.00     0.261 C 
BRANCH   4   5
ATOM      5  O   UNL A   1      33.073  29.198  24.950  1.00  0.00    -0.462 OA
BRANCH   5   6
ATOM      6  C   UNL A   1      33.163  27.941  24.423  1.00  0.00     0.328 C 
ATOM      7  O   UNL A   1      33.591  26.972  25.041  1.00  0.00    -0.250 OA
BRANCH   6   8
ATOM      8  C   UNL A   1      32.640  27.915  22.975  1.00  0.00     0.189 C 
ATOM      9  C   UNL A   1      33.443  26.949  22.103  1.00  0.00     0.044 C 
BRANCH   8  10
ATOM     10  N   UNL A   1      31.207  27.604  22.869  1.00  0.00    -0.358 N 
ATOM     11  C   UNL A   1      30.621  26.402  23.466  1.00  0.00     0.122 C 
ATOM     12  C   UNL A   1      30.172  28.492  22.624  1.00  0.00     0.041 A 
ATOM     13  C   UNL A   1      29.168  26.738  23.853  1.00  0.00     0.059 C 
ATOM     14  C   UNL A   1      28.954  28.028  23.132  1.00  0.00    -0.023 A 
ATOM     15  C   UNL A   1      30.208  29.714  21.974  1.00  0.00     0.026 A 
ATOM     16  C   UNL A   1      27.779  28.758  23.028  1.00  0.00     0.006 A 
ATOM     17  C   UNL A   1      29.032  30.462  21.848  1.00  0.00     0.002 A 
ATOM     18  C   UNL A   1      27.824  29.989  22.376  1.00  0.00     0.000 A 
ENDBRANCH   8  10
ENDBRANCH   6   8
ENDBRANCH   5   6
ENDBRANCH   4   5
ENDBRANCH   3   4
ENDBRANCH   2   3
ENDBRANCH   1   2
BRANCH   1  19
ATOM     19  C   UNL A   1      32.506  33.293  27.187  1.00  0.00     0.261 C 
BRANCH  19  20
ATOM     20  O   UNL A   1      32.275  33.954  28.433  1.00  0.00    -0.460 OA
BRANCH  20  21
ATOM     21  C   UNL A   1      33.262  34.808  28.792  1.00  0.00     0.338 C 
ATOM     22  O   UNL A   1      33.183  36.013  28.984  1.00  0.00    -0.246 OA
BRANCH  21  23
ATOM     23  C   UNL A   1      34.471  34.032  29.093  1.00  0.00     0.060 A 
ATOM     24  C   UNL A   1      34.392  33.084  30.119  1.00  0.00     0.016 A 
ATOM     25  C   UNL A   1      35.663  34.254  28.400  1.00  0.00     0.016 A 
ATOM     26  C   UNL A   1      35.527  32.376  30.489  1.00  0.00     0.010 A 
ATOM     27  C   UNL A   1      36.804  33.551  28.780  1.00  0.00     0.010 A 
ATOM     28  C   UNL A   1      36.745  32.640  29.849  1.00  0.00    -0.014 A 
BRANCH  28  29
ATOM     29  C   UNL A   1      37.989  32.094  30.425  1.00  0.00     0.031 A 
ATOM     30  C   UNL A   1      38.532  30.813  29.861  1.00  0.00     0.074 A 
ATOM     31  C   UNL A   1      38.632  32.754  31.402  1.00  0.00     0.049 A 
ATOM     32  N   UNL A   1      39.602  30.145  30.203  1.00  0.00    -0.248 NA
ATOM     33  C   UNL A   1      37.762  30.200  28.764  1.00  0.00     0.031 C 
ATOM     34  C   UNL A   1      38.207  34.028  31.983  1.00  0.00     0.029 A 
ATOM     35  N   UNL A   1      39.784  32.443  32.072  1.00  0.00    -0.354 N 
ATOM     36  C   UNL A   1      39.626  29.031  29.374  1.00  0.00     0.074 A 
ATOM     37  C   UNL A   1      38.451  29.091  28.537  1.00  0.00     0.031 C 
ATOM     38  C   UNL A   1      39.095  34.392  32.924  1.00  0.00     0.029 A 
ATOM     39  C   UNL A   1      40.124  33.362  33.032  1.00  0.00     0.049 A 
ATOM     40  H   UNL A   1      40.318  31.637  31.883  1.00  0.00     0.167 HD
ATOM     41  C   UNL A   1      40.554  28.047  29.315  1.00  0.00     0.031 A 
ATOM     42  C   UNL A   1      41.146  33.357  33.908  1.00  0.00     0.031 A 
ATOM     43  C   UNL A   1      41.712  27.995  30.165  1.00  0.00     0.049 A 
ATOM     44  C   UNL A   1      42.124  32.213  33.871  1.00  0.00     0.074 A 
ATOM     45  C   UNL A   1      42.729  27.057  30.183  1.00  0.00     0.029 A 
ATOM     46  N   UNL A   1      41.999  28.920  31.158  1.00  0.00    -0.354 N 
ATOM     47  N   UNL A   1      42.158  31.180  33.062  1.00  0.00    -0.248 NA
ATOM     48  C   UNL A   1      43.208  32.240  34.861  1.00  0.00     0.031 C 
ATOM     49  C   UNL A   1      43.595  27.379  31.233  1.00  0.00     0.029 A 
ATOM     50  C   UNL A   1      43.159  28.557  31.819  1.00  0.00     0.049 A 
ATOM     51  H   UNL A   1      41.458  29.717  31.362  1.00  0.00     0.167 HD
ATOM     52  C   UNL A   1      43.283  30.450  33.425  1.00  0.00     0.074 A 
ATOM     53  C   UNL A   1      43.910  31.170  34.516  1.00  0.00     0.031 C 
ATOM     54  C   UNL A   1      43.759  29.292  32.904  1.00  0.00     0.031 A 
BRANCH  41  55
ATOM     55  C   UNL A   1      40.323  26.933  28.332  1.00  0.00    -0.014 A 
ATOM     56  C   UNL A   1      39.555  25.804  28.665  1.00  0.00     0.009 A 
ATOM     57  C   UNL A   1      40.870  27.022  27.042  1.00  0.00     0.009 A 
ATOM     58  C   UNL A   1      39.373  24.775  27.739  1.00  0.00     0.001 A 
ATOM     59  C   UNL A   1      40.660  26.006  26.109  1.00  0.00     0.001 A 
ATOM     60  C   UNL A   1      39.920  24.879  26.460  1.00  0.00     0.000 A 
ENDBRANCH  41  55
BRANCH  42  61
ATOM     61  C   UNL A   1      41.292  34.461  34.893  1.00  0.00    -0.014 A 
ATOM     62  C   UNL A   1      40.720  34.363  36.170  1.00  0.00     0.009 A 
ATOM     63  C   UNL A   1      42.001  35.625  34.557  1.00  0.00     0.009 A 
ATOM     64  C   UNL A   1      40.831  35.418  37.080  1.00  0.00     0.001 A 
ATOM     65  C   UNL A   1      42.139  36.665  35.480  1.00  0.00     0.001 A 
ATOM     66  C   UNL A   1      41.545  36.565  36.736  1.00  0.00     0.000 A 
ENDBRANCH  42  61
BRANCH  54  67
ATOM     67  C   UNL A   1      45.039  28.756  33.482  1.00  0.00    -0.014 A 
ATOM     68  C   UNL A   1      46.289  29.154  32.987  1.00  0.00     0.009 A 
ATOM     69  C   UNL A   1      44.986  27.871  34.571  1.00  0.00     0.009 A 
ATOM     70  C   UNL A   1      47.463  28.646  33.548  1.00  0.00     0.001 A 
ATOM     71  C   UNL A   1      46.162  27.393  35.152  1.00  0.00     0.001 A 
ATOM     72  C   UNL A   1      47.397  27.772  34.632  1.00  0.00     0.000 A 
ENDBRANCH  54  67
ENDBRANCH  28  29
ENDBRANCH  21  23
ENDBRANCH  20  21
ENDBRANCH  19  20
ENDBRANCH   1  19
TORSDOF 15
ENDMDL
MODEL 3
REMARK VINA RESULT:      -9.9      4.389      9.054
REMARK SMILES C[C@H](C(=O)OCCOCCOC(=O)c1ccc(-c2c3nc(c(-c4ccccc4)c4ccc([nH]4)c(-c4ccccc4)c4nc(c(-c5ccccc5)c5ccc2[nH]5)C=C4)C=C3)cc1)N1CCc2ccccc21
REMARK SMILES IDX 9 1 8 2 7 3 6 4 5 5 3 6 4 7 2 8 1 9 62 10 63 11 70 12 64 13
REMARK SMILES IDX 65 14 69 15 66 16 68 17 67 18 10 19 11 20 12 21 13 22 14 23
REMARK SMILES IDX 15 24 61 25 16 26 60 27 17 28 18 29 19 30 54 31 20 32 59 33
REMARK SMILES IDX 53 34 55 35 21 36 58 37 52 38 51 39 22 41 44 42 29 43 43 44
REMARK SMILES IDX 30 45 33 46 42 47 56 48 31 49 32 50 41 52 57 53 34 54 23 55
REMARK SMILES IDX 24 56 28 57 25 58 27 59 26 60 45 61 46 62 50 63 47 64 49 65
REMARK SMILES IDX 48 66 35 67 36 68 40 69 37 70 39 71 38 72
REMARK H PARENT 55 40 33 51
REMARK Flexibility Score: inf
ROOT
ATOM      1  C   UNL A   1      32.020  29.372  26.964  1.00  0.00     0.202 C 
ENDROOT
BRANCH   1   2
ATOM      2  O   UNL A   1      31.777  28.874  25.649  1.00  0.00    -0.374 OA
BRANCH   2   3
ATOM      3  C   UNL A   1      31.778  27.458  25.462  1.00  0.00     0.202 C 
BRANCH   3   4
ATOM      4  C   UNL A   1      32.649  26.872  24.346  1.00  0.00     0.261 C 
BRANCH   4   5
ATOM      5  O   UNL A   1      33.730  26.096  24.883  1.00  0.00    -0.462 OA
BRANCH   5   6
ATOM      6  C   UNL A   1      33.582  24.745  24.737  1.00  0.00     0.328 C 
ATOM      7  O   UNL A   1      33.484  24.184  23.652  1.00  0.00    -0.250 OA
BRANCH   6   8
ATOM      8  C   UNL A   1      33.576  24.044  26.108  1.00  0.00     0.189 C 
ATOM      9  C   UNL A   1      32.153  23.840  26.630  1.00  0.00     0.044 C 
BRANCH   8  10
ATOM     10  N   UNL A   1      34.297  22.763  26.121  1.00  0.00    -0.358 N 
ATOM     11  C   UNL A   1      33.623  21.483  25.890  1.00  0.00     0.122 C 
ATOM     12  C   UNL A   1      35.652  22.561  25.912  1.00  0.00     0.041 A 
ATOM     13  C   UNL A   1      34.639  20.537  25.222  1.00  0.00     0.059 C 
ATOM     14  C   UNL A   1      35.920  21.275  25.431  1.00  0.00    -0.023 A 
ATOM     15  C   UNL A   1      36.704  23.439  26.111  1.00  0.00     0.026 A 
ATOM     16  C   UNL A   1      37.205  20.849  25.126  1.00  0.00     0.006 A 
ATOM     17  C   UNL A   1      38.010  23.025  25.820  1.00  0.00     0.002 A 
ATOM     18  C   UNL A   1      38.259  21.739  25.325  1.00  0.00     0.000 A 
ENDBRANCH   8  10
ENDBRANCH   6   8
ENDBRANCH   5   6
ENDBRANCH   4   5
ENDBRANCH   3   4
ENDBRANCH   2   3
ENDBRANCH   1   2
BRANCH   1  19
ATOM     19  C   UNL A   1      32.639  30.769  27.109  1.00  0.00     0.261 C 
BRANCH  19  20
ATOM     20  O   UNL A   1      34.067  30.781  27.026  1.00  0.00    -0.460 OA
BRANCH  20  21
ATOM     21  C   UNL A   1      34.677  31.204  28.158  1.00  0.00     0.338 C 
ATOM     22  O   UNL A   1      34.260  31.996  28.989  1.00  0.00    -0.246 OA
BRANCH  21  23
ATOM     23  C   UNL A   1      35.905  30.422  28.351  1.00  0.00     0.060 A 
ATOM     24  C   UNL A   1      36.118  29.853  29.612  1.00  0.00     0.016 A 
ATOM     25  C   UNL A   1      36.838  30.276  27.323  1.00  0.00     0.016 A 
ATOM     26  C   UNL A   1      37.297  29.167  29.866  1.00  0.00     0.010 A 
ATOM     27  C   UNL A   1      38.026  29.595  27.581  1.00  0.00     0.010 A 
ATOM     28  C   UNL A   1      38.272  29.074  28.864  1.00  0.00    -0.014 A 
BRANCH  28  29
ATOM     29  C   UNL A   1      39.620  28.590  29.220  1.00  0.00     0.031 A 
ATOM     30  C   UNL A   1      40.491  29.470  30.067  1.00  0.00     0.074 A 
ATOM     31  C   UNL A   1      40.031  27.374  28.824  1.00  0.00     0.049 A 
ATOM     32  N   UNL A   1      41.705  29.261  30.504  1.00  0.00    -0.248 NA
ATOM     33  C   UNL A   1      39.918  30.765  30.475  1.00  0.00     0.031 C 
ATOM     34  C   UNL A   1      39.239  26.428  28.037  1.00  0.00     0.029 A 
ATOM     35  N   UNL A   1      41.218  26.727  29.036  1.00  0.00    -0.354 N 
ATOM     36  C   UNL A   1      42.043  30.398  31.225  1.00  0.00     0.074 A 
ATOM     37  C   UNL A   1      40.925  31.309  31.142  1.00  0.00     0.031 C 
ATOM     38  C   UNL A   1      39.965  25.316  27.837  1.00  0.00     0.029 A 
ATOM     39  C   UNL A   1      41.279  25.489  28.449  1.00  0.00     0.049 A 
ATOM     40  H   UNL A   1      41.958  27.114  29.559  1.00  0.00     0.167 HD
ATOM     41  C   UNL A   1      43.186  30.655  31.903  1.00  0.00     0.031 A 
ATOM     42  C   UNL A   1      42.293  24.605  28.405  1.00  0.00     0.031 A 
ATOM     43  C   UNL A   1      44.295  29.743  31.964  1.00  0.00     0.049 A 
ATOM     44  C   UNL A   1      43.582  24.947  29.105  1.00  0.00     0.074 A 
ATOM     45  C   UNL A   1      45.497  29.888  32.635  1.00  0.00     0.029 A 
ATOM     46  N   UNL A   1      44.339  28.515  31.320  1.00  0.00    -0.354 N 
ATOM     47  N   UNL A   1      43.882  26.011  29.812  1.00  0.00    -0.248 NA
ATOM     48  C   UNL A   1      44.666  23.962  29.007  1.00  0.00     0.031 C 
ATOM     49  C   UNL A   1      46.293  28.777  32.340  1.00  0.00     0.029 A 
ATOM     50  C   UNL A   1      45.560  27.907  31.547  1.00  0.00     0.049 A 
ATOM     51  H   UNL A   1      43.609  28.134  30.780  1.00  0.00     0.167 HD
ATOM     52  C   UNL A   1      45.177  25.809  30.270  1.00  0.00     0.074 A 
ATOM     53  C   UNL A   1      45.597  24.515  29.771  1.00  0.00     0.031 C 
ATOM     54  C   UNL A   1      45.952  26.618  31.035  1.00  0.00     0.031 A 
BRANCH  41  55
ATOM     55  C   UNL A   1      43.304  31.990  32.585  1.00  0.00    -0.014 A 
ATOM     56  C   UNL A   1      43.818  33.115  31.919  1.00  0.00     0.009 A 
ATOM     57  C   UNL A   1      42.876  32.128  33.915  1.00  0.00     0.009 A 
ATOM     58  C   UNL A   1      43.934  34.339  32.583  1.00  0.00     0.001 A 
ATOM     59  C   UNL A   1      42.964  33.360  34.566  1.00  0.00     0.001 A 
ATOM     60  C   UNL A   1      43.502  34.462  33.903  1.00  0.00     0.000 A 
ENDBRANCH  41  55
BRANCH  42  61
ATOM     61  C   UNL A   1      42.136  23.323  27.668  1.00  0.00    -0.014 A 
ATOM     62  C   UNL A   1      42.583  23.197  26.344  1.00  0.00     0.009 A 
ATOM     63  C   UNL A   1      41.529  22.218  28.285  1.00  0.00     0.009 A 
ATOM     64  C   UNL A   1      42.401  22.000  25.645  1.00  0.00     0.001 A 
ATOM     65  C   UNL A   1      41.378  21.013  27.595  1.00  0.00     0.001 A 
ATOM     66  C   UNL A   1      41.804  20.908  26.274  1.00  0.00     0.000 A 
ENDBRANCH  42  61
BRANCH  54  67
ATOM     67  C   UNL A   1      47.315  26.106  31.411  1.00  0.00    -0.014 A 
ATOM     68  C   UNL A   1      48.416  26.260  30.556  1.00  0.00     0.009 A 
ATOM     69  C   UNL A   1      47.502  25.498  32.663  1.00  0.00     0.009 A 
ATOM     70  C   UNL A   1      49.672  25.781  30.933  1.00  0.00     0.001 A 
ATOM     71  C   UNL A   1      48.766  25.053  33.052  1.00  0.00     0.001 A 
ATOM     72  C   UNL A   1      49.846  25.184  32.182  1.00  0.00     0.000 A 
ENDBRANCH  54  67
ENDBRANCH  28  29
ENDBRANCH  21  23
ENDBRANCH  20  21
ENDBRANCH  19  20
ENDBRANCH   1  19
TORSDOF 15
ENDMDL
