MODEL 1
REMARK VINA RESULT:     -11.6      0.000      0.000
REMARK SMILES CC[C@H](Oc1ccccc1/C=C1/SC(=S)N(NC(=O)c2ccc(C)cc2)C1=O)C(=O)OCCOCCOC(=O)c1ccc(-c2c3nc(c(-c4ccccc4)c4ccc([nH]4)c(-c4ccccc4)c4nc(c(-c5ccccc5)c5ccc2[nH]5)C=C4)C=C3)cc1
REMARK SMILES IDX 32 1 31 2 29 3 30 4 3 5 2 6 1 7 4 8 5 9 6 10 10 11 7 12 9 13
REMARK SMILES IDX 8 14 11 15 12 16 13 17 27 18 14 19 16 20 28 21 15 22 17 23
REMARK SMILES IDX 18 24 19 26 20 27 21 28 26 29 22 30 25 31 23 32 24 33 33 34
REMARK SMILES IDX 34 35 35 36 36 37 37 38 38 39 39 40 40 41 41 42 87 43 42 44
REMARK SMILES IDX 86 45 43 46 44 47 45 48 80 49 46 50 85 51 79 52 81 53 47 54
REMARK SMILES IDX 84 55 78 56 77 57 48 59 70 60 55 61 69 62 56 63 59 64 68 65
REMARK SMILES IDX 82 66 57 67 58 68 67 70 83 71 60 72 49 73 50 74 54 75 51 76
REMARK SMILES IDX 53 77 52 78 71 79 72 80 76 81 73 82 75 83 74 84 61 85 62 86
REMARK SMILES IDX 66 87 63 88 65 89 64 90
REMARK H PARENT 17 25 81 58 59 69
REMARK Flexibility Score: inf
ROOT
ATOM      1  C   UNL A   1      33.458  24.634  23.020  1.00  0.00     0.261 C 
ENDROOT
BRANCH   1   2
ATOM      2  O   UNL A   1      32.618  23.468  23.068  1.00  0.00    -0.461 OA
BRANCH   2   3
ATOM      3  C   UNL A   1      31.393  23.589  23.660  1.00  0.00     0.347 C 
ATOM      4  O   UNL A   1      30.346  23.703  23.037  1.00  0.00    -0.248 OA
BRANCH   3   5
ATOM      5  C   UNL A   1      31.482  23.489  25.226  1.00  0.00     0.282 C 
BRANCH   5   6
ATOM      6  C   UNL A   1      32.037  24.824  25.773  1.00  0.00     0.054 C 
ATOM      7  C   UNL A   1      31.038  25.880  26.246  1.00  0.00     0.008 C 
ENDBRANCH   5   6
BRANCH   5   8
ATOM      8  O   UNL A   1      31.853  22.165  25.709  1.00  0.00    -0.478 OA
BRANCH   8   9
ATOM      9  C   UNL A   1      32.626  21.154  25.194  1.00  0.00     0.127 A 
ATOM     10  C   UNL A   1      32.079  19.949  24.737  1.00  0.00     0.047 A 
ATOM     11  C   UNL A   1      34.080  21.283  25.256  1.00  0.00     0.018 A 
ATOM     12  C   UNL A   1      32.879  18.861  24.382  1.00  0.00     0.004 A 
ATOM     13  C   UNL A   1      34.855  20.155  24.908  1.00  0.00     0.012 A 
ATOM     14  C   UNL A   1      34.259  18.958  24.480  1.00  0.00     0.001 A 
BRANCH  11  15
ATOM     15  C   UNL A   1      34.816  22.560  25.667  1.00  0.00     0.033 C 
ATOM     16  C   UNL A   1      36.060  23.067  25.405  1.00  0.00     0.083 C 
ATOM     17  S   UNL A   1      36.841  24.279  26.380  1.00  0.00    -0.052 SA
ATOM     18  C   UNL A   1      37.216  22.448  24.636  1.00  0.00     0.285 C 
ATOM     19  C   UNL A   1      38.396  23.360  26.417  1.00  0.00     0.168 C 
ATOM     20  N   UNL A   1      38.302  22.253  25.598  1.00  0.00    -0.198 N 
ATOM     21  O   UNL A   1      37.077  22.267  23.433  1.00  0.00    -0.266 OA
ATOM     22  S   UNL A   1      39.701  23.843  27.327  1.00  0.00    -0.050 S 
BRANCH  20  23
ATOM     23  N   UNL A   1      39.373  20.923  25.901  1.00  0.00    -0.255 N 
ATOM     24  C   UNL A   1      40.865  20.560  26.343  1.00  0.00     0.270 C 
ATOM     25  H   UNL A   1      38.881  20.085  25.744  1.00  0.00     0.192 HD
ATOM     26  O   UNL A   1      41.096  19.341  26.195  1.00  0.00    -0.267 OA
BRANCH  24  27
ATOM     27  C   UNL A   1      42.300  21.393  26.963  1.00  0.00     0.041 A 
ATOM     28  C   UNL A   1      43.355  21.665  26.075  1.00  0.00     0.014 A 
ATOM     29  C   UNL A   1      42.601  21.999  28.241  1.00  0.00     0.014 A 
ATOM     30  C   UNL A   1      44.411  22.609  26.382  1.00  0.00     0.004 A 
ATOM     31  C   UNL A   1      43.598  22.919  28.564  1.00  0.00     0.004 A 
ATOM     32  C   UNL A   1      44.513  23.267  27.618  1.00  0.00    -0.051 A 
ATOM     33  C   UNL A   1      45.481  24.346  27.999  1.00  0.00     0.044 C 
ENDBRANCH  24  27
ENDBRANCH  20  23
ENDBRANCH  11  15
ENDBRANCH   8   9
ENDBRANCH   5   8
ENDBRANCH   3   5
ENDBRANCH   2   3
ENDBRANCH   1   2
BRANCH   1  34
ATOM     34  C   UNL A   1      32.881  25.852  22.253  1.00  0.00     0.202 C 
BRANCH  34  35
ATOM     35  O   UNL A   1      33.533  27.134  22.300  1.00  0.00    -0.374 OA
BRANCH  35  36
ATOM     36  C   UNL A   1      32.921  28.110  23.137  1.00  0.00     0.202 C 
BRANCH  36  37
ATOM     37  C   UNL A   1      33.268  28.309  24.662  1.00  0.00     0.261 C 
BRANCH  37  38
ATOM     38  O   UNL A   1      33.451  29.685  25.609  1.00  0.00    -0.460 OA
BRANCH  38  39
ATOM     39  C   UNL A   1      33.253  30.578  26.680  1.00  0.00     0.338 C 
ATOM     40  O   UNL A   1      32.259  31.092  27.133  1.00  0.00    -0.246 OA
BRANCH  39  41
ATOM     41  C   UNL A   1      34.477  30.581  27.514  1.00  0.00     0.060 A 
ATOM     42  C   UNL A   1      35.039  29.344  27.892  1.00  0.00     0.016 A 
ATOM     43  C   UNL A   1      35.162  31.777  27.695  1.00  0.00     0.016 A 
ATOM     44  C   UNL A   1      36.367  29.283  28.296  1.00  0.00     0.010 A 
ATOM     45  C   UNL A   1      36.468  31.722  28.160  1.00  0.00     0.010 A 
ATOM     46  C   UNL A   1      37.072  30.479  28.450  1.00  0.00    -0.014 A 
BRANCH  46  47
ATOM     47  C   UNL A   1      38.287  30.496  29.277  1.00  0.00     0.031 A 
ATOM     48  C   UNL A   1      39.459  29.777  28.683  1.00  0.00     0.074 A 
ATOM     49  C   UNL A   1      38.316  31.029  30.507  1.00  0.00     0.049 A 
ATOM     50  N   UNL A   1      40.555  29.364  29.253  1.00  0.00    -0.248 NA
ATOM     51  C   UNL A   1      39.350  29.435  27.251  1.00  0.00     0.031 C 
ATOM     52  C   UNL A   1      37.248  31.807  31.137  1.00  0.00     0.029 A 
ATOM     53  N   UNL A   1      39.296  30.963  31.462  1.00  0.00    -0.354 N 
ATOM     54  C   UNL A   1      41.234  28.668  28.261  1.00  0.00     0.074 A 
ATOM     55  C   UNL A   1      40.431  28.703  27.065  1.00  0.00     0.031 C 
ATOM     56  C   UNL A   1      37.626  32.126  32.390  1.00  0.00     0.029 A 
ATOM     57  C   UNL A   1      38.934  31.532  32.659  1.00  0.00     0.049 A 
ATOM     58  H   UNL A   1      40.174  30.547  31.307  1.00  0.00     0.167 HD
ATOM     59  C   UNL A   1      42.424  28.038  28.351  1.00  0.00     0.031 A 
ATOM     60  C   UNL A   1      39.587  31.528  33.837  1.00  0.00     0.031 A 
ATOM     61  C   UNL A   1      43.199  28.011  29.553  1.00  0.00     0.049 A 
ATOM     62  C   UNL A   1      40.902  30.790  33.924  1.00  0.00     0.074 A 
ATOM     63  C   UNL A   1      44.424  27.417  29.780  1.00  0.00     0.029 A 
ATOM     64  N   UNL A   1      42.810  28.619  30.739  1.00  0.00    -0.354 N 
ATOM     65  N   UNL A   1      41.541  30.122  32.992  1.00  0.00    -0.248 NA
ATOM     66  C   UNL A   1      41.580  30.801  35.227  1.00  0.00     0.031 C 
ATOM     67  C   UNL A   1      44.761  27.637  31.119  1.00  0.00     0.029 A 
ATOM     68  C   UNL A   1      43.771  28.409  31.708  1.00  0.00     0.049 A 
ATOM     69  H   UNL A   1      41.975  29.123  30.869  1.00  0.00     0.167 HD
ATOM     70  C   UNL A   1      42.711  29.662  33.585  1.00  0.00     0.074 A 
ATOM     71  C   UNL A   1      42.694  30.135  34.955  1.00  0.00     0.031 C 
ATOM     72  C   UNL A   1      43.711  28.916  33.055  1.00  0.00     0.031 A 
BRANCH  59  73
ATOM     73  C   UNL A   1      42.893  27.300  27.132  1.00  0.00    -0.014 A 
ATOM     74  C   UNL A   1      42.194  26.187  26.636  1.00  0.00     0.009 A 
ATOM     75  C   UNL A   1      44.082  27.694  26.502  1.00  0.00     0.009 A 
ATOM     76  C   UNL A   1      42.702  25.457  25.561  1.00  0.00     0.001 A 
ATOM     77  C   UNL A   1      44.569  26.982  25.405  1.00  0.00     0.001 A 
ATOM     78  C   UNL A   1      43.886  25.859  24.943  1.00  0.00     0.000 A 
ENDBRANCH  59  73
BRANCH  60  79
ATOM     79  C   UNL A   1      39.017  32.211  35.027  1.00  0.00    -0.014 A 
ATOM     80  C   UNL A   1      38.204  31.505  35.929  1.00  0.00     0.009 A 
ATOM     81  C   UNL A   1      39.251  33.576  35.259  1.00  0.00     0.009 A 
ATOM     82  C   UNL A   1      37.619  32.155  37.019  1.00  0.00     0.001 A 
ATOM     83  C   UNL A   1      38.686  34.218  36.366  1.00  0.00     0.001 A 
ATOM     84  C   UNL A   1      37.863  33.509  37.238  1.00  0.00     0.000 A 
ENDBRANCH  60  79
BRANCH  72  85
ATOM     85  C   UNL A   1      44.886  28.618  33.939  1.00  0.00    -0.014 A 
ATOM     86  C   UNL A   1      46.064  29.374  33.864  1.00  0.00     0.009 A 
ATOM     87  C   UNL A   1      44.775  27.612  34.912  1.00  0.00     0.009 A 
ATOM     88  C   UNL A   1      47.124  29.107  34.732  1.00  0.00     0.001 A 
ATOM     89  C   UNL A   1      45.825  27.368  35.796  1.00  0.00     0.001 A 
ATOM     90  C   UNL A   1      47.001  28.110  35.700  1.00  0.00     0.000 A 
ENDBRANCH  72  85
ENDBRANCH  46  47
ENDBRANCH  39  41
ENDBRANCH  38  39
ENDBRANCH  37  38
ENDBRANCH  36  37
ENDBRANCH  35  36
ENDBRANCH  34  35
ENDBRANCH   1  34
TORSDOF 20
ENDMDL
MODEL 2
REMARK VINA RESULT:     -11.5      0.981      5.772
REMARK SMILES CC[C@H](Oc1ccccc1/C=C1/SC(=S)N(NC(=O)c2ccc(C)cc2)C1=O)C(=O)OCCOCCOC(=O)c1ccc(-c2c3nc(c(-c4ccccc4)c4ccc([nH]4)c(-c4ccccc4)c4nc(c(-c5ccccc5)c5ccc2[nH]5)C=C4)C=C3)cc1
REMARK SMILES IDX 32 1 31 2 29 3 30 4 3 5 2 6 1 7 4 8 5 9 6 10 10 11 7 12 9 13
REMARK SMILES IDX 8 14 11 15 12 16 13 17 27 18 14 19 16 20 28 21 15 22 17 23
REMARK SMILES IDX 18 24 19 26 20 27 21 28 26 29 22 30 25 31 23 32 24 33 33 34
REMARK SMILES IDX 34 35 35 36 36 37 37 38 38 39 39 40 40 41 41 42 87 43 42 44
REMARK SMILES IDX 86 45 43 46 44 47 45 48 80 49 46 50 85 51 79 52 81 53 47 54
REMARK SMILES IDX 84 55 78 56 77 57 48 59 70 60 55 61 69 62 56 63 59 64 68 65
REMARK SMILES IDX 82 66 57 67 58 68 67 70 83 71 60 72 49 73 50 74 54 75 51 76
REMARK SMILES IDX 53 77 52 78 71 79 72 80 76 81 73 82 75 83 74 84 61 85 62 86
REMARK SMILES IDX 66 87 63 88 65 89 64 90
REMARK H PARENT 17 25 81 58 59 69
REMARK Flexibility Score: inf
ROOT
ATOM      1  C   UNL A   1      31.390  26.275  26.429  1.00  0.00     0.261 C 
ENDROOT
BRANCH   1   2
ATOM      2  O   UNL A   1      30.618  25.183  25.903  1.00  0.00    -0.461 OA
BRANCH   2   3
ATOM      3  C   UNL A   1      30.994  23.914  26.242  1.00  0.00     0.347 C 
ATOM      4  O   UNL A   1      30.791  23.417  27.342  1.00  0.00    -0.248 OA
BRANCH   3   5
ATOM      5  C   UNL A   1      31.647  23.150  25.034  1.00  0.00     0.282 C 
BRANCH   5   6
ATOM      6  C   UNL A   1      31.241  23.864  23.724  1.00  0.00     0.054 C 
ATOM      7  C   UNL A   1      32.264  23.928  22.590  1.00  0.00     0.008 C 
ENDBRANCH   5   6
BRANCH   5   8
ATOM      8  O   UNL A   1      31.709  21.706  25.217  1.00  0.00    -0.478 OA
BRANCH   8   9
ATOM      9  C   UNL A   1      32.629  20.748  24.872  1.00  0.00     0.127 A 
ATOM     10  C   UNL A   1      32.257  19.457  24.477  1.00  0.00     0.047 A 
ATOM     11  C   UNL A   1      34.047  21.039  25.060  1.00  0.00     0.018 A 
ATOM     12  C   UNL A   1      33.195  18.439  24.299  1.00  0.00     0.004 A 
ATOM     13  C   UNL A   1      34.965  19.979  24.890  1.00  0.00     0.012 A 
ATOM     14  C   UNL A   1      34.540  18.694  24.518  1.00  0.00     0.001 A 
BRANCH  11  15
ATOM     15  C   UNL A   1      34.604  22.418  25.422  1.00  0.00     0.033 C 
ATOM     16  C   UNL A   1      35.800  23.049  25.203  1.00  0.00     0.083 C 
ATOM     17  S   UNL A   1      36.367  24.406  26.134  1.00  0.00    -0.052 SA
ATOM     18  C   UNL A   1      37.070  22.519  24.558  1.00  0.00     0.285 C 
ATOM     19  C   UNL A   1      38.009  23.679  26.339  1.00  0.00     0.168 C 
ATOM     20  N   UNL A   1      38.098  22.517  25.600  1.00  0.00    -0.198 N 
ATOM     21  O   UNL A   1      37.040  22.244  23.366  1.00  0.00    -0.266 OA
ATOM     22  S   UNL A   1      39.182  24.370  27.293  1.00  0.00    -0.050 S 
BRANCH  20  23
ATOM     23  N   UNL A   1      39.287  21.344  26.070  1.00  0.00    -0.255 N 
ATOM     24  C   UNL A   1      40.837  21.163  26.411  1.00  0.00     0.270 C 
ATOM     25  H   UNL A   1      38.844  20.469  26.159  1.00  0.00     0.192 HD
ATOM     26  O   UNL A   1      41.140  19.955  26.513  1.00  0.00    -0.267 OA
BRANCH  24  27
ATOM     27  C   UNL A   1      42.262  22.184  26.667  1.00  0.00     0.041 A 
ATOM     28  C   UNL A   1      42.322  22.975  27.827  1.00  0.00     0.014 A 
ATOM     29  C   UNL A   1      43.515  22.306  25.956  1.00  0.00     0.014 A 
ATOM     30  C   UNL A   1      43.552  23.583  28.296  1.00  0.00     0.004 A 
ATOM     31  C   UNL A   1      44.716  22.870  26.384  1.00  0.00     0.004 A 
ATOM     32  C   UNL A   1      44.763  23.500  27.590  1.00  0.00    -0.051 A 
ATOM     33  C   UNL A   1      46.112  23.978  28.036  1.00  0.00     0.044 C 
ENDBRANCH  24  27
ENDBRANCH  20  23
ENDBRANCH  11  15
ENDBRANCH   8   9
ENDBRANCH   5   8
ENDBRANCH   3   5
ENDBRANCH   2   3
ENDBRANCH   1   2
BRANCH   1  34
ATOM     34  C   UNL A   1      31.551  27.501  25.492  1.00  0.00     0.202 C 
BRANCH  34  35
ATOM     35  O   UNL A   1      32.696  28.366  25.593  1.00  0.00    -0.374 OA
BRANCH  35  36
ATOM     36  C   UNL A   1      32.449  29.750  25.368  1.00  0.00     0.202 C 
BRANCH  36  37
ATOM     37  C   UNL A   1      31.940  30.747  26.478  1.00  0.00     0.261 C 
BRANCH  37  38
ATOM     38  O   UNL A   1      32.709  31.970  27.339  1.00  0.00    -0.460 OA
BRANCH  38  39
ATOM     39  C   UNL A   1      33.666  32.956  27.648  1.00  0.00     0.338 C 
ATOM     40  O   UNL A   1      33.606  34.160  27.678  1.00  0.00    -0.246 OA
BRANCH  39  41
ATOM     41  C   UNL A   1      34.802  32.300  28.336  1.00  0.00     0.060 A 
ATOM     42  C   UNL A   1      34.759  30.903  28.527  1.00  0.00     0.016 A 
ATOM     43  C   UNL A   1      35.965  33.028  28.553  1.00  0.00     0.016 A 
ATOM     44  C   UNL A   1      35.934  30.203  28.772  1.00  0.00     0.010 A 
ATOM     45  C   UNL A   1      37.127  32.334  28.860  1.00  0.00     0.010 A 
ATOM     46  C   UNL A   1      37.113  30.926  28.960  1.00  0.00    -0.014 A 
BRANCH  46  47
ATOM     47  C   UNL A   1      38.247  30.287  29.643  1.00  0.00     0.031 A 
ATOM     48  C   UNL A   1      38.361  30.607  31.102  1.00  0.00     0.074 A 
ATOM     49  C   UNL A   1      39.162  29.553  28.993  1.00  0.00     0.049 A 
ATOM     50  N   UNL A   1      39.370  30.452  31.910  1.00  0.00    -0.248 NA
ATOM     51  C   UNL A   1      37.176  31.238  31.719  1.00  0.00     0.031 C 
ATOM     52  C   UNL A   1      39.096  29.133  27.593  1.00  0.00     0.029 A 
ATOM     53  N   UNL A   1      40.357  29.054  29.441  1.00  0.00    -0.354 N 
ATOM     54  C   UNL A   1      38.959  31.017  33.111  1.00  0.00     0.074 A 
ATOM     55  C   UNL A   1      37.622  31.525  32.927  1.00  0.00     0.031 C 
ATOM     56  C   UNL A   1      40.220  28.456  27.290  1.00  0.00     0.029 A 
ATOM     57  C   UNL A   1      41.098  28.443  28.459  1.00  0.00     0.049 A 
ATOM     58  H   UNL A   1      40.656  29.126  30.376  1.00  0.00     0.167 HD
ATOM     59  C   UNL A   1      39.650  31.116  34.265  1.00  0.00     0.031 A 
ATOM     60  C   UNL A   1      42.357  27.968  28.513  1.00  0.00     0.031 A 
ATOM     61  C   UNL A   1      40.980  30.611  34.419  1.00  0.00     0.049 A 
ATOM     62  C   UNL A   1      43.125  28.119  29.805  1.00  0.00     0.074 A 
ATOM     63  C   UNL A   1      41.792  30.638  35.535  1.00  0.00     0.029 A 
ATOM     64  N   UNL A   1      41.690  29.978  33.408  1.00  0.00    -0.354 N 
ATOM     65  N   UNL A   1      42.743  28.661  30.938  1.00  0.00    -0.248 NA
ATOM     66  C   UNL A   1      44.497  27.596  29.821  1.00  0.00     0.031 C 
ATOM     67  C   UNL A   1      43.012  30.049  35.186  1.00  0.00     0.029 A 
ATOM     68  C   UNL A   1      42.938  29.613  33.872  1.00  0.00     0.049 A 
ATOM     69  H   UNL A   1      41.354  29.814  32.497  1.00  0.00     0.167 HD
ATOM     70  C   UNL A   1      43.814  28.516  31.811  1.00  0.00     0.074 A 
ATOM     71  C   UNL A   1      44.857  27.827  31.077  1.00  0.00     0.031 C 
ATOM     72  C   UNL A   1      43.934  28.914  33.102  1.00  0.00     0.031 A 
BRANCH  59  73
ATOM     73  C   UNL A   1      38.982  31.843  35.393  1.00  0.00    -0.014 A 
ATOM     74  C   UNL A   1      39.096  33.236  35.537  1.00  0.00     0.009 A 
ATOM     75  C   UNL A   1      38.271  31.116  36.359  1.00  0.00     0.009 A 
ATOM     76  C   UNL A   1      38.548  33.878  36.648  1.00  0.00     0.001 A 
ATOM     77  C   UNL A   1      37.696  31.765  37.451  1.00  0.00     0.001 A 
ATOM     78  C   UNL A   1      37.844  33.143  37.601  1.00  0.00     0.000 A 
ENDBRANCH  59  73
BRANCH  60  79
ATOM     79  C   UNL A   1      42.984  27.334  27.324  1.00  0.00    -0.014 A 
ATOM     80  C   UNL A   1      44.292  27.677  26.944  1.00  0.00     0.009 A 
ATOM     81  C   UNL A   1      42.278  26.408  26.541  1.00  0.00     0.009 A 
ATOM     82  C   UNL A   1      44.868  27.127  25.795  1.00  0.00     0.001 A 
ATOM     83  C   UNL A   1      42.865  25.839  25.406  1.00  0.00     0.001 A 
ATOM     84  C   UNL A   1      44.155  26.207  25.030  1.00  0.00     0.000 A 
ENDBRANCH  60  79
BRANCH  72  85
ATOM     85  C   UNL A   1      45.210  28.563  33.810  1.00  0.00    -0.014 A 
ATOM     86  C   UNL A   1      45.281  27.468  34.683  1.00  0.00     0.009 A 
ATOM     87  C   UNL A   1      46.372  29.301  33.536  1.00  0.00     0.009 A 
ATOM     88  C   UNL A   1      46.492  27.135  35.291  1.00  0.00     0.001 A 
ATOM     89  C   UNL A   1      47.586  28.947  34.123  1.00  0.00     0.001 A 
ATOM     90  C   UNL A   1      47.643  27.871  35.006  1.00  0.00     0.000 A 
ENDBRANCH  72  85
ENDBRANCH  46  47
ENDBRANCH  39  41
ENDBRANCH  38  39
ENDBRANCH  37  38
ENDBRANCH  36  37
ENDBRANCH  35  36
ENDBRANCH  34  35
ENDBRANCH   1  34
TORSDOF 20
ENDMDL
MODEL 3
REMARK VINA RESULT:     -11.2      2.413      7.834
REMARK SMILES CC[C@H](Oc1ccccc1/C=C1/SC(=S)N(NC(=O)c2ccc(C)cc2)C1=O)C(=O)OCCOCCOC(=O)c1ccc(-c2c3nc(c(-c4ccccc4)c4ccc([nH]4)c(-c4ccccc4)c4nc(c(-c5ccccc5)c5ccc2[nH]5)C=C4)C=C3)cc1
REMARK SMILES IDX 32 1 31 2 29 3 30 4 3 5 2 6 1 7 4 8 5 9 6 10 10 11 7 12 9 13
REMARK SMILES IDX 8 14 11 15 12 16 13 17 27 18 14 19 16 20 28 21 15 22 17 23
REMARK SMILES IDX 18 24 19 26 20 27 21 28 26 29 22 30 25 31 23 32 24 33 33 34
REMARK SMILES IDX 34 35 35 36 36 37 37 38 38 39 39 40 40 41 41 42 87 43 42 44
REMARK SMILES IDX 86 45 43 46 44 47 45 48 80 49 46 50 85 51 79 52 81 53 47 54
REMARK SMILES IDX 84 55 78 56 77 57 48 59 70 60 55 61 69 62 56 63 59 64 68 65
REMARK SMILES IDX 82 66 57 67 58 68 67 70 83 71 60 72 49 73 50 74 54 75 51 76
REMARK SMILES IDX 53 77 52 78 71 79 72 80 76 81 73 82 75 83 74 84 61 85 62 86
REMARK SMILES IDX 66 87 63 88 65 89 64 90
REMARK H PARENT 17 25 81 58 59 69
REMARK Flexibility Score: inf
ROOT
ATOM      1  C   UNL A   1      36.154  23.689  25.893  1.00  0.00     0.261 C 
ENDROOT
BRANCH   1   2
ATOM      2  O   UNL A   1      35.307  24.826  25.655  1.00  0.00    -0.461 OA
BRANCH   2   3
ATOM      3  C   UNL A   1      34.557  24.834  24.514  1.00  0.00     0.347 C 
ATOM      4  O   UNL A   1      34.323  23.833  23.848  1.00  0.00    -0.248 OA
BRANCH   3   5
ATOM      5  C   UNL A   1      33.971  26.259  24.202  1.00  0.00     0.282 C 
BRANCH   5   6
ATOM      6  C   UNL A   1      34.263  26.596  22.722  1.00  0.00     0.054 C 
ATOM      7  C   UNL A   1      33.274  26.108  21.663  1.00  0.00     0.008 C 
ENDBRANCH   5   6
BRANCH   5   8
ATOM      8  O   UNL A   1      34.081  27.193  25.314  1.00  0.00    -0.478 OA
BRANCH   8   9
ATOM      9  C   UNL A   1      33.401  28.335  25.660  1.00  0.00     0.127 A 
ATOM     10  C   UNL A   1      33.976  29.343  26.443  1.00  0.00     0.047 A 
ATOM     11  C   UNL A   1      31.985  28.436  25.320  1.00  0.00     0.018 A 
ATOM     12  C   UNL A   1      33.228  30.413  26.937  1.00  0.00     0.004 A 
ATOM     13  C   UNL A   1      31.256  29.522  25.854  1.00  0.00     0.012 A 
ATOM     14  C   UNL A   1      31.872  30.495  26.657  1.00  0.00     0.001 A 
BRANCH  11  15
ATOM     15  C   UNL A   1      31.241  27.449  24.417  1.00  0.00     0.033 C 
ATOM     16  C   UNL A   1      30.641  26.236  24.625  1.00  0.00     0.083 C 
ATOM     17  S   UNL A   1      30.307  25.088  23.360  1.00  0.00    -0.052 SA
ATOM     18  C   UNL A   1      30.586  25.386  25.884  1.00  0.00     0.285 C 
ATOM     19  C   UNL A   1      30.983  23.714  24.320  1.00  0.00     0.168 C 
ATOM     20  N   UNL A   1      31.313  24.151  25.588  1.00  0.00    -0.198 N 
ATOM     21  O   UNL A   1      29.961  25.818  26.844  1.00  0.00    -0.266 OA
ATOM     22  S   UNL A   1      31.149  22.182  23.698  1.00  0.00    -0.050 S 
BRANCH  20  23
ATOM     23  N   UNL A   1      32.492  23.244  26.479  1.00  0.00    -0.255 N 
ATOM     24  C   UNL A   1      33.203  21.815  26.570  1.00  0.00     0.270 C 
ATOM     25  H   UNL A   1      32.858  23.820  27.189  1.00  0.00     0.192 HD
ATOM     26  O   UNL A   1      33.886  21.716  27.612  1.00  0.00    -0.267 OA
BRANCH  24  27
ATOM     27  C   UNL A   1      33.285  20.318  25.628  1.00  0.00     0.041 A 
ATOM     28  C   UNL A   1      34.428  20.079  24.845  1.00  0.00     0.014 A 
ATOM     29  C   UNL A   1      32.431  19.153  25.570  1.00  0.00     0.014 A 
ATOM     30  C   UNL A   1      34.747  18.772  24.305  1.00  0.00     0.004 A 
ATOM     31  C   UNL A   1      32.713  17.881  25.073  1.00  0.00     0.004 A 
ATOM     32  C   UNL A   1      33.903  17.658  24.451  1.00  0.00    -0.051 A 
ATOM     33  C   UNL A   1      34.186  16.243  24.047  1.00  0.00     0.044 C 
ENDBRANCH  24  27
ENDBRANCH  20  23
ENDBRANCH  11  15
ENDBRANCH   8   9
ENDBRANCH   5   8
ENDBRANCH   3   5
ENDBRANCH   2   3
ENDBRANCH   1   2
BRANCH   1  34
ATOM     34  C   UNL A   1      37.176  23.360  24.773  1.00  0.00     0.202 C 
BRANCH  34  35
ATOM     35  O   UNL A   1      37.718  22.036  24.630  1.00  0.00    -0.374 OA
BRANCH  35  36
ATOM     36  C   UNL A   1      38.335  21.490  25.792  1.00  0.00     0.202 C 
BRANCH  36  37
ATOM     37  C   UNL A   1      39.802  21.833  26.257  1.00  0.00     0.261 C 
BRANCH  37  38
ATOM     38  O   UNL A   1      40.698  23.254  26.211  1.00  0.00    -0.460 OA
BRANCH  38  39
ATOM     39  C   UNL A   1      41.828  24.093  26.145  1.00  0.00     0.338 C 
ATOM     40  O   UNL A   1      42.749  24.150  25.369  1.00  0.00    -0.246 OA
BRANCH  39  41
ATOM     41  C   UNL A   1      41.594  25.255  27.032  1.00  0.00     0.060 A 
ATOM     42  C   UNL A   1      40.571  25.172  27.998  1.00  0.00     0.016 A 
ATOM     43  C   UNL A   1      42.530  26.283  27.050  1.00  0.00     0.016 A 
ATOM     44  C   UNL A   1      40.583  26.027  29.094  1.00  0.00     0.010 A 
ATOM     45  C   UNL A   1      42.503  27.177  28.112  1.00  0.00     0.010 A 
ATOM     46  C   UNL A   1      41.540  27.043  29.135  1.00  0.00    -0.014 A 
BRANCH  46  47
ATOM     47  C   UNL A   1      41.318  28.204  30.010  1.00  0.00     0.031 A 
ATOM     48  C   UNL A   1      42.187  28.245  31.229  1.00  0.00     0.074 A 
ATOM     49  C   UNL A   1      40.350  29.104  29.784  1.00  0.00     0.049 A 
ATOM     50  N   UNL A   1      42.057  28.946  32.318  1.00  0.00    -0.248 NA
ATOM     51  C   UNL A   1      43.340  27.322  31.232  1.00  0.00     0.031 C 
ATOM     52  C   UNL A   1      39.506  29.183  28.592  1.00  0.00     0.029 A 
ATOM     53  N   UNL A   1      39.900  30.119  30.586  1.00  0.00    -0.354 N 
ATOM     54  C   UNL A   1      43.077  28.507  33.152  1.00  0.00     0.074 A 
ATOM     55  C   UNL A   1      43.807  27.478  32.456  1.00  0.00     0.031 C 
ATOM     56  C   UNL A   1      38.619  30.184  28.754  1.00  0.00     0.029 A 
ATOM     57  C   UNL A   1      38.806  30.775  30.078  1.00  0.00     0.049 A 
ATOM     58  H   UNL A   1      40.320  30.355  31.444  1.00  0.00     0.167 HD
ATOM     59  C   UNL A   1      43.366  28.920  34.404  1.00  0.00     0.031 A 
ATOM     60  C   UNL A   1      38.035  31.718  30.653  1.00  0.00     0.031 A 
ATOM     61  C   UNL A   1      42.619  29.938  35.077  1.00  0.00     0.049 A 
ATOM     62  C   UNL A   1      38.356  32.143  32.066  1.00  0.00     0.074 A 
ATOM     63  C   UNL A   1      42.809  30.457  36.342  1.00  0.00     0.029 A 
ATOM     64  N   UNL A   1      41.531  30.596  34.521  1.00  0.00    -0.354 N 
ATOM     65  N   UNL A   1      39.312  31.722  32.861  1.00  0.00    -0.248 NA
ATOM     66  C   UNL A   1      37.488  33.168  32.661  1.00  0.00     0.031 C 
ATOM     67  C   UNL A   1      41.809  31.408  36.565  1.00  0.00     0.029 A 
ATOM     68  C   UNL A   1      41.031  31.515  35.421  1.00  0.00     0.049 A 
ATOM     69  H   UNL A   1      41.169  30.431  33.620  1.00  0.00     0.167 HD
ATOM     70  C   UNL A   1      39.183  32.452  34.036  1.00  0.00     0.074 A 
ATOM     71  C   UNL A   1      38.059  33.348  33.844  1.00  0.00     0.031 C 
ATOM     72  C   UNL A   1      39.917  32.394  35.174  1.00  0.00     0.031 A 
BRANCH  59  73
ATOM     73  C   UNL A   1      44.490  28.217  35.105  1.00  0.00    -0.014 A 
ATOM     74  C   UNL A   1      44.257  27.105  35.931  1.00  0.00     0.009 A 
ATOM     75  C   UNL A   1      45.797  28.710  34.980  1.00  0.00     0.009 A 
ATOM     76  C   UNL A   1      45.304  26.528  36.650  1.00  0.00     0.001 A 
ATOM     77  C   UNL A   1      46.848  28.110  35.675  1.00  0.00     0.001 A 
ATOM     78  C   UNL A   1      46.599  27.028  36.517  1.00  0.00     0.000 A 
ENDBRANCH  59  73
BRANCH  60  79
ATOM     79  C   UNL A   1      36.882  32.309  29.923  1.00  0.00    -0.014 A 
ATOM     80  C   UNL A   1      37.086  33.338  28.990  1.00  0.00     0.009 A 
ATOM     81  C   UNL A   1      35.570  31.874  30.170  1.00  0.00     0.009 A 
ATOM     82  C   UNL A   1      36.002  33.936  28.342  1.00  0.00     0.001 A 
ATOM     83  C   UNL A   1      34.489  32.456  29.500  1.00  0.00     0.001 A 
ATOM     84  C   UNL A   1      34.706  33.493  28.595  1.00  0.00     0.000 A 
ENDBRANCH  60  79
BRANCH  72  85
ATOM     85  C   UNL A   1      39.564  33.359  36.267  1.00  0.00    -0.014 A 
ATOM     86  C   UNL A   1      38.669  33.008  37.288  1.00  0.00     0.009 A 
ATOM     87  C   UNL A   1      40.200  34.610  36.309  1.00  0.00     0.009 A 
ATOM     88  C   UNL A   1      38.396  33.908  38.319  1.00  0.00     0.001 A 
ATOM     89  C   UNL A   1      39.946  35.494  37.357  1.00  0.00     0.001 A 
ATOM     90  C   UNL A   1      39.039  35.146  38.355  1.00  0.00     0.000 A 
ENDBRANCH  72  85
ENDBRANCH  46  47
ENDBRANCH  39  41
ENDBRANCH  38  39
ENDBRANCH  37  38
ENDBRANCH  36  37
ENDBRANCH  35  36
ENDBRANCH  34  35
ENDBRANCH   1  34
TORSDOF 20
ENDMDL
