MODEL 1
REMARK VINA RESULT:      -9.3      0.000      0.000
REMARK SMILES CC(C)(Cn1ccnc1C(N)=S)C(=O)OCCOCCOC(=O)c1ccc(-c2c3nc(c(-c4ccccc4)c4ccc([nH]4)c(-c4ccccc4)c4nc(c(-c5ccccc5)c5ccc2[nH]5)C=C4)C=C3)cc1
REMARK SMILES IDX 17 1 16 2 15 3 13 4 14 5 2 6 1 7 3 8 4 9 5 10 6 11 9 12 7 13
REMARK SMILES IDX 8 14 10 15 12 16 11 17 18 20 19 21 20 22 21 23 22 24 23 25
REMARK SMILES IDX 24 26 25 27 71 28 26 29 70 30 27 31 28 32 29 33 64 34 30 35
REMARK SMILES IDX 69 36 63 37 65 38 31 39 68 40 62 41 61 42 32 44 54 45 39 46
REMARK SMILES IDX 53 47 40 48 43 49 52 50 66 51 41 52 42 53 51 55 67 56 44 57
REMARK SMILES IDX 33 58 34 59 38 60 35 61 37 62 36 63 55 64 56 65 60 66 57 67
REMARK SMILES IDX 59 68 58 69 45 70 46 71 50 72 47 73 49 74 48 75
REMARK H PARENT 11 18 11 19 65 43 43 54
REMARK Flexibility Score: inf
ROOT
ATOM      1  C   UNL A   1      31.572  30.195  25.395  1.00  0.00     0.202 C 
ENDROOT
BRANCH   1   2
ATOM      2  C   UNL A   1      31.056  29.073  24.485  1.00  0.00     0.261 C 
BRANCH   2   3
ATOM      3  O   UNL A   1      31.318  27.716  24.924  1.00  0.00    -0.463 OA
BRANCH   3   4
ATOM      4  C   UNL A   1      32.409  27.161  24.333  1.00  0.00     0.313 C 
ATOM      5  O   UNL A   1      32.796  27.488  23.211  1.00  0.00    -0.252 OA
BRANCH   4   6
ATOM      6  C   UNL A   1      33.116  26.042  25.114  1.00  0.00     0.080 C 
ATOM      7  C   UNL A   1      32.011  25.326  25.911  1.00  0.00     0.025 C 
ATOM      8  C   UNL A   1      34.019  26.833  26.093  1.00  0.00     0.025 C 
BRANCH   6   9
ATOM      9  C   UNL A   1      34.050  25.049  24.356  1.00  0.00     0.142 C 
BRANCH   9  10
ATOM     10  N   UNL A   1      33.722  23.628  24.286  1.00  0.00    -0.328 N 
ATOM     11  C   UNL A   1      32.981  23.102  23.257  1.00  0.00     0.108 A 
ATOM     12  C   UNL A   1      34.238  22.515  24.933  1.00  0.00     0.167 A 
ATOM     13  C   UNL A   1      32.727  21.800  23.577  1.00  0.00     0.131 A 
ATOM     14  N   UNL A   1      33.456  21.464  24.669  1.00  0.00    -0.235 NA
BRANCH  12  15
ATOM     15  C   UNL A   1      35.456  22.258  25.681  1.00  0.00     0.140 C 
ATOM     16  S   UNL A   1      36.986  22.718  25.237  1.00  0.00    -0.057 S 
BRANCH  15  17
ATOM     17  N   UNL A   1      35.273  21.445  26.769  1.00  0.00    -0.387 N 
ATOM     18  H   UNL A   1      36.046  21.005  27.191  1.00  0.00     0.157 HD
ATOM     19  H   UNL A   1      34.367  21.301  27.129  1.00  0.00     0.157 HD
ENDBRANCH  15  17
ENDBRANCH  12  15
ENDBRANCH   9  10
ENDBRANCH   6   9
ENDBRANCH   4   6
ENDBRANCH   3   4
ENDBRANCH   2   3
ENDBRANCH   1   2
BRANCH   1  20
ATOM     20  O   UNL A   1      32.172  29.866  26.640  1.00  0.00    -0.374 OA
BRANCH  20  21
ATOM     21  C   UNL A   1      33.519  30.243  26.897  1.00  0.00     0.202 C 
BRANCH  21  22
ATOM     22  C   UNL A   1      33.775  31.357  27.904  1.00  0.00     0.261 C 
BRANCH  22  23
ATOM     23  O   UNL A   1      35.134  31.795  27.898  1.00  0.00    -0.460 OA
BRANCH  23  24
ATOM     24  C   UNL A   1      35.859  31.426  28.988  1.00  0.00     0.338 C 
ATOM     25  O   UNL A   1      35.542  31.549  30.149  1.00  0.00    -0.246 OA
BRANCH  24  26
ATOM     26  C   UNL A   1      37.201  30.998  28.547  1.00  0.00     0.060 A 
ATOM     27  C   UNL A   1      37.211  29.837  27.785  1.00  0.00     0.016 A 
ATOM     28  C   UNL A   1      38.353  31.449  29.195  1.00  0.00     0.016 A 
ATOM     29  C   UNL A   1      38.239  28.949  27.989  1.00  0.00     0.010 A 
ATOM     30  C   UNL A   1      39.358  30.538  29.456  1.00  0.00     0.010 A 
ATOM     31  C   UNL A   1      39.227  29.258  28.932  1.00  0.00    -0.014 A 
BRANCH  31  32
ATOM     32  C   UNL A   1      40.193  28.222  29.223  1.00  0.00     0.031 A 
ATOM     33  C   UNL A   1      40.524  28.168  30.662  1.00  0.00     0.074 A 
ATOM     34  C   UNL A   1      40.732  27.402  28.303  1.00  0.00     0.049 A 
ATOM     35  N   UNL A   1      41.622  28.542  31.227  1.00  0.00    -0.248 NA
ATOM     36  C   UNL A   1      39.433  27.846  31.594  1.00  0.00     0.031 C 
ATOM     37  C   UNL A   1      40.330  27.161  26.917  1.00  0.00     0.029 A 
ATOM     38  N   UNL A   1      41.754  26.523  28.478  1.00  0.00    -0.354 N 
ATOM     39  C   UNL A   1      41.423  28.351  32.588  1.00  0.00     0.074 A 
ATOM     40  C   UNL A   1      40.018  28.086  32.766  1.00  0.00     0.031 C 
ATOM     41  C   UNL A   1      40.937  26.034  26.469  1.00  0.00     0.029 A 
ATOM     42  C   UNL A   1      41.871  25.566  27.482  1.00  0.00     0.049 A 
ATOM     43  H   UNL A   1      42.362  26.562  29.251  1.00  0.00     0.167 HD
ATOM     44  C   UNL A   1      42.468  28.195  33.443  1.00  0.00     0.031 A 
ATOM     45  C   UNL A   1      42.631  24.443  27.542  1.00  0.00     0.031 A 
ATOM     46  C   UNL A   1      43.706  28.648  32.868  1.00  0.00     0.049 A 
ATOM     47  C   UNL A   1      43.648  24.644  28.605  1.00  0.00     0.074 A 
ATOM     48  C   UNL A   1      44.188  29.868  32.441  1.00  0.00     0.029 A 
ATOM     49  N   UNL A   1      44.518  27.699  32.296  1.00  0.00    -0.354 N 
ATOM     50  N   UNL A   1      44.619  25.506  28.504  1.00  0.00    -0.248 NA
ATOM     51  C   UNL A   1      43.304  24.250  29.963  1.00  0.00     0.031 C 
ATOM     52  C   UNL A   1      44.941  29.574  31.266  1.00  0.00     0.029 A 
ATOM     53  C   UNL A   1      44.930  28.190  31.083  1.00  0.00     0.049 A 
ATOM     54  H   UNL A   1      44.760  26.827  32.683  1.00  0.00     0.167 HD
ATOM     55  C   UNL A   1      44.711  26.089  29.760  1.00  0.00     0.074 A 
ATOM     56  C   UNL A   1      43.930  25.219  30.640  1.00  0.00     0.031 C 
ATOM     57  C   UNL A   1      45.166  27.368  29.917  1.00  0.00     0.031 A 
BRANCH  44  58
ATOM     58  C   UNL A   1      42.418  27.250  34.612  1.00  0.00    -0.014 A 
ATOM     59  C   UNL A   1      42.634  25.882  34.381  1.00  0.00     0.009 A 
ATOM     60  C   UNL A   1      41.884  27.605  35.866  1.00  0.00     0.009 A 
ATOM     61  C   UNL A   1      42.261  24.920  35.326  1.00  0.00     0.001 A 
ATOM     62  C   UNL A   1      41.548  26.652  36.828  1.00  0.00     0.001 A 
ATOM     63  C   UNL A   1      41.708  25.306  36.544  1.00  0.00     0.000 A 
ENDBRANCH  44  58
BRANCH  45  64
ATOM     64  C   UNL A   1      42.309  23.101  27.005  1.00  0.00    -0.014 A 
ATOM     65  C   UNL A   1      43.212  22.396  26.193  1.00  0.00     0.009 A 
ATOM     66  C   UNL A   1      41.207  22.391  27.522  1.00  0.00     0.009 A 
ATOM     67  C   UNL A   1      43.028  21.030  25.927  1.00  0.00     0.001 A 
ATOM     68  C   UNL A   1      41.025  21.030  27.259  1.00  0.00     0.001 A 
ATOM     69  C   UNL A   1      41.942  20.346  26.469  1.00  0.00     0.000 A 
ENDBRANCH  45  64
BRANCH  57  70
ATOM     70  C   UNL A   1      45.735  28.067  28.705  1.00  0.00    -0.014 A 
ATOM     71  C   UNL A   1      47.100  28.029  28.367  1.00  0.00     0.009 A 
ATOM     72  C   UNL A   1      44.842  28.647  27.794  1.00  0.00     0.009 A 
ATOM     73  C   UNL A   1      47.557  28.579  27.164  1.00  0.00     0.001 A 
ATOM     74  C   UNL A   1      45.294  29.178  26.585  1.00  0.00     0.001 A 
ATOM     75  C   UNL A   1      46.652  29.149  26.272  1.00  0.00     0.000 A 
ENDBRANCH  57  70
ENDBRANCH  31  32
ENDBRANCH  24  26
ENDBRANCH  23  24
ENDBRANCH  22  23
ENDBRANCH  21  22
ENDBRANCH  20  21
ENDBRANCH   1  20
TORSDOF 18
ENDMDL
MODEL 2
REMARK VINA RESULT:      -9.2      4.846     10.043
REMARK SMILES CC(C)(Cn1ccnc1C(N)=S)C(=O)OCCOCCOC(=O)c1ccc(-c2c3nc(c(-c4ccccc4)c4ccc([nH]4)c(-c4ccccc4)c4nc(c(-c5ccccc5)c5ccc2[nH]5)C=C4)C=C3)cc1
REMARK SMILES IDX 17 1 16 2 15 3 13 4 14 5 2 6 1 7 3 8 4 9 5 10 6 11 9 12 7 13
REMARK SMILES IDX 8 14 10 15 12 16 11 17 18 20 19 21 20 22 21 23 22 24 23 25
REMARK SMILES IDX 24 26 25 27 71 28 26 29 70 30 27 31 28 32 29 33 64 34 30 35
REMARK SMILES IDX 69 36 63 37 65 38 31 39 68 40 62 41 61 42 32 44 54 45 39 46
REMARK SMILES IDX 53 47 40 48 43 49 52 50 66 51 41 52 42 53 51 55 67 56 44 57
REMARK SMILES IDX 33 58 34 59 38 60 35 61 37 62 36 63 55 64 56 65 60 66 57 67
REMARK SMILES IDX 59 68 58 69 45 70 46 71 50 72 47 73 49 74 48 75
REMARK H PARENT 11 18 11 19 65 43 43 54
REMARK Flexibility Score: inf
ROOT
ATOM      1  C   UNL A   1      45.022  28.109  25.909  1.00  0.00     0.202 C 
ENDROOT
BRANCH   1   2
ATOM      2  C   UNL A   1      44.371  26.765  25.557  1.00  0.00     0.261 C 
BRANCH   2   3
ATOM      3  O   UNL A   1      45.264  25.631  25.430  1.00  0.00    -0.463 OA
BRANCH   3   4
ATOM      4  C   UNL A   1      44.654  24.438  25.661  1.00  0.00     0.313 C 
ATOM      5  O   UNL A   1      43.677  24.323  26.401  1.00  0.00    -0.252 OA
BRANCH   4   6
ATOM      6  C   UNL A   1      45.286  23.205  24.995  1.00  0.00     0.080 C 
ATOM      7  C   UNL A   1      46.636  23.680  24.433  1.00  0.00     0.025 C 
ATOM      8  C   UNL A   1      44.316  22.922  23.821  1.00  0.00     0.025 C 
BRANCH   6   9
ATOM      9  C   UNL A   1      45.405  21.875  25.800  1.00  0.00     0.142 C 
BRANCH   9  10
ATOM     10  N   UNL A   1      44.496  20.763  25.538  1.00  0.00    -0.328 N 
ATOM     11  C   UNL A   1      44.951  19.533  25.131  1.00  0.00     0.108 A 
ATOM     12  C   UNL A   1      43.169  20.539  25.873  1.00  0.00     0.167 A 
ATOM     13  C   UNL A   1      43.850  18.786  24.825  1.00  0.00     0.131 A 
ATOM     14  N   UNL A   1      42.739  19.454  25.221  1.00  0.00    -0.235 NA
BRANCH  12  15
ATOM     15  C   UNL A   1      42.258  21.135  26.833  1.00  0.00     0.140 C 
ATOM     16  S   UNL A   1      40.671  21.529  26.553  1.00  0.00    -0.057 S 
BRANCH  15  17
ATOM     17  N   UNL A   1      42.859  21.503  28.008  1.00  0.00    -0.387 N 
ATOM     18  H   UNL A   1      43.645  21.008  28.335  1.00  0.00     0.157 HD
ATOM     19  H   UNL A   1      42.504  22.263  28.525  1.00  0.00     0.157 HD
ENDBRANCH  15  17
ENDBRANCH  12  15
ENDBRANCH   9  10
ENDBRANCH   6   9
ENDBRANCH   4   6
ENDBRANCH   3   4
ENDBRANCH   2   3
ENDBRANCH   1   2
BRANCH   1  20
ATOM     20  O   UNL A   1      46.263  28.125  26.602  1.00  0.00    -0.374 OA
BRANCH  20  21
ATOM     21  C   UNL A   1      46.302  27.816  27.988  1.00  0.00     0.202 C 
BRANCH  21  22
ATOM     22  C   UNL A   1      46.697  26.402  28.399  1.00  0.00     0.261 C 
BRANCH  22  23
ATOM     23  O   UNL A   1      45.625  25.699  29.027  1.00  0.00    -0.460 OA
BRANCH  23  24
ATOM     24  C   UNL A   1      45.514  25.903  30.367  1.00  0.00     0.338 C 
ATOM     25  O   UNL A   1      46.353  25.677  31.210  1.00  0.00    -0.246 OA
BRANCH  24  26
ATOM     26  C   UNL A   1      44.125  26.292  30.679  1.00  0.00     0.060 A 
ATOM     27  C   UNL A   1      43.269  26.287  29.585  1.00  0.00     0.016 A 
ATOM     28  C   UNL A   1      43.817  27.010  31.837  1.00  0.00     0.016 A 
ATOM     29  C   UNL A   1      42.329  27.285  29.507  1.00  0.00     0.010 A 
ATOM     30  C   UNL A   1      42.919  28.055  31.740  1.00  0.00     0.010 A 
ATOM     31  C   UNL A   1      42.265  28.240  30.529  1.00  0.00    -0.014 A 
BRANCH  31  32
ATOM     32  C   UNL A   1      41.370  29.357  30.319  1.00  0.00     0.031 A 
ATOM     33  C   UNL A   1      42.101  30.589  29.958  1.00  0.00     0.074 A 
ATOM     34  C   UNL A   1      40.031  29.293  30.436  1.00  0.00     0.049 A 
ATOM     35  N   UNL A   1      42.292  31.630  30.696  1.00  0.00    -0.248 NA
ATOM     36  C   UNL A   1      42.876  30.573  28.709  1.00  0.00     0.031 C 
ATOM     37  C   UNL A   1      39.157  28.123  30.530  1.00  0.00     0.029 A 
ATOM     38  N   UNL A   1      39.149  30.327  30.411  1.00  0.00    -0.354 N 
ATOM     39  C   UNL A   1      43.083  32.482  29.938  1.00  0.00     0.074 A 
ATOM     40  C   UNL A   1      43.546  31.719  28.808  1.00  0.00     0.031 C 
ATOM     41  C   UNL A   1      37.875  28.508  30.306  1.00  0.00     0.029 A 
ATOM     42  C   UNL A   1      37.831  29.959  30.198  1.00  0.00     0.049 A 
ATOM     43  H   UNL A   1      39.426  31.264  30.535  1.00  0.00     0.167 HD
ATOM     44  C   UNL A   1      43.110  33.821  30.172  1.00  0.00     0.031 A 
ATOM     45  C   UNL A   1      36.810  30.797  29.885  1.00  0.00     0.031 A 
ATOM     46  C   UNL A   1      42.592  34.151  31.472  1.00  0.00     0.049 A 
ATOM     47  C   UNL A   1      37.222  32.171  30.269  1.00  0.00     0.074 A 
ATOM     48  C   UNL A   1      42.979  33.877  32.768  1.00  0.00     0.029 A 
ATOM     49  N   UNL A   1      41.278  34.544  31.544  1.00  0.00    -0.354 N 
ATOM     50  N   UNL A   1      37.380  32.544  31.507  1.00  0.00    -0.248 NA
ATOM     51  C   UNL A   1      37.928  32.974  29.281  1.00  0.00     0.031 C 
ATOM     52  C   UNL A   1      41.760  33.651  33.474  1.00  0.00     0.029 A 
ATOM     53  C   UNL A   1      40.703  33.864  32.586  1.00  0.00     0.049 A 
ATOM     54  H   UNL A   1      40.830  35.194  30.956  1.00  0.00     0.167 HD
ATOM     55  C   UNL A   1      38.525  33.328  31.500  1.00  0.00     0.074 A 
ATOM     56  C   UNL A   1      38.774  33.624  30.088  1.00  0.00     0.031 C 
ATOM     57  C   UNL A   1      39.325  33.425  32.603  1.00  0.00     0.031 A 
BRANCH  44  58
ATOM     58  C   UNL A   1      43.210  34.831  29.061  1.00  0.00    -0.014 A 
ATOM     59  C   UNL A   1      42.025  35.314  28.483  1.00  0.00     0.009 A 
ATOM     60  C   UNL A   1      44.409  35.101  28.372  1.00  0.00     0.009 A 
ATOM     61  C   UNL A   1      42.036  35.963  27.243  1.00  0.00     0.001 A 
ATOM     62  C   UNL A   1      44.429  35.784  27.155  1.00  0.00     0.001 A 
ATOM     63  C   UNL A   1      43.237  36.187  26.576  1.00  0.00     0.000 A 
ENDBRANCH  44  58
BRANCH  45  64
ATOM     64  C   UNL A   1      35.680  30.544  28.962  1.00  0.00    -0.014 A 
ATOM     65  C   UNL A   1      34.695  31.515  28.719  1.00  0.00     0.009 A 
ATOM     66  C   UNL A   1      35.721  29.429  28.101  1.00  0.00     0.009 A 
ATOM     67  C   UNL A   1      33.800  31.383  27.646  1.00  0.00     0.001 A 
ATOM     68  C   UNL A   1      34.832  29.299  27.030  1.00  0.00     0.001 A 
ATOM     69  C   UNL A   1      33.876  30.281  26.795  1.00  0.00     0.000 A 
ENDBRANCH  45  64
BRANCH  57  70
ATOM     70  C   UNL A   1      38.834  32.799  33.887  1.00  0.00    -0.014 A 
ATOM     71  C   UNL A   1      39.038  31.444  34.207  1.00  0.00     0.009 A 
ATOM     72  C   UNL A   1      38.293  33.639  34.869  1.00  0.00     0.009 A 
ATOM     73  C   UNL A   1      38.682  30.944  35.465  1.00  0.00     0.001 A 
ATOM     74  C   UNL A   1      37.957  33.145  36.131  1.00  0.00     0.001 A 
ATOM     75  C   UNL A   1      38.147  31.796  36.428  1.00  0.00     0.000 A 
ENDBRANCH  57  70
ENDBRANCH  31  32
ENDBRANCH  24  26
ENDBRANCH  23  24
ENDBRANCH  22  23
ENDBRANCH  21  22
ENDBRANCH  20  21
ENDBRANCH   1  20
TORSDOF 18
ENDMDL
MODEL 3
REMARK VINA RESULT:      -8.8      1.524      2.049
REMARK SMILES CC(C)(Cn1ccnc1C(N)=S)C(=O)OCCOCCOC(=O)c1ccc(-c2c3nc(c(-c4ccccc4)c4ccc([nH]4)c(-c4ccccc4)c4nc(c(-c5ccccc5)c5ccc2[nH]5)C=C4)C=C3)cc1
REMARK SMILES IDX 17 1 16 2 15 3 13 4 14 5 2 6 1 7 3 8 4 9 5 10 6 11 9 12 7 13
REMARK SMILES IDX 8 14 10 15 12 16 11 17 18 20 19 21 20 22 21 23 22 24 23 25
REMARK SMILES IDX 24 26 25 27 71 28 26 29 70 30 27 31 28 32 29 33 64 34 30 35
REMARK SMILES IDX 69 36 63 37 65 38 31 39 68 40 62 41 61 42 32 44 54 45 39 46
REMARK SMILES IDX 53 47 40 48 43 49 52 50 66 51 41 52 42 53 51 55 67 56 44 57
REMARK SMILES IDX 33 58 34 59 38 60 35 61 37 62 36 63 55 64 56 65 60 66 57 67
REMARK SMILES IDX 59 68 58 69 45 70 46 71 50 72 47 73 49 74 48 75
REMARK H PARENT 11 18 11 19 65 43 43 54
REMARK Flexibility Score: inf
ROOT
ATOM      1  C   UNL A   1      32.035  29.294  25.172  1.00  0.00     0.202 C 
ENDROOT
BRANCH   1   2
ATOM      2  C   UNL A   1      32.835  27.988  25.064  1.00  0.00     0.261 C 
BRANCH   2   3
ATOM      3  O   UNL A   1      32.202  26.799  25.599  1.00  0.00    -0.463 OA
BRANCH   3   4
ATOM      4  C   UNL A   1      32.166  25.766  24.716  1.00  0.00     0.313 C 
ATOM      5  O   UNL A   1      32.951  25.669  23.774  1.00  0.00    -0.252 OA
BRANCH   4   6
ATOM      6  C   UNL A   1      31.040  24.737  24.911  1.00  0.00     0.080 C 
ATOM      7  C   UNL A   1      30.487  24.452  23.504  1.00  0.00     0.025 C 
ATOM      8  C   UNL A   1      29.989  25.538  25.719  1.00  0.00     0.025 C 
BRANCH   6   9
ATOM      9  C   UNL A   1      31.323  23.435  25.721  1.00  0.00     0.142 C 
BRANCH   9  10
ATOM     10  N   UNL A   1      32.675  22.893  25.809  1.00  0.00    -0.328 N 
ATOM     11  C   UNL A   1      33.503  23.173  26.868  1.00  0.00     0.108 A 
ATOM     12  C   UNL A   1      33.313  21.854  25.147  1.00  0.00     0.167 A 
ATOM     13  C   UNL A   1      34.726  22.650  26.562  1.00  0.00     0.131 A 
ATOM     14  N   UNL A   1      34.615  21.892  25.445  1.00  0.00    -0.235 NA
BRANCH  12  15
ATOM     15  C   UNL A   1      32.850  20.730  24.354  1.00  0.00     0.140 C 
ATOM     16  S   UNL A   1      33.219  19.134  24.619  1.00  0.00    -0.057 S 
BRANCH  15  17
ATOM     17  N   UNL A   1      32.165  21.096  23.225  1.00  0.00    -0.387 N 
ATOM     18  H   UNL A   1      32.044  22.050  23.011  1.00  0.00     0.157 HD
ATOM     19  H   UNL A   1      31.795  20.406  22.628  1.00  0.00     0.157 HD
ENDBRANCH  15  17
ENDBRANCH  12  15
ENDBRANCH   9  10
ENDBRANCH   6   9
ENDBRANCH   4   6
ENDBRANCH   3   4
ENDBRANCH   2   3
ENDBRANCH   1   2
BRANCH   1  20
ATOM     20  O   UNL A   1      31.981  29.980  26.415  1.00  0.00    -0.374 OA
BRANCH  20  21
ATOM     21  C   UNL A   1      33.134  30.033  27.244  1.00  0.00     0.202 C 
BRANCH  21  22
ATOM     22  C   UNL A   1      33.953  31.317  27.255  1.00  0.00     0.261 C 
BRANCH  22  23
ATOM     23  O   UNL A   1      35.260  31.125  27.797  1.00  0.00    -0.460 OA
BRANCH  23  24
ATOM     24  C   UNL A   1      35.594  31.980  28.801  1.00  0.00     0.338 C 
ATOM     25  O   UNL A   1      35.323  33.157  28.876  1.00  0.00    -0.246 OA
BRANCH  24  26
ATOM     26  C   UNL A   1      36.508  31.290  29.733  1.00  0.00     0.060 A 
ATOM     27  C   UNL A   1      37.762  31.878  29.846  1.00  0.00     0.016 A 
ATOM     28  C   UNL A   1      36.295  29.961  30.104  1.00  0.00     0.016 A 
ATOM     29  C   UNL A   1      38.848  31.045  29.956  1.00  0.00     0.010 A 
ATOM     30  C   UNL A   1      37.383  29.111  30.151  1.00  0.00     0.010 A 
ATOM     31  C   UNL A   1      38.645  29.660  29.966  1.00  0.00    -0.014 A 
BRANCH  31  32
ATOM     32  C   UNL A   1      39.828  28.829  29.921  1.00  0.00     0.031 A 
ATOM     33  C   UNL A   1      40.387  28.593  31.269  1.00  0.00     0.074 A 
ATOM     34  C   UNL A   1      40.364  28.327  28.794  1.00  0.00     0.049 A 
ATOM     35  N   UNL A   1      41.466  29.095  31.767  1.00  0.00    -0.248 NA
ATOM     36  C   UNL A   1      39.540  27.877  32.234  1.00  0.00     0.031 C 
ATOM     37  C   UNL A   1      39.802  28.254  27.445  1.00  0.00     0.029 A 
ATOM     38  N   UNL A   1      41.552  27.679  28.662  1.00  0.00    -0.354 N 
ATOM     39  C   UNL A   1      41.525  28.625  33.072  1.00  0.00     0.074 A 
ATOM     40  C   UNL A   1      40.245  28.027  33.354  1.00  0.00     0.031 C 
ATOM     41  C   UNL A   1      40.539  27.388  26.704  1.00  0.00     0.029 A 
ATOM     42  C   UNL A   1      41.694  26.966  27.482  1.00  0.00     0.049 A 
ATOM     43  H   UNL A   1      42.255  27.713  29.350  1.00  0.00     0.167 HD
ATOM     44  C   UNL A   1      42.702  28.554  33.748  1.00  0.00     0.031 A 
ATOM     45  C   UNL A   1      42.658  26.047  27.218  1.00  0.00     0.031 A 
ATOM     46  C   UNL A   1      43.722  29.365  33.139  1.00  0.00     0.049 A 
ATOM     47  C   UNL A   1      43.771  26.275  28.174  1.00  0.00     0.074 A 
ATOM     48  C   UNL A   1      43.884  30.718  32.922  1.00  0.00     0.029 A 
ATOM     49  N   UNL A   1      44.602  28.738  32.291  1.00  0.00    -0.354 N 
ATOM     50  N   UNL A   1      44.527  27.335  28.141  1.00  0.00    -0.248 NA
ATOM     51  C   UNL A   1      43.729  25.579  29.451  1.00  0.00     0.031 C 
ATOM     52  C   UNL A   1      44.485  30.812  31.632  1.00  0.00     0.029 A 
ATOM     53  C   UNL A   1      44.714  29.516  31.168  1.00  0.00     0.049 A 
ATOM     54  H   UNL A   1      45.067  27.886  32.458  1.00  0.00     0.167 HD
ATOM     55  C   UNL A   1      44.702  27.690  29.472  1.00  0.00     0.074 A 
ATOM     56  C   UNL A   1      44.254  26.525  30.237  1.00  0.00     0.031 C 
ATOM     57  C   UNL A   1      44.919  28.988  29.837  1.00  0.00     0.031 A 
BRANCH  44  58
ATOM     58  C   UNL A   1      43.022  27.428  34.693  1.00  0.00    -0.014 A 
ATOM     59  C   UNL A   1      43.191  26.136  34.168  1.00  0.00     0.009 A 
ATOM     60  C   UNL A   1      42.876  27.531  36.090  1.00  0.00     0.009 A 
ATOM     61  C   UNL A   1      43.136  25.007  34.992  1.00  0.00     0.001 A 
ATOM     62  C   UNL A   1      42.862  26.410  36.921  1.00  0.00     0.001 A 
ATOM     63  C   UNL A   1      42.961  25.145  36.366  1.00  0.00     0.000 A 
ENDBRANCH  44  58
BRANCH  45  64
ATOM     64  C   UNL A   1      42.522  24.785  26.455  1.00  0.00    -0.014 A 
ATOM     65  C   UNL A   1      43.346  24.497  25.355  1.00  0.00     0.009 A 
ATOM     66  C   UNL A   1      41.752  23.731  26.985  1.00  0.00     0.009 A 
ATOM     67  C   UNL A   1      43.408  23.200  24.820  1.00  0.00     0.001 A 
ATOM     68  C   UNL A   1      41.816  22.439  26.455  1.00  0.00     0.001 A 
ATOM     69  C   UNL A   1      42.653  22.170  25.377  1.00  0.00     0.000 A 
ENDBRANCH  45  64
BRANCH  57  70
ATOM     70  C   UNL A   1      45.142  30.002  28.739  1.00  0.00    -0.014 A 
ATOM     71  C   UNL A   1      46.418  30.331  28.246  1.00  0.00     0.009 A 
ATOM     72  C   UNL A   1      44.021  30.518  28.076  1.00  0.00     0.009 A 
ATOM     73  C   UNL A   1      46.563  31.175  27.139  1.00  0.00     0.001 A 
ATOM     74  C   UNL A   1      44.165  31.344  26.959  1.00  0.00     0.001 A 
ATOM     75  C   UNL A   1      45.436  31.676  26.494  1.00  0.00     0.000 A 
ENDBRANCH  57  70
ENDBRANCH  31  32
ENDBRANCH  24  26
ENDBRANCH  23  24
ENDBRANCH  22  23
ENDBRANCH  21  22
ENDBRANCH  20  21
ENDBRANCH   1  20
TORSDOF 18
ENDMDL
