MODEL 1
REMARK VINA RESULT:     -11.0      0.000      0.000
REMARK SMILES CC(=O)N[C@@H](CS[C@@H]1CC(=O)N(c2cccc3ccccc23)C1=O)C(=O)OCCOCCOC(=O)c1ccc(-c2c3nc(c(-c4ccccc4)c4ccc([nH]4)c(-c4ccccc4)c4nc(c(-c5ccccc5)c5ccc2[nH]5)C=C4)C=C3)cc1
REMARK SMILES IDX 29 1 28 2 27 3 25 4 26 5 5 6 4 7 1 8 2 9 3 10 6 12 7 13 8 14
REMARK SMILES IDX 9 15 23 16 10 17 12 18 24 19 11 20 13 21 14 22 22 23 15 24
REMARK SMILES IDX 17 25 21 26 16 27 18 28 20 29 19 30 30 31 31 32 32 33 33 34
REMARK SMILES IDX 34 35 35 36 36 37 37 38 83 39 38 40 82 41 39 42 40 43 41 44
REMARK SMILES IDX 76 45 42 46 81 47 75 48 77 49 43 50 80 51 74 52 73 53 44 55
REMARK SMILES IDX 66 56 51 57 65 58 52 59 55 60 64 61 78 62 53 63 54 64 63 66
REMARK SMILES IDX 79 67 56 68 45 69 46 70 50 71 47 72 49 73 48 74 67 75 68 76
REMARK SMILES IDX 72 77 69 78 71 79 70 80 57 81 58 82 62 83 59 84 61 85 60 86
REMARK H PARENT 4 11 77 54 55 65
REMARK Flexibility Score: inf
ROOT
ATOM      1  C   UNL A   1      34.653  29.815  27.275  1.00  0.00     0.202 C 
ENDROOT
BRANCH   1   2
ATOM      2  C   UNL A   1      33.912  28.974  26.236  1.00  0.00     0.261 C 
BRANCH   2   3
ATOM      3  O   UNL A   1      33.050  29.828  25.472  1.00  0.00    -0.462 OA
BRANCH   3   4
ATOM      4  C   UNL A   1      32.679  29.357  24.251  1.00  0.00     0.329 C 
ATOM      5  O   UNL A   1      33.434  29.181  23.304  1.00  0.00    -0.250 OA
BRANCH   4   6
ATOM      6  C   UNL A   1      31.156  29.192  24.168  1.00  0.00     0.202 C 
BRANCH   6   7
ATOM      7  N   UNL A   1      30.615  29.348  22.810  1.00  0.00    -0.342 N 
ATOM      8  C   UNL A   1      28.772  30.894  23.397  1.00  0.00     0.114 C 
ATOM      9  C   UNL A   1      29.579  30.128  22.388  1.00  0.00     0.217 C 
ATOM     10  O   UNL A   1      29.361  30.226  21.184  1.00  0.00    -0.275 OA
ATOM     11  H   UNL A   1      31.061  28.818  22.111  1.00  0.00     0.164 HD
ENDBRANCH   6   7
BRANCH   6  12
ATOM     12  C   UNL A   1      30.735  27.852  24.789  1.00  0.00     0.107 C 
BRANCH  12  13
ATOM     13  S   UNL A   1      30.666  26.370  23.693  1.00  0.00    -0.145 SA
BRANCH  13  14
ATOM     14  C   UNL A   1      32.395  25.835  23.448  1.00  0.00     0.146 C 
ATOM     15  C   UNL A   1      32.762  25.400  22.056  1.00  0.00     0.125 C 
ATOM     16  C   UNL A   1      32.840  24.707  24.333  1.00  0.00     0.247 C 
ATOM     17  C   UNL A   1      33.155  23.962  22.217  1.00  0.00     0.235 C 
ATOM     18  N   UNL A   1      33.102  23.602  23.548  1.00  0.00    -0.249 N 
ATOM     19  O   UNL A   1      33.017  24.858  25.534  1.00  0.00    -0.273 OA
ATOM     20  O   UNL A   1      33.483  23.305  21.239  1.00  0.00    -0.274 OA
BRANCH  18  21
ATOM     21  C   UNL A   1      33.484  22.311  24.064  1.00  0.00     0.060 A 
ATOM     22  C   UNL A   1      32.471  21.349  24.264  1.00  0.00     0.027 A 
ATOM     23  C   UNL A   1      34.846  21.932  24.358  1.00  0.00     0.006 A 
ATOM     24  C   UNL A   1      32.761  20.047  24.662  1.00  0.00     0.003 A 
ATOM     25  C   UNL A   1      35.117  20.582  24.724  1.00  0.00    -0.016 A 
ATOM     26  C   UNL A   1      35.978  22.793  24.370  1.00  0.00     0.011 A 
ATOM     27  C   UNL A   1      34.075  19.663  24.864  1.00  0.00     0.009 A 
ATOM     28  C   UNL A   1      36.431  20.143  24.969  1.00  0.00     0.009 A 
ATOM     29  C   UNL A   1      37.281  22.351  24.622  1.00  0.00     0.001 A 
ATOM     30  C   UNL A   1      37.510  21.017  24.905  1.00  0.00     0.001 A 
ENDBRANCH  18  21
ENDBRANCH  13  14
ENDBRANCH  12  13
ENDBRANCH   6  12
ENDBRANCH   4   6
ENDBRANCH   3   4
ENDBRANCH   2   3
ENDBRANCH   1   2
BRANCH   1  31
ATOM     31  O   UNL A   1      33.874  30.841  27.893  1.00  0.00    -0.374 OA
BRANCH  31  32
ATOM     32  C   UNL A   1      34.450  32.145  27.988  1.00  0.00     0.202 C 
BRANCH  32  33
ATOM     33  C   UNL A   1      34.650  32.703  29.403  1.00  0.00     0.261 C 
BRANCH  33  34
ATOM     34  O   UNL A   1      36.013  32.616  29.855  1.00  0.00    -0.460 OA
BRANCH  34  35
ATOM     35  C   UNL A   1      36.245  31.596  30.715  1.00  0.00     0.338 C 
ATOM     36  O   UNL A   1      35.564  31.263  31.676  1.00  0.00    -0.246 OA
BRANCH  35  37
ATOM     37  C   UNL A   1      37.389  30.788  30.262  1.00  0.00     0.060 A 
ATOM     38  C   UNL A   1      38.233  30.262  31.249  1.00  0.00     0.016 A 
ATOM     39  C   UNL A   1      37.696  30.630  28.908  1.00  0.00     0.016 A 
ATOM     40  C   UNL A   1      39.418  29.626  30.888  1.00  0.00     0.010 A 
ATOM     41  C   UNL A   1      38.891  29.995  28.547  1.00  0.00     0.010 A 
ATOM     42  C   UNL A   1      39.774  29.524  29.537  1.00  0.00    -0.014 A 
BRANCH  42  43
ATOM     43  C   UNL A   1      41.139  29.061  29.183  1.00  0.00     0.031 A 
ATOM     44  C   UNL A   1      41.340  27.633  28.749  1.00  0.00     0.074 A 
ATOM     45  C   UNL A   1      42.180  29.912  29.195  1.00  0.00     0.049 A 
ATOM     46  N   UNL A   1      42.441  27.027  28.383  1.00  0.00    -0.248 NA
ATOM     47  C   UNL A   1      40.142  26.780  28.719  1.00  0.00     0.031 C 
ATOM     48  C   UNL A   1      42.112  31.329  29.546  1.00  0.00     0.029 A 
ATOM     49  N   UNL A   1      43.503  29.700  28.897  1.00  0.00    -0.354 N 
ATOM     50  C   UNL A   1      42.070  25.722  28.084  1.00  0.00     0.074 A 
ATOM     51  C   UNL A   1      40.649  25.616  28.337  1.00  0.00     0.031 C 
ATOM     52  C   UNL A   1      43.342  31.861  29.443  1.00  0.00     0.029 A 
ATOM     53  C   UNL A   1      44.286  30.818  29.047  1.00  0.00     0.049 A 
ATOM     54  H   UNL A   1      43.857  28.829  28.603  1.00  0.00     0.167 HD
ATOM     55  C   UNL A   1      42.839  24.703  27.630  1.00  0.00     0.031 A 
ATOM     56  C   UNL A   1      45.614  30.978  28.896  1.00  0.00     0.031 A 
ATOM     57  C   UNL A   1      44.253  24.796  27.387  1.00  0.00     0.049 A 
ATOM     58  C   UNL A   1      46.461  29.808  28.470  1.00  0.00     0.074 A 
ATOM     59  C   UNL A   1      45.113  23.819  26.916  1.00  0.00     0.029 A 
ATOM     60  N   UNL A   1      45.017  25.932  27.602  1.00  0.00    -0.354 N 
ATOM     61  N   UNL A   1      46.092  28.588  28.168  1.00  0.00    -0.248 NA
ATOM     62  C   UNL A   1      47.908  30.045  28.357  1.00  0.00     0.031 C 
ATOM     63  C   UNL A   1      46.407  24.350  26.894  1.00  0.00     0.029 A 
ATOM     64  C   UNL A   1      46.342  25.674  27.301  1.00  0.00     0.049 A 
ATOM     65  H   UNL A   1      44.667  26.796  27.922  1.00  0.00     0.167 HD
ATOM     66  C   UNL A   1      47.256  27.919  27.805  1.00  0.00     0.074 A 
ATOM     67  C   UNL A   1      48.339  28.873  27.913  1.00  0.00     0.031 C 
ATOM     68  C   UNL A   1      47.412  26.631  27.414  1.00  0.00     0.031 A 
BRANCH  55  69
ATOM     69  C   UNL A   1      42.163  23.381  27.399  1.00  0.00    -0.014 A 
ATOM     70  C   UNL A   1      41.651  23.036  26.139  1.00  0.00     0.009 A 
ATOM     71  C   UNL A   1      42.067  22.456  28.450  1.00  0.00     0.009 A 
ATOM     72  C   UNL A   1      41.026  21.801  25.945  1.00  0.00     0.001 A 
ATOM     73  C   UNL A   1      41.464  21.214  28.247  1.00  0.00     0.001 A 
ATOM     74  C   UNL A   1      40.938  20.891  26.998  1.00  0.00     0.000 A 
ENDBRANCH  55  69
BRANCH  56  75
ATOM     75  C   UNL A   1      46.239  32.298  29.166  1.00  0.00    -0.014 A 
ATOM     76  C   UNL A   1      46.393  33.243  28.141  1.00  0.00     0.009 A 
ATOM     77  C   UNL A   1      46.707  32.609  30.454  1.00  0.00     0.009 A 
ATOM     78  C   UNL A   1      47.023  34.463  28.394  1.00  0.00     0.001 A 
ATOM     79  C   UNL A   1      47.312  33.841  30.709  1.00  0.00     0.001 A 
ATOM     80  C   UNL A   1      47.477  34.763  29.678  1.00  0.00     0.000 A 
ENDBRANCH  56  75
BRANCH  68  81
ATOM     81  C   UNL A   1      48.797  26.185  27.044  1.00  0.00    -0.014 A 
ATOM     82  C   UNL A   1      49.301  26.372  25.747  1.00  0.00     0.009 A 
ATOM     83  C   UNL A   1      49.626  25.608  28.020  1.00  0.00     0.009 A 
ATOM     84  C   UNL A   1      50.596  25.960  25.428  1.00  0.00     0.001 A 
ATOM     85  C   UNL A   1      50.929  25.222  27.703  1.00  0.00     0.001 A 
ATOM     86  C   UNL A   1      51.411  25.390  26.407  1.00  0.00     0.000 A 
ENDBRANCH  68  81
ENDBRANCH  42  43
ENDBRANCH  35  37
ENDBRANCH  34  35
ENDBRANCH  33  34
ENDBRANCH  32  33
ENDBRANCH  31  32
ENDBRANCH   1  31
TORSDOF 19
ENDMDL
MODEL 2
REMARK VINA RESULT:     -11.0      4.152      9.747
REMARK SMILES CC(=O)N[C@@H](CS[C@@H]1CC(=O)N(c2cccc3ccccc23)C1=O)C(=O)OCCOCCOC(=O)c1ccc(-c2c3nc(c(-c4ccccc4)c4ccc([nH]4)c(-c4ccccc4)c4nc(c(-c5ccccc5)c5ccc2[nH]5)C=C4)C=C3)cc1
REMARK SMILES IDX 29 1 28 2 27 3 25 4 26 5 5 6 4 7 1 8 2 9 3 10 6 12 7 13 8 14
REMARK SMILES IDX 9 15 23 16 10 17 12 18 24 19 11 20 13 21 14 22 22 23 15 24
REMARK SMILES IDX 17 25 21 26 16 27 18 28 20 29 19 30 30 31 31 32 32 33 33 34
REMARK SMILES IDX 34 35 35 36 36 37 37 38 83 39 38 40 82 41 39 42 40 43 41 44
REMARK SMILES IDX 76 45 42 46 81 47 75 48 77 49 43 50 80 51 74 52 73 53 44 55
REMARK SMILES IDX 66 56 51 57 65 58 52 59 55 60 64 61 78 62 53 63 54 64 63 66
REMARK SMILES IDX 79 67 56 68 45 69 46 70 50 71 47 72 49 73 48 74 67 75 68 76
REMARK SMILES IDX 72 77 69 78 71 79 70 80 57 81 58 82 62 83 59 84 61 85 60 86
REMARK H PARENT 4 11 77 54 55 65
REMARK Flexibility Score: inf
ROOT
ATOM      1  C   UNL A   1      38.991  20.874  25.627  1.00  0.00     0.202 C 
ENDROOT
BRANCH   1   2
ATOM      2  C   UNL A   1      37.722  21.686  25.373  1.00  0.00     0.261 C 
BRANCH   2   3
ATOM      3  O   UNL A   1      36.693  20.808  24.896  1.00  0.00    -0.462 OA
BRANCH   3   4
ATOM      4  C   UNL A   1      35.462  20.982  25.448  1.00  0.00     0.329 C 
ATOM      5  O   UNL A   1      35.238  21.560  26.503  1.00  0.00    -0.250 OA
BRANCH   4   6
ATOM      6  C   UNL A   1      34.390  20.244  24.637  1.00  0.00     0.202 C 
BRANCH   6   7
ATOM      7  N   UNL A   1      33.726  19.160  25.377  1.00  0.00    -0.342 N 
ATOM      8  C   UNL A   1      33.690  17.513  23.529  1.00  0.00     0.114 C 
ATOM      9  C   UNL A   1      33.423  17.899  24.955  1.00  0.00     0.217 C 
ATOM     10  O   UNL A   1      32.986  17.090  25.769  1.00  0.00    -0.275 OA
ATOM     11  H   UNL A   1      33.466  19.374  26.302  1.00  0.00     0.164 HD
ENDBRANCH   6   7
BRANCH   6  12
ATOM     12  C   UNL A   1      33.369  21.245  24.075  1.00  0.00     0.107 C 
BRANCH  12  13
ATOM     13  S   UNL A   1      31.742  21.400  24.930  1.00  0.00    -0.145 SA
BRANCH  13  14
ATOM     14  C   UNL A   1      31.873  22.863  26.016  1.00  0.00     0.146 C 
ATOM     15  C   UNL A   1      30.666  23.174  26.856  1.00  0.00     0.125 C 
ATOM     16  C   UNL A   1      32.190  24.149  25.309  1.00  0.00     0.247 C 
ATOM     17  C   UNL A   1      30.232  24.528  26.382  1.00  0.00     0.235 C 
ATOM     18  N   UNL A   1      31.112  25.001  25.430  1.00  0.00    -0.249 N 
ATOM     19  O   UNL A   1      33.292  24.365  24.821  1.00  0.00    -0.273 OA
ATOM     20  O   UNL A   1      29.237  25.053  26.862  1.00  0.00    -0.274 OA
BRANCH  18  21
ATOM     21  C   UNL A   1      31.031  26.303  24.814  1.00  0.00     0.060 A 
ATOM     22  C   UNL A   1      30.490  26.390  23.513  1.00  0.00     0.027 A 
ATOM     23  C   UNL A   1      31.440  27.527  25.462  1.00  0.00     0.006 A 
ATOM     24  C   UNL A   1      30.281  27.614  22.884  1.00  0.00     0.003 A 
ATOM     25  C   UNL A   1      31.177  28.766  24.811  1.00  0.00    -0.016 A 
ATOM     26  C   UNL A   1      32.141  27.636  26.694  1.00  0.00     0.011 A 
ATOM     27  C   UNL A   1      30.599  28.791  23.540  1.00  0.00     0.009 A 
ATOM     28  C   UNL A   1      31.504  29.992  25.418  1.00  0.00     0.009 A 
ATOM     29  C   UNL A   1      32.470  28.858  27.289  1.00  0.00     0.001 A 
ATOM     30  C   UNL A   1      32.135  30.041  26.656  1.00  0.00     0.001 A 
ENDBRANCH  18  21
ENDBRANCH  13  14
ENDBRANCH  12  13
ENDBRANCH   6  12
ENDBRANCH   4   6
ENDBRANCH   3   4
ENDBRANCH   2   3
ENDBRANCH   1   2
BRANCH   1  31
ATOM     31  O   UNL A   1      39.692  21.205  26.829  1.00  0.00    -0.374 OA
BRANCH  31  32
ATOM     32  C   UNL A   1      40.972  20.603  27.036  1.00  0.00     0.202 C 
BRANCH  32  33
ATOM     33  C   UNL A   1      42.120  21.117  26.158  1.00  0.00     0.261 C 
BRANCH  33  34
ATOM     34  O   UNL A   1      42.783  22.266  26.713  1.00  0.00    -0.460 OA
BRANCH  34  35
ATOM     35  C   UNL A   1      42.737  23.365  25.924  1.00  0.00     0.338 C 
ATOM     36  O   UNL A   1      42.980  23.432  24.727  1.00  0.00    -0.246 OA
BRANCH  35  37
ATOM     37  C   UNL A   1      42.189  24.512  26.668  1.00  0.00     0.060 A 
ATOM     38  C   UNL A   1      42.841  25.743  26.518  1.00  0.00     0.016 A 
ATOM     39  C   UNL A   1      41.131  24.374  27.569  1.00  0.00     0.016 A 
ATOM     40  C   UNL A   1      42.476  26.828  27.311  1.00  0.00     0.010 A 
ATOM     41  C   UNL A   1      40.768  25.465  28.370  1.00  0.00     0.010 A 
ATOM     42  C   UNL A   1      41.465  26.684  28.271  1.00  0.00    -0.014 A 
BRANCH  42  43
ATOM     43  C   UNL A   1      41.251  27.767  29.262  1.00  0.00     0.031 A 
ATOM     44  C   UNL A   1      42.211  27.911  30.412  1.00  0.00     0.074 A 
ATOM     45  C   UNL A   1      40.245  28.648  29.113  1.00  0.00     0.049 A 
ATOM     46  N   UNL A   1      42.219  28.792  31.379  1.00  0.00    -0.248 NA
ATOM     47  C   UNL A   1      43.311  26.935  30.476  1.00  0.00     0.031 C 
ATOM     48  C   UNL A   1      39.277  28.651  28.018  1.00  0.00     0.029 A 
ATOM     49  N   UNL A   1      39.879  29.716  29.893  1.00  0.00    -0.354 N 
ATOM     50  C   UNL A   1      43.317  28.477  32.168  1.00  0.00     0.074 A 
ATOM     51  C   UNL A   1      43.937  27.307  31.583  1.00  0.00     0.031 C 
ATOM     52  C   UNL A   1      38.424  29.675  28.197  1.00  0.00     0.029 A 
ATOM     53  C   UNL A   1      38.769  30.379  29.430  1.00  0.00     0.049 A 
ATOM     54  H   UNL A   1      40.365  29.982  30.707  1.00  0.00     0.167 HD
ATOM     55  C   UNL A   1      43.778  29.107  33.276  1.00  0.00     0.031 A 
ATOM     56  C   UNL A   1      38.100  31.426  29.950  1.00  0.00     0.031 A 
ATOM     57  C   UNL A   1      43.162  30.263  33.869  1.00  0.00     0.049 A 
ATOM     58  C   UNL A   1      38.584  32.059  31.227  1.00  0.00     0.074 A 
ATOM     59  C   UNL A   1      43.564  30.976  34.986  1.00  0.00     0.029 A 
ATOM     60  N   UNL A   1      42.010  30.871  33.399  1.00  0.00    -0.354 N 
ATOM     61  N   UNL A   1      39.637  31.763  31.948  1.00  0.00    -0.248 NA
ATOM     62  C   UNL A   1      37.786  33.175  31.756  1.00  0.00     0.031 C 
ATOM     63  C   UNL A   1      42.625  31.986  35.219  1.00  0.00     0.029 A 
ATOM     64  C   UNL A   1      41.669  31.933  34.218  1.00  0.00     0.049 A 
ATOM     65  H   UNL A   1      41.507  30.588  32.600  1.00  0.00     0.167 HD
ATOM     66  C   UNL A   1      39.644  32.673  33.000  1.00  0.00     0.074 A 
ATOM     67  C   UNL A   1      38.497  33.537  32.815  1.00  0.00     0.031 C 
ATOM     68  C   UNL A   1      40.524  32.784  34.025  1.00  0.00     0.031 A 
BRANCH  55  69
ATOM     69  C   UNL A   1      44.997  28.531  33.938  1.00  0.00    -0.014 A 
ATOM     70  C   UNL A   1      44.894  27.494  34.878  1.00  0.00     0.009 A 
ATOM     71  C   UNL A   1      46.269  29.011  33.591  1.00  0.00     0.009 A 
ATOM     72  C   UNL A   1      46.040  26.971  35.482  1.00  0.00     0.001 A 
ATOM     73  C   UNL A   1      47.414  28.471  34.179  1.00  0.00     0.001 A 
ATOM     74  C   UNL A   1      47.298  27.458  35.129  1.00  0.00     0.000 A 
ENDBRANCH  55  69
BRANCH  56  75
ATOM     75  C   UNL A   1      36.882  31.939  29.272  1.00  0.00    -0.014 A 
ATOM     76  C   UNL A   1      36.931  33.102  28.490  1.00  0.00     0.009 A 
ATOM     77  C   UNL A   1      35.653  31.275  29.427  1.00  0.00     0.009 A 
ATOM     78  C   UNL A   1      35.771  33.603  27.894  1.00  0.00     0.001 A 
ATOM     79  C   UNL A   1      34.501  31.763  28.808  1.00  0.00     0.001 A 
ATOM     80  C   UNL A   1      34.559  32.931  28.049  1.00  0.00     0.000 A 
ENDBRANCH  56  75
BRANCH  68  81
ATOM     81  C   UNL A   1      40.300  33.897  35.008  1.00  0.00    -0.014 A 
ATOM     82  C   UNL A   1      40.817  35.182  34.784  1.00  0.00     0.009 A 
ATOM     83  C   UNL A   1      39.524  33.666  36.155  1.00  0.00     0.009 A 
ATOM     84  C   UNL A   1      40.587  36.206  35.706  1.00  0.00     0.001 A 
ATOM     85  C   UNL A   1      39.274  34.697  37.061  1.00  0.00     0.001 A 
ATOM     86  C   UNL A   1      39.813  35.964  36.841  1.00  0.00     0.000 A 
ENDBRANCH  68  81
ENDBRANCH  42  43
ENDBRANCH  35  37
ENDBRANCH  34  35
ENDBRANCH  33  34
ENDBRANCH  32  33
ENDBRANCH  31  32
ENDBRANCH   1  31
TORSDOF 19
ENDMDL
MODEL 3
REMARK VINA RESULT:     -10.8      4.364      9.935
REMARK SMILES CC(=O)N[C@@H](CS[C@@H]1CC(=O)N(c2cccc3ccccc23)C1=O)C(=O)OCCOCCOC(=O)c1ccc(-c2c3nc(c(-c4ccccc4)c4ccc([nH]4)c(-c4ccccc4)c4nc(c(-c5ccccc5)c5ccc2[nH]5)C=C4)C=C3)cc1
REMARK SMILES IDX 29 1 28 2 27 3 25 4 26 5 5 6 4 7 1 8 2 9 3 10 6 12 7 13 8 14
REMARK SMILES IDX 9 15 23 16 10 17 12 18 24 19 11 20 13 21 14 22 22 23 15 24
REMARK SMILES IDX 17 25 21 26 16 27 18 28 20 29 19 30 30 31 31 32 32 33 33 34
REMARK SMILES IDX 34 35 35 36 36 37 37 38 83 39 38 40 82 41 39 42 40 43 41 44
REMARK SMILES IDX 76 45 42 46 81 47 75 48 77 49 43 50 80 51 74 52 73 53 44 55
REMARK SMILES IDX 66 56 51 57 65 58 52 59 55 60 64 61 78 62 53 63 54 64 63 66
REMARK SMILES IDX 79 67 56 68 45 69 46 70 50 71 47 72 49 73 48 74 67 75 68 76
REMARK SMILES IDX 72 77 69 78 71 79 70 80 57 81 58 82 62 83 59 84 61 85 60 86
REMARK H PARENT 4 11 77 54 55 65
REMARK Flexibility Score: inf
ROOT
ATOM      1  C   UNL A   1      39.053  20.612  25.584  1.00  0.00     0.202 C 
ENDROOT
BRANCH   1   2
ATOM      2  C   UNL A   1      37.946  21.654  25.424  1.00  0.00     0.261 C 
BRANCH   2   3
ATOM      3  O   UNL A   1      36.825  21.048  24.765  1.00  0.00    -0.462 OA
BRANCH   3   4
ATOM      4  C   UNL A   1      35.646  21.092  25.442  1.00  0.00     0.329 C 
ATOM      5  O   UNL A   1      35.505  21.501  26.587  1.00  0.00    -0.250 OA
BRANCH   4   6
ATOM      6  C   UNL A   1      34.524  20.438  24.627  1.00  0.00     0.202 C 
BRANCH   6   7
ATOM      7  N   UNL A   1      33.597  19.630  25.433  1.00  0.00    -0.342 N 
ATOM      8  C   UNL A   1      33.002  18.001  23.665  1.00  0.00     0.114 C 
ATOM      9  C   UNL A   1      32.917  18.502  25.079  1.00  0.00     0.217 C 
ATOM     10  O   UNL A   1      32.291  17.891  25.940  1.00  0.00    -0.275 OA
ATOM     11  H   UNL A   1      33.447  19.946  26.353  1.00  0.00     0.164 HD
ENDBRANCH   6   7
BRANCH   6  12
ATOM     12  C   UNL A   1      33.775  21.501  23.810  1.00  0.00     0.107 C 
BRANCH  12  13
ATOM     13  S   UNL A   1      32.719  22.711  24.717  1.00  0.00    -0.145 SA
BRANCH  13  14
ATOM     14  C   UNL A   1      31.968  23.788  23.447  1.00  0.00     0.146 C 
ATOM     15  C   UNL A   1      32.887  24.263  22.355  1.00  0.00     0.125 C 
ATOM     16  C   UNL A   1      31.323  25.036  23.976  1.00  0.00     0.247 C 
ATOM     17  C   UNL A   1      32.891  25.754  22.507  1.00  0.00     0.235 C 
ATOM     18  N   UNL A   1      32.026  26.130  23.515  1.00  0.00    -0.249 N 
ATOM     19  O   UNL A   1      30.283  25.003  24.618  1.00  0.00    -0.273 OA
ATOM     20  O   UNL A   1      33.583  26.442  21.770  1.00  0.00    -0.274 OA
BRANCH  18  21
ATOM     21  C   UNL A   1      31.736  27.495  23.879  1.00  0.00     0.060 A 
ATOM     22  C   UNL A   1      30.666  28.144  23.228  1.00  0.00     0.027 A 
ATOM     23  C   UNL A   1      32.457  28.227  24.895  1.00  0.00     0.006 A 
ATOM     24  C   UNL A   1      30.252  29.423  23.588  1.00  0.00     0.003 A 
ATOM     25  C   UNL A   1      31.986  29.518  25.270  1.00  0.00    -0.016 A 
ATOM     26  C   UNL A   1      33.648  27.811  25.551  1.00  0.00     0.011 A 
ATOM     27  C   UNL A   1      30.893  30.092  24.617  1.00  0.00     0.009 A 
ATOM     28  C   UNL A   1      32.614  30.255  26.291  1.00  0.00     0.009 A 
ATOM     29  C   UNL A   1      34.272  28.552  26.559  1.00  0.00     0.001 A 
ATOM     30  C   UNL A   1      33.743  29.771  26.942  1.00  0.00     0.001 A 
ENDBRANCH  18  21
ENDBRANCH  13  14
ENDBRANCH  12  13
ENDBRANCH   6  12
ENDBRANCH   4   6
ENDBRANCH   3   4
ENDBRANCH   2   3
ENDBRANCH   1   2
BRANCH   1  31
ATOM     31  O   UNL A   1      40.014  20.899  26.603  1.00  0.00    -0.374 OA
BRANCH  31  32
ATOM     32  C   UNL A   1      41.396  20.809  26.254  1.00  0.00     0.202 C 
BRANCH  32  33
ATOM     33  C   UNL A   1      42.126  22.134  26.001  1.00  0.00     0.261 C 
BRANCH  33  34
ATOM     34  O   UNL A   1      41.431  23.271  26.542  1.00  0.00    -0.460 OA
BRANCH  34  35
ATOM     35  C   UNL A   1      41.917  24.465  26.126  1.00  0.00     0.338 C 
ATOM     36  O   UNL A   1      42.558  24.694  25.109  1.00  0.00    -0.246 OA
BRANCH  35  37
ATOM     37  C   UNL A   1      41.439  25.550  27.000  1.00  0.00     0.060 A 
ATOM     38  C   UNL A   1      42.198  26.728  27.031  1.00  0.00     0.016 A 
ATOM     39  C   UNL A   1      40.340  25.391  27.846  1.00  0.00     0.016 A 
ATOM     40  C   UNL A   1      41.895  27.728  27.951  1.00  0.00     0.010 A 
ATOM     41  C   UNL A   1      40.040  26.397  28.775  1.00  0.00     0.010 A 
ATOM     42  C   UNL A   1      40.840  27.552  28.856  1.00  0.00    -0.014 A 
BRANCH  42  43
ATOM     43  C   UNL A   1      40.680  28.512  29.975  1.00  0.00     0.031 A 
ATOM     44  C   UNL A   1      39.587  29.545  29.906  1.00  0.00     0.074 A 
ATOM     45  C   UNL A   1      41.463  28.435  31.066  1.00  0.00     0.049 A 
ATOM     46  N   UNL A   1      39.264  30.467  30.777  1.00  0.00    -0.248 NA
ATOM     47  C   UNL A   1      38.746  29.533  28.699  1.00  0.00     0.031 C 
ATOM     48  C   UNL A   1      42.523  27.451  31.280  1.00  0.00     0.029 A 
ATOM     49  N   UNL A   1      41.478  29.202  32.204  1.00  0.00    -0.354 N 
ATOM     50  C   UNL A   1      38.186  31.146  30.224  1.00  0.00     0.074 A 
ATOM     51  C   UNL A   1      37.927  30.550  28.930  1.00  0.00     0.031 C 
ATOM     52  C   UNL A   1      43.087  27.676  32.480  1.00  0.00     0.029 A 
ATOM     53  C   UNL A   1      42.448  28.833  33.102  1.00  0.00     0.049 A 
ATOM     54  H   UNL A   1      40.853  29.947  32.360  1.00  0.00     0.167 HD
ATOM     55  C   UNL A   1      37.467  32.170  30.745  1.00  0.00     0.031 A 
ATOM     56  C   UNL A   1      42.790  29.376  34.286  1.00  0.00     0.031 A 
ATOM     57  C   UNL A   1      37.724  32.776  32.024  1.00  0.00     0.049 A 
ATOM     58  C   UNL A   1      42.029  30.565  34.808  1.00  0.00     0.074 A 
ATOM     59  C   UNL A   1      37.042  33.810  32.640  1.00  0.00     0.029 A 
ATOM     60  N   UNL A   1      38.749  32.406  32.880  1.00  0.00    -0.354 N 
ATOM     61  N   UNL A   1      40.998  31.181  34.284  1.00  0.00    -0.248 NA
ATOM     62  C   UNL A   1      42.478  31.128  36.090  1.00  0.00     0.031 C 
ATOM     63  C   UNL A   1      37.686  34.100  33.848  1.00  0.00     0.029 A 
ATOM     64  C   UNL A   1      38.737  33.210  34.006  1.00  0.00     0.049 A 
ATOM     65  H   UNL A   1      39.392  31.679  32.710  1.00  0.00     0.167 HD
ATOM     66  C   UNL A   1      40.659  32.185  35.184  1.00  0.00     0.074 A 
ATOM     67  C   UNL A   1      41.586  32.087  36.291  1.00  0.00     0.031 C 
ATOM     68  C   UNL A   1      39.666  33.104  35.100  1.00  0.00     0.031 A 
BRANCH  55  69
ATOM     69  C   UNL A   1      36.349  32.722  29.909  1.00  0.00    -0.014 A 
ATOM     70  C   UNL A   1      35.060  32.168  29.958  1.00  0.00     0.009 A 
ATOM     71  C   UNL A   1      36.580  33.833  29.084  1.00  0.00     0.009 A 
ATOM     72  C   UNL A   1      34.033  32.696  29.172  1.00  0.00     0.001 A 
ATOM     73  C   UNL A   1      35.546  34.375  28.318  1.00  0.00     0.001 A 
ATOM     74  C   UNL A   1      34.277  33.801  28.357  1.00  0.00     0.000 A 
ENDBRANCH  55  69
BRANCH  56  75
ATOM     75  C   UNL A   1      43.925  28.812  35.062  1.00  0.00    -0.014 A 
ATOM     76  C   UNL A   1      43.713  27.803  36.013  1.00  0.00     0.009 A 
ATOM     77  C   UNL A   1      45.227  29.301  34.868  1.00  0.00     0.009 A 
ATOM     78  C   UNL A   1      44.779  27.311  36.770  1.00  0.00     0.001 A 
ATOM     79  C   UNL A   1      46.295  28.788  35.607  1.00  0.00     0.001 A 
ATOM     80  C   UNL A   1      46.068  27.799  36.563  1.00  0.00     0.000 A 
ENDBRANCH  56  75
BRANCH  68  81
ATOM     81  C   UNL A   1      39.510  34.057  36.251  1.00  0.00    -0.014 A 
ATOM     82  C   UNL A   1      38.812  33.689  37.412  1.00  0.00     0.009 A 
ATOM     83  C   UNL A   1      40.106  35.327  36.188  1.00  0.00     0.009 A 
ATOM     84  C   UNL A   1      38.689  34.587  38.475  1.00  0.00     0.001 A 
ATOM     85  C   UNL A   1      40.003  36.211  37.263  1.00  0.00     0.001 A 
ATOM     86  C   UNL A   1      39.288  35.845  38.401  1.00  0.00     0.000 A 
ENDBRANCH  68  81
ENDBRANCH  42  43
ENDBRANCH  35  37
ENDBRANCH  34  35
ENDBRANCH  33  34
ENDBRANCH  32  33
ENDBRANCH  31  32
ENDBRANCH   1  31
TORSDOF 19
ENDMDL
