MODEL 1
REMARK VINA RESULT:     -10.5      0.000      0.000
REMARK SMILES Cc1ccccc1CSc1cccc(C(=O)OCCOCCOC(=O)c2ccc(-c3c4nc(c(-c5ccccc5)c5ccc([nH]5)c(-c5ccccc5)c5nc(c(-c6ccccc6)c6ccc3[nH]6)C=C5)C=C4)cc2)n1
REMARK SMILES IDX 19 1 18 2 17 3 15 4 16 5 14 6 10 7 11 8 74 9 12 10 13 11
REMARK SMILES IDX 9 12 8 13 7 14 1 15 2 16 3 17 4 18 6 19 5 20 20 21 21 22
REMARK SMILES IDX 22 23 23 24 24 25 25 26 26 27 27 28 73 29 28 30 72 31 29 32
REMARK SMILES IDX 30 33 31 34 66 35 32 36 71 37 65 38 67 39 33 40 70 41 64 42
REMARK SMILES IDX 63 43 34 45 56 46 41 47 55 48 42 49 45 50 54 51 68 52 43 53
REMARK SMILES IDX 44 54 53 56 69 57 46 58 35 59 36 60 40 61 37 62 39 63 38 64
REMARK SMILES IDX 57 65 58 66 62 67 59 68 61 69 60 70 47 71 48 72 52 73 49 74
REMARK SMILES IDX 51 75 50 76
REMARK H PARENT 67 44 45 55
REMARK Flexibility Score: inf
ROOT
ATOM      1  C   UNL A   1      33.870  29.398  27.001  1.00  0.00     0.202 C 
ENDROOT
BRANCH   1   2
ATOM      2  C   UNL A   1      33.173  29.726  25.716  1.00  0.00     0.261 C 
BRANCH   2   3
ATOM      3  O   UNL A   1      31.759  29.477  25.827  1.00  0.00    -0.459 OA
BRANCH   3   4
ATOM      4  C   UNL A   1      31.119  28.810  24.813  1.00  0.00     0.357 C 
ATOM      5  O   UNL A   1      30.534  29.305  23.879  1.00  0.00    -0.244 OA
BRANCH   4   6
ATOM      6  C   UNL A   1      31.384  27.348  25.004  1.00  0.00     0.149 A 
ATOM      7  C   UNL A   1      32.368  25.437  24.152  1.00  0.00     0.097 A 
ATOM      8  C   UNL A   1      32.219  24.782  25.370  1.00  0.00     0.035 A 
ATOM      9  N   UNL A   1      31.969  26.707  23.961  1.00  0.00    -0.234 NA
ATOM     10  C   UNL A   1      31.597  25.443  26.425  1.00  0.00     0.005 A 
ATOM     11  C   UNL A   1      31.151  26.740  26.234  1.00  0.00     0.036 A 
BRANCH   7  12
ATOM     12  S   UNL A   1      33.010  24.537  22.756  1.00  0.00    -0.102 SA
BRANCH  12  13
ATOM     13  C   UNL A   1      33.131  22.850  23.439  1.00  0.00     0.112 C 
BRANCH  13  14
ATOM     14  C   UNL A   1      34.497  22.353  23.868  1.00  0.00    -0.035 A 
ATOM     15  C   UNL A   1      33.453  20.424  25.191  1.00  0.00     0.044 C 
ATOM     16  C   UNL A   1      34.635  21.216  24.698  1.00  0.00    -0.047 A 
ATOM     17  C   UNL A   1      35.915  20.824  25.132  1.00  0.00     0.004 A 
ATOM     18  C   UNL A   1      37.056  21.491  24.693  1.00  0.00     0.000 A 
ATOM     19  C   UNL A   1      35.669  22.975  23.395  1.00  0.00     0.005 A 
ATOM     20  C   UNL A   1      36.933  22.554  23.808  1.00  0.00     0.000 A 
ENDBRANCH  13  14
ENDBRANCH  12  13
ENDBRANCH   7  12
ENDBRANCH   4   6
ENDBRANCH   3   4
ENDBRANCH   2   3
ENDBRANCH   1   2
BRANCH   1  21
ATOM     21  O   UNL A   1      33.473  30.429  27.888  1.00  0.00    -0.374 OA
BRANCH  21  22
ATOM     22  C   UNL A   1      34.063  31.692  27.701  1.00  0.00     0.202 C 
BRANCH  22  23
ATOM     23  C   UNL A   1      33.059  32.838  27.837  1.00  0.00     0.261 C 
BRANCH  23  24
ATOM     24  O   UNL A   1      33.747  34.059  28.195  1.00  0.00    -0.460 OA
BRANCH  24  25
ATOM     25  C   UNL A   1      33.847  34.318  29.530  1.00  0.00     0.338 C 
ATOM     26  O   UNL A   1      32.973  34.825  30.214  1.00  0.00    -0.246 OA
BRANCH  25  27
ATOM     27  C   UNL A   1      35.264  34.162  29.976  1.00  0.00     0.060 A 
ATOM     28  C   UNL A   1      36.315  34.288  29.046  1.00  0.00     0.016 A 
ATOM     29  C   UNL A   1      35.493  33.540  31.198  1.00  0.00     0.016 A 
ATOM     30  C   UNL A   1      37.537  33.633  29.268  1.00  0.00     0.010 A 
ATOM     31  C   UNL A   1      36.628  32.775  31.334  1.00  0.00     0.010 A 
ATOM     32  C   UNL A   1      37.652  32.794  30.371  1.00  0.00    -0.014 A 
BRANCH  32  33
ATOM     33  C   UNL A   1      38.739  31.853  30.658  1.00  0.00     0.031 A 
ATOM     34  C   UNL A   1      38.563  30.466  30.165  1.00  0.00     0.074 A 
ATOM     35  C   UNL A   1      39.975  32.283  31.018  1.00  0.00     0.049 A 
ATOM     36  N   UNL A   1      39.398  29.517  30.387  1.00  0.00    -0.248 NA
ATOM     37  C   UNL A   1      37.406  30.010  29.390  1.00  0.00     0.031 C 
ATOM     38  C   UNL A   1      41.272  31.658  30.740  1.00  0.00     0.029 A 
ATOM     39  N   UNL A   1      40.355  33.429  31.723  1.00  0.00    -0.354 N 
ATOM     40  C   UNL A   1      39.123  28.508  29.496  1.00  0.00     0.074 A 
ATOM     41  C   UNL A   1      37.806  28.800  28.993  1.00  0.00     0.031 C 
ATOM     42  C   UNL A   1      42.224  32.224  31.504  1.00  0.00     0.029 A 
ATOM     43  C   UNL A   1      41.553  33.151  32.397  1.00  0.00     0.049 A 
ATOM     44  H   UNL A   1      39.866  34.282  31.743  1.00  0.00     0.167 HD
ATOM     45  C   UNL A   1      40.121  27.634  29.197  1.00  0.00     0.031 A 
ATOM     46  C   UNL A   1      41.625  33.219  33.753  1.00  0.00     0.031 A 
ATOM     47  C   UNL A   1      41.308  27.902  30.019  1.00  0.00     0.049 A 
ATOM     48  C   UNL A   1      41.937  31.839  34.257  1.00  0.00     0.074 A 
ATOM     49  C   UNL A   1      42.545  28.466  29.757  1.00  0.00     0.029 A 
ATOM     50  N   UNL A   1      41.170  27.895  31.406  1.00  0.00    -0.354 N 
ATOM     51  N   UNL A   1      41.642  30.765  33.575  1.00  0.00    -0.248 NA
ATOM     52  C   UNL A   1      42.713  31.549  35.455  1.00  0.00     0.031 C 
ATOM     53  C   UNL A   1      43.128  28.838  31.006  1.00  0.00     0.029 A 
ATOM     54  C   UNL A   1      42.257  28.478  32.024  1.00  0.00     0.049 A 
ATOM     55  H   UNL A   1      40.395  27.522  31.884  1.00  0.00     0.167 HD
ATOM     56  C   UNL A   1      42.296  29.699  34.110  1.00  0.00     0.074 A 
ATOM     57  C   UNL A   1      42.894  30.220  35.328  1.00  0.00     0.031 C 
ATOM     58  C   UNL A   1      42.352  28.489  33.482  1.00  0.00     0.031 A 
BRANCH  45  59
ATOM     59  C   UNL A   1      40.117  26.664  28.039  1.00  0.00    -0.014 A 
ATOM     60  C   UNL A   1      39.270  25.541  28.090  1.00  0.00     0.009 A 
ATOM     61  C   UNL A   1      40.922  26.765  26.890  1.00  0.00     0.009 A 
ATOM     62  C   UNL A   1      39.246  24.574  27.075  1.00  0.00     0.001 A 
ATOM     63  C   UNL A   1      40.907  25.803  25.871  1.00  0.00     0.001 A 
ATOM     64  C   UNL A   1      40.068  24.704  25.964  1.00  0.00     0.000 A 
ENDBRANCH  45  59
BRANCH  46  65
ATOM     65  C   UNL A   1      40.702  34.262  34.302  1.00  0.00    -0.014 A 
ATOM     66  C   UNL A   1      39.603  33.799  35.068  1.00  0.00     0.009 A 
ATOM     67  C   UNL A   1      41.164  35.566  34.544  1.00  0.00     0.009 A 
ATOM     68  C   UNL A   1      39.102  34.546  36.143  1.00  0.00     0.001 A 
ATOM     69  C   UNL A   1      40.656  36.308  35.624  1.00  0.00     0.001 A 
ATOM     70  C   UNL A   1      39.664  35.781  36.450  1.00  0.00     0.000 A 
ENDBRANCH  46  65
BRANCH  58  71
ATOM     71  C   UNL A   1      42.527  27.175  34.194  1.00  0.00    -0.014 A 
ATOM     72  C   UNL A   1      43.749  26.504  34.308  1.00  0.00     0.009 A 
ATOM     73  C   UNL A   1      41.452  26.665  34.959  1.00  0.00     0.009 A 
ATOM     74  C   UNL A   1      43.882  25.368  35.112  1.00  0.00     0.001 A 
ATOM     75  C   UNL A   1      41.597  25.577  35.814  1.00  0.00     0.001 A 
ATOM     76  C   UNL A   1      42.813  24.917  35.879  1.00  0.00     0.000 A 
ENDBRANCH  58  71
ENDBRANCH  32  33
ENDBRANCH  25  27
ENDBRANCH  24  25
ENDBRANCH  23  24
ENDBRANCH  22  23
ENDBRANCH  21  22
ENDBRANCH   1  21
TORSDOF 17
ENDMDL
MODEL 2
REMARK VINA RESULT:     -10.1      2.380      3.783
REMARK SMILES Cc1ccccc1CSc1cccc(C(=O)OCCOCCOC(=O)c2ccc(-c3c4nc(c(-c5ccccc5)c5ccc([nH]5)c(-c5ccccc5)c5nc(c(-c6ccccc6)c6ccc3[nH]6)C=C5)C=C4)cc2)n1
REMARK SMILES IDX 19 1 18 2 17 3 15 4 16 5 14 6 10 7 11 8 74 9 12 10 13 11
REMARK SMILES IDX 9 12 8 13 7 14 1 15 2 16 3 17 4 18 6 19 5 20 20 21 21 22
REMARK SMILES IDX 22 23 23 24 24 25 25 26 26 27 27 28 73 29 28 30 72 31 29 32
REMARK SMILES IDX 30 33 31 34 66 35 32 36 71 37 65 38 67 39 33 40 70 41 64 42
REMARK SMILES IDX 63 43 34 45 56 46 41 47 55 48 42 49 45 50 54 51 68 52 43 53
REMARK SMILES IDX 44 54 53 56 69 57 46 58 35 59 36 60 40 61 37 62 39 63 38 64
REMARK SMILES IDX 57 65 58 66 62 67 59 68 61 69 60 70 47 71 48 72 52 73 49 74
REMARK SMILES IDX 51 75 50 76
REMARK H PARENT 67 44 45 55
REMARK Flexibility Score: inf
ROOT
ATOM      1  C   UNL A   1      34.002  28.477  25.355  1.00  0.00     0.202 C 
ENDROOT
BRANCH   1   2
ATOM      2  C   UNL A   1      33.702  28.238  23.906  1.00  0.00     0.261 C 
BRANCH   2   3
ATOM      3  O   UNL A   1      32.802  27.124  23.751  1.00  0.00    -0.459 OA
BRANCH   3   4
ATOM      4  C   UNL A   1      33.270  25.962  23.191  1.00  0.00     0.357 C 
ATOM      5  O   UNL A   1      33.653  25.811  22.056  1.00  0.00    -0.244 OA
BRANCH   4   6
ATOM      6  C   UNL A   1      33.340  24.938  24.282  1.00  0.00     0.149 A 
ATOM      7  C   UNL A   1      34.453  23.101  25.136  1.00  0.00     0.097 A 
ATOM      8  C   UNL A   1      33.790  23.227  26.353  1.00  0.00     0.035 A 
ATOM      9  N   UNL A   1      34.247  23.944  24.110  1.00  0.00    -0.234 NA
ATOM     10  C   UNL A   1      32.846  24.238  26.509  1.00  0.00     0.005 A 
ATOM     11  C   UNL A   1      32.599  25.095  25.450  1.00  0.00     0.036 A 
BRANCH   7  12
ATOM     12  S   UNL A   1      35.535  21.709  24.879  1.00  0.00    -0.102 SA
BRANCH  12  13
ATOM     13  C   UNL A   1      34.532  20.343  25.551  1.00  0.00     0.112 C 
BRANCH  13  14
ATOM     14  C   UNL A   1      34.031  19.286  24.587  1.00  0.00    -0.035 A 
ATOM     15  C   UNL A   1      32.098  20.791  23.839  1.00  0.00     0.044 C 
ATOM     16  C   UNL A   1      32.881  19.507  23.793  1.00  0.00    -0.047 A 
ATOM     17  C   UNL A   1      32.406  18.477  22.959  1.00  0.00     0.004 A 
ATOM     18  C   UNL A   1      33.095  17.273  22.844  1.00  0.00     0.000 A 
ATOM     19  C   UNL A   1      34.739  18.082  24.410  1.00  0.00     0.005 A 
ATOM     20  C   UNL A   1      34.273  17.084  23.554  1.00  0.00     0.000 A 
ENDBRANCH  13  14
ENDBRANCH  12  13
ENDBRANCH   7  12
ENDBRANCH   4   6
ENDBRANCH   3   4
ENDBRANCH   2   3
ENDBRANCH   1   2
BRANCH   1  21
ATOM     21  O   UNL A   1      32.737  28.730  25.938  1.00  0.00    -0.374 OA
BRANCH  21  22
ATOM     22  C   UNL A   1      32.720  29.507  27.110  1.00  0.00     0.202 C 
BRANCH  22  23
ATOM     23  C   UNL A   1      33.459  30.836  26.947  1.00  0.00     0.261 C 
BRANCH  23  24
ATOM     24  O   UNL A   1      34.113  31.195  28.185  1.00  0.00    -0.460 OA
BRANCH  24  25
ATOM     25  C   UNL A   1      35.437  31.508  28.092  1.00  0.00     0.338 C 
ATOM     26  O   UNL A   1      35.883  32.548  27.636  1.00  0.00    -0.246 OA
BRANCH  25  27
ATOM     27  C   UNL A   1      36.269  30.295  28.358  1.00  0.00     0.060 A 
ATOM     28  C   UNL A   1      36.252  29.693  29.631  1.00  0.00     0.016 A 
ATOM     29  C   UNL A   1      37.303  30.014  27.472  1.00  0.00     0.016 A 
ATOM     30  C   UNL A   1      37.362  28.958  30.078  1.00  0.00     0.010 A 
ATOM     31  C   UNL A   1      38.444  29.431  27.972  1.00  0.00     0.010 A 
ATOM     32  C   UNL A   1      38.498  28.914  29.278  1.00  0.00    -0.014 A 
BRANCH  32  33
ATOM     33  C   UNL A   1      39.823  28.406  29.649  1.00  0.00     0.031 A 
ATOM     34  C   UNL A   1      40.212  27.091  29.087  1.00  0.00     0.074 A 
ATOM     35  C   UNL A   1      40.779  29.224  30.160  1.00  0.00     0.049 A 
ATOM     36  N   UNL A   1      41.312  26.491  29.364  1.00  0.00    -0.248 NA
ATOM     37  C   UNL A   1      39.376  26.310  28.171  1.00  0.00     0.031 C 
ATOM     38  C   UNL A   1      42.234  29.130  30.005  1.00  0.00     0.029 A 
ATOM     39  N   UNL A   1      40.649  30.372  30.946  1.00  0.00    -0.354 N 
ATOM     40  C   UNL A   1      41.506  25.522  28.410  1.00  0.00     0.074 A 
ATOM     41  C   UNL A   1      40.225  25.358  27.775  1.00  0.00     0.031 C 
ATOM     42  C   UNL A   1      42.841  29.940  30.892  1.00  0.00     0.029 A 
ATOM     43  C   UNL A   1      41.800  30.494  31.739  1.00  0.00     0.049 A 
ATOM     44  H   UNL A   1      39.882  30.989  30.945  1.00  0.00     0.167 HD
ATOM     45  C   UNL A   1      42.777  25.090  28.192  1.00  0.00     0.031 A 
ATOM     46  C   UNL A   1      41.719  30.479  33.096  1.00  0.00     0.031 A 
ATOM     47  C   UNL A   1      43.705  25.703  29.151  1.00  0.00     0.049 A 
ATOM     48  C   UNL A   1      42.467  29.270  33.579  1.00  0.00     0.074 A 
ATOM     49  C   UNL A   1      44.668  26.693  29.050  1.00  0.00     0.029 A 
ATOM     50  N   UNL A   1      43.454  25.543  30.512  1.00  0.00    -0.354 N 
ATOM     51  N   UNL A   1      42.648  28.216  32.828  1.00  0.00    -0.248 NA
ATOM     52  C   UNL A   1      43.184  29.187  34.844  1.00  0.00     0.031 C 
ATOM     53  C   UNL A   1      44.960  27.153  30.369  1.00  0.00     0.029 A 
ATOM     54  C   UNL A   1      44.193  26.428  31.270  1.00  0.00     0.049 A 
ATOM     55  H   UNL A   1      42.829  24.881  30.887  1.00  0.00     0.167 HD
ATOM     56  C   UNL A   1      43.595  27.420  33.391  1.00  0.00     0.074 A 
ATOM     57  C   UNL A   1      43.849  28.026  34.688  1.00  0.00     0.031 C 
ATOM     58  C   UNL A   1      44.146  26.361  32.729  1.00  0.00     0.031 A 
BRANCH  45  59
ATOM     59  C   UNL A   1      43.232  24.275  27.005  1.00  0.00    -0.014 A 
ATOM     60  C   UNL A   1      43.132  24.830  25.715  1.00  0.00     0.009 A 
ATOM     61  C   UNL A   1      43.739  22.964  27.064  1.00  0.00     0.009 A 
ATOM     62  C   UNL A   1      43.491  24.117  24.562  1.00  0.00     0.001 A 
ATOM     63  C   UNL A   1      44.099  22.242  25.917  1.00  0.00     0.001 A 
ATOM     64  C   UNL A   1      43.973  22.819  24.663  1.00  0.00     0.000 A 
ENDBRANCH  45  59
BRANCH  46  65
ATOM     65  C   UNL A   1      40.434  31.076  33.578  1.00  0.00    -0.014 A 
ATOM     66  C   UNL A   1      40.142  32.393  33.144  1.00  0.00     0.009 A 
ATOM     67  C   UNL A   1      39.355  30.251  33.935  1.00  0.00     0.009 A 
ATOM     68  C   UNL A   1      38.822  32.806  32.915  1.00  0.00     0.001 A 
ATOM     69  C   UNL A   1      38.034  30.672  33.701  1.00  0.00     0.001 A 
ATOM     70  C   UNL A   1      37.771  31.926  33.148  1.00  0.00     0.000 A 
ENDBRANCH  46  65
BRANCH  58  71
ATOM     71  C   UNL A   1      44.723  25.148  33.405  1.00  0.00    -0.014 A 
ATOM     72  C   UNL A   1      46.056  25.042  33.814  1.00  0.00     0.009 A 
ATOM     73  C   UNL A   1      43.847  24.123  33.832  1.00  0.00     0.009 A 
ATOM     74  C   UNL A   1      46.499  23.956  34.576  1.00  0.00     0.001 A 
ATOM     75  C   UNL A   1      44.267  23.077  34.648  1.00  0.00     0.001 A 
ATOM     76  C   UNL A   1      45.602  22.985  35.008  1.00  0.00     0.000 A 
ENDBRANCH  58  71
ENDBRANCH  32  33
ENDBRANCH  25  27
ENDBRANCH  24  25
ENDBRANCH  23  24
ENDBRANCH  22  23
ENDBRANCH  21  22
ENDBRANCH   1  21
TORSDOF 17
ENDMDL
MODEL 3
REMARK VINA RESULT:      -9.9      2.561      3.806
REMARK SMILES Cc1ccccc1CSc1cccc(C(=O)OCCOCCOC(=O)c2ccc(-c3c4nc(c(-c5ccccc5)c5ccc([nH]5)c(-c5ccccc5)c5nc(c(-c6ccccc6)c6ccc3[nH]6)C=C5)C=C4)cc2)n1
REMARK SMILES IDX 19 1 18 2 17 3 15 4 16 5 14 6 10 7 11 8 74 9 12 10 13 11
REMARK SMILES IDX 9 12 8 13 7 14 1 15 2 16 3 17 4 18 6 19 5 20 20 21 21 22
REMARK SMILES IDX 22 23 23 24 24 25 25 26 26 27 27 28 73 29 28 30 72 31 29 32
REMARK SMILES IDX 30 33 31 34 66 35 32 36 71 37 65 38 67 39 33 40 70 41 64 42
REMARK SMILES IDX 63 43 34 45 56 46 41 47 55 48 42 49 45 50 54 51 68 52 43 53
REMARK SMILES IDX 44 54 53 56 69 57 46 58 35 59 36 60 40 61 37 62 39 63 38 64
REMARK SMILES IDX 57 65 58 66 62 67 59 68 61 69 60 70 47 71 48 72 52 73 49 74
REMARK SMILES IDX 51 75 50 76
REMARK H PARENT 67 44 45 55
REMARK Flexibility Score: inf
ROOT
ATOM      1  C   UNL A   1      34.360  33.239  28.710  1.00  0.00     0.202 C 
ENDROOT
BRANCH   1   2
ATOM      2  C   UNL A   1      33.022  33.030  28.070  1.00  0.00     0.261 C 
BRANCH   2   3
ATOM      3  O   UNL A   1      33.052  31.891  27.188  1.00  0.00    -0.459 OA
BRANCH   3   4
ATOM      4  C   UNL A   1      31.884  31.469  26.605  1.00  0.00     0.357 C 
ATOM      5  O   UNL A   1      30.954  32.162  26.267  1.00  0.00    -0.244 OA
BRANCH   4   6
ATOM      6  C   UNL A   1      32.021  30.000  26.345  1.00  0.00     0.149 A 
ATOM      7  C   UNL A   1      32.891  28.355  24.974  1.00  0.00     0.097 A 
ATOM      8  C   UNL A   1      32.627  27.378  25.929  1.00  0.00     0.035 A 
ATOM      9  N   UNL A   1      32.605  29.654  25.171  1.00  0.00    -0.234 NA
ATOM     10  C   UNL A   1      32.007  27.743  27.120  1.00  0.00     0.005 A 
ATOM     11  C   UNL A   1      31.677  29.072  27.324  1.00  0.00     0.036 A 
BRANCH   7  12
ATOM     12  S   UNL A   1      33.530  27.864  23.385  1.00  0.00    -0.102 SA
BRANCH  12  13
ATOM     13  C   UNL A   1      32.049  27.133  22.611  1.00  0.00     0.112 C 
BRANCH  13  14
ATOM     14  C   UNL A   1      30.754  27.919  22.670  1.00  0.00    -0.035 A 
ATOM     15  C   UNL A   1      29.617  26.071  24.031  1.00  0.00     0.044 C 
ATOM     16  C   UNL A   1      29.616  27.405  23.334  1.00  0.00    -0.047 A 
ATOM     17  C   UNL A   1      28.411  28.132  23.309  1.00  0.00     0.004 A 
ATOM     18  C   UNL A   1      28.343  29.387  22.708  1.00  0.00     0.000 A 
ATOM     19  C   UNL A   1      30.674  29.213  22.119  1.00  0.00     0.005 A 
ATOM     20  C   UNL A   1      29.481  29.935  22.131  1.00  0.00     0.000 A 
ENDBRANCH  13  14
ENDBRANCH  12  13
ENDBRANCH   7  12
ENDBRANCH   4   6
ENDBRANCH   3   4
ENDBRANCH   2   3
ENDBRANCH   1   2
BRANCH   1  21
ATOM     21  O   UNL A   1      34.353  34.599  29.103  1.00  0.00    -0.374 OA
BRANCH  21  22
ATOM     22  C   UNL A   1      33.105  35.160  29.430  1.00  0.00     0.202 C 
BRANCH  22  23
ATOM     23  C   UNL A   1      33.016  35.586  30.896  1.00  0.00     0.261 C 
BRANCH  23  24
ATOM     24  O   UNL A   1      34.286  35.368  31.553  1.00  0.00    -0.460 OA
BRANCH  24  25
ATOM     25  C   UNL A   1      34.367  34.260  32.342  1.00  0.00     0.338 C 
ATOM     26  O   UNL A   1      33.416  33.686  32.848  1.00  0.00    -0.246 OA
BRANCH  25  27
ATOM     27  C   UNL A   1      35.788  34.015  32.736  1.00  0.00     0.060 A 
ATOM     28  C   UNL A   1      36.835  34.432  31.892  1.00  0.00     0.016 A 
ATOM     29  C   UNL A   1      36.030  33.069  33.726  1.00  0.00     0.016 A 
ATOM     30  C   UNL A   1      38.073  33.769  31.924  1.00  0.00     0.010 A 
ATOM     31  C   UNL A   1      37.184  32.325  33.642  1.00  0.00     0.010 A 
ATOM     32  C   UNL A   1      38.208  32.649  32.735  1.00  0.00    -0.014 A 
BRANCH  32  33
ATOM     33  C   UNL A   1      39.319  31.690  32.745  1.00  0.00     0.031 A 
ATOM     34  C   UNL A   1      39.156  30.478  31.908  1.00  0.00     0.074 A 
ATOM     35  C   UNL A   1      40.555  32.041  33.182  1.00  0.00     0.049 A 
ATOM     36  N   UNL A   1      40.013  29.524  31.857  1.00  0.00    -0.248 NA
ATOM     37  C   UNL A   1      37.989  30.214  31.062  1.00  0.00     0.031 C 
ATOM     38  C   UNL A   1      41.856  31.541  32.726  1.00  0.00     0.029 A 
ATOM     39  N   UNL A   1      40.931  32.970  34.156  1.00  0.00    -0.354 N 
ATOM     40  C   UNL A   1      39.735  28.778  30.737  1.00  0.00     0.074 A 
ATOM     41  C   UNL A   1      38.401  29.161  30.353  1.00  0.00     0.031 C 
ATOM     42  C   UNL A   1      42.816  31.909  33.594  1.00  0.00     0.029 A 
ATOM     43  C   UNL A   1      42.150  32.553  34.712  1.00  0.00     0.049 A 
ATOM     44  H   UNL A   1      40.428  33.776  34.410  1.00  0.00     0.167 HD
ATOM     45  C   UNL A   1      40.741  28.037  30.201  1.00  0.00     0.031 A 
ATOM     46  C   UNL A   1      42.253  32.264  36.036  1.00  0.00     0.031 A 
ATOM     47  C   UNL A   1      41.942  28.107  31.043  1.00  0.00     0.049 A 
ATOM     48  C   UNL A   1      42.602  30.808  36.154  1.00  0.00     0.074 A 
ATOM     49  C   UNL A   1      43.162  28.750  30.915  1.00  0.00     0.029 A 
ATOM     50  N   UNL A   1      41.838  27.734  32.381  1.00  0.00    -0.354 N 
ATOM     51  N   UNL A   1      42.310  29.944  35.219  1.00  0.00    -0.248 NA
ATOM     52  C   UNL A   1      43.411  30.232  37.220  1.00  0.00     0.031 C 
ATOM     53  C   UNL A   1      43.768  28.795  32.207  1.00  0.00     0.029 A 
ATOM     54  C   UNL A   1      42.928  28.160  33.111  1.00  0.00     0.049 A 
ATOM     55  H   UNL A   1      41.081  27.230  32.758  1.00  0.00     0.167 HD
ATOM     56  C   UNL A   1      42.995  28.791  35.443  1.00  0.00     0.074 A 
ATOM     57  C   UNL A   1      43.613  28.988  36.744  1.00  0.00     0.031 C 
ATOM     58  C   UNL A   1      43.058  27.789  34.518  1.00  0.00     0.031 A 
BRANCH  45  59
ATOM     59  C   UNL A   1      40.727  27.405  28.829  1.00  0.00    -0.014 A 
ATOM     60  C   UNL A   1      41.066  28.191  27.711  1.00  0.00     0.009 A 
ATOM     61  C   UNL A   1      40.372  26.073  28.550  1.00  0.00     0.009 A 
ATOM     62  C   UNL A   1      41.030  27.687  26.403  1.00  0.00     0.001 A 
ATOM     63  C   UNL A   1      40.331  25.561  27.245  1.00  0.00     0.001 A 
ATOM     64  C   UNL A   1      40.660  26.370  26.169  1.00  0.00     0.000 A 
ENDBRANCH  45  59
BRANCH  46  65
ATOM     65  C   UNL A   1      41.325  33.104  36.857  1.00  0.00    -0.014 A 
ATOM     66  C   UNL A   1      41.643  34.481  36.968  1.00  0.00     0.009 A 
ATOM     67  C   UNL A   1      39.982  32.729  37.023  1.00  0.00     0.009 A 
ATOM     68  C   UNL A   1      40.638  35.453  37.070  1.00  0.00     0.001 A 
ATOM     69  C   UNL A   1      38.980  33.710  37.124  1.00  0.00     0.001 A 
ATOM     70  C   UNL A   1      39.303  35.067  37.098  1.00  0.00     0.000 A 
ENDBRANCH  46  65
BRANCH  58  71
ATOM     71  C   UNL A   1      43.273  26.339  34.856  1.00  0.00    -0.014 A 
ATOM     72  C   UNL A   1      42.257  25.477  35.282  1.00  0.00     0.009 A 
ATOM     73  C   UNL A   1      44.520  25.745  34.554  1.00  0.00     0.009 A 
ATOM     74  C   UNL A   1      42.483  24.105  35.431  1.00  0.00     0.001 A 
ATOM     75  C   UNL A   1      44.730  24.372  34.634  1.00  0.00     0.001 A 
ATOM     76  C   UNL A   1      43.712  23.551  35.089  1.00  0.00     0.000 A 
ENDBRANCH  58  71
ENDBRANCH  32  33
ENDBRANCH  25  27
ENDBRANCH  24  25
ENDBRANCH  23  24
ENDBRANCH  22  23
ENDBRANCH  21  22
ENDBRANCH   1  21
TORSDOF 17
ENDMDL
