MODEL 1
REMARK VINA RESULT:     -10.3      0.000      0.000
REMARK SMILES Nc1oc2ccc(F)cc2c(=O)c1[C@@H]1[NH2+][C@H](C(=O)OCCOCCOC(=O)c2ccc(-c3c4nc(c(-c5ccccc5)c5ccc([nH]5)c(-c5ccccc5)c5nc(c(-c6ccccc6)c6ccc3[nH]6)C=C5)C=C4)cc2)CS1
REMARK SMILES IDX 22 1 21 2 20 3 19 4 17 5 18 6 16 7 14 8 15 9 77 10 76 13
REMARK SMILES IDX 13 14 2 15 3 16 4 17 11 18 5 19 10 20 12 21 6 22 9 23 7 24
REMARK SMILES IDX 8 25 1 26 23 29 24 30 25 31 26 32 27 33 28 34 29 35 75 36
REMARK SMILES IDX 30 37 74 38 31 39 32 40 33 41 68 42 34 43 73 44 67 45 69 46
REMARK SMILES IDX 35 47 72 48 66 49 65 50 36 52 58 53 43 54 57 55 44 56 47 57
REMARK SMILES IDX 56 58 70 59 45 60 46 61 55 63 71 64 48 65 37 66 38 67 42 68
REMARK SMILES IDX 39 69 41 70 40 71 59 72 60 73 64 74 61 75 63 76 62 77 49 78
REMARK SMILES IDX 50 79 54 80 51 81 53 82 52 83
REMARK H PARENT 15 11 15 12 1 27 1 28 69 51 47 62
REMARK Flexibility Score: inf
ROOT
ATOM      1  O   UNL A   1      35.772  21.962  24.709  1.00  0.00    -0.374 OA
ENDROOT
BRANCH   1   2
ATOM      2  C   UNL A   1      35.023  20.783  25.018  1.00  0.00     0.202 C 
BRANCH   2   3
ATOM      3  C   UNL A   1      33.650  21.010  25.650  1.00  0.00     0.261 C 
BRANCH   3   4
ATOM      4  O   UNL A   1      33.215  22.344  25.362  1.00  0.00    -0.459 OA
BRANCH   4   5
ATOM      5  C   UNL A   1      31.873  22.538  25.317  1.00  0.00     0.365 C 
ATOM      6  O   UNL A   1      31.135  22.507  26.296  1.00  0.00    -0.245 OA
BRANCH   5   7
ATOM      7  C   UNL A   1      31.375  22.939  23.921  1.00  0.00     0.304 C 
ATOM      8  C   UNL A   1      31.790  25.264  23.402  1.00  0.00     0.283 C 
ATOM      9  N   UNL A   1      30.772  24.295  23.826  1.00  0.00    -0.319 N 
ATOM     10  S   UNL A   1      32.993  24.393  22.363  1.00  0.00    -0.087 SA
ATOM     11  H   UNL A   1      30.013  24.282  23.145  1.00  0.00     0.348 HD
ATOM     12  H   UNL A   1      30.409  24.567  24.740  1.00  0.00     0.348 HD
ATOM     13  C   UNL A   1      32.461  22.744  22.873  1.00  0.00     0.153 C 
BRANCH   8  14
ATOM     14  C   UNL A   1      32.406  26.070  24.519  1.00  0.00     0.128 A 
ATOM     15  C   UNL A   1      33.594  25.896  25.144  1.00  0.00     0.205 A 
ATOM     16  O   UNL A   1      34.029  26.692  26.192  1.00  0.00    -0.440 OA
ATOM     17  C   UNL A   1      33.485  27.935  26.329  1.00  0.00     0.140 A 
ATOM     18  C   UNL A   1      31.604  27.267  24.917  1.00  0.00     0.205 A 
ATOM     19  C   UNL A   1      34.180  28.859  27.106  1.00  0.00     0.051 A 
ATOM     20  C   UNL A   1      32.290  28.287  25.720  1.00  0.00     0.068 A 
ATOM     21  O   UNL A   1      30.451  27.456  24.548  1.00  0.00    -0.288 OA
ATOM     22  C   UNL A   1      33.677  30.151  27.257  1.00  0.00     0.043 A 
ATOM     23  C   UNL A   1      31.778  29.579  25.862  1.00  0.00     0.055 A 
ATOM     24  C   UNL A   1      32.486  30.500  26.628  1.00  0.00     0.124 A 
ATOM     25  F   UNL A   1      31.997  31.736  26.787  1.00  0.00    -0.207 F 
BRANCH  15  26
ATOM     26  N   UNL A   1      34.515  24.938  24.837  1.00  0.00    -0.369 N 
ATOM     27  H   UNL A   1      35.285  25.161  24.264  1.00  0.00     0.159 HD
ATOM     28  H   UNL A   1      34.412  24.024  25.188  1.00  0.00     0.159 HD
ENDBRANCH  15  26
ENDBRANCH   8  14
ENDBRANCH   5   7
ENDBRANCH   4   5
ENDBRANCH   3   4
ENDBRANCH   2   3
ENDBRANCH   1   2
BRANCH   1  29
ATOM     29  C   UNL A   1      37.128  21.795  24.294  1.00  0.00     0.202 C 
BRANCH  29  30
ATOM     30  C   UNL A   1      38.156  21.435  25.376  1.00  0.00     0.261 C 
BRANCH  30  31
ATOM     31  O   UNL A   1      38.374  22.471  26.346  1.00  0.00    -0.460 OA
BRANCH  31  32
ATOM     32  C   UNL A   1      39.667  22.863  26.471  1.00  0.00     0.338 C 
ATOM     33  O   UNL A   1      40.663  22.267  26.103  1.00  0.00    -0.246 OA
BRANCH  32  34
ATOM     34  C   UNL A   1      39.719  24.232  27.019  1.00  0.00     0.060 A 
ATOM     35  C   UNL A   1      39.065  24.557  28.204  1.00  0.00     0.016 A 
ATOM     36  C   UNL A   1      40.522  25.182  26.372  1.00  0.00     0.016 A 
ATOM     37  C   UNL A   1      39.249  25.830  28.749  1.00  0.00     0.010 A 
ATOM     38  C   UNL A   1      40.697  26.456  26.922  1.00  0.00     0.010 A 
ATOM     39  C   UNL A   1      40.071  26.792  28.126  1.00  0.00    -0.014 A 
BRANCH  39  40
ATOM     40  C   UNL A   1      40.365  28.066  28.842  1.00  0.00     0.031 A 
ATOM     41  C   UNL A   1      39.423  29.236  28.847  1.00  0.00     0.074 A 
ATOM     42  C   UNL A   1      41.495  28.139  29.572  1.00  0.00     0.049 A 
ATOM     43  N   UNL A   1      39.402  30.258  29.668  1.00  0.00    -0.248 NA
ATOM     44  C   UNL A   1      38.359  29.261  27.834  1.00  0.00     0.031 C 
ATOM     45  C   UNL A   1      42.519  27.095  29.629  1.00  0.00     0.029 A 
ATOM     46  N   UNL A   1      41.948  29.104  30.437  1.00  0.00    -0.354 N 
ATOM     47  C   UNL A   1      38.288  31.008  29.319  1.00  0.00     0.074 A 
ATOM     48  C   UNL A   1      37.696  30.364  28.165  1.00  0.00     0.031 C 
ATOM     49  C   UNL A   1      43.440  27.438  30.539  1.00  0.00     0.029 A 
ATOM     50  C   UNL A   1      43.098  28.743  31.097  1.00  0.00     0.049 A 
ATOM     51  H   UNL A   1      41.496  29.968  30.570  1.00  0.00     0.167 HD
ATOM     52  C   UNL A   1      37.786  32.111  29.925  1.00  0.00     0.031 A 
ATOM     53  C   UNL A   1      43.799  29.373  32.059  1.00  0.00     0.031 A 
ATOM     54  C   UNL A   1      38.435  32.826  30.996  1.00  0.00     0.049 A 
ATOM     55  C   UNL A   1      43.309  30.683  32.600  1.00  0.00     0.074 A 
ATOM     56  C   UNL A   1      37.999  33.962  31.660  1.00  0.00     0.029 A 
ATOM     57  N   UNL A   1      39.677  32.511  31.525  1.00  0.00    -0.354 N 
ATOM     58  N   UNL A   1      42.193  31.317  32.336  1.00  0.00    -0.248 NA
ATOM     59  C   UNL A   1      44.174  31.361  33.575  1.00  0.00     0.031 C 
ATOM     60  C   UNL A   1      39.017  34.385  32.521  1.00  0.00     0.029 A 
ATOM     61  C   UNL A   1      40.052  33.467  32.459  1.00  0.00     0.049 A 
ATOM     62  H   UNL A   1      40.214  31.725  31.275  1.00  0.00     0.167 HD
ATOM     63  C   UNL A   1      42.218  32.467  33.115  1.00  0.00     0.074 A 
ATOM     64  C   UNL A   1      43.447  32.427  33.881  1.00  0.00     0.031 C 
ATOM     65  C   UNL A   1      41.298  33.462  33.185  1.00  0.00     0.031 A 
BRANCH  52  66
ATOM     66  C   UNL A   1      36.455  32.623  29.448  1.00  0.00    -0.014 A 
ATOM     67  C   UNL A   1      36.376  33.515  28.369  1.00  0.00     0.009 A 
ATOM     68  C   UNL A   1      35.279  32.295  30.144  1.00  0.00     0.009 A 
ATOM     69  C   UNL A   1      35.151  34.076  28.001  1.00  0.00     0.001 A 
ATOM     70  C   UNL A   1      34.052  32.841  29.760  1.00  0.00     0.001 A 
ATOM     71  C   UNL A   1      33.991  33.737  28.694  1.00  0.00     0.000 A 
ENDBRANCH  52  66
BRANCH  53  72
ATOM     72  C   UNL A   1      45.029  28.728  32.586  1.00  0.00    -0.014 A 
ATOM     73  C   UNL A   1      46.268  28.943  31.960  1.00  0.00     0.009 A 
ATOM     74  C   UNL A   1      44.958  27.827  33.658  1.00  0.00     0.009 A 
ATOM     75  C   UNL A   1      47.401  28.238  32.367  1.00  0.00     0.001 A 
ATOM     76  C   UNL A   1      46.102  27.147  34.085  1.00  0.00     0.001 A 
ATOM     77  C   UNL A   1      47.318  27.342  33.430  1.00  0.00     0.000 A 
ENDBRANCH  53  72
BRANCH  65  78
ATOM     78  C   UNL A   1      41.598  34.623  34.095  1.00  0.00    -0.014 A 
ATOM     79  C   UNL A   1      41.101  34.639  35.408  1.00  0.00     0.009 A 
ATOM     80  C   UNL A   1      42.325  35.734  33.635  1.00  0.00     0.009 A 
ATOM     81  C   UNL A   1      41.317  35.742  36.238  1.00  0.00     0.001 A 
ATOM     82  C   UNL A   1      42.569  36.820  34.478  1.00  0.00     0.001 A 
ATOM     83  C   UNL A   1      42.059  36.828  35.775  1.00  0.00     0.000 A 
ENDBRANCH  65  78
ENDBRANCH  39  40
ENDBRANCH  32  34
ENDBRANCH  31  32
ENDBRANCH  30  31
ENDBRANCH  29  30
ENDBRANCH   1  29
TORSDOF 16
ENDMDL
MODEL 2
REMARK VINA RESULT:     -10.3      3.139      8.310
REMARK SMILES Nc1oc2ccc(F)cc2c(=O)c1[C@@H]1[NH2+][C@H](C(=O)OCCOCCOC(=O)c2ccc(-c3c4nc(c(-c5ccccc5)c5ccc([nH]5)c(-c5ccccc5)c5nc(c(-c6ccccc6)c6ccc3[nH]6)C=C5)C=C4)cc2)CS1
REMARK SMILES IDX 22 1 21 2 20 3 19 4 17 5 18 6 16 7 14 8 15 9 77 10 76 13
REMARK SMILES IDX 13 14 2 15 3 16 4 17 11 18 5 19 10 20 12 21 6 22 9 23 7 24
REMARK SMILES IDX 8 25 1 26 23 29 24 30 25 31 26 32 27 33 28 34 29 35 75 36
REMARK SMILES IDX 30 37 74 38 31 39 32 40 33 41 68 42 34 43 73 44 67 45 69 46
REMARK SMILES IDX 35 47 72 48 66 49 65 50 36 52 58 53 43 54 57 55 44 56 47 57
REMARK SMILES IDX 56 58 70 59 45 60 46 61 55 63 71 64 48 65 37 66 38 67 42 68
REMARK SMILES IDX 39 69 41 70 40 71 59 72 60 73 64 74 61 75 63 76 62 77 49 78
REMARK SMILES IDX 50 79 54 80 51 81 53 82 52 83
REMARK H PARENT 15 11 15 12 1 27 1 28 69 51 47 62
REMARK Flexibility Score: inf
ROOT
ATOM      1  O   UNL A   1      32.380  29.662  25.184  1.00  0.00    -0.374 OA
ENDROOT
BRANCH   1   2
ATOM      2  C   UNL A   1      31.488  29.200  24.166  1.00  0.00     0.202 C 
BRANCH   2   3
ATOM      3  C   UNL A   1      32.099  28.272  23.116  1.00  0.00     0.261 C 
BRANCH   3   4
ATOM      4  O   UNL A   1      32.032  26.921  23.587  1.00  0.00    -0.459 OA
BRANCH   4   5
ATOM      5  C   UNL A   1      31.559  26.003  22.707  1.00  0.00     0.365 C 
ATOM      6  O   UNL A   1      31.916  25.917  21.536  1.00  0.00    -0.245 OA
BRANCH   5   7
ATOM      7  C   UNL A   1      30.617  24.981  23.359  1.00  0.00     0.304 C 
ATOM      8  C   UNL A   1      31.755  23.487  24.883  1.00  0.00     0.283 C 
ATOM      9  N   UNL A   1      31.183  23.617  23.536  1.00  0.00    -0.319 N 
ATOM     10  S   UNL A   1      30.818  24.568  25.995  1.00  0.00    -0.087 SA
ATOM     11  H   UNL A   1      30.444  22.925  23.414  1.00  0.00     0.348 HD
ATOM     12  H   UNL A   1      31.916  23.464  22.843  1.00  0.00     0.348 HD
ATOM     13  C   UNL A   1      30.046  25.515  24.665  1.00  0.00     0.153 C 
BRANCH   8  14
ATOM     14  C   UNL A   1      33.251  23.666  24.959  1.00  0.00     0.128 A 
ATOM     15  C   UNL A   1      33.963  24.717  25.428  1.00  0.00     0.205 A 
ATOM     16  O   UNL A   1      35.348  24.772  25.406  1.00  0.00    -0.440 OA
ATOM     17  C   UNL A   1      36.040  23.600  25.324  1.00  0.00     0.140 A 
ATOM     18  C   UNL A   1      34.029  22.468  24.518  1.00  0.00     0.205 A 
ATOM     19  C   UNL A   1      37.383  23.620  25.695  1.00  0.00     0.051 A 
ATOM     20  C   UNL A   1      35.447  22.422  24.898  1.00  0.00     0.068 A 
ATOM     21  O   UNL A   1      33.524  21.519  23.931  1.00  0.00    -0.288 OA
ATOM     22  C   UNL A   1      38.128  22.442  25.652  1.00  0.00     0.043 A 
ATOM     23  C   UNL A   1      36.182  21.236  24.853  1.00  0.00     0.055 A 
ATOM     24  C   UNL A   1      37.519  21.261  25.239  1.00  0.00     0.124 A 
ATOM     25  F   UNL A   1      38.240  20.135  25.183  1.00  0.00    -0.207 F 
BRANCH  15  26
ATOM     26  N   UNL A   1      33.433  25.845  25.984  1.00  0.00    -0.369 N 
ATOM     27  H   UNL A   1      33.742  26.150  26.867  1.00  0.00     0.159 HD
ATOM     28  H   UNL A   1      32.742  26.354  25.501  1.00  0.00     0.159 HD
ENDBRANCH  15  26
ENDBRANCH   8  14
ENDBRANCH   5   7
ENDBRANCH   4   5
ENDBRANCH   3   4
ENDBRANCH   2   3
ENDBRANCH   1   2
BRANCH   1  29
ATOM     29  C   UNL A   1      31.804  30.254  26.349  1.00  0.00     0.202 C 
BRANCH  29  30
ATOM     30  C   UNL A   1      32.732  31.081  27.251  1.00  0.00     0.261 C 
BRANCH  30  31
ATOM     31  O   UNL A   1      34.065  30.559  27.356  1.00  0.00    -0.460 OA
BRANCH  31  32
ATOM     32  C   UNL A   1      34.790  31.068  28.384  1.00  0.00     0.338 C 
ATOM     33  O   UNL A   1      34.460  31.941  29.166  1.00  0.00    -0.246 OA
BRANCH  32  34
ATOM     34  C   UNL A   1      36.045  30.306  28.530  1.00  0.00     0.060 A 
ATOM     35  C   UNL A   1      36.939  30.185  27.471  1.00  0.00     0.016 A 
ATOM     36  C   UNL A   1      36.368  29.783  29.790  1.00  0.00     0.016 A 
ATOM     37  C   UNL A   1      38.170  29.563  27.694  1.00  0.00     0.010 A 
ATOM     38  C   UNL A   1      37.602  29.159  30.005  1.00  0.00     0.010 A 
ATOM     39  C   UNL A   1      38.525  29.052  28.961  1.00  0.00    -0.014 A 
BRANCH  39  40
ATOM     40  C   UNL A   1      39.914  28.559  29.180  1.00  0.00     0.031 A 
ATOM     41  C   UNL A   1      40.339  27.152  28.871  1.00  0.00     0.074 A 
ATOM     42  C   UNL A   1      40.840  29.438  29.609  1.00  0.00     0.049 A 
ATOM     43  N   UNL A   1      41.556  26.688  28.713  1.00  0.00    -0.248 NA
ATOM     44  C   UNL A   1      39.286  26.144  28.689  1.00  0.00     0.031 C 
ATOM     45  C   UNL A   1      40.562  30.825  29.985  1.00  0.00     0.029 A 
ATOM     46  N   UNL A   1      42.200  29.316  29.756  1.00  0.00    -0.354 N 
ATOM     47  C   UNL A   1      41.413  25.357  28.344  1.00  0.00     0.074 A 
ATOM     48  C   UNL A   1      39.995  25.066  28.372  1.00  0.00     0.031 C 
ATOM     49  C   UNL A   1      41.720  31.446  30.244  1.00  0.00     0.029 A 
ATOM     50  C   UNL A   1      42.817  30.494  30.097  1.00  0.00     0.049 A 
ATOM     51  H   UNL A   1      42.683  28.467  29.631  1.00  0.00     0.167 HD
ATOM     52  C   UNL A   1      42.373  24.472  27.984  1.00  0.00     0.031 A 
ATOM     53  C   UNL A   1      44.120  30.795  30.258  1.00  0.00     0.031 A 
ATOM     54  C   UNL A   1      43.792  24.718  28.071  1.00  0.00     0.049 A 
ATOM     55  C   UNL A   1      45.162  29.745  30.014  1.00  0.00     0.074 A 
ATOM     56  C   UNL A   1      44.834  23.868  27.737  1.00  0.00     0.029 A 
ATOM     57  N   UNL A   1      44.370  25.874  28.573  1.00  0.00    -0.354 N 
ATOM     58  N   UNL A   1      45.011  28.526  29.556  1.00  0.00    -0.248 NA
ATOM     59  C   UNL A   1      46.554  30.114  30.305  1.00  0.00     0.031 C 
ATOM     60  C   UNL A   1      46.035  24.473  28.122  1.00  0.00     0.029 A 
ATOM     61  C   UNL A   1      45.749  25.734  28.618  1.00  0.00     0.049 A 
ATOM     62  H   UNL A   1      43.874  26.676  28.855  1.00  0.00     0.167 HD
ATOM     63  C   UNL A   1      46.288  27.982  29.499  1.00  0.00     0.074 A 
ATOM     64  C   UNL A   1      47.202  29.015  29.942  1.00  0.00     0.031 C 
ATOM     65  C   UNL A   1      46.661  26.738  29.110  1.00  0.00     0.031 A 
BRANCH  52  66
ATOM     66  C   UNL A   1      41.926  23.138  27.452  1.00  0.00    -0.014 A 
ATOM     67  C   UNL A   1      41.538  22.112  28.326  1.00  0.00     0.009 A 
ATOM     68  C   UNL A   1      41.991  22.867  26.075  1.00  0.00     0.009 A 
ATOM     69  C   UNL A   1      41.232  20.841  27.836  1.00  0.00     0.001 A 
ATOM     70  C   UNL A   1      41.663  21.601  25.585  1.00  0.00     0.001 A 
ATOM     71  C   UNL A   1      41.292  20.587  26.466  1.00  0.00     0.000 A 
ENDBRANCH  52  66
BRANCH  53  72
ATOM     72  C   UNL A   1      44.492  32.182  30.642  1.00  0.00    -0.014 A 
ATOM     73  C   UNL A   1      44.435  32.585  31.986  1.00  0.00     0.009 A 
ATOM     74  C   UNL A   1      44.817  33.130  29.662  1.00  0.00     0.009 A 
ATOM     75  C   UNL A   1      44.654  33.918  32.337  1.00  0.00     0.001 A 
ATOM     76  C   UNL A   1      45.068  34.457  30.020  1.00  0.00     0.001 A 
ATOM     77  C   UNL A   1      44.971  34.852  31.354  1.00  0.00     0.000 A 
ENDBRANCH  53  72
BRANCH  65  78
ATOM     78  C   UNL A   1      48.126  26.397  29.182  1.00  0.00    -0.014 A 
ATOM     79  C   UNL A   1      48.956  26.605  28.068  1.00  0.00     0.009 A 
ATOM     80  C   UNL A   1      48.676  25.812  30.335  1.00  0.00     0.009 A 
ATOM     81  C   UNL A   1      50.301  26.229  28.103  1.00  0.00     0.001 A 
ATOM     82  C   UNL A   1      50.030  25.471  30.379  1.00  0.00     0.001 A 
ATOM     83  C   UNL A   1      50.839  25.670  29.262  1.00  0.00     0.000 A 
ENDBRANCH  65  78
ENDBRANCH  39  40
ENDBRANCH  32  34
ENDBRANCH  31  32
ENDBRANCH  30  31
ENDBRANCH  29  30
ENDBRANCH   1  29
TORSDOF 16
ENDMDL
MODEL 3
REMARK VINA RESULT:     -10.2      2.679      3.984
REMARK SMILES Nc1oc2ccc(F)cc2c(=O)c1[C@@H]1[NH2+][C@H](C(=O)OCCOCCOC(=O)c2ccc(-c3c4nc(c(-c5ccccc5)c5ccc([nH]5)c(-c5ccccc5)c5nc(c(-c6ccccc6)c6ccc3[nH]6)C=C5)C=C4)cc2)CS1
REMARK SMILES IDX 22 1 21 2 20 3 19 4 17 5 18 6 16 7 14 8 15 9 77 10 76 13
REMARK SMILES IDX 13 14 2 15 3 16 4 17 11 18 5 19 10 20 12 21 6 22 9 23 7 24
REMARK SMILES IDX 8 25 1 26 23 29 24 30 25 31 26 32 27 33 28 34 29 35 75 36
REMARK SMILES IDX 30 37 74 38 31 39 32 40 33 41 68 42 34 43 73 44 67 45 69 46
REMARK SMILES IDX 35 47 72 48 66 49 65 50 36 52 58 53 43 54 57 55 44 56 47 57
REMARK SMILES IDX 56 58 70 59 45 60 46 61 55 63 71 64 48 65 37 66 38 67 42 68
REMARK SMILES IDX 39 69 41 70 40 71 59 72 60 73 64 74 61 75 63 76 62 77 49 78
REMARK SMILES IDX 50 79 54 80 51 81 53 82 52 83
REMARK H PARENT 15 11 15 12 1 27 1 28 69 51 47 62
REMARK Flexibility Score: inf
ROOT
ATOM      1  O   UNL A   1      37.793  22.186  25.650  1.00  0.00    -0.374 OA
ENDROOT
BRANCH   1   2
ATOM      2  C   UNL A   1      37.186  21.397  24.623  1.00  0.00     0.202 C 
BRANCH   2   3
ATOM      3  C   UNL A   1      36.071  20.455  25.076  1.00  0.00     0.261 C 
BRANCH   3   4
ATOM      4  O   UNL A   1      34.803  21.048  24.775  1.00  0.00    -0.459 OA
BRANCH   4   5
ATOM      5  C   UNL A   1      33.879  21.019  25.767  1.00  0.00     0.365 C 
ATOM      6  O   UNL A   1      34.137  21.154  26.959  1.00  0.00    -0.245 OA
BRANCH   5   7
ATOM      7  C   UNL A   1      32.439  20.934  25.240  1.00  0.00     0.304 C 
ATOM      8  C   UNL A   1      31.425  23.104  24.907  1.00  0.00     0.283 C 
ATOM      9  N   UNL A   1      31.496  21.939  25.798  1.00  0.00    -0.319 N 
ATOM     10  S   UNL A   1      31.731  22.533  23.214  1.00  0.00    -0.087 SA
ATOM     11  H   UNL A   1      30.569  21.523  25.885  1.00  0.00     0.348 HD
ATOM     12  H   UNL A   1      31.827  22.238  26.716  1.00  0.00     0.348 HD
ATOM     13  C   UNL A   1      32.411  20.937  23.717  1.00  0.00     0.153 C 
BRANCH   8  14
ATOM     14  C   UNL A   1      32.274  24.279  25.327  1.00  0.00     0.128 A 
ATOM     15  C   UNL A   1      33.530  24.606  24.944  1.00  0.00     0.205 A 
ATOM     16  O   UNL A   1      34.218  25.703  25.439  1.00  0.00    -0.440 OA
ATOM     17  C   UNL A   1      33.498  26.726  25.982  1.00  0.00     0.140 A 
ATOM     18  C   UNL A   1      31.574  25.240  26.233  1.00  0.00     0.205 A 
ATOM     19  C   UNL A   1      34.132  27.961  26.109  1.00  0.00     0.051 A 
ATOM     20  C   UNL A   1      32.183  26.567  26.391  1.00  0.00     0.068 A 
ATOM     21  O   UNL A   1      30.504  24.992  26.777  1.00  0.00    -0.288 OA
ATOM     22  C   UNL A   1      33.431  29.045  26.635  1.00  0.00     0.043 A 
ATOM     23  C   UNL A   1      31.471  27.646  26.917  1.00  0.00     0.055 A 
ATOM     24  C   UNL A   1      32.105  28.879  27.027  1.00  0.00     0.124 A 
ATOM     25  F   UNL A   1      31.440  29.917  27.546  1.00  0.00    -0.207 F 
BRANCH  15  26
ATOM     26  N   UNL A   1      34.282  23.923  24.033  1.00  0.00    -0.369 N 
ATOM     27  H   UNL A   1      34.035  23.004  23.781  1.00  0.00     0.159 HD
ATOM     28  H   UNL A   1      35.072  24.350  23.628  1.00  0.00     0.159 HD
ENDBRANCH  15  26
ENDBRANCH   8  14
ENDBRANCH   5   7
ENDBRANCH   4   5
ENDBRANCH   3   4
ENDBRANCH   2   3
ENDBRANCH   1   2
BRANCH   1  29
ATOM     29  C   UNL A   1      39.072  21.773  26.132  1.00  0.00     0.202 C 
BRANCH  29  30
ATOM     30  C   UNL A   1      39.560  20.375  25.726  1.00  0.00     0.261 C 
BRANCH  30  31
ATOM     31  O   UNL A   1      40.607  19.855  26.560  1.00  0.00    -0.460 OA
BRANCH  31  32
ATOM     32  C   UNL A   1      41.859  20.021  26.063  1.00  0.00     0.338 C 
ATOM     33  O   UNL A   1      42.469  19.274  25.320  1.00  0.00    -0.246 OA
BRANCH  32  34
ATOM     34  C   UNL A   1      42.372  21.351  26.446  1.00  0.00     0.060 A 
ATOM     35  C   UNL A   1      42.762  22.275  25.482  1.00  0.00     0.016 A 
ATOM     36  C   UNL A   1      42.370  21.704  27.803  1.00  0.00     0.016 A 
ATOM     37  C   UNL A   1      43.119  23.563  25.887  1.00  0.00     0.010 A 
ATOM     38  C   UNL A   1      42.733  22.995  28.201  1.00  0.00     0.010 A 
ATOM     39  C   UNL A   1      43.101  23.946  27.245  1.00  0.00    -0.014 A 
BRANCH  39  40
ATOM     40  C   UNL A   1      43.324  25.377  27.596  1.00  0.00     0.031 A 
ATOM     41  C   UNL A   1      42.201  26.357  27.784  1.00  0.00     0.074 A 
ATOM     42  C   UNL A   1      44.588  25.787  27.822  1.00  0.00     0.049 A 
ATOM     43  N   UNL A   1      42.231  27.520  28.388  1.00  0.00    -0.248 NA
ATOM     44  C   UNL A   1      40.879  25.989  27.260  1.00  0.00     0.031 C 
ATOM     45  C   UNL A   1      45.778  24.955  27.641  1.00  0.00     0.029 A 
ATOM     46  N   UNL A   1      45.078  26.978  28.296  1.00  0.00    -0.354 N 
ATOM     47  C   UNL A   1      40.925  27.990  28.382  1.00  0.00     0.074 A 
ATOM     48  C   UNL A   1      40.138  27.020  27.649  1.00  0.00     0.031 C 
ATOM     49  C   UNL A   1      46.851  25.631  28.070  1.00  0.00     0.029 A 
ATOM     50  C   UNL A   1      46.434  26.958  28.515  1.00  0.00     0.049 A 
ATOM     51  H   UNL A   1      44.515  27.768  28.460  1.00  0.00     0.167 HD
ATOM     52  C   UNL A   1      40.425  29.108  28.961  1.00  0.00     0.031 A 
ATOM     53  C   UNL A   1      47.260  27.888  29.032  1.00  0.00     0.031 A 
ATOM     54  C   UNL A   1      41.221  30.136  29.585  1.00  0.00     0.049 A 
ATOM     55  C   UNL A   1      46.701  29.192  29.516  1.00  0.00     0.074 A 
ATOM     56  C   UNL A   1      40.793  31.308  30.187  1.00  0.00     0.029 A 
ATOM     57  N   UNL A   1      42.606  30.144  29.642  1.00  0.00    -0.354 N 
ATOM     58  N   UNL A   1      45.449  29.569  29.605  1.00  0.00    -0.248 NA
ATOM     59  C   UNL A   1      47.669  30.197  29.975  1.00  0.00     0.031 C 
ATOM     60  C   UNL A   1      41.919  32.066  30.523  1.00  0.00     0.029 A 
ATOM     61  C   UNL A   1      43.050  31.330  30.210  1.00  0.00     0.049 A 
ATOM     62  H   UNL A   1      43.189  29.416  29.328  1.00  0.00     0.167 HD
ATOM     63  C   UNL A   1      45.477  30.854  30.135  1.00  0.00     0.074 A 
ATOM     64  C   UNL A   1      46.868  31.177  30.372  1.00  0.00     0.031 C 
ATOM     65  C   UNL A   1      44.436  31.682  30.399  1.00  0.00     0.031 A 
BRANCH  52  66
ATOM     66  C   UNL A   1      38.932  29.286  28.955  1.00  0.00    -0.014 A 
ATOM     67  C   UNL A   1      38.277  29.803  27.827  1.00  0.00     0.009 A 
ATOM     68  C   UNL A   1      38.184  29.035  30.118  1.00  0.00     0.009 A 
ATOM     69  C   UNL A   1      36.907  30.073  27.865  1.00  0.00     0.001 A 
ATOM     70  C   UNL A   1      36.810  29.286  30.146  1.00  0.00     0.001 A 
ATOM     71  C   UNL A   1      36.175  29.812  29.022  1.00  0.00     0.000 A 
ENDBRANCH  52  66
BRANCH  53  72
ATOM     72  C   UNL A   1      48.709  27.577  29.142  1.00  0.00    -0.014 A 
ATOM     73  C   UNL A   1      49.234  27.050  30.334  1.00  0.00     0.009 A 
ATOM     74  C   UNL A   1      49.585  27.887  28.092  1.00  0.00     0.009 A 
ATOM     75  C   UNL A   1      50.610  26.881  30.489  1.00  0.00     0.001 A 
ATOM     76  C   UNL A   1      50.960  27.685  28.239  1.00  0.00     0.001 A 
ATOM     77  C   UNL A   1      51.472  27.197  29.441  1.00  0.00     0.000 A 
ENDBRANCH  53  72
BRANCH  65  78
ATOM     78  C   UNL A   1      44.757  33.049  30.942  1.00  0.00    -0.014 A 
ATOM     79  C   UNL A   1      44.841  33.258  32.328  1.00  0.00     0.009 A 
ATOM     80  C   UNL A   1      44.919  34.149  30.083  1.00  0.00     0.009 A 
ATOM     81  C   UNL A   1      45.071  34.535  32.843  1.00  0.00     0.001 A 
ATOM     82  C   UNL A   1      45.185  35.419  30.600  1.00  0.00     0.001 A 
ATOM     83  C   UNL A   1      45.252  35.614  31.979  1.00  0.00     0.000 A 
ENDBRANCH  65  78
ENDBRANCH  39  40
ENDBRANCH  32  34
ENDBRANCH  31  32
ENDBRANCH  30  31
ENDBRANCH  29  30
ENDBRANCH   1  29
TORSDOF 16
ENDMDL
