MODEL 1
REMARK VINA RESULT:     -10.7      0.000      0.000
REMARK SMILES O=C(OCCOCCOC(=O)[C@H]1CCCCN1C(=O)c1cn2ccccc2n1)c1ccc(-c2c3nc(c(-c4ccccc4)c4ccc([nH]4)c(-c4ccccc4)c4nc(c(-c5ccccc5)c5ccc2[nH]5)C=C4)C=C3)cc1
REMARK SMILES IDX 6 1 5 2 4 3 3 4 2 5 1 6 29 7 30 8 76 9 31 10 75 11 32 12
REMARK SMILES IDX 33 13 34 14 69 15 35 16 74 17 68 18 70 19 36 20 73 21 67 22
REMARK SMILES IDX 66 23 37 25 59 26 44 27 58 28 45 29 48 30 57 31 71 32 46 33
REMARK SMILES IDX 47 34 56 36 72 37 49 38 38 39 39 40 43 41 40 42 42 43 41 44
REMARK SMILES IDX 60 45 61 46 65 47 62 48 64 49 63 50 50 51 51 52 55 53 52 54
REMARK SMILES IDX 54 55 53 56 7 57 8 58 9 59 10 60 11 61 12 62 13 63 17 64
REMARK SMILES IDX 14 65 16 66 15 67 18 68 19 69 20 70 21 71 28 72 22 73 27 74
REMARK SMILES IDX 23 75 26 76 24 77 25 78
REMARK H PARENT 70 24 48 35
REMARK Flexibility Score: inf
ROOT
ATOM      1  O   UNL A   1      33.136  27.881  24.602  1.00  0.00    -0.374 OA
ENDROOT
BRANCH   1   2
ATOM      2  C   UNL A   1      33.242  29.297  24.692  1.00  0.00     0.202 C 
BRANCH   2   3
ATOM      3  C   UNL A   1      32.070  30.000  25.378  1.00  0.00     0.261 C 
BRANCH   3   4
ATOM      4  O   UNL A   1      32.393  30.285  26.752  1.00  0.00    -0.460 OA
BRANCH   4   5
ATOM      5  C   UNL A   1      33.157  31.317  27.192  1.00  0.00     0.338 C 
ATOM      6  O   UNL A   1      32.739  32.469  27.146  1.00  0.00    -0.246 OA
BRANCH   5   7
ATOM      7  C   UNL A   1      34.462  31.051  27.837  1.00  0.00     0.060 A 
ATOM      8  C   UNL A   1      34.844  29.780  28.259  1.00  0.00     0.016 A 
ATOM      9  C   UNL A   1      35.357  32.113  27.992  1.00  0.00     0.016 A 
ATOM     10  C   UNL A   1      36.002  29.570  28.968  1.00  0.00     0.010 A 
ATOM     11  C   UNL A   1      36.590  31.887  28.603  1.00  0.00     0.010 A 
ATOM     12  C   UNL A   1      36.899  30.615  29.107  1.00  0.00    -0.014 A 
BRANCH  12  13
ATOM     13  C   UNL A   1      38.147  30.345  29.824  1.00  0.00     0.031 A 
ATOM     14  C   UNL A   1      39.206  29.570  29.121  1.00  0.00     0.074 A 
ATOM     15  C   UNL A   1      38.322  30.866  31.050  1.00  0.00     0.049 A 
ATOM     16  N   UNL A   1      40.276  29.013  29.610  1.00  0.00    -0.248 NA
ATOM     17  C   UNL A   1      39.028  29.388  27.670  1.00  0.00     0.031 C 
ATOM     18  C   UNL A   1      37.388  31.772  31.731  1.00  0.00     0.029 A 
ATOM     19  N   UNL A   1      39.349  30.721  31.937  1.00  0.00    -0.354 N 
ATOM     20  C   UNL A   1      40.859  28.345  28.544  1.00  0.00     0.074 A 
ATOM     21  C   UNL A   1      40.042  28.589  27.377  1.00  0.00     0.031 C 
ATOM     22  C   UNL A   1      37.895  32.110  32.924  1.00  0.00     0.029 A 
ATOM     23  C   UNL A   1      39.121  31.357  33.132  1.00  0.00     0.049 A 
ATOM     24  H   UNL A   1      40.170  30.215  31.739  1.00  0.00     0.167 HD
ATOM     25  C   UNL A   1      41.965  27.568  28.572  1.00  0.00     0.031 A 
ATOM     26  C   UNL A   1      39.795  31.266  34.291  1.00  0.00     0.031 A 
ATOM     27  C   UNL A   1      42.726  27.360  29.773  1.00  0.00     0.049 A 
ATOM     28  C   UNL A   1      40.972  30.337  34.326  1.00  0.00     0.074 A 
ATOM     29  C   UNL A   1      43.826  26.552  29.979  1.00  0.00     0.029 A 
ATOM     30  N   UNL A   1      42.451  27.989  30.983  1.00  0.00    -0.354 N 
ATOM     31  N   UNL A   1      41.469  29.607  33.353  1.00  0.00    -0.248 NA
ATOM     32  C   UNL A   1      41.666  30.196  35.608  1.00  0.00     0.031 C 
ATOM     33  C   UNL A   1      44.189  26.660  31.327  1.00  0.00     0.029 A 
ATOM     34  C   UNL A   1      43.352  27.582  31.945  1.00  0.00     0.049 A 
ATOM     35  H   UNL A   1      41.719  28.630  31.131  1.00  0.00     0.167 HD
ATOM     36  C   UNL A   1      42.549  28.932  33.897  1.00  0.00     0.074 A 
ATOM     37  C   UNL A   1      42.637  29.350  35.286  1.00  0.00     0.031 C 
ATOM     38  C   UNL A   1      43.393  28.046  33.312  1.00  0.00     0.031 A 
BRANCH  25  39
ATOM     39  C   UNL A   1      42.298  26.823  27.311  1.00  0.00    -0.014 A 
ATOM     40  C   UNL A   1      41.763  25.555  27.031  1.00  0.00     0.009 A 
ATOM     41  C   UNL A   1      43.239  27.369  26.424  1.00  0.00     0.009 A 
ATOM     42  C   UNL A   1      42.209  24.828  25.924  1.00  0.00     0.001 A 
ATOM     43  C   UNL A   1      43.661  26.655  25.302  1.00  0.00     0.001 A 
ATOM     44  C   UNL A   1      43.159  25.377  25.062  1.00  0.00     0.000 A 
ENDBRANCH  25  39
BRANCH  26  45
ATOM     45  C   UNL A   1      39.312  32.000  35.490  1.00  0.00    -0.014 A 
ATOM     46  C   UNL A   1      39.807  33.274  35.799  1.00  0.00     0.009 A 
ATOM     47  C   UNL A   1      38.303  31.453  36.303  1.00  0.00     0.009 A 
ATOM     48  C   UNL A   1      39.309  33.980  36.899  1.00  0.00     0.001 A 
ATOM     49  C   UNL A   1      37.785  32.173  37.383  1.00  0.00     0.001 A 
ATOM     50  C   UNL A   1      38.295  33.434  37.684  1.00  0.00     0.000 A 
ENDBRANCH  26  45
BRANCH  38  51
ATOM     51  C   UNL A   1      44.513  27.529  34.161  1.00  0.00    -0.014 A 
ATOM     52  C   UNL A   1      44.401  26.317  34.857  1.00  0.00     0.009 A 
ATOM     53  C   UNL A   1      45.724  28.237  34.196  1.00  0.00     0.009 A 
ATOM     54  C   UNL A   1      45.483  25.830  35.588  1.00  0.00     0.001 A 
ATOM     55  C   UNL A   1      46.812  27.734  34.907  1.00  0.00     0.001 A 
ATOM     56  C   UNL A   1      46.689  26.534  35.605  1.00  0.00     0.000 A 
ENDBRANCH  38  51
ENDBRANCH  12  13
ENDBRANCH   5   7
ENDBRANCH   4   5
ENDBRANCH   3   4
ENDBRANCH   2   3
ENDBRANCH   1   2
BRANCH   1  57
ATOM     57  C   UNL A   1      33.549  27.162  25.765  1.00  0.00     0.202 C 
BRANCH  57  58
ATOM     58  C   UNL A   1      32.329  26.599  26.481  1.00  0.00     0.261 C 
BRANCH  58  59
ATOM     59  O   UNL A   1      31.330  26.277  25.497  1.00  0.00    -0.462 OA
BRANCH  59  60
ATOM     60  C   UNL A   1      30.703  25.081  25.662  1.00  0.00     0.328 C 
ATOM     61  O   UNL A   1      29.969  24.818  26.611  1.00  0.00    -0.250 OA
BRANCH  60  62
ATOM     62  C   UNL A   1      31.109  24.053  24.573  1.00  0.00     0.195 C 
ATOM     63  C   UNL A   1      30.493  24.489  23.235  1.00  0.00     0.037 C 
ATOM     64  N   UNL A   1      32.553  23.710  24.434  1.00  0.00    -0.323 N 
ATOM     65  C   UNL A   1      31.331  25.581  22.583  1.00  0.00     0.005 C 
ATOM     66  C   UNL A   1      33.389  24.355  23.409  1.00  0.00     0.121 C 
ATOM     67  C   UNL A   1      32.680  24.995  22.224  1.00  0.00     0.022 C 
BRANCH  64  68
ATOM     68  C   UNL A   1      33.113  22.811  25.370  1.00  0.00     0.274 C 
ATOM     69  O   UNL A   1      33.441  23.148  26.498  1.00  0.00    -0.267 OA
BRANCH  68  70
ATOM     70  C   UNL A   1      33.289  21.423  24.921  1.00  0.00     0.147 A 
ATOM     71  C   UNL A   1      34.300  20.542  25.267  1.00  0.00     0.127 A 
ATOM     72  N   UNL A   1      32.417  20.827  24.027  1.00  0.00    -0.223 NA
ATOM     73  N   UNL A   1      34.038  19.386  24.571  1.00  0.00    -0.306 N 
ATOM     74  C   UNL A   1      32.861  19.600  23.864  1.00  0.00     0.137 A 
ATOM     75  C   UNL A   1      34.758  18.192  24.515  1.00  0.00     0.093 A 
ATOM     76  C   UNL A   1      32.351  18.514  23.099  1.00  0.00     0.048 A 
ATOM     77  C   UNL A   1      34.290  17.178  23.764  1.00  0.00     0.018 A 
ATOM     78  C   UNL A   1      33.032  17.353  23.051  1.00  0.00     0.005 A 
ENDBRANCH  68  70
ENDBRANCH  64  68
ENDBRANCH  60  62
ENDBRANCH  59  60
ENDBRANCH  58  59
ENDBRANCH  57  58
ENDBRANCH   1  57
TORSDOF 16
ENDMDL
MODEL 2
REMARK VINA RESULT:     -10.7      3.609      8.276
REMARK SMILES O=C(OCCOCCOC(=O)[C@H]1CCCCN1C(=O)c1cn2ccccc2n1)c1ccc(-c2c3nc(c(-c4ccccc4)c4ccc([nH]4)c(-c4ccccc4)c4nc(c(-c5ccccc5)c5ccc2[nH]5)C=C4)C=C3)cc1
REMARK SMILES IDX 6 1 5 2 4 3 3 4 2 5 1 6 29 7 30 8 76 9 31 10 75 11 32 12
REMARK SMILES IDX 33 13 34 14 69 15 35 16 74 17 68 18 70 19 36 20 73 21 67 22
REMARK SMILES IDX 66 23 37 25 59 26 44 27 58 28 45 29 48 30 57 31 71 32 46 33
REMARK SMILES IDX 47 34 56 36 72 37 49 38 38 39 39 40 43 41 40 42 42 43 41 44
REMARK SMILES IDX 60 45 61 46 65 47 62 48 64 49 63 50 50 51 51 52 55 53 52 54
REMARK SMILES IDX 54 55 53 56 7 57 8 58 9 59 10 60 11 61 12 62 13 63 17 64
REMARK SMILES IDX 14 65 16 66 15 67 18 68 19 69 20 70 21 71 28 72 22 73 27 74
REMARK SMILES IDX 23 75 26 76 24 77 25 78
REMARK H PARENT 70 24 48 35
REMARK Flexibility Score: inf
ROOT
ATOM      1  O   UNL A   1      35.340  23.397  22.843  1.00  0.00    -0.374 OA
ENDROOT
BRANCH   1   2
ATOM      2  C   UNL A   1      36.412  23.135  23.740  1.00  0.00     0.202 C 
BRANCH   2   3
ATOM      3  C   UNL A   1      36.385  21.761  24.410  1.00  0.00     0.261 C 
BRANCH   3   4
ATOM      4  O   UNL A   1      36.998  21.827  25.712  1.00  0.00    -0.460 OA
BRANCH   4   5
ATOM      5  C   UNL A   1      38.324  21.705  25.974  1.00  0.00     0.338 C 
ATOM      6  O   UNL A   1      38.913  20.652  25.747  1.00  0.00    -0.246 OA
BRANCH   5   7
ATOM      7  C   UNL A   1      39.101  22.877  26.434  1.00  0.00     0.060 A 
ATOM      8  C   UNL A   1      38.721  24.186  26.147  1.00  0.00     0.016 A 
ATOM      9  C   UNL A   1      40.236  22.659  27.217  1.00  0.00     0.016 A 
ATOM     10  C   UNL A   1      39.516  25.258  26.471  1.00  0.00     0.010 A 
ATOM     11  C   UNL A   1      40.987  23.748  27.656  1.00  0.00     0.010 A 
ATOM     12  C   UNL A   1      40.632  25.047  27.263  1.00  0.00    -0.014 A 
BRANCH  12  13
ATOM     13  C   UNL A   1      41.430  26.218  27.634  1.00  0.00     0.031 A 
ATOM     14  C   UNL A   1      40.851  27.182  28.608  1.00  0.00     0.074 A 
ATOM     15  C   UNL A   1      42.676  26.340  27.146  1.00  0.00     0.049 A 
ATOM     16  N   UNL A   1      41.249  28.384  28.908  1.00  0.00    -0.248 NA
ATOM     17  C   UNL A   1      39.651  26.734  29.335  1.00  0.00     0.031 C 
ATOM     18  C   UNL A   1      43.365  25.345  26.313  1.00  0.00     0.029 A 
ATOM     19  N   UNL A   1      43.590  27.343  27.287  1.00  0.00    -0.354 N 
ATOM     20  C   UNL A   1      40.304  28.869  29.800  1.00  0.00     0.074 A 
ATOM     21  C   UNL A   1      39.329  27.824  30.014  1.00  0.00     0.031 C 
ATOM     22  C   UNL A   1      44.598  25.787  26.030  1.00  0.00     0.029 A 
ATOM     23  C   UNL A   1      44.737  27.134  26.561  1.00  0.00     0.049 A 
ATOM     24  H   UNL A   1      43.443  28.135  27.853  1.00  0.00     0.167 HD
ATOM     25  C   UNL A   1      40.256  30.103  30.349  1.00  0.00     0.031 A 
ATOM     26  C   UNL A   1      45.746  27.979  26.294  1.00  0.00     0.031 A 
ATOM     27  C   UNL A   1      41.256  31.101  30.084  1.00  0.00     0.049 A 
ATOM     28  C   UNL A   1      45.637  29.370  26.846  1.00  0.00     0.074 A 
ATOM     29  C   UNL A   1      41.314  32.413  30.509  1.00  0.00     0.029 A 
ATOM     30  N   UNL A   1      42.392  30.873  29.313  1.00  0.00    -0.354 N 
ATOM     31  N   UNL A   1      44.688  29.881  27.598  1.00  0.00    -0.248 NA
ATOM     32  C   UNL A   1      46.710  30.304  26.501  1.00  0.00     0.031 C 
ATOM     33  C   UNL A   1      42.464  32.990  29.957  1.00  0.00     0.029 A 
ATOM     34  C   UNL A   1      43.154  32.021  29.239  1.00  0.00     0.049 A 
ATOM     35  H   UNL A   1      42.618  30.017  28.882  1.00  0.00     0.167 HD
ATOM     36  C   UNL A   1      45.057  31.194  27.836  1.00  0.00     0.074 A 
ATOM     37  C   UNL A   1      46.324  31.394  27.152  1.00  0.00     0.031 C 
ATOM     38  C   UNL A   1      44.416  32.152  28.550  1.00  0.00     0.031 A 
BRANCH  25  39
ATOM     39  C   UNL A   1      39.036  30.434  31.159  1.00  0.00    -0.014 A 
ATOM     40  C   UNL A   1      38.979  30.216  32.546  1.00  0.00     0.009 A 
ATOM     41  C   UNL A   1      37.883  30.894  30.501  1.00  0.00     0.009 A 
ATOM     42  C   UNL A   1      37.780  30.394  33.241  1.00  0.00     0.001 A 
ATOM     43  C   UNL A   1      36.695  31.100  31.203  1.00  0.00     0.001 A 
ATOM     44  C   UNL A   1      36.639  30.833  32.569  1.00  0.00     0.000 A 
ENDBRANCH  25  39
BRANCH  26  45
ATOM     45  C   UNL A   1      46.862  27.547  25.411  1.00  0.00    -0.014 A 
ATOM     46  C   UNL A   1      46.835  27.819  24.037  1.00  0.00     0.009 A 
ATOM     47  C   UNL A   1      47.993  26.912  25.952  1.00  0.00     0.009 A 
ATOM     48  C   UNL A   1      47.913  27.457  23.223  1.00  0.00     0.001 A 
ATOM     49  C   UNL A   1      49.082  26.579  25.142  1.00  0.00     0.001 A 
ATOM     50  C   UNL A   1      49.038  26.845  23.776  1.00  0.00     0.000 A 
ENDBRANCH  26  45
BRANCH  38  51
ATOM     51  C   UNL A   1      45.110  33.473  28.672  1.00  0.00    -0.014 A 
ATOM     52  C   UNL A   1      46.077  33.701  29.661  1.00  0.00     0.009 A 
ATOM     53  C   UNL A   1      44.840  34.475  27.726  1.00  0.00     0.009 A 
ATOM     54  C   UNL A   1      46.752  34.920  29.710  1.00  0.00     0.001 A 
ATOM     55  C   UNL A   1      45.535  35.681  27.762  1.00  0.00     0.001 A 
ATOM     56  C   UNL A   1      46.486  35.904  28.756  1.00  0.00     0.000 A 
ENDBRANCH  38  51
ENDBRANCH  12  13
ENDBRANCH   5   7
ENDBRANCH   4   5
ENDBRANCH   3   4
ENDBRANCH   2   3
ENDBRANCH   1   2
BRANCH   1  57
ATOM     57  C   UNL A   1      34.126  23.840  23.452  1.00  0.00     0.202 C 
BRANCH  57  58
ATOM     58  C   UNL A   1      34.078  25.361  23.456  1.00  0.00     0.261 C 
BRANCH  58  59
ATOM     59  O   UNL A   1      32.788  25.776  23.942  1.00  0.00    -0.462 OA
BRANCH  59  60
ATOM     60  C   UNL A   1      32.801  26.550  25.061  1.00  0.00     0.328 C 
ATOM     61  O   UNL A   1      33.783  26.694  25.783  1.00  0.00    -0.250 OA
BRANCH  60  62
ATOM     62  C   UNL A   1      31.401  27.139  25.379  1.00  0.00     0.195 C 
ATOM     63  C   UNL A   1      31.267  28.493  24.667  1.00  0.00     0.037 C 
ATOM     64  N   UNL A   1      30.207  26.274  25.157  1.00  0.00    -0.323 N 
ATOM     65  C   UNL A   1      30.904  28.300  23.201  1.00  0.00     0.005 C 
ATOM     66  C   UNL A   1      29.409  26.388  23.926  1.00  0.00     0.121 C 
ATOM     67  C   UNL A   1      29.525  27.679  23.130  1.00  0.00     0.022 C 
BRANCH  64  68
ATOM     68  C   UNL A   1      29.917  25.286  26.124  1.00  0.00     0.274 C 
ATOM     69  O   UNL A   1      28.954  25.353  26.873  1.00  0.00    -0.267 OA
BRANCH  68  70
ATOM     70  C   UNL A   1      30.842  24.146  26.194  1.00  0.00     0.147 A 
ATOM     71  C   UNL A   1      30.969  23.101  25.296  1.00  0.00     0.127 A 
ATOM     72  N   UNL A   1      31.721  23.981  27.251  1.00  0.00    -0.223 NA
ATOM     73  N   UNL A   1      31.945  22.282  25.814  1.00  0.00    -0.306 N 
ATOM     74  C   UNL A   1      32.395  22.885  26.982  1.00  0.00     0.137 A 
ATOM     75  C   UNL A   1      32.440  21.068  25.339  1.00  0.00     0.093 A 
ATOM     76  C   UNL A   1      33.457  22.245  27.680  1.00  0.00     0.048 A 
ATOM     77  C   UNL A   1      33.423  20.448  26.020  1.00  0.00     0.018 A 
ATOM     78  C   UNL A   1      33.952  21.079  27.221  1.00  0.00     0.005 A 
ENDBRANCH  68  70
ENDBRANCH  64  68
ENDBRANCH  60  62
ENDBRANCH  59  60
ENDBRANCH  58  59
ENDBRANCH  57  58
ENDBRANCH   1  57
TORSDOF 16
ENDMDL
MODEL 3
REMARK VINA RESULT:     -10.7      3.941      9.288
REMARK SMILES O=C(OCCOCCOC(=O)[C@H]1CCCCN1C(=O)c1cn2ccccc2n1)c1ccc(-c2c3nc(c(-c4ccccc4)c4ccc([nH]4)c(-c4ccccc4)c4nc(c(-c5ccccc5)c5ccc2[nH]5)C=C4)C=C3)cc1
REMARK SMILES IDX 6 1 5 2 4 3 3 4 2 5 1 6 29 7 30 8 76 9 31 10 75 11 32 12
REMARK SMILES IDX 33 13 34 14 69 15 35 16 74 17 68 18 70 19 36 20 73 21 67 22
REMARK SMILES IDX 66 23 37 25 59 26 44 27 58 28 45 29 48 30 57 31 71 32 46 33
REMARK SMILES IDX 47 34 56 36 72 37 49 38 38 39 39 40 43 41 40 42 42 43 41 44
REMARK SMILES IDX 60 45 61 46 65 47 62 48 64 49 63 50 50 51 51 52 55 53 52 54
REMARK SMILES IDX 54 55 53 56 7 57 8 58 9 59 10 60 11 61 12 62 13 63 17 64
REMARK SMILES IDX 14 65 16 66 15 67 18 68 19 69 20 70 21 71 28 72 22 73 27 74
REMARK SMILES IDX 23 75 26 76 24 77 25 78
REMARK H PARENT 70 24 48 35
REMARK Flexibility Score: inf
ROOT
ATOM      1  O   UNL A   1      34.552  22.179  25.854  1.00  0.00    -0.374 OA
ENDROOT
BRANCH   1   2
ATOM      2  C   UNL A   1      34.896  21.097  24.995  1.00  0.00     0.202 C 
BRANCH   2   3
ATOM      3  C   UNL A   1      36.372  20.697  25.005  1.00  0.00     0.261 C 
BRANCH   3   4
ATOM      4  O   UNL A   1      37.142  21.644  25.770  1.00  0.00    -0.460 OA
BRANCH   4   5
ATOM      5  C   UNL A   1      38.471  21.564  26.029  1.00  0.00     0.338 C 
ATOM      6  O   UNL A   1      39.095  20.535  25.793  1.00  0.00    -0.246 OA
BRANCH   5   7
ATOM      7  C   UNL A   1      39.208  22.758  26.499  1.00  0.00     0.060 A 
ATOM      8  C   UNL A   1      38.812  24.055  26.182  1.00  0.00     0.016 A 
ATOM      9  C   UNL A   1      40.322  22.573  27.321  1.00  0.00     0.016 A 
ATOM     10  C   UNL A   1      39.575  25.147  26.517  1.00  0.00     0.010 A 
ATOM     11  C   UNL A   1      41.036  23.683  27.771  1.00  0.00     0.010 A 
ATOM     12  C   UNL A   1      40.668  24.970  27.348  1.00  0.00    -0.014 A 
BRANCH  12  13
ATOM     13  C   UNL A   1      41.430  26.161  27.729  1.00  0.00     0.031 A 
ATOM     14  C   UNL A   1      40.807  27.117  28.685  1.00  0.00     0.074 A 
ATOM     15  C   UNL A   1      42.683  26.310  27.268  1.00  0.00     0.049 A 
ATOM     16  N   UNL A   1      41.169  28.329  28.986  1.00  0.00    -0.248 NA
ATOM     17  C   UNL A   1      39.602  26.644  29.389  1.00  0.00     0.031 C 
ATOM     18  C   UNL A   1      43.413  25.328  26.456  1.00  0.00     0.029 A 
ATOM     19  N   UNL A   1      43.569  27.336  27.423  1.00  0.00    -0.354 N 
ATOM     20  C   UNL A   1      40.194  28.797  29.854  1.00  0.00     0.074 A 
ATOM     21  C   UNL A   1      39.240  27.730  30.054  1.00  0.00     0.031 C 
ATOM     22  C   UNL A   1      44.641  25.797  26.197  1.00  0.00     0.029 A 
ATOM     23  C   UNL A   1      44.736  27.150  26.723  1.00  0.00     0.049 A 
ATOM     24  H   UNL A   1      43.391  28.127  27.980  1.00  0.00     0.167 HD
ATOM     25  C   UNL A   1      40.104  30.033  30.395  1.00  0.00     0.031 A 
ATOM     26  C   UNL A   1      45.730  28.017  26.473  1.00  0.00     0.031 A 
ATOM     27  C   UNL A   1      41.086  31.052  30.146  1.00  0.00     0.049 A 
ATOM     28  C   UNL A   1      45.576  29.408  27.014  1.00  0.00     0.074 A 
ATOM     29  C   UNL A   1      41.103  32.368  30.564  1.00  0.00     0.029 A 
ATOM     30  N   UNL A   1      42.244  30.848  29.401  1.00  0.00    -0.354 N 
ATOM     31  N   UNL A   1      44.599  29.901  27.743  1.00  0.00    -0.248 NA
ATOM     32  C   UNL A   1      46.634  30.366  26.687  1.00  0.00     0.031 C 
ATOM     33  C   UNL A   1      42.251  32.969  30.034  1.00  0.00     0.029 A 
ATOM     34  C   UNL A   1      42.979  32.013  29.337  1.00  0.00     0.049 A 
ATOM     35  H   UNL A   1      42.499  29.995  28.980  1.00  0.00     0.167 HD
ATOM     36  C   UNL A   1      44.932  31.224  27.981  1.00  0.00     0.074 A 
ATOM     37  C   UNL A   1      46.208  31.451  27.323  1.00  0.00     0.031 C 
ATOM     38  C   UNL A   1      44.252  32.170  28.674  1.00  0.00     0.031 A 
BRANCH  25  39
ATOM     39  C   UNL A   1      38.859  30.338  31.176  1.00  0.00    -0.014 A 
ATOM     40  C   UNL A   1      37.730  30.925  30.580  1.00  0.00     0.009 A 
ATOM     41  C   UNL A   1      38.850  30.113  32.562  1.00  0.00     0.009 A 
ATOM     42  C   UNL A   1      36.647  31.332  31.365  1.00  0.00     0.001 A 
ATOM     43  C   UNL A   1      37.755  30.492  33.340  1.00  0.00     0.001 A 
ATOM     44  C   UNL A   1      36.662  31.118  32.744  1.00  0.00     0.000 A 
ENDBRANCH  25  39
BRANCH  26  45
ATOM     45  C   UNL A   1      46.875  27.608  25.617  1.00  0.00    -0.014 A 
ATOM     46  C   UNL A   1      46.841  27.807  24.231  1.00  0.00     0.009 A 
ATOM     47  C   UNL A   1      48.039  27.069  26.194  1.00  0.00     0.009 A 
ATOM     48  C   UNL A   1      47.944  27.467  23.440  1.00  0.00     0.001 A 
ATOM     49  C   UNL A   1      49.151  26.760  25.406  1.00  0.00     0.001 A 
ATOM     50  C   UNL A   1      49.099  26.953  24.028  1.00  0.00     0.000 A 
ENDBRANCH  26  45
BRANCH  38  51
ATOM     51  C   UNL A   1      44.913  33.508  28.803  1.00  0.00    -0.014 A 
ATOM     52  C   UNL A   1      44.738  34.505  27.833  1.00  0.00     0.009 A 
ATOM     53  C   UNL A   1      45.659  33.791  29.958  1.00  0.00     0.009 A 
ATOM     54  C   UNL A   1      45.314  35.762  28.012  1.00  0.00     0.001 A 
ATOM     55  C   UNL A   1      46.210  35.056  30.146  1.00  0.00     0.001 A 
ATOM     56  C   UNL A   1      46.042  36.038  29.171  1.00  0.00     0.000 A 
ENDBRANCH  38  51
ENDBRANCH  12  13
ENDBRANCH   5   7
ENDBRANCH   4   5
ENDBRANCH   3   4
ENDBRANCH   2   3
ENDBRANCH   1   2
BRANCH   1  57
ATOM     57  C   UNL A   1      33.332  22.849  25.534  1.00  0.00     0.202 C 
BRANCH  57  58
ATOM     58  C   UNL A   1      33.398  24.294  26.008  1.00  0.00     0.261 C 
BRANCH  58  59
ATOM     59  O   UNL A   1      32.382  25.047  25.321  1.00  0.00    -0.462 OA
BRANCH  59  60
ATOM     60  C   UNL A   1      31.448  25.637  26.114  1.00  0.00     0.328 C 
ATOM     61  O   UNL A   1      30.684  25.017  26.849  1.00  0.00    -0.250 OA
BRANCH  60  62
ATOM     62  C   UNL A   1      31.385  27.173  25.900  1.00  0.00     0.195 C 
ATOM     63  C   UNL A   1      32.107  27.860  27.068  1.00  0.00     0.037 C 
ATOM     64  N   UNL A   1      31.819  27.716  24.581  1.00  0.00    -0.323 N 
ATOM     65  C   UNL A   1      33.615  27.844  26.857  1.00  0.00     0.005 C 
ATOM     66  C   UNL A   1      33.174  28.262  24.397  1.00  0.00     0.121 C 
ATOM     67  C   UNL A   1      33.934  28.692  25.644  1.00  0.00     0.022 C 
BRANCH  64  68
ATOM     68  C   UNL A   1      30.923  27.614  23.495  1.00  0.00     0.274 C 
ATOM     69  O   UNL A   1      30.721  26.567  22.898  1.00  0.00    -0.267 OA
BRANCH  68  70
ATOM     70  C   UNL A   1      30.226  28.846  23.102  1.00  0.00     0.147 A 
ATOM     71  C   UNL A   1      30.033  29.990  23.859  1.00  0.00     0.127 A 
ATOM     72  N   UNL A   1      29.630  28.988  21.861  1.00  0.00    -0.223 NA
ATOM     73  N   UNL A   1      29.307  30.844  23.064  1.00  0.00    -0.306 N 
ATOM     74  C   UNL A   1      29.124  30.201  21.846  1.00  0.00     0.137 A 
ATOM     75  C   UNL A   1      28.803  32.115  23.342  1.00  0.00     0.093 A 
ATOM     76  C   UNL A   1      28.437  30.915  20.826  1.00  0.00     0.048 A 
ATOM     77  C   UNL A   1      28.125  32.775  22.385  1.00  0.00     0.018 A 
ATOM     78  C   UNL A   1      27.959  32.149  21.081  1.00  0.00     0.005 A 
ENDBRANCH  68  70
ENDBRANCH  64  68
ENDBRANCH  60  62
ENDBRANCH  59  60
ENDBRANCH  58  59
ENDBRANCH  57  58
ENDBRANCH   1  57
TORSDOF 16
ENDMDL
