MODEL 1
REMARK VINA RESULT:      -7.9      0.000      0.000
REMARK SMILES CCN(C(=O)C[NH2+][C@](C)(CC)C(=O)OCCOCCOC(=O)c1ccc(-c2c3nc(c(-c4ccccc4)c4ccc([nH]4)c(-c4ccccc4)c4nc(c(-c5ccccc5)c5ccc2[nH]5)C=C4)C=C3)cc1)C1CC1
REMARK SMILES IDX 15 1 14 2 12 3 13 4 8 5 9 6 7 7 6 10 4 11 5 12 3 13 2 14
REMARK SMILES IDX 1 15 71 16 72 17 73 18 10 19 11 20 16 21 17 22 18 23 19 24
REMARK SMILES IDX 20 25 21 26 22 27 23 28 24 29 70 30 25 31 69 32 26 33 27 34
REMARK SMILES IDX 28 35 63 36 29 37 68 38 62 39 64 40 30 41 67 42 61 43 60 44
REMARK SMILES IDX 31 46 53 47 38 48 52 49 39 50 42 51 51 52 65 53 40 54 41 55
REMARK SMILES IDX 50 57 66 58 43 59 32 60 33 61 37 62 34 63 36 64 35 65 54 66
REMARK SMILES IDX 55 67 59 68 56 69 58 70 57 71 44 72 45 73 49 74 46 75 48 76
REMARK SMILES IDX 47 77
REMARK H PARENT 7 8 7 9 64 45 42 56
REMARK Flexibility Score: inf
ROOT
ATOM      1  C   UNL A   1      34.642  30.054  27.406  1.00  0.00     0.261 C 
ENDROOT
BRANCH   1   2
ATOM      2  O   UNL A   1      33.338  29.886  26.826  1.00  0.00    -0.459 OA
BRANCH   2   3
ATOM      3  C   UNL A   1      33.320  29.128  25.690  1.00  0.00     0.367 C 
ATOM      4  O   UNL A   1      34.166  29.203  24.804  1.00  0.00    -0.245 OA
BRANCH   3   5
ATOM      5  C   UNL A   1      32.027  28.276  25.562  1.00  0.00     0.191 C 
ATOM      6  C   UNL A   1      31.443  28.141  26.985  1.00  0.00     0.092 C 
BRANCH   5   7
ATOM      7  N   UNL A   1      32.318  26.875  25.117  1.00  0.00    -0.325 N 
ATOM      8  H   UNL A   1      31.435  26.443  24.846  1.00  0.00     0.347 HD
ATOM      9  H   UNL A   1      32.990  26.961  24.354  1.00  0.00     0.347 HD
BRANCH   7  10
ATOM     10  C   UNL A   1      32.959  26.006  26.116  1.00  0.00     0.362 C 
BRANCH  10  11
ATOM     11  C   UNL A   1      33.585  24.774  25.453  1.00  0.00     0.277 C 
ATOM     12  O   UNL A   1      34.426  24.130  26.090  1.00  0.00    -0.268 OA
BRANCH  11  13
ATOM     13  N   UNL A   1      33.150  24.407  24.176  1.00  0.00    -0.335 N 
BRANCH  13  14
ATOM     14  C   UNL A   1      33.680  24.981  22.928  1.00  0.00     0.116 C 
ATOM     15  C   UNL A   1      32.596  25.354  21.928  1.00  0.00     0.027 C 
ENDBRANCH  13  14
BRANCH  13  16
ATOM     16  C   UNL A   1      31.995  23.544  24.034  1.00  0.00     0.085 C 
ATOM     17  C   UNL A   1      32.142  22.077  23.717  1.00  0.00     0.027 C 
ATOM     18  C   UNL A   1      31.612  22.497  25.050  1.00  0.00     0.027 C 
ENDBRANCH  13  16
ENDBRANCH  11  13
ENDBRANCH  10  11
ENDBRANCH   7  10
ENDBRANCH   5   7
BRANCH   5  19
ATOM     19  C   UNL A   1      30.950  28.849  24.605  1.00  0.00     0.077 C 
ATOM     20  C   UNL A   1      30.246  27.858  23.689  1.00  0.00     0.011 C 
ENDBRANCH   5  19
ENDBRANCH   3   5
ENDBRANCH   2   3
ENDBRANCH   1   2
BRANCH   1  21
ATOM     21  C   UNL A   1      34.828  31.333  28.228  1.00  0.00     0.202 C 
BRANCH  21  22
ATOM     22  O   UNL A   1      34.508  32.569  27.604  1.00  0.00    -0.374 OA
BRANCH  22  23
ATOM     23  C   UNL A   1      33.341  33.259  28.051  1.00  0.00     0.202 C 
BRANCH  23  24
ATOM     24  C   UNL A   1      33.572  34.569  28.812  1.00  0.00     0.261 C 
BRANCH  24  25
ATOM     25  O   UNL A   1      32.576  34.771  29.837  1.00  0.00    -0.460 OA
BRANCH  25  26
ATOM     26  C   UNL A   1      32.983  35.543  30.869  1.00  0.00     0.338 C 
ATOM     27  O   UNL A   1      32.508  36.616  31.225  1.00  0.00    -0.246 OA
BRANCH  26  28
ATOM     28  C   UNL A   1      34.003  34.848  31.670  1.00  0.00     0.060 A 
ATOM     29  C   UNL A   1      35.182  35.548  31.959  1.00  0.00     0.016 A 
ATOM     30  C   UNL A   1      33.883  33.496  31.998  1.00  0.00     0.016 A 
ATOM     31  C   UNL A   1      36.273  34.881  32.509  1.00  0.00     0.010 A 
ATOM     32  C   UNL A   1      34.983  32.825  32.547  1.00  0.00     0.010 A 
ATOM     33  C   UNL A   1      36.198  33.503  32.757  1.00  0.00    -0.014 A 
BRANCH  33  34
ATOM     34  C   UNL A   1      37.449  32.758  33.052  1.00  0.00     0.031 A 
ATOM     35  C   UNL A   1      38.169  33.026  34.349  1.00  0.00     0.074 A 
ATOM     36  C   UNL A   1      37.902  31.802  32.222  1.00  0.00     0.049 A 
ATOM     37  N   UNL A   1      39.256  32.472  34.824  1.00  0.00    -0.248 NA
ATOM     38  C   UNL A   1      37.581  34.048  35.229  1.00  0.00     0.031 C 
ATOM     39  C   UNL A   1      37.272  31.405  30.964  1.00  0.00     0.029 A 
ATOM     40  N   UNL A   1      38.999  30.984  32.325  1.00  0.00    -0.354 N 
ATOM     41  C   UNL A   1      39.476  33.070  36.058  1.00  0.00     0.074 A 
ATOM     42  C   UNL A   1      38.433  34.055  36.244  1.00  0.00     0.031 C 
ATOM     43  C   UNL A   1      37.998  30.418  30.408  1.00  0.00     0.029 A 
ATOM     44  C   UNL A   1      39.153  30.133  31.257  1.00  0.00     0.049 A 
ATOM     45  H   UNL A   1      39.618  31.005  33.090  1.00  0.00     0.167 HD
ATOM     46  C   UNL A   1      40.450  32.817  36.966  1.00  0.00     0.031 A 
ATOM     47  C   UNL A   1      40.123  29.237  30.990  1.00  0.00     0.031 A 
ATOM     48  C   UNL A   1      41.501  31.854  36.785  1.00  0.00     0.049 A 
ATOM     49  C   UNL A   1      41.246  29.040  31.973  1.00  0.00     0.074 A 
ATOM     50  C   UNL A   1      42.539  31.539  37.645  1.00  0.00     0.029 A 
ATOM     51  N   UNL A   1      41.649  31.052  35.665  1.00  0.00    -0.354 N 
ATOM     52  N   UNL A   1      41.434  29.605  33.140  1.00  0.00    -0.248 NA
ATOM     53  C   UNL A   1      42.288  28.070  31.601  1.00  0.00     0.031 C 
ATOM     54  C   UNL A   1      43.343  30.575  37.025  1.00  0.00     0.029 A 
ATOM     55  C   UNL A   1      42.773  30.256  35.802  1.00  0.00     0.049 A 
ATOM     56  H   UNL A   1      41.045  31.048  34.888  1.00  0.00     0.167 HD
ATOM     57  C   UNL A   1      42.597  29.043  33.652  1.00  0.00     0.074 A 
ATOM     58  C   UNL A   1      43.064  28.081  32.676  1.00  0.00     0.031 C 
ATOM     59  C   UNL A   1      43.225  29.301  34.825  1.00  0.00     0.031 A 
BRANCH  46  60
ATOM     60  C   UNL A   1      40.431  33.618  38.237  1.00  0.00    -0.014 A 
ATOM     61  C   UNL A   1      41.121  34.836  38.336  1.00  0.00     0.009 A 
ATOM     62  C   UNL A   1      39.686  33.165  39.337  1.00  0.00     0.009 A 
ATOM     63  C   UNL A   1      41.086  35.573  39.522  1.00  0.00     0.001 A 
ATOM     64  C   UNL A   1      39.634  33.916  40.513  1.00  0.00     0.001 A 
ATOM     65  C   UNL A   1      40.340  35.115  40.606  1.00  0.00     0.000 A 
ENDBRANCH  46  60
BRANCH  47  66
ATOM     66  C   UNL A   1      40.098  28.471  29.717  1.00  0.00    -0.014 A 
ATOM     67  C   UNL A   1      40.662  29.000  28.546  1.00  0.00     0.009 A 
ATOM     68  C   UNL A   1      39.473  27.214  29.662  1.00  0.00     0.009 A 
ATOM     69  C   UNL A   1      40.575  28.299  27.341  1.00  0.00     0.001 A 
ATOM     70  C   UNL A   1      39.412  26.504  28.463  1.00  0.00     0.001 A 
ATOM     71  C   UNL A   1      39.954  27.052  27.301  1.00  0.00     0.000 A 
ENDBRANCH  47  66
BRANCH  59  72
ATOM     72  C   UNL A   1      44.462  28.508  35.135  1.00  0.00    -0.014 A 
ATOM     73  C   UNL A   1      44.387  27.270  35.793  1.00  0.00     0.009 A 
ATOM     74  C   UNL A   1      45.717  28.988  34.727  1.00  0.00     0.009 A 
ATOM     75  C   UNL A   1      45.549  26.545  36.064  1.00  0.00     0.001 A 
ATOM     76  C   UNL A   1      46.874  28.247  34.976  1.00  0.00     0.001 A 
ATOM     77  C   UNL A   1      46.790  27.032  35.652  1.00  0.00     0.000 A 
ENDBRANCH  59  72
ENDBRANCH  33  34
ENDBRANCH  26  28
ENDBRANCH  25  26
ENDBRANCH  24  25
ENDBRANCH  23  24
ENDBRANCH  22  23
ENDBRANCH  21  22
ENDBRANCH   1  21
TORSDOF 21
ENDMDL
MODEL 2
REMARK VINA RESULT:      -7.6      4.701      8.238
REMARK SMILES CCN(C(=O)C[NH2+][C@](C)(CC)C(=O)OCCOCCOC(=O)c1ccc(-c2c3nc(c(-c4ccccc4)c4ccc([nH]4)c(-c4ccccc4)c4nc(c(-c5ccccc5)c5ccc2[nH]5)C=C4)C=C3)cc1)C1CC1
REMARK SMILES IDX 15 1 14 2 12 3 13 4 8 5 9 6 7 7 6 10 4 11 5 12 3 13 2 14
REMARK SMILES IDX 1 15 71 16 72 17 73 18 10 19 11 20 16 21 17 22 18 23 19 24
REMARK SMILES IDX 20 25 21 26 22 27 23 28 24 29 70 30 25 31 69 32 26 33 27 34
REMARK SMILES IDX 28 35 63 36 29 37 68 38 62 39 64 40 30 41 67 42 61 43 60 44
REMARK SMILES IDX 31 46 53 47 38 48 52 49 39 50 42 51 51 52 65 53 40 54 41 55
REMARK SMILES IDX 50 57 66 58 43 59 32 60 33 61 37 62 34 63 36 64 35 65 54 66
REMARK SMILES IDX 55 67 59 68 56 69 58 70 57 71 44 72 45 73 49 74 46 75 48 76
REMARK SMILES IDX 47 77
REMARK H PARENT 7 8 7 9 64 45 42 56
REMARK Flexibility Score: inf
ROOT
ATOM      1  C   UNL A   1      33.235  28.817  26.323  1.00  0.00     0.261 C 
ENDROOT
BRANCH   1   2
ATOM      2  O   UNL A   1      32.336  28.181  25.400  1.00  0.00    -0.459 OA
BRANCH   2   3
ATOM      3  C   UNL A   1      31.596  27.168  25.940  1.00  0.00     0.367 C 
ATOM      4  O   UNL A   1      31.290  27.103  27.127  1.00  0.00    -0.245 OA
BRANCH   3   5
ATOM      5  C   UNL A   1      31.319  26.025  24.925  1.00  0.00     0.191 C 
ATOM      6  C   UNL A   1      30.274  26.564  23.925  1.00  0.00     0.092 C 
BRANCH   5   7
ATOM      7  N   UNL A   1      30.674  24.840  25.575  1.00  0.00    -0.325 N 
ATOM      8  H   UNL A   1      30.730  24.968  26.586  1.00  0.00     0.347 HD
ATOM      9  H   UNL A   1      29.722  24.809  25.212  1.00  0.00     0.347 HD
BRANCH   7  10
ATOM     10  C   UNL A   1      31.267  23.531  25.254  1.00  0.00     0.362 C 
BRANCH  10  11
ATOM     11  C   UNL A   1      32.053  22.976  26.446  1.00  0.00     0.277 C 
ATOM     12  O   UNL A   1      31.489  22.919  27.545  1.00  0.00    -0.268 OA
BRANCH  11  13
ATOM     13  N   UNL A   1      33.356  22.517  26.233  1.00  0.00    -0.335 N 
BRANCH  13  14
ATOM     14  C   UNL A   1      34.563  23.217  26.703  1.00  0.00     0.116 C 
ATOM     15  C   UNL A   1      35.491  23.642  25.574  1.00  0.00     0.027 C 
ENDBRANCH  13  14
BRANCH  13  16
ATOM     16  C   UNL A   1      33.583  21.384  25.358  1.00  0.00     0.085 C 
ATOM     17  C   UNL A   1      33.022  20.020  25.674  1.00  0.00     0.027 C 
ATOM     18  C   UNL A   1      32.508  20.777  24.493  1.00  0.00     0.027 C 
ENDBRANCH  13  16
ENDBRANCH  11  13
ENDBRANCH  10  11
ENDBRANCH   7  10
ENDBRANCH   5   7
BRANCH   5  19
ATOM     19  C   UNL A   1      32.564  25.509  24.156  1.00  0.00     0.077 C 
ATOM     20  C   UNL A   1      32.696  25.932  22.700  1.00  0.00     0.011 C 
ENDBRANCH   5  19
ENDBRANCH   3   5
ENDBRANCH   2   3
ENDBRANCH   1   2
BRANCH   1  21
ATOM     21  C   UNL A   1      33.137  30.344  26.381  1.00  0.00     0.202 C 
BRANCH  21  22
ATOM     22  O   UNL A   1      34.098  31.037  27.166  1.00  0.00    -0.374 OA
BRANCH  22  23
ATOM     23  C   UNL A   1      33.638  31.726  28.328  1.00  0.00     0.202 C 
BRANCH  23  24
ATOM     24  C   UNL A   1      34.293  33.080  28.623  1.00  0.00     0.261 C 
BRANCH  24  25
ATOM     25  O   UNL A   1      35.633  32.922  29.135  1.00  0.00    -0.460 OA
BRANCH  25  26
ATOM     26  C   UNL A   1      35.741  32.053  30.164  1.00  0.00     0.338 C 
ATOM     27  O   UNL A   1      34.984  31.940  31.122  1.00  0.00    -0.246 OA
BRANCH  26  28
ATOM     28  C   UNL A   1      36.828  31.090  29.922  1.00  0.00     0.060 A 
ATOM     29  C   UNL A   1      37.616  30.719  31.019  1.00  0.00     0.016 A 
ATOM     30  C   UNL A   1      37.171  30.681  28.632  1.00  0.00     0.016 A 
ATOM     31  C   UNL A   1      38.791  29.999  30.822  1.00  0.00     0.010 A 
ATOM     32  C   UNL A   1      38.356  29.961  28.435  1.00  0.00     0.010 A 
ATOM     33  C   UNL A   1      39.196  29.661  29.523  1.00  0.00    -0.014 A 
BRANCH  33  34
ATOM     34  C   UNL A   1      40.581  29.170  29.309  1.00  0.00     0.031 A 
ATOM     35  C   UNL A   1      40.790  27.739  28.885  1.00  0.00     0.074 A 
ATOM     36  C   UNL A   1      41.637  29.997  29.411  1.00  0.00     0.049 A 
ATOM     37  N   UNL A   1      41.905  27.108  28.613  1.00  0.00    -0.248 NA
ATOM     38  C   UNL A   1      39.581  26.911  28.742  1.00  0.00     0.031 C 
ATOM     39  C   UNL A   1      41.571  31.415  29.758  1.00  0.00     0.029 A 
ATOM     40  N   UNL A   1      42.974  29.756  29.219  1.00  0.00    -0.354 N 
ATOM     41  C   UNL A   1      41.532  25.817  28.259  1.00  0.00     0.074 A 
ATOM     42  C   UNL A   1      40.093  25.742  28.386  1.00  0.00     0.031 C 
ATOM     43  C   UNL A   1      42.817  31.920  29.759  1.00  0.00     0.029 A 
ATOM     44  C   UNL A   1      43.767  30.857  29.437  1.00  0.00     0.049 A 
ATOM     45  H   UNL A   1      43.332  28.879  28.953  1.00  0.00     0.167 HD
ATOM     46  C   UNL A   1      42.312  24.787  27.852  1.00  0.00     0.031 A 
ATOM     47  C   UNL A   1      45.107  30.986  29.394  1.00  0.00     0.031 A 
ATOM     48  C   UNL A   1      43.743  24.844  27.739  1.00  0.00     0.049 A 
ATOM     49  C   UNL A   1      45.960  29.801  29.029  1.00  0.00     0.074 A 
ATOM     50  C   UNL A   1      44.619  23.846  27.347  1.00  0.00     0.029 A 
ATOM     51  N   UNL A   1      44.510  25.963  28.021  1.00  0.00    -0.354 N 
ATOM     52  N   UNL A   1      45.592  28.590  28.687  1.00  0.00    -0.248 NA
ATOM     53  C   UNL A   1      47.417  30.006  29.035  1.00  0.00     0.031 C 
ATOM     54  C   UNL A   1      45.922  24.348  27.435  1.00  0.00     0.029 A 
ATOM     55  C   UNL A   1      45.851  25.674  27.831  1.00  0.00     0.049 A 
ATOM     56  H   UNL A   1      44.155  26.834  28.312  1.00  0.00     0.167 HD
ATOM     57  C   UNL A   1      46.766  27.899  28.413  1.00  0.00     0.074 A 
ATOM     58  C   UNL A   1      47.858  28.828  28.614  1.00  0.00     0.031 C 
ATOM     59  C   UNL A   1      46.926  26.608  28.032  1.00  0.00     0.031 A 
BRANCH  46  60
ATOM     60  C   UNL A   1      41.625  23.494  27.516  1.00  0.00    -0.014 A 
ATOM     61  C   UNL A   1      42.139  22.265  27.958  1.00  0.00     0.009 A 
ATOM     62  C   UNL A   1      40.430  23.508  26.780  1.00  0.00     0.009 A 
ATOM     63  C   UNL A   1      41.483  21.072  27.645  1.00  0.00     0.001 A 
ATOM     64  C   UNL A   1      39.764  22.316  26.490  1.00  0.00     0.001 A 
ATOM     65  C   UNL A   1      40.296  21.099  26.916  1.00  0.00     0.000 A 
ENDBRANCH  46  60
BRANCH  47  66
ATOM     66  C   UNL A   1      45.741  32.286  29.737  1.00  0.00    -0.014 A 
ATOM     67  C   UNL A   1      46.012  33.240  28.745  1.00  0.00     0.009 A 
ATOM     68  C   UNL A   1      46.112  32.562  31.063  1.00  0.00     0.009 A 
ATOM     69  C   UNL A   1      46.668  34.430  29.069  1.00  0.00     0.001 A 
ATOM     70  C   UNL A   1      46.741  33.763  31.389  1.00  0.00     0.001 A 
ATOM     71  C   UNL A   1      47.029  34.692  30.390  1.00  0.00     0.000 A 
ENDBRANCH  47  66
BRANCH  59  72
ATOM     72  C   UNL A   1      48.328  26.135  27.771  1.00  0.00    -0.014 A 
ATOM     73  C   UNL A   1      49.061  25.454  28.755  1.00  0.00     0.009 A 
ATOM     74  C   UNL A   1      48.907  26.340  26.509  1.00  0.00     0.009 A 
ATOM     75  C   UNL A   1      50.360  25.015  28.489  1.00  0.00     0.001 A 
ATOM     76  C   UNL A   1      50.197  25.876  26.238  1.00  0.00     0.001 A 
ATOM     77  C   UNL A   1      50.924  25.223  27.230  1.00  0.00     0.000 A 
ENDBRANCH  59  72
ENDBRANCH  33  34
ENDBRANCH  26  28
ENDBRANCH  25  26
ENDBRANCH  24  25
ENDBRANCH  23  24
ENDBRANCH  22  23
ENDBRANCH  21  22
ENDBRANCH   1  21
TORSDOF 21
ENDMDL
MODEL 3
REMARK VINA RESULT:      -7.6      5.020      9.050
REMARK SMILES CCN(C(=O)C[NH2+][C@](C)(CC)C(=O)OCCOCCOC(=O)c1ccc(-c2c3nc(c(-c4ccccc4)c4ccc([nH]4)c(-c4ccccc4)c4nc(c(-c5ccccc5)c5ccc2[nH]5)C=C4)C=C3)cc1)C1CC1
REMARK SMILES IDX 15 1 14 2 12 3 13 4 8 5 9 6 7 7 6 10 4 11 5 12 3 13 2 14
REMARK SMILES IDX 1 15 71 16 72 17 73 18 10 19 11 20 16 21 17 22 18 23 19 24
REMARK SMILES IDX 20 25 21 26 22 27 23 28 24 29 70 30 25 31 69 32 26 33 27 34
REMARK SMILES IDX 28 35 63 36 29 37 68 38 62 39 64 40 30 41 67 42 61 43 60 44
REMARK SMILES IDX 31 46 53 47 38 48 52 49 39 50 42 51 51 52 65 53 40 54 41 55
REMARK SMILES IDX 50 57 66 58 43 59 32 60 33 61 37 62 34 63 36 64 35 65 54 66
REMARK SMILES IDX 55 67 59 68 56 69 58 70 57 71 44 72 45 73 49 74 46 75 48 76
REMARK SMILES IDX 47 77
REMARK H PARENT 7 8 7 9 64 45 42 56
REMARK Flexibility Score: inf
ROOT
ATOM      1  C   UNL A   1      38.663  29.512  27.665  1.00  0.00     0.261 C 
ENDROOT
BRANCH   1   2
ATOM      2  O   UNL A   1      40.004  29.082  27.951  1.00  0.00    -0.459 OA
BRANCH   2   3
ATOM      3  C   UNL A   1      40.293  27.817  27.523  1.00  0.00     0.367 C 
ATOM      4  O   UNL A   1      39.483  26.895  27.516  1.00  0.00    -0.245 OA
BRANCH   3   5
ATOM      5  C   UNL A   1      41.801  27.629  27.197  1.00  0.00     0.191 C 
ATOM      6  C   UNL A   1      42.304  28.977  26.637  1.00  0.00     0.092 C 
BRANCH   5   7
ATOM      7  N   UNL A   1      42.018  26.634  26.099  1.00  0.00    -0.325 N 
ATOM      8  H   UNL A   1      42.160  25.720  26.528  1.00  0.00     0.347 HD
ATOM      9  H   UNL A   1      41.191  26.691  25.506  1.00  0.00     0.347 HD
BRANCH   7  10
ATOM     10  C   UNL A   1      43.163  26.899  25.212  1.00  0.00     0.362 C 
BRANCH  10  11
ATOM     11  C   UNL A   1      44.274  25.866  25.426  1.00  0.00     0.277 C 
ATOM     12  O   UNL A   1      44.188  24.782  24.837  1.00  0.00    -0.268 OA
BRANCH  11  13
ATOM     13  N   UNL A   1      45.358  26.206  26.242  1.00  0.00    -0.335 N 
BRANCH  13  14
ATOM     14  C   UNL A   1      45.646  25.569  27.537  1.00  0.00     0.116 C 
ATOM     15  C   UNL A   1      46.725  24.499  27.455  1.00  0.00     0.027 C 
ENDBRANCH  13  14
BRANCH  13  16
ATOM     16  C   UNL A   1      46.166  27.362  25.912  1.00  0.00     0.085 C 
ATOM     17  C   UNL A   1      47.574  27.217  25.391  1.00  0.00     0.027 C 
ATOM     18  C   UNL A   1      46.506  27.760  24.498  1.00  0.00     0.027 C 
ENDBRANCH  13  16
ENDBRANCH  11  13
ENDBRANCH  10  11
ENDBRANCH   7  10
ENDBRANCH   5   7
BRANCH   5  19
ATOM     19  C   UNL A   1      42.686  27.195  28.395  1.00  0.00     0.077 C 
ATOM     20  C   UNL A   1      41.966  26.644  29.618  1.00  0.00     0.011 C 
ENDBRANCH   5  19
ENDBRANCH   3   5
ENDBRANCH   2   3
ENDBRANCH   1   2
BRANCH   1  21
ATOM     21  C   UNL A   1      38.016  30.387  28.743  1.00  0.00     0.202 C 
BRANCH  21  22
ATOM     22  O   UNL A   1      36.623  30.223  28.975  1.00  0.00    -0.374 OA
BRANCH  22  23
ATOM     23  C   UNL A   1      35.856  31.387  29.277  1.00  0.00     0.202 C 
BRANCH  23  24
ATOM     24  C   UNL A   1      36.222  32.130  30.567  1.00  0.00     0.261 C 
BRANCH  24  25
ATOM     25  O   UNL A   1      35.709  31.455  31.734  1.00  0.00    -0.460 OA
BRANCH  25  26
ATOM     26  C   UNL A   1      36.396  31.699  32.872  1.00  0.00     0.338 C 
ATOM     27  O   UNL A   1      36.013  32.335  33.848  1.00  0.00    -0.246 OA
BRANCH  26  28
ATOM     28  C   UNL A   1      37.660  30.944  32.890  1.00  0.00     0.060 A 
ATOM     29  C   UNL A   1      38.798  31.605  33.371  1.00  0.00     0.016 A 
ATOM     30  C   UNL A   1      37.767  29.680  32.308  1.00  0.00     0.016 A 
ATOM     31  C   UNL A   1      40.057  31.036  33.205  1.00  0.00     0.010 A 
ATOM     32  C   UNL A   1      39.035  29.111  32.136  1.00  0.00     0.010 A 
ATOM     33  C   UNL A   1      40.189  29.810  32.538  1.00  0.00    -0.014 A 
BRANCH  33  34
ATOM     34  C   UNL A   1      41.540  29.371  32.104  1.00  0.00     0.031 A 
ATOM     35  C   UNL A   1      42.227  30.118  30.990  1.00  0.00     0.074 A 
ATOM     36  C   UNL A   1      42.185  28.375  32.738  1.00  0.00     0.049 A 
ATOM     37  N   UNL A   1      43.415  29.928  30.473  1.00  0.00    -0.248 NA
ATOM     38  C   UNL A   1      41.478  31.230  30.384  1.00  0.00     0.031 C 
ATOM     39  C   UNL A   1      41.659  27.607  33.864  1.00  0.00     0.029 A 
ATOM     40  N   UNL A   1      43.434  27.849  32.522  1.00  0.00    -0.354 N 
ATOM     41  C   UNL A   1      43.558  30.900  29.490  1.00  0.00     0.074 A 
ATOM     42  C   UNL A   1      42.324  31.654  29.457  1.00  0.00     0.031 C 
ATOM     43  C   UNL A   1      42.580  26.702  34.241  1.00  0.00     0.029 A 
ATOM     44  C   UNL A   1      43.747  26.811  33.367  1.00  0.00     0.049 A 
ATOM     45  H   UNL A   1      44.047  28.181  31.828  1.00  0.00     0.167 HD
ATOM     46  C   UNL A   1      44.624  31.155  28.693  1.00  0.00     0.031 A 
ATOM     47  C   UNL A   1      44.843  26.031  33.419  1.00  0.00     0.031 A 
ATOM     48  C   UNL A   1      45.848  30.402  28.706  1.00  0.00     0.049 A 
ATOM     49  C   UNL A   1      45.978  26.275  32.460  1.00  0.00     0.074 A 
ATOM     50  C   UNL A   1      46.978  30.578  27.925  1.00  0.00     0.029 A 
ATOM     51  N   UNL A   1      46.102  29.326  29.540  1.00  0.00    -0.354 N 
ATOM     52  N   UNL A   1      46.103  27.204  31.544  1.00  0.00    -0.248 NA
ATOM     53  C   UNL A   1      47.130  25.363  32.552  1.00  0.00     0.031 C 
ATOM     54  C   UNL A   1      47.900  29.579  28.258  1.00  0.00     0.029 A 
ATOM     55  C   UNL A   1      47.362  28.815  29.280  1.00  0.00     0.049 A 
ATOM     56  H   UNL A   1      45.479  28.976  30.218  1.00  0.00     0.167 HD
ATOM     57  C   UNL A   1      47.353  27.005  30.970  1.00  0.00     0.074 A 
ATOM     58  C   UNL A   1      47.954  25.878  31.650  1.00  0.00     0.031 C 
ATOM     59  C   UNL A   1      47.949  27.695  29.966  1.00  0.00     0.031 A 
BRANCH  46  60
ATOM     60  C   UNL A   1      44.501  32.292  27.721  1.00  0.00    -0.014 A 
ATOM     61  C   UNL A   1      44.753  33.615  28.117  1.00  0.00     0.009 A 
ATOM     62  C   UNL A   1      44.162  32.034  26.383  1.00  0.00     0.009 A 
ATOM     63  C   UNL A   1      44.643  34.660  27.198  1.00  0.00     0.001 A 
ATOM     64  C   UNL A   1      44.076  33.080  25.462  1.00  0.00     0.001 A 
ATOM     65  C   UNL A   1      44.309  34.392  25.872  1.00  0.00     0.000 A 
ENDBRANCH  46  60
BRANCH  47  66
ATOM     66  C   UNL A   1      44.918  24.916  34.398  1.00  0.00    -0.014 A 
ATOM     67  C   UNL A   1      45.475  25.110  35.671  1.00  0.00     0.009 A 
ATOM     68  C   UNL A   1      44.462  23.635  34.045  1.00  0.00     0.009 A 
ATOM     69  C   UNL A   1      45.600  24.038  36.559  1.00  0.00     0.001 A 
ATOM     70  C   UNL A   1      44.561  22.573  34.944  1.00  0.00     0.001 A 
ATOM     71  C   UNL A   1      45.141  22.773  36.196  1.00  0.00     0.000 A 
ENDBRANCH  47  66
BRANCH  59  72
ATOM     72  C   UNL A   1      49.335  27.273  29.568  1.00  0.00    -0.014 A 
ATOM     73  C   UNL A   1      49.545  26.350  28.532  1.00  0.00     0.009 A 
ATOM     74  C   UNL A   1      50.446  27.838  30.214  1.00  0.00     0.009 A 
ATOM     75  C   UNL A   1      50.842  25.978  28.171  1.00  0.00     0.001 A 
ATOM     76  C   UNL A   1      51.742  27.482  29.833  1.00  0.00     0.001 A 
ATOM     77  C   UNL A   1      51.938  26.547  28.820  1.00  0.00     0.000 A 
ENDBRANCH  59  72
ENDBRANCH  33  34
ENDBRANCH  26  28
ENDBRANCH  25  26
ENDBRANCH  24  25
ENDBRANCH  23  24
ENDBRANCH  22  23
ENDBRANCH  21  22
ENDBRANCH   1  21
TORSDOF 21
ENDMDL
