MODEL 1
REMARK VINA RESULT:     -10.5      0.000      0.000
REMARK SMILES Cc1cc(CNS(=O)(=O)c2ccc(C(=O)OCCOCCOC(=O)c3ccc(-c4c5nc(c(-c6ccccc6)c6ccc([nH]6)c(-c6ccccc6)c6nc(c(-c7ccccc7)c7ccc4[nH]7)C=C6)C=C5)cc3)cc2F)no1
REMARK SMILES IDX 18 1 17 2 16 3 14 4 15 5 13 6 10 7 11 8 74 9 12 10 73 11
REMARK SMILES IDX 75 12 7 13 8 14 9 15 6 16 5 18 4 19 1 20 2 21 3 22 77 23
REMARK SMILES IDX 76 24 19 25 20 26 21 27 22 28 23 29 24 30 25 31 26 32 72 33
REMARK SMILES IDX 27 34 71 35 28 36 29 37 30 38 65 39 31 40 70 41 64 42 66 43
REMARK SMILES IDX 32 44 69 45 63 46 62 47 33 49 55 50 40 51 54 52 41 53 44 54
REMARK SMILES IDX 53 55 67 56 42 57 43 58 52 60 68 61 45 62 34 63 35 64 39 65
REMARK SMILES IDX 36 66 38 67 37 68 56 69 57 70 61 71 58 72 60 73 59 74 46 75
REMARK SMILES IDX 47 76 51 77 48 78 50 79 49 80
REMARK H PARENT 6 17 66 48 44 59
REMARK Flexibility Score: inf
ROOT
ATOM      1  C   UNL A   1      41.332  21.829  26.099  1.00  0.00     0.202 C 
ENDROOT
BRANCH   1   2
ATOM      2  C   UNL A   1      40.037  22.012  26.895  1.00  0.00     0.261 C 
BRANCH   2   3
ATOM      3  O   UNL A   1      38.889  21.940  26.026  1.00  0.00    -0.460 OA
BRANCH   3   4
ATOM      4  C   UNL A   1      38.078  23.023  26.067  1.00  0.00     0.338 C 
ATOM      5  O   UNL A   1      38.414  24.188  26.193  1.00  0.00    -0.246 OA
BRANCH   4   6
ATOM      6  C   UNL A   1      36.676  22.633  25.782  1.00  0.00     0.063 A 
ATOM      7  C   UNL A   1      34.102  21.850  25.038  1.00  0.00     0.118 A 
ATOM      8  C   UNL A   1      35.198  21.065  24.663  1.00  0.00     0.026 A 
ATOM      9  C   UNL A   1      34.289  22.990  25.812  1.00  0.00     0.144 A 
ATOM     10  C   UNL A   1      36.483  21.465  25.030  1.00  0.00     0.017 A 
ATOM     11  C   UNL A   1      35.572  23.384  26.201  1.00  0.00     0.056 A 
ATOM     12  F   UNL A   1      33.246  23.743  26.186  1.00  0.00    -0.205 F 
BRANCH   7  13
ATOM     13  S   UNL A   1      32.507  21.455  24.395  1.00  0.00     0.243 S 
ATOM     14  O   UNL A   1      32.002  22.635  23.745  1.00  0.00    -0.207 OA
ATOM     15  O   UNL A   1      31.776  20.810  25.475  1.00  0.00    -0.207 OA
BRANCH  13  16
ATOM     16  N   UNL A   1      32.750  20.314  23.213  1.00  0.00    -0.205 NA
ATOM     17  H   UNL A   1      32.523  20.757  22.323  1.00  0.00     0.141 HD
BRANCH  16  18
ATOM     18  C   UNL A   1      32.011  19.058  23.264  1.00  0.00     0.158 C 
BRANCH  18  19
ATOM     19  C   UNL A   1      32.979  17.955  23.552  1.00  0.00     0.099 A 
ATOM     20  C   UNL A   1      35.370  15.734  25.228  1.00  0.00     0.091 C 
ATOM     21  C   UNL A   1      34.426  16.569  24.465  1.00  0.00     0.133 A 
ATOM     22  C   UNL A   1      33.687  17.691  24.748  1.00  0.00     0.073 A 
ATOM     23  O   UNL A   1      34.189  16.189  23.182  1.00  0.00    -0.361 OA
ATOM     24  N   UNL A   1      33.276  17.054  22.603  1.00  0.00    -0.083 NA
ENDBRANCH  18  19
ENDBRANCH  16  18
ENDBRANCH  13  16
ENDBRANCH   7  13
ENDBRANCH   4   6
ENDBRANCH   3   4
ENDBRANCH   2   3
ENDBRANCH   1   2
BRANCH   1  25
ATOM     25  O   UNL A   1      42.291  20.958  26.701  1.00  0.00    -0.374 OA
BRANCH  25  26
ATOM     26  C   UNL A   1      42.039  19.556  26.585  1.00  0.00     0.202 C 
BRANCH  26  27
ATOM     27  C   UNL A   1      43.085  18.772  25.786  1.00  0.00     0.261 C 
BRANCH  27  28
ATOM     28  O   UNL A   1      43.404  19.444  24.553  1.00  0.00    -0.460 OA
BRANCH  28  29
ATOM     29  C   UNL A   1      44.726  19.653  24.342  1.00  0.00     0.338 C 
ATOM     30  O   UNL A   1      45.528  18.880  23.848  1.00  0.00    -0.246 OA
BRANCH  29  31
ATOM     31  C   UNL A   1      45.065  21.060  24.644  1.00  0.00     0.060 A 
ATOM     32  C   UNL A   1      45.715  21.319  25.858  1.00  0.00     0.016 A 
ATOM     33  C   UNL A   1      44.706  22.109  23.794  1.00  0.00     0.016 A 
ATOM     34  C   UNL A   1      45.961  22.632  26.251  1.00  0.00     0.010 A 
ATOM     35  C   UNL A   1      44.947  23.428  24.195  1.00  0.00     0.010 A 
ATOM     36  C   UNL A   1      45.542  23.695  25.441  1.00  0.00    -0.014 A 
BRANCH  36  37
ATOM     37  C   UNL A   1      45.592  25.079  25.967  1.00  0.00     0.031 A 
ATOM     38  C   UNL A   1      46.901  25.818  25.953  1.00  0.00     0.074 A 
ATOM     39  C   UNL A   1      44.482  25.685  26.425  1.00  0.00     0.049 A 
ATOM     40  N   UNL A   1      47.178  27.024  26.381  1.00  0.00    -0.248 NA
ATOM     41  C   UNL A   1      48.053  25.102  25.380  1.00  0.00     0.031 C 
ATOM     42  C   UNL A   1      43.143  25.097  26.451  1.00  0.00     0.029 A 
ATOM     43  N   UNL A   1      44.311  26.937  26.961  1.00  0.00    -0.354 N 
ATOM     44  C   UNL A   1      48.532  27.209  26.134  1.00  0.00     0.074 A 
ATOM     45  C   UNL A   1      49.027  25.984  25.542  1.00  0.00     0.031 C 
ATOM     46  C   UNL A   1      42.288  25.987  26.984  1.00  0.00     0.029 A 
ATOM     47  C   UNL A   1      43.023  27.192  27.362  1.00  0.00     0.049 A 
ATOM     48  H   UNL A   1      45.043  27.589  27.049  1.00  0.00     0.167 HD
ATOM     49  C   UNL A   1      49.296  28.301  26.371  1.00  0.00     0.031 A 
ATOM     50  C   UNL A   1      42.501  28.269  27.980  1.00  0.00     0.031 A 
ATOM     51  C   UNL A   1      48.813  29.514  26.972  1.00  0.00     0.049 A 
ATOM     52  C   UNL A   1      43.388  29.439  28.307  1.00  0.00     0.074 A 
ATOM     53  C   UNL A   1      49.510  30.679  27.244  1.00  0.00     0.029 A 
ATOM     54  N   UNL A   1      47.511  29.717  27.401  1.00  0.00    -0.354 N 
ATOM     55  N   UNL A   1      44.662  29.610  28.048  1.00  0.00    -0.248 NA
ATOM     56  C   UNL A   1      42.761  30.570  29.007  1.00  0.00     0.031 C 
ATOM     57  C   UNL A   1      48.640  31.570  27.881  1.00  0.00     0.029 A 
ATOM     58  C   UNL A   1      47.389  30.978  27.958  1.00  0.00     0.049 A 
ATOM     59  H   UNL A   1      46.781  29.060  27.320  1.00  0.00     0.167 HD
ATOM     60  C   UNL A   1      44.981  30.874  28.528  1.00  0.00     0.074 A 
ATOM     61  C   UNL A   1      43.766  31.431  29.085  1.00  0.00     0.031 C 
ATOM     62  C   UNL A   1      46.173  31.518  28.507  1.00  0.00     0.031 A 
BRANCH  49  63
ATOM     63  C   UNL A   1      50.750  28.214  26.009  1.00  0.00    -0.014 A 
ATOM     64  C   UNL A   1      51.206  28.588  24.735  1.00  0.00     0.009 A 
ATOM     65  C   UNL A   1      51.682  27.781  26.965  1.00  0.00     0.009 A 
ATOM     66  C   UNL A   1      52.563  28.500  24.416  1.00  0.00     0.001 A 
ATOM     67  C   UNL A   1      53.040  27.715  26.651  1.00  0.00     0.001 A 
ATOM     68  C   UNL A   1      53.479  28.067  25.375  1.00  0.00     0.000 A 
ENDBRANCH  49  63
BRANCH  50  69
ATOM     69  C   UNL A   1      41.065  28.286  28.356  1.00  0.00    -0.014 A 
ATOM     70  C   UNL A   1      40.627  27.674  29.539  1.00  0.00     0.009 A 
ATOM     71  C   UNL A   1      40.120  28.900  27.518  1.00  0.00     0.009 A 
ATOM     72  C   UNL A   1      39.268  27.656  29.864  1.00  0.00     0.001 A 
ATOM     73  C   UNL A   1      38.766  28.903  27.859  1.00  0.00     0.001 A 
ATOM     74  C   UNL A   1      38.340  28.273  29.027  1.00  0.00     0.000 A 
ENDBRANCH  50  69
BRANCH  62  75
ATOM     75  C   UNL A   1      46.216  32.909  29.070  1.00  0.00    -0.014 A 
ATOM     76  C   UNL A   1      45.842  34.019  28.297  1.00  0.00     0.009 A 
ATOM     77  C   UNL A   1      46.595  33.106  30.407  1.00  0.00     0.009 A 
ATOM     78  C   UNL A   1      45.874  35.303  28.847  1.00  0.00     0.001 A 
ATOM     79  C   UNL A   1      46.602  34.387  30.961  1.00  0.00     0.001 A 
ATOM     80  C   UNL A   1      46.249  35.485  30.178  1.00  0.00     0.000 A 
ENDBRANCH  62  75
ENDBRANCH  36  37
ENDBRANCH  29  31
ENDBRANCH  28  29
ENDBRANCH  27  28
ENDBRANCH  26  27
ENDBRANCH  25  26
ENDBRANCH   1  25
TORSDOF 18
ENDMDL
MODEL 2
REMARK VINA RESULT:     -10.3      4.824      7.450
REMARK SMILES Cc1cc(CNS(=O)(=O)c2ccc(C(=O)OCCOCCOC(=O)c3ccc(-c4c5nc(c(-c6ccccc6)c6ccc([nH]6)c(-c6ccccc6)c6nc(c(-c7ccccc7)c7ccc4[nH]7)C=C6)C=C5)cc3)cc2F)no1
REMARK SMILES IDX 18 1 17 2 16 3 14 4 15 5 13 6 10 7 11 8 74 9 12 10 73 11
REMARK SMILES IDX 75 12 7 13 8 14 9 15 6 16 5 18 4 19 1 20 2 21 3 22 77 23
REMARK SMILES IDX 76 24 19 25 20 26 21 27 22 28 23 29 24 30 25 31 26 32 72 33
REMARK SMILES IDX 27 34 71 35 28 36 29 37 30 38 65 39 31 40 70 41 64 42 66 43
REMARK SMILES IDX 32 44 69 45 63 46 62 47 33 49 55 50 40 51 54 52 41 53 44 54
REMARK SMILES IDX 53 55 67 56 42 57 43 58 52 60 68 61 45 62 34 63 35 64 39 65
REMARK SMILES IDX 36 66 38 67 37 68 56 69 57 70 61 71 58 72 60 73 59 74 46 75
REMARK SMILES IDX 47 76 51 77 48 78 50 79 49 80
REMARK H PARENT 6 17 66 48 44 59
REMARK Flexibility Score: inf
ROOT
ATOM      1  C   UNL A   1      40.403  20.742  26.568  1.00  0.00     0.202 C 
ENDROOT
BRANCH   1   2
ATOM      2  C   UNL A   1      39.877  22.179  26.517  1.00  0.00     0.261 C 
BRANCH   2   3
ATOM      3  O   UNL A   1      38.550  22.218  25.954  1.00  0.00    -0.460 OA
BRANCH   3   4
ATOM      4  C   UNL A   1      37.930  23.417  26.048  1.00  0.00     0.338 C 
ATOM      5  O   UNL A   1      38.368  24.432  26.562  1.00  0.00    -0.246 OA
BRANCH   4   6
ATOM      6  C   UNL A   1      36.656  23.403  25.290  1.00  0.00     0.063 A 
ATOM      7  C   UNL A   1      34.368  23.470  23.692  1.00  0.00     0.118 A 
ATOM      8  C   UNL A   1      35.581  23.043  23.142  1.00  0.00     0.026 A 
ATOM      9  C   UNL A   1      34.292  23.819  25.036  1.00  0.00     0.144 A 
ATOM     10  C   UNL A   1      36.724  23.019  23.942  1.00  0.00     0.017 A 
ATOM     11  C   UNL A   1      35.429  23.777  25.848  1.00  0.00     0.056 A 
ATOM     12  F   UNL A   1      33.133  24.219  25.576  1.00  0.00    -0.205 F 
BRANCH   7  13
ATOM     13  S   UNL A   1      32.979  23.698  22.627  1.00  0.00     0.243 S 
ATOM     14  O   UNL A   1      31.905  22.891  23.144  1.00  0.00    -0.207 OA
ATOM     15  O   UNL A   1      33.470  23.531  21.268  1.00  0.00    -0.207 OA
BRANCH  13  16
ATOM     16  N   UNL A   1      32.520  25.285  22.795  1.00  0.00    -0.205 NA
ATOM     17  H   UNL A   1      33.150  25.705  23.478  1.00  0.00     0.141 HD
BRANCH  16  18
ATOM     18  C   UNL A   1      31.161  25.599  23.223  1.00  0.00     0.158 C 
BRANCH  18  19
ATOM     19  C   UNL A   1      31.165  26.960  23.840  1.00  0.00     0.099 A 
ATOM     20  C   UNL A   1      31.952  29.849  25.962  1.00  0.00     0.091 C 
ATOM     21  C   UNL A   1      31.557  28.748  25.065  1.00  0.00     0.133 A 
ATOM     22  C   UNL A   1      31.957  27.444  24.908  1.00  0.00     0.073 A 
ATOM     23  O   UNL A   1      30.582  29.029  24.160  1.00  0.00    -0.361 OA
ATOM     24  N   UNL A   1      30.334  27.910  23.384  1.00  0.00    -0.083 NA
ENDBRANCH  18  19
ENDBRANCH  16  18
ENDBRANCH  13  16
ENDBRANCH   7  13
ENDBRANCH   4   6
ENDBRANCH   3   4
ENDBRANCH   2   3
ENDBRANCH   1   2
BRANCH   1  25
ATOM     25  O   UNL A   1      41.599  20.511  25.821  1.00  0.00    -0.374 OA
BRANCH  25  26
ATOM     26  C   UNL A   1      42.768  21.204  26.261  1.00  0.00     0.202 C 
BRANCH  26  27
ATOM     27  C   UNL A   1      43.605  21.840  25.145  1.00  0.00     0.261 C 
BRANCH  27  28
ATOM     28  O   UNL A   1      43.059  23.113  24.751  1.00  0.00    -0.460 OA
BRANCH  28  29
ATOM     29  C   UNL A   1      43.843  24.182  25.030  1.00  0.00     0.338 C 
ATOM     30  O   UNL A   1      44.916  24.465  24.526  1.00  0.00    -0.246 OA
BRANCH  29  31
ATOM     31  C   UNL A   1      43.131  25.100  25.944  1.00  0.00     0.060 A 
ATOM     32  C   UNL A   1      43.693  26.367  26.148  1.00  0.00     0.016 A 
ATOM     33  C   UNL A   1      41.977  24.717  26.632  1.00  0.00     0.016 A 
ATOM     34  C   UNL A   1      43.133  27.236  27.081  1.00  0.00     0.010 A 
ATOM     35  C   UNL A   1      41.421  25.589  27.575  1.00  0.00     0.010 A 
ATOM     36  C   UNL A   1      42.018  26.837  27.829  1.00  0.00    -0.014 A 
BRANCH  36  37
ATOM     37  C   UNL A   1      41.573  27.662  28.977  1.00  0.00     0.031 A 
ATOM     38  C   UNL A   1      42.324  27.569  30.276  1.00  0.00     0.074 A 
ATOM     39  C   UNL A   1      40.532  28.505  28.859  1.00  0.00     0.049 A 
ATOM     40  N   UNL A   1      42.097  28.181  31.410  1.00  0.00    -0.248 NA
ATOM     41  C   UNL A   1      43.487  26.667  30.299  1.00  0.00     0.031 C 
ATOM     42  C   UNL A   1      39.749  28.722  27.644  1.00  0.00     0.029 A 
ATOM     43  N   UNL A   1      39.954  29.335  29.787  1.00  0.00    -0.354 N 
ATOM     44  C   UNL A   1      43.083  27.736  32.281  1.00  0.00     0.074 A 
ATOM     45  C   UNL A   1      43.895  26.784  31.553  1.00  0.00     0.031 C 
ATOM     46  C   UNL A   1      38.786  29.623  27.903  1.00  0.00     0.029 A 
ATOM     47  C   UNL A   1      38.867  30.022  29.307  1.00  0.00     0.049 A 
ATOM     48  H   UNL A   1      40.288  29.428  30.708  1.00  0.00     0.167 HD
ATOM     49  C   UNL A   1      43.299  28.090  33.570  1.00  0.00     0.031 A 
ATOM     50  C   UNL A   1      38.023  30.864  29.934  1.00  0.00     0.031 A 
ATOM     51  C   UNL A   1      42.488  29.023  34.303  1.00  0.00     0.049 A 
ATOM     52  C   UNL A   1      38.236  31.180  31.389  1.00  0.00     0.074 A 
ATOM     53  C   UNL A   1      42.635  29.453  35.610  1.00  0.00     0.029 A 
ATOM     54  N   UNL A   1      41.372  29.666  33.792  1.00  0.00    -0.354 N 
ATOM     55  N   UNL A   1      39.186  30.769  32.195  1.00  0.00    -0.248 NA
ATOM     56  C   UNL A   1      37.262  32.085  32.020  1.00  0.00     0.031 C 
ATOM     57  C   UNL A   1      41.578  30.322  35.905  1.00  0.00     0.029 A 
ATOM     58  C   UNL A   1      40.805  30.471  34.765  1.00  0.00     0.049 A 
ATOM     59  H   UNL A   1      41.034  29.566  32.872  1.00  0.00     0.167 HD
ATOM     60  C   UNL A   1      38.939  31.384  33.417  1.00  0.00     0.074 A 
ATOM     61  C   UNL A   1      37.757  32.203  33.244  1.00  0.00     0.031 C 
ATOM     62  C   UNL A   1      39.630  31.281  34.577  1.00  0.00     0.031 A 
BRANCH  49  63
ATOM     63  C   UNL A   1      44.447  27.431  34.281  1.00  0.00    -0.014 A 
ATOM     64  C   UNL A   1      45.732  27.995  34.264  1.00  0.00     0.009 A 
ATOM     65  C   UNL A   1      44.232  26.246  35.001  1.00  0.00     0.009 A 
ATOM     66  C   UNL A   1      46.787  27.367  34.930  1.00  0.00     0.001 A 
ATOM     67  C   UNL A   1      45.283  25.633  35.685  1.00  0.00     0.001 A 
ATOM     68  C   UNL A   1      46.561  26.189  35.643  1.00  0.00     0.000 A 
ENDBRANCH  49  63
BRANCH  50  69
ATOM     69  C   UNL A   1      36.878  31.455  29.196  1.00  0.00    -0.014 A 
ATOM     70  C   UNL A   1      35.708  30.714  28.977  1.00  0.00     0.009 A 
ATOM     71  C   UNL A   1      36.960  32.762  28.688  1.00  0.00     0.009 A 
ATOM     72  C   UNL A   1      34.652  31.261  28.244  1.00  0.00     0.001 A 
ATOM     73  C   UNL A   1      35.893  33.315  27.978  1.00  0.00     0.001 A 
ATOM     74  C   UNL A   1      34.743  32.561  27.749  1.00  0.00     0.000 A 
ENDBRANCH  50  69
BRANCH  62  75
ATOM     75  C   UNL A   1      39.150  32.099  35.741  1.00  0.00    -0.014 A 
ATOM     76  C   UNL A   1      39.587  33.420  35.932  1.00  0.00     0.009 A 
ATOM     77  C   UNL A   1      38.215  31.554  36.634  1.00  0.00     0.009 A 
ATOM     78  C   UNL A   1      39.115  34.167  37.013  1.00  0.00     0.001 A 
ATOM     79  C   UNL A   1      37.726  32.314  37.699  1.00  0.00     0.001 A 
ATOM     80  C   UNL A   1      38.183  33.616  37.892  1.00  0.00     0.000 A 
ENDBRANCH  62  75
ENDBRANCH  36  37
ENDBRANCH  29  31
ENDBRANCH  28  29
ENDBRANCH  27  28
ENDBRANCH  26  27
ENDBRANCH  25  26
ENDBRANCH   1  25
TORSDOF 18
ENDMDL
MODEL 3
REMARK VINA RESULT:     -10.0      4.614      8.244
REMARK SMILES Cc1cc(CNS(=O)(=O)c2ccc(C(=O)OCCOCCOC(=O)c3ccc(-c4c5nc(c(-c6ccccc6)c6ccc([nH]6)c(-c6ccccc6)c6nc(c(-c7ccccc7)c7ccc4[nH]7)C=C6)C=C5)cc3)cc2F)no1
REMARK SMILES IDX 18 1 17 2 16 3 14 4 15 5 13 6 10 7 11 8 74 9 12 10 73 11
REMARK SMILES IDX 75 12 7 13 8 14 9 15 6 16 5 18 4 19 1 20 2 21 3 22 77 23
REMARK SMILES IDX 76 24 19 25 20 26 21 27 22 28 23 29 24 30 25 31 26 32 72 33
REMARK SMILES IDX 27 34 71 35 28 36 29 37 30 38 65 39 31 40 70 41 64 42 66 43
REMARK SMILES IDX 32 44 69 45 63 46 62 47 33 49 55 50 40 51 54 52 41 53 44 54
REMARK SMILES IDX 53 55 67 56 42 57 43 58 52 60 68 61 45 62 34 63 35 64 39 65
REMARK SMILES IDX 36 66 38 67 37 68 56 69 57 70 61 71 58 72 60 73 59 74 46 75
REMARK SMILES IDX 47 76 51 77 48 78 50 79 49 80
REMARK H PARENT 6 17 66 48 44 59
REMARK Flexibility Score: inf
ROOT
ATOM      1  C   UNL A   1      41.175  21.561  27.317  1.00  0.00     0.202 C 
ENDROOT
BRANCH   1   2
ATOM      2  C   UNL A   1      40.314  21.494  26.053  1.00  0.00     0.261 C 
BRANCH   2   3
ATOM      3  O   UNL A   1      38.912  21.474  26.390  1.00  0.00    -0.460 OA
BRANCH   3   4
ATOM      4  C   UNL A   1      38.260  22.640  26.172  1.00  0.00     0.338 C 
ATOM      5  O   UNL A   1      38.745  23.759  26.144  1.00  0.00    -0.246 OA
BRANCH   4   6
ATOM      6  C   UNL A   1      36.846  22.384  25.805  1.00  0.00     0.063 A 
ATOM      7  C   UNL A   1      34.260  21.815  24.924  1.00  0.00     0.118 A 
ATOM      8  C   UNL A   1      35.269  20.861  24.761  1.00  0.00     0.026 A 
ATOM      9  C   UNL A   1      34.532  23.022  25.559  1.00  0.00     0.144 A 
ATOM     10  C   UNL A   1      36.563  21.153  25.195  1.00  0.00     0.017 A 
ATOM     11  C   UNL A   1      35.821  23.312  26.016  1.00  0.00     0.056 A 
ATOM     12  F   UNL A   1      33.570  23.939  25.731  1.00  0.00    -0.205 F 
BRANCH   7  13
ATOM     13  S   UNL A   1      32.682  21.527  24.188  1.00  0.00     0.243 S 
ATOM     14  O   UNL A   1      32.371  22.674  23.376  1.00  0.00    -0.207 OA
ATOM     15  O   UNL A   1      31.801  21.092  25.260  1.00  0.00    -0.207 OA
BRANCH  13  16
ATOM     16  N   UNL A   1      32.878  20.240  23.156  1.00  0.00    -0.205 NA
ATOM     17  H   UNL A   1      32.609  20.562  22.227  1.00  0.00     0.141 HD
BRANCH  16  18
ATOM     18  C   UNL A   1      32.148  19.002  23.405  1.00  0.00     0.158 C 
BRANCH  18  19
ATOM     19  C   UNL A   1      33.140  17.921  23.691  1.00  0.00     0.099 A 
ATOM     20  C   UNL A   1      35.549  15.727  25.377  1.00  0.00     0.091 C 
ATOM     21  C   UNL A   1      34.603  16.554  24.608  1.00  0.00     0.133 A 
ATOM     22  C   UNL A   1      33.822  17.645  24.900  1.00  0.00     0.073 A 
ATOM     23  O   UNL A   1      34.413  16.203  23.309  1.00  0.00    -0.361 OA
ATOM     24  N   UNL A   1      33.491  17.056  22.728  1.00  0.00    -0.083 NA
ENDBRANCH  18  19
ENDBRANCH  16  18
ENDBRANCH  13  16
ENDBRANCH   7  13
ENDBRANCH   4   6
ENDBRANCH   3   4
ENDBRANCH   2   3
ENDBRANCH   1   2
BRANCH   1  25
ATOM     25  O   UNL A   1      42.563  21.287  27.115  1.00  0.00    -0.374 OA
BRANCH  25  26
ATOM     26  C   UNL A   1      43.010  21.229  25.759  1.00  0.00     0.202 C 
BRANCH  26  27
ATOM     27  C   UNL A   1      43.855  22.423  25.302  1.00  0.00     0.261 C 
BRANCH  27  28
ATOM     28  O   UNL A   1      43.036  23.592  25.107  1.00  0.00    -0.460 OA
BRANCH  28  29
ATOM     29  C   UNL A   1      43.678  24.773  25.270  1.00  0.00     0.338 C 
ATOM     30  O   UNL A   1      44.613  25.204  24.616  1.00  0.00    -0.246 OA
BRANCH  29  31
ATOM     31  C   UNL A   1      42.971  25.593  26.275  1.00  0.00     0.060 A 
ATOM     32  C   UNL A   1      43.379  26.925  26.421  1.00  0.00     0.016 A 
ATOM     33  C   UNL A   1      41.974  25.063  27.099  1.00  0.00     0.016 A 
ATOM     34  C   UNL A   1      42.830  27.718  27.426  1.00  0.00     0.010 A 
ATOM     35  C   UNL A   1      41.430  25.858  28.113  1.00  0.00     0.010 A 
ATOM     36  C   UNL A   1      41.882  27.177  28.303  1.00  0.00    -0.014 A 
BRANCH  36  37
ATOM     37  C   UNL A   1      41.478  27.942  29.507  1.00  0.00     0.031 A 
ATOM     38  C   UNL A   1      40.293  28.863  29.421  1.00  0.00     0.074 A 
ATOM     39  C   UNL A   1      42.137  27.798  30.670  1.00  0.00     0.049 A 
ATOM     40  N   UNL A   1      39.779  29.641  30.340  1.00  0.00    -0.248 NA
ATOM     41  C   UNL A   1      39.593  28.915  28.127  1.00  0.00     0.031 C 
ATOM     42  C   UNL A   1      43.272  26.904  30.898  1.00  0.00     0.029 A 
ATOM     43  N   UNL A   1      41.942  28.412  31.882  1.00  0.00    -0.354 N 
ATOM     44  C   UNL A   1      38.702  30.276  29.736  1.00  0.00     0.074 A 
ATOM     45  C   UNL A   1      38.650  29.813  28.366  1.00  0.00     0.031 C 
ATOM     46  C   UNL A   1      43.677  27.034  32.173  1.00  0.00     0.029 A 
ATOM     47  C   UNL A   1      42.851  28.038  32.840  1.00  0.00     0.049 A 
ATOM     48  H   UNL A   1      41.218  29.058  32.048  1.00  0.00     0.167 HD
ATOM     49  C   UNL A   1      37.830  31.161  30.273  1.00  0.00     0.031 A 
ATOM     50  C   UNL A   1      43.010  28.471  34.105  1.00  0.00     0.031 A 
ATOM     51  C   UNL A   1      37.885  31.635  31.628  1.00  0.00     0.049 A 
ATOM     52  C   UNL A   1      42.076  29.516  34.655  1.00  0.00     0.074 A 
ATOM     53  C   UNL A   1      37.038  32.525  32.267  1.00  0.00     0.029 A 
ATOM     54  N   UNL A   1      38.846  31.263  32.554  1.00  0.00    -0.354 N 
ATOM     55  N   UNL A   1      41.048  30.092  34.079  1.00  0.00    -0.248 NA
ATOM     56  C   UNL A   1      42.323  29.964  36.034  1.00  0.00     0.031 C 
ATOM     57  C   UNL A   1      37.516  32.727  33.566  1.00  0.00     0.029 A 
ATOM     58  C   UNL A   1      38.629  31.924  33.751  1.00  0.00     0.049 A 
ATOM     59  H   UNL A   1      39.575  30.623  32.385  1.00  0.00     0.167 HD
ATOM     60  C   UNL A   1      40.511  30.948  35.032  1.00  0.00     0.074 A 
ATOM     61  C   UNL A   1      41.320  30.810  36.226  1.00  0.00     0.031 C 
ATOM     62  C   UNL A   1      39.442  31.775  34.929  1.00  0.00     0.031 A 
BRANCH  49  63
ATOM     63  C   UNL A   1      36.757  31.701  29.372  1.00  0.00    -0.014 A 
ATOM     64  C   UNL A   1      35.555  31.003  29.173  1.00  0.00     0.009 A 
ATOM     65  C   UNL A   1      36.938  32.939  28.736  1.00  0.00     0.009 A 
ATOM     66  C   UNL A   1      34.569  31.521  28.331  1.00  0.00     0.001 A 
ATOM     67  C   UNL A   1      35.942  33.465  27.912  1.00  0.00     0.001 A 
ATOM     68  C   UNL A   1      34.762  32.752  27.704  1.00  0.00     0.000 A 
ENDBRANCH  49  63
BRANCH  50  69
ATOM     69  C   UNL A   1      44.114  27.936  34.941  1.00  0.00    -0.014 A 
ATOM     70  C   UNL A   1      45.403  28.485  34.862  1.00  0.00     0.009 A 
ATOM     71  C   UNL A   1      43.888  26.856  35.810  1.00  0.00     0.009 A 
ATOM     72  C   UNL A   1      46.447  27.948  35.619  1.00  0.00     0.001 A 
ATOM     73  C   UNL A   1      44.928  26.339  36.584  1.00  0.00     0.001 A 
ATOM     74  C   UNL A   1      46.208  26.878  36.481  1.00  0.00     0.000 A 
ENDBRANCH  50  69
BRANCH  62  75
ATOM     75  C   UNL A   1      39.062  32.566  36.148  1.00  0.00    -0.014 A 
ATOM     76  C   UNL A   1      39.568  33.857  36.365  1.00  0.00     0.009 A 
ATOM     77  C   UNL A   1      38.150  32.027  37.069  1.00  0.00     0.009 A 
ATOM     78  C   UNL A   1      39.189  34.580  37.498  1.00  0.00     0.001 A 
ATOM     79  C   UNL A   1      37.753  32.763  38.187  1.00  0.00     0.001 A 
ATOM     80  C   UNL A   1      38.279  34.036  38.404  1.00  0.00     0.000 A 
ENDBRANCH  62  75
ENDBRANCH  36  37
ENDBRANCH  29  31
ENDBRANCH  28  29
ENDBRANCH  27  28
ENDBRANCH  26  27
ENDBRANCH  25  26
ENDBRANCH   1  25
TORSDOF 18
ENDMDL
