MODEL 1
REMARK VINA RESULT:      -8.4      0.000      0.000
REMARK SMILES Nc1ccc(O)c(C(=O)OCCOCCOC(=O)c2ccc(-c3c4nc(c(-c5ccccc5)c5ccc([nH]5)c(-c5ccccc5)c5nc(c(-c6ccccc6)c6ccc3[nH]6)C=C5)C=C4)cc2)c1
REMARK SMILES IDX 14 1 13 2 12 3 11 4 10 5 8 6 9 7 7 8 2 9 3 10 67 11 4 12
REMARK SMILES IDX 5 13 1 14 6 17 15 19 16 20 17 21 18 22 19 23 20 24 66 25
REMARK SMILES IDX 21 26 65 27 22 28 23 29 24 30 59 31 25 32 64 33 58 34 60 35
REMARK SMILES IDX 26 36 63 37 57 38 56 39 27 41 49 42 34 43 48 44 35 45 38 46
REMARK SMILES IDX 47 47 61 48 36 49 37 50 46 52 62 53 39 54 28 55 29 56 33 57
REMARK SMILES IDX 30 58 32 59 31 60 50 61 51 62 55 63 52 64 54 65 53 66 40 67
REMARK SMILES IDX 41 68 45 69 42 70 44 71 43 72
REMARK H PARENT 1 15 1 16 6 18 60 40 38 51
REMARK Flexibility Score: inf
ROOT
ATOM      1  C   UNL A   1      45.230  18.684  25.356  1.00  0.00     0.202 C 
ENDROOT
BRANCH   1   2
ATOM      2  O   UNL A   1      46.000  19.739  24.774  1.00  0.00    -0.374 OA
BRANCH   2   3
ATOM      3  C   UNL A   1      45.330  20.982  24.566  1.00  0.00     0.202 C 
BRANCH   3   4
ATOM      4  C   UNL A   1      45.804  22.142  25.447  1.00  0.00     0.261 C 
BRANCH   4   5
ATOM      5  O   UNL A   1      45.270  23.397  24.988  1.00  0.00    -0.460 OA
BRANCH   5   6
ATOM      6  C   UNL A   1      46.198  24.337  24.687  1.00  0.00     0.342 C 
ATOM      7  O   UNL A   1      47.155  24.205  23.937  1.00  0.00    -0.246 OA
BRANCH   6   8
ATOM      8  C   UNL A   1      45.821  25.660  25.228  1.00  0.00     0.103 A 
ATOM      9  C   UNL A   1      44.173  27.359  25.784  1.00  0.00     0.032 A 
ATOM     10  C   UNL A   1      45.211  28.207  26.186  1.00  0.00     0.029 A 
ATOM     11  C   UNL A   1      44.488  26.096  25.270  1.00  0.00     0.045 A 
ATOM     12  C   UNL A   1      46.540  27.787  26.132  1.00  0.00     0.049 A 
ATOM     13  C   UNL A   1      46.842  26.515  25.663  1.00  0.00     0.130 A 
BRANCH   9  14
ATOM     14  N   UNL A   1      42.866  27.820  25.778  1.00  0.00    -0.399 N 
ATOM     15  H   UNL A   1      42.561  28.426  25.063  1.00  0.00     0.156 HD
ATOM     16  H   UNL A   1      42.243  27.544  26.488  1.00  0.00     0.156 HD
ENDBRANCH   9  14
BRANCH  13  17
ATOM     17  O   UNL A   1      48.171  26.184  25.627  1.00  0.00    -0.507 OA
ATOM     18  H   UNL A   1      48.726  26.388  26.354  1.00  0.00     0.293 HD
ENDBRANCH  13  17
ENDBRANCH   6   8
ENDBRANCH   5   6
ENDBRANCH   4   5
ENDBRANCH   3   4
ENDBRANCH   2   3
ENDBRANCH   1   2
BRANCH   1  19
ATOM     19  C   UNL A   1      43.726  18.722  25.062  1.00  0.00     0.261 C 
BRANCH  19  20
ATOM     20  O   UNL A   1      42.963  18.963  26.260  1.00  0.00    -0.460 OA
BRANCH  20  21
ATOM     21  C   UNL A   1      41.784  19.596  26.070  1.00  0.00     0.338 C 
ATOM     22  O   UNL A   1      40.751  19.123  25.616  1.00  0.00    -0.246 OA
BRANCH  21  23
ATOM     23  C   UNL A   1      41.838  20.946  26.663  1.00  0.00     0.060 A 
ATOM     24  C   UNL A   1      42.035  22.025  25.792  1.00  0.00     0.016 A 
ATOM     25  C   UNL A   1      41.757  21.154  28.043  1.00  0.00     0.016 A 
ATOM     26  C   UNL A   1      42.206  23.311  26.300  1.00  0.00     0.010 A 
ATOM     27  C   UNL A   1      41.937  22.445  28.551  1.00  0.00     0.010 A 
ATOM     28  C   UNL A   1      42.197  23.522  27.685  1.00  0.00    -0.014 A 
BRANCH  28  29
ATOM     29  C   UNL A   1      42.601  24.843  28.226  1.00  0.00     0.031 A 
ATOM     30  C   UNL A   1      41.556  25.911  28.397  1.00  0.00     0.074 A 
ATOM     31  C   UNL A   1      43.873  25.079  28.592  1.00  0.00     0.049 A 
ATOM     32  N   UNL A   1      41.690  27.139  28.833  1.00  0.00    -0.248 NA
ATOM     33  C   UNL A   1      40.177  25.548  28.032  1.00  0.00     0.031 C 
ATOM     34  C   UNL A   1      44.969  24.114  28.519  1.00  0.00     0.029 A 
ATOM     35  N   UNL A   1      44.455  26.213  29.099  1.00  0.00    -0.354 N 
ATOM     36  C   UNL A   1      40.417  27.694  28.791  1.00  0.00     0.074 A 
ATOM     37  C   UNL A   1      39.529  26.682  28.261  1.00  0.00     0.031 C 
ATOM     38  C   UNL A   1      46.096  24.701  28.960  1.00  0.00     0.029 A 
ATOM     39  C   UNL A   1      45.805  26.088  29.317  1.00  0.00     0.049 A 
ATOM     40  H   UNL A   1      43.952  27.038  29.288  1.00  0.00     0.167 HD
ATOM     41  C   UNL A   1      40.020  28.933  29.166  1.00  0.00     0.031 A 
ATOM     42  C   UNL A   1      46.706  26.996  29.738  1.00  0.00     0.031 A 
ATOM     43  C   UNL A   1      40.900  29.946  29.680  1.00  0.00     0.049 A 
ATOM     44  C   UNL A   1      46.252  28.392  30.071  1.00  0.00     0.074 A 
ATOM     45  C   UNL A   1      40.587  31.230  30.095  1.00  0.00     0.029 A 
ATOM     46  N   UNL A   1      42.266  29.792  29.847  1.00  0.00    -0.354 N 
ATOM     47  N   UNL A   1      45.043  28.897  30.048  1.00  0.00    -0.248 NA
ATOM     48  C   UNL A   1      47.291  29.342  30.497  1.00  0.00     0.031 C 
ATOM     49  C   UNL A   1      41.774  31.870  30.466  1.00  0.00     0.029 A 
ATOM     50  C   UNL A   1      42.816  30.966  30.334  1.00  0.00     0.049 A 
ATOM     51  H   UNL A   1      42.771  28.971  29.648  1.00  0.00     0.167 HD
ATOM     52  C   UNL A   1      45.170  30.211  30.480  1.00  0.00     0.074 A 
ATOM     53  C   UNL A   1      46.573  30.421  30.774  1.00  0.00     0.031 C 
ATOM     54  C   UNL A   1      44.213  31.159  30.624  1.00  0.00     0.031 A 
BRANCH  41  55
ATOM     55  C   UNL A   1      38.565  29.271  29.004  1.00  0.00    -0.014 A 
ATOM     56  C   UNL A   1      37.681  29.218  30.093  1.00  0.00     0.009 A 
ATOM     57  C   UNL A   1      38.081  29.690  27.755  1.00  0.00     0.009 A 
ATOM     58  C   UNL A   1      36.335  29.553  29.928  1.00  0.00     0.001 A 
ATOM     59  C   UNL A   1      36.741  30.048  27.598  1.00  0.00     0.001 A 
ATOM     60  C   UNL A   1      35.868  29.972  28.682  1.00  0.00     0.000 A 
ENDBRANCH  41  55
BRANCH  42  61
ATOM     61  C   UNL A   1      48.142  26.629  29.846  1.00  0.00    -0.014 A 
ATOM     62  C   UNL A   1      49.032  26.895  28.795  1.00  0.00     0.009 A 
ATOM     63  C   UNL A   1      48.622  25.973  30.991  1.00  0.00     0.009 A 
ATOM     64  C   UNL A   1      50.366  26.488  28.877  1.00  0.00     0.001 A 
ATOM     65  C   UNL A   1      49.963  25.592  31.082  1.00  0.00     0.001 A 
ATOM     66  C   UNL A   1      50.831  25.841  30.021  1.00  0.00     0.000 A 
ENDBRANCH  42  61
BRANCH  54  67
ATOM     67  C   UNL A   1      44.641  32.498  31.156  1.00  0.00    -0.014 A 
ATOM     68  C   UNL A   1      44.683  32.755  32.535  1.00  0.00     0.009 A 
ATOM     69  C   UNL A   1      45.048  33.501  30.263  1.00  0.00     0.009 A 
ATOM     70  C   UNL A   1      45.094  34.003  33.006  1.00  0.00     0.001 A 
ATOM     71  C   UNL A   1      45.486  34.738  30.738  1.00  0.00     0.001 A 
ATOM     72  C   UNL A   1      45.499  34.991  32.109  1.00  0.00     0.000 A 
ENDBRANCH  54  67
ENDBRANCH  28  29
ENDBRANCH  21  23
ENDBRANCH  20  21
ENDBRANCH  19  20
ENDBRANCH   1  19
TORSDOF 16
ENDMDL
MODEL 2
REMARK VINA RESULT:      -8.2      0.613      6.264
REMARK SMILES Nc1ccc(O)c(C(=O)OCCOCCOC(=O)c2ccc(-c3c4nc(c(-c5ccccc5)c5ccc([nH]5)c(-c5ccccc5)c5nc(c(-c6ccccc6)c6ccc3[nH]6)C=C5)C=C4)cc2)c1
REMARK SMILES IDX 14 1 13 2 12 3 11 4 10 5 8 6 9 7 7 8 2 9 3 10 67 11 4 12
REMARK SMILES IDX 5 13 1 14 6 17 15 19 16 20 17 21 18 22 19 23 20 24 66 25
REMARK SMILES IDX 21 26 65 27 22 28 23 29 24 30 59 31 25 32 64 33 58 34 60 35
REMARK SMILES IDX 26 36 63 37 57 38 56 39 27 41 49 42 34 43 48 44 35 45 38 46
REMARK SMILES IDX 47 47 61 48 36 49 37 50 46 52 62 53 39 54 28 55 29 56 33 57
REMARK SMILES IDX 30 58 32 59 31 60 50 61 51 62 55 63 52 64 54 65 53 66 40 67
REMARK SMILES IDX 41 68 45 69 42 70 44 71 43 72
REMARK H PARENT 1 15 1 16 6 18 60 40 38 51
REMARK Flexibility Score: inf
ROOT
ATOM      1  C   UNL A   1      45.812  19.026  25.361  1.00  0.00     0.202 C 
ENDROOT
BRANCH   1   2
ATOM      2  O   UNL A   1      46.603  20.108  24.860  1.00  0.00    -0.374 OA
BRANCH   2   3
ATOM      3  C   UNL A   1      45.927  21.346  24.641  1.00  0.00     0.202 C 
BRANCH   3   4
ATOM      4  C   UNL A   1      45.803  22.255  25.867  1.00  0.00     0.261 C 
BRANCH   4   5
ATOM      5  O   UNL A   1      46.816  23.278  25.863  1.00  0.00    -0.460 OA
BRANCH   5   6
ATOM      6  C   UNL A   1      46.696  24.195  24.872  1.00  0.00     0.342 C 
ATOM      7  O   UNL A   1      46.957  24.031  23.689  1.00  0.00    -0.246 OA
BRANCH   6   8
ATOM      8  C   UNL A   1      46.004  25.413  25.345  1.00  0.00     0.103 A 
ATOM      9  C   UNL A   1      44.024  26.806  25.567  1.00  0.00     0.032 A 
ATOM     10  C   UNL A   1      44.803  27.779  26.202  1.00  0.00     0.029 A 
ATOM     11  C   UNL A   1      44.640  25.636  25.108  1.00  0.00     0.045 A 
ATOM     12  C   UNL A   1      46.165  27.572  26.428  1.00  0.00     0.049 A 
ATOM     13  C   UNL A   1      46.760  26.389  26.010  1.00  0.00     0.130 A 
BRANCH   9  14
ATOM     14  N   UNL A   1      42.691  27.061  25.289  1.00  0.00    -0.399 N 
ATOM     15  H   UNL A   1      42.449  27.720  24.597  1.00  0.00     0.156 HD
ATOM     16  H   UNL A   1      41.985  26.585  25.782  1.00  0.00     0.156 HD
ENDBRANCH   9  14
BRANCH  13  17
ATOM     17  O   UNL A   1      48.102  26.268  26.254  1.00  0.00    -0.507 OA
ATOM     18  H   UNL A   1      48.444  26.472  27.102  1.00  0.00     0.293 HD
ENDBRANCH  13  17
ENDBRANCH   6   8
ENDBRANCH   5   6
ENDBRANCH   4   5
ENDBRANCH   3   4
ENDBRANCH   2   3
ENDBRANCH   1   2
BRANCH   1  19
ATOM     19  C   UNL A   1      44.327  19.062  24.987  1.00  0.00     0.261 C 
BRANCH  19  20
ATOM     20  O   UNL A   1      43.491  19.081  26.160  1.00  0.00    -0.460 OA
BRANCH  20  21
ATOM     21  C   UNL A   1      42.247  19.574  25.969  1.00  0.00     0.338 C 
ATOM     22  O   UNL A   1      41.282  18.992  25.493  1.00  0.00    -0.246 OA
BRANCH  21  23
ATOM     23  C   UNL A   1      42.134  20.907  26.591  1.00  0.00     0.060 A 
ATOM     24  C   UNL A   1      42.279  22.023  25.757  1.00  0.00     0.016 A 
ATOM     25  C   UNL A   1      41.949  21.070  27.967  1.00  0.00     0.016 A 
ATOM     26  C   UNL A   1      42.293  23.306  26.300  1.00  0.00     0.010 A 
ATOM     27  C   UNL A   1      41.972  22.359  28.512  1.00  0.00     0.010 A 
ATOM     28  C   UNL A   1      42.179  23.478  27.685  1.00  0.00    -0.014 A 
BRANCH  28  29
ATOM     29  C   UNL A   1      42.420  24.818  28.277  1.00  0.00     0.031 A 
ATOM     30  C   UNL A   1      43.795  25.152  28.785  1.00  0.00     0.074 A 
ATOM     31  C   UNL A   1      41.439  25.736  28.329  1.00  0.00     0.049 A 
ATOM     32  N   UNL A   1      44.224  26.252  29.354  1.00  0.00    -0.248 NA
ATOM     33  C   UNL A   1      44.827  24.113  28.631  1.00  0.00     0.031 C 
ATOM     34  C   UNL A   1      40.078  25.551  27.829  1.00  0.00     0.029 A 
ATOM     35  N   UNL A   1      41.444  27.012  28.833  1.00  0.00    -0.354 N 
ATOM     36  C   UNL A   1      45.568  26.034  29.628  1.00  0.00     0.074 A 
ATOM     37  C   UNL A   1      45.880  24.691  29.191  1.00  0.00     0.031 C 
ATOM     38  C   UNL A   1      39.375  26.675  28.057  1.00  0.00     0.029 A 
ATOM     39  C   UNL A   1      40.227  27.642  28.746  1.00  0.00     0.049 A 
ATOM     40  H   UNL A   1      42.244  27.435  29.221  1.00  0.00     0.167 HD
ATOM     41  C   UNL A   1      46.467  26.879  30.187  1.00  0.00     0.031 A 
ATOM     42  C   UNL A   1      39.841  28.855  29.188  1.00  0.00     0.031 A 
ATOM     43  C   UNL A   1      46.159  28.211  30.635  1.00  0.00     0.049 A 
ATOM     44  C   UNL A   1      40.840  29.743  29.880  1.00  0.00     0.074 A 
ATOM     45  C   UNL A   1      47.007  29.144  31.207  1.00  0.00     0.029 A 
ATOM     46  N   UNL A   1      44.906  28.795  30.565  1.00  0.00    -0.354 N 
ATOM     47  N   UNL A   1      42.113  29.534  30.113  1.00  0.00    -0.248 NA
ATOM     48  C   UNL A   1      40.346  31.041  30.364  1.00  0.00     0.031 C 
ATOM     49  C   UNL A   1      46.252  30.277  31.530  1.00  0.00     0.029 A 
ATOM     50  C   UNL A   1      44.949  30.068  31.107  1.00  0.00     0.049 A 
ATOM     51  H   UNL A   1      44.103  28.369  30.187  1.00  0.00     0.167 HD
ATOM     52  C   UNL A   1      42.577  30.682  30.744  1.00  0.00     0.074 A 
ATOM     53  C   UNL A   1      41.454  31.589  30.844  1.00  0.00     0.031 C 
ATOM     54  C   UNL A   1      43.823  30.961  31.198  1.00  0.00     0.031 A 
BRANCH  41  55
ATOM     55  C   UNL A   1      47.869  26.374  30.372  1.00  0.00    -0.014 A 
ATOM     56  C   UNL A   1      48.260  25.733  31.558  1.00  0.00     0.009 A 
ATOM     57  C   UNL A   1      48.800  26.502  29.329  1.00  0.00     0.009 A 
ATOM     58  C   UNL A   1      49.564  25.254  31.705  1.00  0.00     0.001 A 
ATOM     59  C   UNL A   1      50.094  26.000  29.470  1.00  0.00     0.001 A 
ATOM     60  C   UNL A   1      50.477  25.383  30.659  1.00  0.00     0.000 A 
ENDBRANCH  41  55
BRANCH  42  61
ATOM     61  C   UNL A   1      38.433  29.298  29.017  1.00  0.00    -0.014 A 
ATOM     62  C   UNL A   1      38.000  29.861  27.807  1.00  0.00     0.009 A 
ATOM     63  C   UNL A   1      37.523  29.194  30.082  1.00  0.00     0.009 A 
ATOM     64  C   UNL A   1      36.692  30.335  27.676  1.00  0.00     0.001 A 
ATOM     65  C   UNL A   1      36.209  29.644  29.938  1.00  0.00     0.001 A 
ATOM     66  C   UNL A   1      35.798  30.223  28.740  1.00  0.00     0.000 A 
ENDBRANCH  42  61
BRANCH  54  67
ATOM     67  C   UNL A   1      44.047  32.315  31.810  1.00  0.00    -0.014 A 
ATOM     68  C   UNL A   1      44.407  33.420  31.024  1.00  0.00     0.009 A 
ATOM     69  C   UNL A   1      43.855  32.493  33.188  1.00  0.00     0.009 A 
ATOM     70  C   UNL A   1      44.600  34.671  31.613  1.00  0.00     0.001 A 
ATOM     71  C   UNL A   1      44.021  33.751  33.771  1.00  0.00     0.001 A 
ATOM     72  C   UNL A   1      44.402  34.836  32.984  1.00  0.00     0.000 A 
ENDBRANCH  54  67
ENDBRANCH  28  29
ENDBRANCH  21  23
ENDBRANCH  20  21
ENDBRANCH  19  20
ENDBRANCH   1  19
TORSDOF 16
ENDMDL
MODEL 3
REMARK VINA RESULT:      -8.0      5.968     11.462
REMARK SMILES Nc1ccc(O)c(C(=O)OCCOCCOC(=O)c2ccc(-c3c4nc(c(-c5ccccc5)c5ccc([nH]5)c(-c5ccccc5)c5nc(c(-c6ccccc6)c6ccc3[nH]6)C=C5)C=C4)cc2)c1
REMARK SMILES IDX 14 1 13 2 12 3 11 4 10 5 8 6 9 7 7 8 2 9 3 10 67 11 4 12
REMARK SMILES IDX 5 13 1 14 6 17 15 19 16 20 17 21 18 22 19 23 20 24 66 25
REMARK SMILES IDX 21 26 65 27 22 28 23 29 24 30 59 31 25 32 64 33 58 34 60 35
REMARK SMILES IDX 26 36 63 37 57 38 56 39 27 41 49 42 34 43 48 44 35 45 38 46
REMARK SMILES IDX 47 47 61 48 36 49 37 50 46 52 62 53 39 54 28 55 29 56 33 57
REMARK SMILES IDX 30 58 32 59 31 60 50 61 51 62 55 63 52 64 54 65 53 66 40 67
REMARK SMILES IDX 41 68 45 69 42 70 44 71 43 72
REMARK H PARENT 1 15 1 16 6 18 60 40 38 51
REMARK Flexibility Score: inf
ROOT
ATOM      1  C   UNL A   1      35.136  34.971  33.907  1.00  0.00     0.202 C 
ENDROOT
BRANCH   1   2
ATOM      2  O   UNL A   1      34.890  35.967  32.910  1.00  0.00    -0.374 OA
BRANCH   2   3
ATOM      3  C   UNL A   1      33.610  36.597  32.937  1.00  0.00     0.202 C 
BRANCH   3   4
ATOM      4  C   UNL A   1      32.929  36.765  31.576  1.00  0.00     0.261 C 
BRANCH   4   5
ATOM      5  O   UNL A   1      32.786  35.501  30.905  1.00  0.00    -0.460 OA
BRANCH   5   6
ATOM      6  C   UNL A   1      32.887  35.557  29.554  1.00  0.00     0.342 C 
ATOM      7  O   UNL A   1      32.317  36.343  28.811  1.00  0.00    -0.246 OA
BRANCH   6   8
ATOM      8  C   UNL A   1      33.950  34.659  29.055  1.00  0.00     0.103 A 
ATOM      9  C   UNL A   1      36.279  33.983  28.880  1.00  0.00     0.032 A 
ATOM     10  C   UNL A   1      35.897  32.966  27.998  1.00  0.00     0.029 A 
ATOM     11  C   UNL A   1      35.301  34.852  29.378  1.00  0.00     0.045 A 
ATOM     12  C   UNL A   1      34.557  32.778  27.659  1.00  0.00     0.049 A 
ATOM     13  C   UNL A   1      33.587  33.616  28.193  1.00  0.00     0.130 A 
BRANCH   9  14
ATOM     14  N   UNL A   1      37.621  34.198  29.148  1.00  0.00    -0.399 N 
ATOM     15  H   UNL A   1      38.202  33.441  29.392  1.00  0.00     0.156 HD
ATOM     16  H   UNL A   1      37.994  35.107  29.097  1.00  0.00     0.156 HD
ENDBRANCH   9  14
BRANCH  13  17
ATOM     17  O   UNL A   1      32.297  33.376  27.800  1.00  0.00    -0.507 OA
ATOM     18  H   UNL A   1      32.089  32.597  27.323  1.00  0.00     0.293 HD
ENDBRANCH  13  17
ENDBRANCH   6   8
ENDBRANCH   5   6
ENDBRANCH   4   5
ENDBRANCH   3   4
ENDBRANCH   2   3
ENDBRANCH   1   2
BRANCH   1  19
ATOM     19  C   UNL A   1      34.542  33.587  33.622  1.00  0.00     0.261 C 
BRANCH  19  20
ATOM     20  O   UNL A   1      35.455  32.771  32.863  1.00  0.00    -0.460 OA
BRANCH  20  21
ATOM     21  C   UNL A   1      36.493  32.267  33.568  1.00  0.00     0.338 C 
ATOM     22  O   UNL A   1      36.640  32.275  34.783  1.00  0.00    -0.246 OA
BRANCH  21  23
ATOM     23  C   UNL A   1      37.391  31.514  32.672  1.00  0.00     0.060 A 
ATOM     24  C   UNL A   1      38.550  30.964  33.234  1.00  0.00     0.016 A 
ATOM     25  C   UNL A   1      37.142  31.396  31.302  1.00  0.00     0.016 A 
ATOM     26  C   UNL A   1      39.492  30.338  32.420  1.00  0.00     0.010 A 
ATOM     27  C   UNL A   1      38.093  30.774  30.485  1.00  0.00     0.010 A 
ATOM     28  C   UNL A   1      39.287  30.274  31.036  1.00  0.00    -0.014 A 
BRANCH  28  29
ATOM     29  C   UNL A   1      40.389  29.814  30.155  1.00  0.00     0.031 A 
ATOM     30  C   UNL A   1      41.522  30.755  29.853  1.00  0.00     0.074 A 
ATOM     31  C   UNL A   1      40.399  28.564  29.660  1.00  0.00     0.049 A 
ATOM     32  N   UNL A   1      42.575  30.568  29.096  1.00  0.00    -0.248 NA
ATOM     33  C   UNL A   1      41.464  32.082  30.488  1.00  0.00     0.031 C 
ATOM     34  C   UNL A   1      39.385  27.542  29.915  1.00  0.00     0.029 A 
ATOM     35  N   UNL A   1      41.301  27.945  28.833  1.00  0.00    -0.354 N 
ATOM     36  C   UNL A   1      43.300  31.752  29.162  1.00  0.00     0.074 A 
ATOM     37  C   UNL A   1      42.556  32.661  30.007  1.00  0.00     0.031 C 
ATOM     38  C   UNL A   1      39.719  26.422  29.251  1.00  0.00     0.029 A 
ATOM     39  C   UNL A   1      40.952  26.658  28.502  1.00  0.00     0.049 A 
ATOM     40  H   UNL A   1      42.122  28.381  28.506  1.00  0.00     0.167 HD
ATOM     41  C   UNL A   1      44.483  32.054  28.577  1.00  0.00     0.031 A 
ATOM     42  C   UNL A   1      41.549  25.780  27.674  1.00  0.00     0.031 A 
ATOM     43  C   UNL A   1      45.220  31.160  27.726  1.00  0.00     0.049 A 
ATOM     44  C   UNL A   1      42.822  26.171  26.972  1.00  0.00     0.074 A 
ATOM     45  C   UNL A   1      46.433  31.376  27.094  1.00  0.00     0.029 A 
ATOM     46  N   UNL A   1      44.811  29.882  27.385  1.00  0.00    -0.354 N 
ATOM     47  N   UNL A   1      43.508  27.284  27.059  1.00  0.00    -0.248 NA
ATOM     48  C   UNL A   1      43.406  25.176  26.059  1.00  0.00     0.031 C 
ATOM     49  C   UNL A   1      46.733  30.244  26.329  1.00  0.00     0.029 A 
ATOM     50  C   UNL A   1      45.734  29.305  26.530  1.00  0.00     0.049 A 
ATOM     51  H   UNL A   1      43.985  29.448  27.702  1.00  0.00     0.167 HD
ATOM     52  C   UNL A   1      44.615  27.114  26.238  1.00  0.00     0.074 A 
ATOM     53  C   UNL A   1      44.518  25.785  25.672  1.00  0.00     0.031 C 
ATOM     54  C   UNL A   1      45.625  27.980  25.977  1.00  0.00     0.031 A 
BRANCH  41  55
ATOM     55  C   UNL A   1      45.042  33.428  28.817  1.00  0.00    -0.014 A 
ATOM     56  C   UNL A   1      45.955  33.670  29.856  1.00  0.00     0.009 A 
ATOM     57  C   UNL A   1      44.683  34.485  27.966  1.00  0.00     0.009 A 
ATOM     58  C   UNL A   1      46.477  34.950  30.053  1.00  0.00     0.001 A 
ATOM     59  C   UNL A   1      45.226  35.758  28.151  1.00  0.00     0.001 A 
ATOM     60  C   UNL A   1      46.116  35.990  29.197  1.00  0.00     0.000 A 
ENDBRANCH  41  55
BRANCH  42  61
ATOM     61  C   UNL A   1      40.940  24.445  27.436  1.00  0.00    -0.014 A 
ATOM     62  C   UNL A   1      41.465  23.297  28.049  1.00  0.00     0.009 A 
ATOM     63  C   UNL A   1      39.849  24.309  26.562  1.00  0.00     0.009 A 
ATOM     64  C   UNL A   1      40.928  22.038  27.770  1.00  0.00     0.001 A 
ATOM     65  C   UNL A   1      39.297  23.052  26.306  1.00  0.00     0.001 A 
ATOM     66  C   UNL A   1      39.843  21.917  26.902  1.00  0.00     0.000 A 
ENDBRANCH  42  61
BRANCH  54  67
ATOM     67  C   UNL A   1      46.724  27.505  25.069  1.00  0.00    -0.014 A 
ATOM     68  C   UNL A   1      46.837  27.977  23.752  1.00  0.00     0.009 A 
ATOM     69  C   UNL A   1      47.683  26.603  25.553  1.00  0.00     0.009 A 
ATOM     70  C   UNL A   1      47.873  27.530  22.930  1.00  0.00     0.001 A 
ATOM     71  C   UNL A   1      48.733  26.178  24.738  1.00  0.00     0.001 A 
ATOM     72  C   UNL A   1      48.822  26.635  23.425  1.00  0.00     0.000 A 
ENDBRANCH  54  67
ENDBRANCH  28  29
ENDBRANCH  21  23
ENDBRANCH  20  21
ENDBRANCH  19  20
ENDBRANCH   1  19
TORSDOF 16
ENDMDL
