MODEL 1
REMARK VINA RESULT:     -10.9      0.000      0.000
REMARK SMILES O=C(OCCOCCOC(=O)c1ccc(-c2c3nc(c(-c4ccccc4)c4ccc([nH]4)c(-c4ccccc4)c4nc(c(-c5ccccc5)c5ccc2[nH]5)C=C4)C=C3)cc1)C1=Cc2c(ccc(Cl)c2Cl)O[C@H]1C(F)(F)F
REMARK SMILES IDX 7 1 6 2 5 3 4 4 3 5 2 6 1 7 60 8 61 9 71 10 62 11 70 12
REMARK SMILES IDX 63 13 68 14 64 15 66 16 69 17 65 18 67 19 72 20 73 21 74 22
REMARK SMILES IDX 75 23 8 24 9 25 10 26 11 27 12 28 13 29 59 30 14 31 58 32
REMARK SMILES IDX 15 33 16 34 17 35 52 36 18 37 57 38 51 39 53 40 19 41 56 42
REMARK SMILES IDX 50 43 49 44 20 46 42 47 27 48 41 49 28 50 31 51 40 52 54 53
REMARK SMILES IDX 29 54 30 55 39 57 55 58 32 59 21 60 22 61 26 62 23 63 25 64
REMARK SMILES IDX 24 65 43 66 44 67 48 68 45 69 47 70 46 71 33 72 34 73 38 74
REMARK SMILES IDX 35 75 37 76 36 77
REMARK H PARENT 53 45 31 56
REMARK Flexibility Score: inf
ROOT
ATOM      1  C   UNL A   1      42.591  21.460  26.640  1.00  0.00     0.202 C 
ENDROOT
BRANCH   1   2
ATOM      2  O   UNL A   1      41.320  20.915  26.297  1.00  0.00    -0.374 OA
BRANCH   2   3
ATOM      3  C   UNL A   1      40.224  21.754  26.665  1.00  0.00     0.202 C 
BRANCH   3   4
ATOM      4  C   UNL A   1      39.014  21.525  25.757  1.00  0.00     0.261 C 
BRANCH   4   5
ATOM      5  O   UNL A   1      37.908  22.394  26.070  1.00  0.00    -0.460 OA
BRANCH   5   6
ATOM      6  C   UNL A   1      36.905  22.776  25.242  1.00  0.00     0.338 C 
ATOM      7  O   UNL A   1      37.149  23.567  24.333  1.00  0.00    -0.246 OA
BRANCH   6   8
ATOM      8  C   UNL A   1      35.596  22.081  25.235  1.00  0.00     0.087 C 
ATOM      9  C   UNL A   1      35.342  20.826  25.615  1.00  0.00     0.029 C 
ATOM     10  C   UNL A   1      34.411  22.952  24.858  1.00  0.00     0.316 C 
ATOM     11  C   UNL A   1      34.339  20.111  24.851  1.00  0.00     0.037 A 
ATOM     12  O   UNL A   1      33.172  22.213  24.591  1.00  0.00    -0.475 OA
ATOM     13  C   UNL A   1      33.278  20.868  24.364  1.00  0.00     0.129 A 
ATOM     14  C   UNL A   1      34.473  18.756  24.478  1.00  0.00     0.070 A 
ATOM     15  C   UNL A   1      32.283  20.260  23.607  1.00  0.00     0.049 A 
ATOM     16  C   UNL A   1      33.485  18.157  23.690  1.00  0.00     0.060 A 
ATOM     17  Cl  UNL A   1      35.904  17.860  24.878  1.00  0.00    -0.082 Cl
ATOM     18  C   UNL A   1      32.386  18.908  23.270  1.00  0.00     0.026 A 
ATOM     19  Cl  UNL A   1      33.578  16.506  23.180  1.00  0.00    -0.083 Cl
BRANCH  10  20
ATOM     20  C   UNL A   1      34.136  24.015  25.969  1.00  0.00     0.430 C 
ATOM     21  F   UNL A   1      34.504  23.610  27.210  1.00  0.00    -0.167 F 
ATOM     22  F   UNL A   1      34.784  25.176  25.711  1.00  0.00    -0.167 F 
ATOM     23  F   UNL A   1      32.816  24.319  26.059  1.00  0.00    -0.167 F 
ENDBRANCH  10  20
ENDBRANCH   6   8
ENDBRANCH   5   6
ENDBRANCH   4   5
ENDBRANCH   3   4
ENDBRANCH   2   3
ENDBRANCH   1   2
BRANCH   1  24
ATOM     24  C   UNL A   1      43.424  21.841  25.414  1.00  0.00     0.261 C 
BRANCH  24  25
ATOM     25  O   UNL A   1      42.951  23.060  24.809  1.00  0.00    -0.460 OA
BRANCH  25  26
ATOM     26  C   UNL A   1      43.716  24.162  25.015  1.00  0.00     0.338 C 
ATOM     27  O   UNL A   1      44.806  24.394  24.506  1.00  0.00    -0.246 OA
BRANCH  26  28
ATOM     28  C   UNL A   1      43.024  25.134  25.905  1.00  0.00     0.060 A 
ATOM     29  C   UNL A   1      43.635  26.377  26.137  1.00  0.00     0.016 A 
ATOM     30  C   UNL A   1      41.790  24.856  26.507  1.00  0.00     0.016 A 
ATOM     31  C   UNL A   1      43.038  27.320  26.983  1.00  0.00     0.010 A 
ATOM     32  C   UNL A   1      41.191  25.799  27.352  1.00  0.00     0.010 A 
ATOM     33  C   UNL A   1      41.828  27.023  27.622  1.00  0.00    -0.014 A 
BRANCH  33  34
ATOM     34  C   UNL A   1      41.357  27.856  28.758  1.00  0.00     0.031 A 
ATOM     35  C   UNL A   1      42.100  27.739  30.062  1.00  0.00     0.074 A 
ATOM     36  C   UNL A   1      40.298  28.681  28.669  1.00  0.00     0.049 A 
ATOM     37  N   UNL A   1      41.896  28.354  31.200  1.00  0.00    -0.248 NA
ATOM     38  C   UNL A   1      43.224  26.788  30.083  1.00  0.00     0.031 C 
ATOM     39  C   UNL A   1      39.497  28.916  27.472  1.00  0.00     0.029 A 
ATOM     40  N   UNL A   1      39.716  29.478  29.627  1.00  0.00    -0.354 N 
ATOM     41  C   UNL A   1      42.865  27.865  32.067  1.00  0.00     0.074 A 
ATOM     42  C   UNL A   1      43.626  26.873  31.339  1.00  0.00     0.031 C 
ATOM     43  C   UNL A   1      38.527  29.803  27.765  1.00  0.00     0.029 A 
ATOM     44  C   UNL A   1      38.626  30.181  29.176  1.00  0.00     0.049 A 
ATOM     45  H   UNL A   1      40.049  29.537  30.552  1.00  0.00     0.167 HD
ATOM     46  C   UNL A   1      43.111  28.207  33.353  1.00  0.00     0.031 A 
ATOM     47  C   UNL A   1      37.804  31.029  29.827  1.00  0.00     0.031 A 
ATOM     48  C   UNL A   1      42.331  29.151  34.105  1.00  0.00     0.049 A 
ATOM     49  C   UNL A   1      38.042  31.331  31.288  1.00  0.00     0.074 A 
ATOM     50  C   UNL A   1      42.504  29.565  35.414  1.00  0.00     0.029 A 
ATOM     51  N   UNL A   1      41.212  29.809  33.621  1.00  0.00    -0.354 N 
ATOM     52  N   UNL A   1      38.996  30.909  32.082  1.00  0.00    -0.248 NA
ATOM     53  C   UNL A   1      37.087  32.244  31.938  1.00  0.00     0.031 C 
ATOM     54  C   UNL A   1      41.450  30.423  35.743  1.00  0.00     0.029 A 
ATOM     55  C   UNL A   1      40.666  30.604  34.615  1.00  0.00     0.049 A 
ATOM     56  H   UNL A   1      40.858  29.725  32.706  1.00  0.00     0.167 HD
ATOM     57  C   UNL A   1      38.784  31.538  33.305  1.00  0.00     0.074 A 
ATOM     58  C   UNL A   1      37.613  32.374  33.148  1.00  0.00     0.031 C 
ATOM     59  C   UNL A   1      39.502  31.439  34.451  1.00  0.00     0.031 A 
BRANCH  46  60
ATOM     60  C   UNL A   1      44.250  27.498  34.032  1.00  0.00    -0.014 A 
ATOM     61  C   UNL A   1      44.066  26.258  34.666  1.00  0.00     0.009 A 
ATOM     62  C   UNL A   1      45.518  28.098  34.067  1.00  0.00     0.009 A 
ATOM     63  C   UNL A   1      45.114  25.663  35.372  1.00  0.00     0.001 A 
ATOM     64  C   UNL A   1      46.573  27.483  34.743  1.00  0.00     0.001 A 
ATOM     65  C   UNL A   1      46.366  26.276  35.408  1.00  0.00     0.000 A 
ENDBRANCH  46  60
BRANCH  47  66
ATOM     66  C   UNL A   1      36.674  31.683  29.111  1.00  0.00    -0.014 A 
ATOM     67  C   UNL A   1      36.802  32.995  28.627  1.00  0.00     0.009 A 
ATOM     68  C   UNL A   1      35.448  31.020  28.947  1.00  0.00     0.009 A 
ATOM     69  C   UNL A   1      35.721  33.638  28.019  1.00  0.00     0.001 A 
ATOM     70  C   UNL A   1      34.377  31.656  28.312  1.00  0.00     0.001 A 
ATOM     71  C   UNL A   1      34.511  32.967  27.858  1.00  0.00     0.000 A 
ENDBRANCH  47  66
BRANCH  59  72
ATOM     72  C   UNL A   1      39.088  32.299  35.617  1.00  0.00    -0.014 A 
ATOM     73  C   UNL A   1      39.559  33.611  35.777  1.00  0.00     0.009 A 
ATOM     74  C   UNL A   1      38.163  31.796  36.547  1.00  0.00     0.009 A 
ATOM     75  C   UNL A   1      39.142  34.387  36.863  1.00  0.00     0.001 A 
ATOM     76  C   UNL A   1      37.722  32.583  37.612  1.00  0.00     0.001 A 
ATOM     77  C   UNL A   1      38.220  33.874  37.775  1.00  0.00     0.000 A 
ENDBRANCH  59  72
ENDBRANCH  33  34
ENDBRANCH  26  28
ENDBRANCH  25  26
ENDBRANCH  24  25
ENDBRANCH   1  24
TORSDOF 15
ENDMDL
MODEL 2
REMARK VINA RESULT:     -10.8      6.456     11.965
REMARK SMILES O=C(OCCOCCOC(=O)c1ccc(-c2c3nc(c(-c4ccccc4)c4ccc([nH]4)c(-c4ccccc4)c4nc(c(-c5ccccc5)c5ccc2[nH]5)C=C4)C=C3)cc1)C1=Cc2c(ccc(Cl)c2Cl)O[C@H]1C(F)(F)F
REMARK SMILES IDX 7 1 6 2 5 3 4 4 3 5 2 6 1 7 60 8 61 9 71 10 62 11 70 12
REMARK SMILES IDX 63 13 68 14 64 15 66 16 69 17 65 18 67 19 72 20 73 21 74 22
REMARK SMILES IDX 75 23 8 24 9 25 10 26 11 27 12 28 13 29 59 30 14 31 58 32
REMARK SMILES IDX 15 33 16 34 17 35 52 36 18 37 57 38 51 39 53 40 19 41 56 42
REMARK SMILES IDX 50 43 49 44 20 46 42 47 27 48 41 49 28 50 31 51 40 52 54 53
REMARK SMILES IDX 29 54 30 55 39 57 55 58 32 59 21 60 22 61 26 62 23 63 25 64
REMARK SMILES IDX 24 65 43 66 44 67 48 68 45 69 47 70 46 71 33 72 34 73 38 74
REMARK SMILES IDX 35 75 37 76 36 77
REMARK H PARENT 53 45 31 56
REMARK Flexibility Score: inf
ROOT
ATOM      1  C   UNL A   1      34.234  36.620  32.938  1.00  0.00     0.202 C 
ENDROOT
BRANCH   1   2
ATOM      2  O   UNL A   1      35.202  35.607  33.201  1.00  0.00    -0.374 OA
BRANCH   2   3
ATOM      3  C   UNL A   1      35.015  34.955  34.458  1.00  0.00     0.202 C 
BRANCH   3   4
ATOM      4  C   UNL A   1      35.808  33.649  34.534  1.00  0.00     0.261 C 
BRANCH   4   5
ATOM      5  O   UNL A   1      36.623  33.558  35.718  1.00  0.00    -0.460 OA
BRANCH   5   6
ATOM      6  C   UNL A   1      37.602  32.656  35.973  1.00  0.00     0.338 C 
ATOM      7  O   UNL A   1      37.387  31.749  36.774  1.00  0.00    -0.246 OA
BRANCH   6   8
ATOM      8  C   UNL A   1      38.822  32.576  35.134  1.00  0.00     0.087 C 
ATOM      9  C   UNL A   1      38.964  31.939  33.968  1.00  0.00     0.029 C 
ATOM     10  C   UNL A   1      39.990  33.413  35.621  1.00  0.00     0.316 C 
ATOM     11  C   UNL A   1      40.246  31.307  33.729  1.00  0.00     0.037 A 
ATOM     12  O   UNL A   1      41.266  33.127  34.954  1.00  0.00    -0.475 OA
ATOM     13  C   UNL A   1      41.360  31.955  34.254  1.00  0.00     0.129 A 
ATOM     14  C   UNL A   1      40.381  30.035  33.132  1.00  0.00     0.070 A 
ATOM     15  C   UNL A   1      42.625  31.404  34.084  1.00  0.00     0.049 A 
ATOM     16  C   UNL A   1      41.653  29.471  32.992  1.00  0.00     0.060 A 
ATOM     17  Cl  UNL A   1      38.983  29.108  32.686  1.00  0.00    -0.082 Cl
ATOM     18  C   UNL A   1      42.772  30.165  33.454  1.00  0.00     0.026 A 
ATOM     19  Cl  UNL A   1      41.906  27.913  32.281  1.00  0.00    -0.083 Cl
BRANCH  10  20
ATOM     20  C   UNL A   1      39.673  34.935  35.473  1.00  0.00     0.430 C 
ATOM     21  F   UNL A   1      39.025  35.460  36.542  1.00  0.00    -0.167 F 
ATOM     22  F   UNL A   1      40.803  35.658  35.287  1.00  0.00    -0.167 F 
ATOM     23  F   UNL A   1      38.874  35.181  34.403  1.00  0.00    -0.167 F 
ENDBRANCH  10  20
ENDBRANCH   6   8
ENDBRANCH   5   6
ENDBRANCH   4   5
ENDBRANCH   3   4
ENDBRANCH   2   3
ENDBRANCH   1   2
BRANCH   1  24
ATOM     24  C   UNL A   1      33.258  36.233  31.825  1.00  0.00     0.261 C 
BRANCH  24  25
ATOM     25  O   UNL A   1      33.311  34.821  31.539  1.00  0.00    -0.460 OA
BRANCH  25  26
ATOM     26  C   UNL A   1      33.536  34.485  30.243  1.00  0.00     0.338 C 
ATOM     27  O   UNL A   1      32.805  34.734  29.292  1.00  0.00    -0.246 OA
BRANCH  26  28
ATOM     28  C   UNL A   1      34.859  33.821  30.085  1.00  0.00     0.060 A 
ATOM     29  C   UNL A   1      35.302  32.967  31.108  1.00  0.00     0.016 A 
ATOM     30  C   UNL A   1      35.666  34.010  28.956  1.00  0.00     0.016 A 
ATOM     31  C   UNL A   1      36.548  32.334  31.021  1.00  0.00     0.010 A 
ATOM     32  C   UNL A   1      36.912  33.376  28.867  1.00  0.00     0.010 A 
ATOM     33  C   UNL A   1      37.375  32.561  29.914  1.00  0.00    -0.014 A 
BRANCH  33  34
ATOM     34  C   UNL A   1      38.808  32.172  29.958  1.00  0.00     0.031 A 
ATOM     35  C   UNL A   1      39.177  30.809  29.435  1.00  0.00     0.074 A 
ATOM     36  C   UNL A   1      39.766  32.974  30.458  1.00  0.00     0.049 A 
ATOM     37  N   UNL A   1      40.350  30.232  29.358  1.00  0.00    -0.248 NA
ATOM     38  C   UNL A   1      38.063  29.984  28.939  1.00  0.00     0.031 C 
ATOM     39  C   UNL A   1      39.566  34.323  30.977  1.00  0.00     0.029 A 
ATOM     40  N   UNL A   1      41.115  32.750  30.608  1.00  0.00    -0.354 N 
ATOM     41  C   UNL A   1      40.112  28.981  28.804  1.00  0.00     0.074 A 
ATOM     42  C   UNL A   1      38.684  28.865  28.608  1.00  0.00     0.031 C 
ATOM     43  C   UNL A   1      40.752  34.812  31.386  1.00  0.00     0.029 A 
ATOM     44  C   UNL A   1      41.791  33.801  31.178  1.00  0.00     0.049 A 
ATOM     45  H   UNL A   1      41.555  31.913  30.333  1.00  0.00     0.167 HD
ATOM     46  C   UNL A   1      40.997  28.008  28.481  1.00  0.00     0.031 A 
ATOM     47  C   UNL A   1      43.095  33.929  31.496  1.00  0.00     0.031 A 
ATOM     48  C   UNL A   1      42.412  28.086  28.719  1.00  0.00     0.049 A 
ATOM     49  C   UNL A   1      44.054  32.798  31.208  1.00  0.00     0.074 A 
ATOM     50  C   UNL A   1      43.389  27.153  28.424  1.00  0.00     0.029 A 
ATOM     51  N   UNL A   1      43.048  29.152  29.335  1.00  0.00    -0.354 N 
ATOM     52  N   UNL A   1      43.829  31.642  30.631  1.00  0.00    -0.248 NA
ATOM     53  C   UNL A   1      45.456  33.001  31.607  1.00  0.00     0.031 C 
ATOM     54  C   UNL A   1      44.608  27.625  28.922  1.00  0.00     0.029 A 
ATOM     55  C   UNL A   1      44.401  28.887  29.457  1.00  0.00     0.049 A 
ATOM     56  H   UNL A   1      42.603  29.976  29.640  1.00  0.00     0.167 HD
ATOM     57  C   UNL A   1      45.063  31.003  30.557  1.00  0.00     0.074 A 
ATOM     58  C   UNL A   1      46.034  31.902  31.144  1.00  0.00     0.031 C 
ATOM     59  C   UNL A   1      45.365  29.787  30.038  1.00  0.00     0.031 A 
BRANCH  46  60
ATOM     60  C   UNL A   1      40.427  26.752  27.881  1.00  0.00    -0.014 A 
ATOM     61  C   UNL A   1      39.703  25.833  28.660  1.00  0.00     0.009 A 
ATOM     62  C   UNL A   1      40.648  26.468  26.525  1.00  0.00     0.009 A 
ATOM     63  C   UNL A   1      39.266  24.629  28.106  1.00  0.00     0.001 A 
ATOM     64  C   UNL A   1      40.179  25.279  25.966  1.00  0.00     0.001 A 
ATOM     65  C   UNL A   1      39.503  24.354  26.760  1.00  0.00     0.000 A 
ENDBRANCH  46  60
BRANCH  47  66
ATOM     66  C   UNL A   1      43.600  35.187  32.113  1.00  0.00    -0.014 A 
ATOM     67  C   UNL A   1      43.547  35.369  33.504  1.00  0.00     0.009 A 
ATOM     68  C   UNL A   1      44.094  36.230  31.315  1.00  0.00     0.009 A 
ATOM     69  C   UNL A   1      43.952  36.576  34.080  1.00  0.00     0.001 A 
ATOM     70  C   UNL A   1      44.526  37.426  31.896  1.00  0.00     0.001 A 
ATOM     71  C   UNL A   1      44.445  37.602  33.276  1.00  0.00     0.000 A 
ENDBRANCH  47  66
BRANCH  59  72
ATOM     72  C   UNL A   1      46.813  29.370  30.021  1.00  0.00    -0.014 A 
ATOM     73  C   UNL A   1      47.369  28.574  31.035  1.00  0.00     0.009 A 
ATOM     74  C   UNL A   1      47.622  29.744  28.936  1.00  0.00     0.009 A 
ATOM     75  C   UNL A   1      48.713  28.193  30.979  1.00  0.00     0.001 A 
ATOM     76  C   UNL A   1      48.955  29.335  28.865  1.00  0.00     0.001 A 
ATOM     77  C   UNL A   1      49.502  28.569  29.892  1.00  0.00     0.000 A 
ENDBRANCH  59  72
ENDBRANCH  33  34
ENDBRANCH  26  28
ENDBRANCH  25  26
ENDBRANCH  24  25
ENDBRANCH   1  24
TORSDOF 15
ENDMDL
MODEL 3
REMARK VINA RESULT:     -10.8      4.145      5.702
REMARK SMILES O=C(OCCOCCOC(=O)c1ccc(-c2c3nc(c(-c4ccccc4)c4ccc([nH]4)c(-c4ccccc4)c4nc(c(-c5ccccc5)c5ccc2[nH]5)C=C4)C=C3)cc1)C1=Cc2c(ccc(Cl)c2Cl)O[C@H]1C(F)(F)F
REMARK SMILES IDX 7 1 6 2 5 3 4 4 3 5 2 6 1 7 60 8 61 9 71 10 62 11 70 12
REMARK SMILES IDX 63 13 68 14 64 15 66 16 69 17 65 18 67 19 72 20 73 21 74 22
REMARK SMILES IDX 75 23 8 24 9 25 10 26 11 27 12 28 13 29 59 30 14 31 58 32
REMARK SMILES IDX 15 33 16 34 17 35 52 36 18 37 57 38 51 39 53 40 19 41 56 42
REMARK SMILES IDX 50 43 49 44 20 46 42 47 27 48 41 49 28 50 31 51 40 52 54 53
REMARK SMILES IDX 29 54 30 55 39 57 55 58 32 59 21 60 22 61 26 62 23 63 25 64
REMARK SMILES IDX 24 65 43 66 44 67 48 68 45 69 47 70 46 71 33 72 34 73 38 74
REMARK SMILES IDX 35 75 37 76 36 77
REMARK H PARENT 53 45 31 56
REMARK Flexibility Score: inf
ROOT
ATOM      1  C   UNL A   1      37.836  20.858  24.949  1.00  0.00     0.202 C 
ENDROOT
BRANCH   1   2
ATOM      2  O   UNL A   1      37.969  21.693  26.095  1.00  0.00    -0.374 OA
BRANCH   2   3
ATOM      3  C   UNL A   1      38.123  23.077  25.776  1.00  0.00     0.202 C 
BRANCH   3   4
ATOM      4  C   UNL A   1      36.780  23.725  25.435  1.00  0.00     0.261 C 
BRANCH   4   5
ATOM      5  O   UNL A   1      35.745  23.399  26.383  1.00  0.00    -0.460 OA
BRANCH   5   6
ATOM      6  C   UNL A   1      34.406  23.486  26.197  1.00  0.00     0.338 C 
ATOM      7  O   UNL A   1      33.653  22.953  27.010  1.00  0.00    -0.246 OA
BRANCH   6   8
ATOM      8  C   UNL A   1      33.818  24.411  25.199  1.00  0.00     0.087 C 
ATOM      9  C   UNL A   1      34.107  25.703  25.023  1.00  0.00     0.029 C 
ATOM     10  C   UNL A   1      32.869  23.765  24.208  1.00  0.00     0.316 C 
ATOM     11  C   UNL A   1      33.004  26.568  24.656  1.00  0.00     0.037 A 
ATOM     12  O   UNL A   1      32.088  24.712  23.403  1.00  0.00    -0.475 OA
ATOM     13  C   UNL A   1      32.023  26.006  23.843  1.00  0.00     0.129 A 
ATOM     14  C   UNL A   1      32.824  27.862  25.192  1.00  0.00     0.070 A 
ATOM     15  C   UNL A   1      30.923  26.763  23.461  1.00  0.00     0.049 A 
ATOM     16  C   UNL A   1      31.699  28.608  24.828  1.00  0.00     0.060 A 
ATOM     17  Cl  UNL A   1      33.914  28.487  26.389  1.00  0.00    -0.082 Cl
ATOM     18  C   UNL A   1      30.760  28.062  23.952  1.00  0.00     0.026 A 
ATOM     19  Cl  UNL A   1      31.398  30.196  25.447  1.00  0.00    -0.083 Cl
BRANCH  10  20
ATOM     20  C   UNL A   1      33.645  22.807  23.249  1.00  0.00     0.430 C 
ATOM     21  F   UNL A   1      34.841  23.300  22.841  1.00  0.00    -0.167 F 
ATOM     22  F   UNL A   1      33.878  21.607  23.832  1.00  0.00    -0.167 F 
ATOM     23  F   UNL A   1      32.946  22.557  22.112  1.00  0.00    -0.167 F 
ENDBRANCH  10  20
ENDBRANCH   6   8
ENDBRANCH   5   6
ENDBRANCH   4   5
ENDBRANCH   3   4
ENDBRANCH   2   3
ENDBRANCH   1   2
BRANCH   1  24
ATOM     24  C   UNL A   1      38.789  19.660  24.971  1.00  0.00     0.261 C 
BRANCH  24  25
ATOM     25  O   UNL A   1      39.541  19.604  26.200  1.00  0.00    -0.460 OA
BRANCH  25  26
ATOM     26  C   UNL A   1      40.892  19.635  26.073  1.00  0.00     0.338 C 
ATOM     27  O   UNL A   1      41.592  18.768  25.566  1.00  0.00    -0.246 OA
BRANCH  26  28
ATOM     28  C   UNL A   1      41.446  20.925  26.568  1.00  0.00     0.060 A 
ATOM     29  C   UNL A   1      41.397  21.185  27.947  1.00  0.00     0.016 A 
ATOM     30  C   UNL A   1      42.018  21.876  25.713  1.00  0.00     0.016 A 
ATOM     31  C   UNL A   1      41.884  22.391  28.465  1.00  0.00     0.010 A 
ATOM     32  C   UNL A   1      42.507  23.082  26.230  1.00  0.00     0.010 A 
ATOM     33  C   UNL A   1      42.412  23.361  27.605  1.00  0.00    -0.014 A 
BRANCH  33  34
ATOM     34  C   UNL A   1      42.622  24.752  28.083  1.00  0.00     0.031 A 
ATOM     35  C   UNL A   1      44.026  25.161  28.442  1.00  0.00     0.074 A 
ATOM     36  C   UNL A   1      41.617  25.635  28.223  1.00  0.00     0.049 A 
ATOM     37  N   UNL A   1      44.476  26.310  28.879  1.00  0.00    -0.248 NA
ATOM     38  C   UNL A   1      45.059  24.124  28.293  1.00  0.00     0.031 C 
ATOM     39  C   UNL A   1      40.215  25.392  27.896  1.00  0.00     0.029 A 
ATOM     40  N   UNL A   1      41.636  26.929  28.688  1.00  0.00    -0.354 N 
ATOM     41  C   UNL A   1      45.843  26.131  29.055  1.00  0.00     0.074 A 
ATOM     42  C   UNL A   1      46.139  24.755  28.721  1.00  0.00     0.031 C 
ATOM     43  C   UNL A   1      39.507  26.505  28.166  1.00  0.00     0.029 A 
ATOM     44  C   UNL A   1      40.401  27.530  28.706  1.00  0.00     0.049 A 
ATOM     45  H   UNL A   1      42.459  27.383  28.981  1.00  0.00     0.167 HD
ATOM     46  C   UNL A   1      46.777  27.026  29.453  1.00  0.00     0.031 A 
ATOM     47  C   UNL A   1      40.038  28.764  29.113  1.00  0.00     0.031 A 
ATOM     48  C   UNL A   1      46.491  28.380  29.840  1.00  0.00     0.049 A 
ATOM     49  C   UNL A   1      41.082  29.720  29.638  1.00  0.00     0.074 A 
ATOM     50  C   UNL A   1      47.372  29.363  30.256  1.00  0.00     0.029 A 
ATOM     51  N   UNL A   1      45.222  28.934  29.881  1.00  0.00    -0.354 N 
ATOM     52  N   UNL A   1      42.379  29.561  29.744  1.00  0.00    -0.248 NA
ATOM     53  C   UNL A   1      40.606  31.038  30.089  1.00  0.00     0.031 C 
ATOM     54  C   UNL A   1      46.627  30.492  30.613  1.00  0.00     0.029 A 
ATOM     55  C   UNL A   1      45.291  30.237  30.345  1.00  0.00     0.049 A 
ATOM     56  H   UNL A   1      44.393  28.471  29.619  1.00  0.00     0.167 HD
ATOM     57  C   UNL A   1      42.876  30.768  30.227  1.00  0.00     0.074 A 
ATOM     58  C   UNL A   1      41.742  31.652  30.390  1.00  0.00     0.031 C 
ATOM     59  C   UNL A   1      44.159  31.115  30.500  1.00  0.00     0.031 A 
BRANCH  46  60
ATOM     60  C   UNL A   1      48.193  26.528  29.538  1.00  0.00    -0.014 A 
ATOM     61  C   UNL A   1      48.686  25.920  30.706  1.00  0.00     0.009 A 
ATOM     62  C   UNL A   1      49.057  26.701  28.446  1.00  0.00     0.009 A 
ATOM     63  C   UNL A   1      50.030  25.552  30.797  1.00  0.00     0.001 A 
ATOM     64  C   UNL A   1      50.391  26.299  28.528  1.00  0.00     0.001 A 
ATOM     65  C   UNL A   1      50.880  25.740  29.708  1.00  0.00     0.000 A 
ENDBRANCH  46  60
BRANCH  47  66
ATOM     66  C   UNL A   1      38.615  29.195  29.030  1.00  0.00    -0.014 A 
ATOM     67  C   UNL A   1      38.115  29.780  27.855  1.00  0.00     0.009 A 
ATOM     68  C   UNL A   1      37.761  29.069  30.137  1.00  0.00     0.009 A 
ATOM     69  C   UNL A   1      36.801  30.252  27.798  1.00  0.00     0.001 A 
ATOM     70  C   UNL A   1      36.438  29.516  30.067  1.00  0.00     0.001 A 
ATOM     71  C   UNL A   1      35.963  30.117  28.903  1.00  0.00     0.000 A 
ENDBRANCH  47  66
BRANCH  59  72
ATOM     72  C   UNL A   1      44.424  32.529  30.946  1.00  0.00    -0.014 A 
ATOM     73  C   UNL A   1      44.652  33.567  30.030  1.00  0.00     0.009 A 
ATOM     74  C   UNL A   1      44.394  32.834  32.317  1.00  0.00     0.009 A 
ATOM     75  C   UNL A   1      44.880  34.871  30.479  1.00  0.00     0.001 A 
ATOM     76  C   UNL A   1      44.589  34.143  32.762  1.00  0.00     0.001 A 
ATOM     77  C   UNL A   1      44.842  35.158  31.844  1.00  0.00     0.000 A 
ENDBRANCH  59  72
ENDBRANCH  33  34
ENDBRANCH  26  28
ENDBRANCH  25  26
ENDBRANCH  24  25
ENDBRANCH   1  24
TORSDOF 15
ENDMDL
