MODEL 1
REMARK VINA RESULT:     -12.3      0.000      0.000
REMARK SMILES O=C(OCCOCCOC(=O)[C@H](NC(=O)[C@H]1CC[C@@H](CNC(=O)[C@@H]2Cc3ccccc3C[NH2+]2)CC1)c1ccccc1)c1ccc(-c2c3nc(c(-c4ccccc4)c4ccc([nH]4)c(-c4ccccc4)c4nc(c(-c5ccccc5)c5ccc2[nH]5)C=C4)C=C3)cc1
REMARK SMILES IDX 7 1 6 2 5 3 4 4 3 5 2 6 1 7 42 8 43 9 89 10 44 11 88 12
REMARK SMILES IDX 45 13 46 14 47 15 82 16 48 17 87 18 81 19 83 20 49 21 86 22
REMARK SMILES IDX 80 23 79 24 50 26 72 27 57 28 71 29 58 30 61 31 70 32 84 33
REMARK SMILES IDX 59 34 60 35 69 37 85 38 62 39 51 40 52 41 56 42 53 43 55 44
REMARK SMILES IDX 54 45 73 46 74 47 78 48 75 49 77 50 76 51 63 52 64 53 68 54
REMARK SMILES IDX 65 55 67 56 66 57 8 58 9 59 10 60 11 61 12 62 36 63 37 64
REMARK SMILES IDX 41 65 38 66 40 67 39 68 13 69 14 70 15 72 16 73 35 74 17 75
REMARK SMILES IDX 34 76 18 77 19 78 20 79 21 80 22 81 23 83 24 84 25 85 33 86
REMARK SMILES IDX 26 87 32 88 27 91 31 92 28 93 30 94 29 95
REMARK H PARENT 83 25 61 36 13 71 21 82 33 89 33 90
REMARK Flexibility Score: inf
ROOT
ATOM      1  C   UNL A   1      32.213  31.175  26.787  1.00  0.00     0.202 C 
ENDROOT
BRANCH   1   2
ATOM      2  O   UNL A   1      33.025  31.477  27.931  1.00  0.00    -0.374 OA
BRANCH   2   3
ATOM      3  C   UNL A   1      34.044  32.461  27.773  1.00  0.00     0.202 C 
BRANCH   3   4
ATOM      4  C   UNL A   1      35.381  32.250  28.481  1.00  0.00     0.261 C 
BRANCH   4   5
ATOM      5  O   UNL A   1      35.428  30.944  29.105  1.00  0.00    -0.460 OA
BRANCH   5   6
ATOM      6  C   UNL A   1      35.940  29.813  28.551  1.00  0.00     0.338 C 
ATOM      7  O   UNL A   1      35.238  29.048  27.897  1.00  0.00    -0.246 OA
BRANCH   6   8
ATOM      8  C   UNL A   1      37.380  29.539  28.703  1.00  0.00     0.060 A 
ATOM      9  C   UNL A   1      38.241  29.736  27.638  1.00  0.00     0.016 A 
ATOM     10  C   UNL A   1      37.900  29.067  29.901  1.00  0.00     0.016 A 
ATOM     11  C   UNL A   1      39.497  29.222  27.607  1.00  0.00     0.010 A 
ATOM     12  C   UNL A   1      39.256  28.738  29.960  1.00  0.00     0.010 A 
ATOM     13  C   UNL A   1      40.038  28.792  28.795  1.00  0.00    -0.014 A 
BRANCH  13  14
ATOM     14  C   UNL A   1      41.422  28.346  28.706  1.00  0.00     0.031 A 
ATOM     15  C   UNL A   1      42.475  29.334  29.041  1.00  0.00     0.074 A 
ATOM     16  C   UNL A   1      41.669  27.039  28.504  1.00  0.00     0.049 A 
ATOM     17  N   UNL A   1      43.755  29.257  28.841  1.00  0.00    -0.248 NA
ATOM     18  C   UNL A   1      42.025  30.586  29.676  1.00  0.00     0.031 C 
ATOM     19  C   UNL A   1      40.651  25.979  28.398  1.00  0.00     0.029 A 
ATOM     20  N   UNL A   1      42.849  26.368  28.386  1.00  0.00    -0.354 N 
ATOM     21  C   UNL A   1      44.255  30.488  29.232  1.00  0.00     0.074 A 
ATOM     22  C   UNL A   1      43.150  31.280  29.716  1.00  0.00     0.031 C 
ATOM     23  C   UNL A   1      41.257  24.796  28.249  1.00  0.00     0.029 A 
ATOM     24  C   UNL A   1      42.681  25.036  28.099  1.00  0.00     0.049 A 
ATOM     25  H   UNL A   1      43.731  26.794  28.495  1.00  0.00     0.167 HD
ATOM     26  C   UNL A   1      45.534  30.906  29.130  1.00  0.00     0.031 A 
ATOM     27  C   UNL A   1      43.577  24.142  27.654  1.00  0.00     0.031 A 
ATOM     28  C   UNL A   1      46.568  30.048  28.622  1.00  0.00     0.049 A 
ATOM     29  C   UNL A   1      44.970  24.651  27.442  1.00  0.00     0.074 A 
ATOM     30  C   UNL A   1      47.897  30.328  28.386  1.00  0.00     0.029 A 
ATOM     31  N   UNL A   1      46.363  28.715  28.271  1.00  0.00    -0.354 N 
ATOM     32  N   UNL A   1      45.447  25.853  27.680  1.00  0.00    -0.248 NA
ATOM     33  C   UNL A   1      45.940  23.709  26.882  1.00  0.00     0.031 C 
ATOM     34  C   UNL A   1      48.481  29.182  27.835  1.00  0.00     0.029 A 
ATOM     35  C   UNL A   1      47.535  28.162  27.797  1.00  0.00     0.049 A 
ATOM     36  H   UNL A   1      45.507  28.237  28.348  1.00  0.00     0.167 HD
ATOM     37  C   UNL A   1      46.781  25.814  27.315  1.00  0.00     0.074 A 
ATOM     38  C   UNL A   1      47.035  24.460  26.850  1.00  0.00     0.031 C 
ATOM     39  C   UNL A   1      47.713  26.797  27.358  1.00  0.00     0.031 A 
BRANCH  26  40
ATOM     40  C   UNL A   1      45.792  32.354  29.425  1.00  0.00    -0.014 A 
ATOM     41  C   UNL A   1      45.704  33.350  28.438  1.00  0.00     0.009 A 
ATOM     42  C   UNL A   1      46.246  32.711  30.705  1.00  0.00     0.009 A 
ATOM     43  C   UNL A   1      46.124  34.655  28.711  1.00  0.00     0.001 A 
ATOM     44  C   UNL A   1      46.632  34.022  30.985  1.00  0.00     0.001 A 
ATOM     45  C   UNL A   1      46.590  34.989  29.983  1.00  0.00     0.000 A 
ENDBRANCH  26  40
BRANCH  27  46
ATOM     46  C   UNL A   1      43.135  22.774  27.280  1.00  0.00    -0.014 A 
ATOM     47  C   UNL A   1      42.541  21.923  28.220  1.00  0.00     0.009 A 
ATOM     48  C   UNL A   1      43.240  22.334  25.947  1.00  0.00     0.009 A 
ATOM     49  C   UNL A   1      42.071  20.662  27.838  1.00  0.00     0.001 A 
ATOM     50  C   UNL A   1      42.741  21.088  25.560  1.00  0.00     0.001 A 
ATOM     51  C   UNL A   1      42.163  20.250  26.509  1.00  0.00     0.000 A 
ENDBRANCH  27  46
BRANCH  39  52
ATOM     52  C   UNL A   1      49.100  26.415  26.944  1.00  0.00    -0.014 A 
ATOM     53  C   UNL A   1      49.988  25.810  27.843  1.00  0.00     0.009 A 
ATOM     54  C   UNL A   1      49.474  26.578  25.600  1.00  0.00     0.009 A 
ATOM     55  C   UNL A   1      51.239  25.383  27.402  1.00  0.00     0.001 A 
ATOM     56  C   UNL A   1      50.711  26.120  25.157  1.00  0.00     0.001 A 
ATOM     57  C   UNL A   1      51.593  25.527  26.060  1.00  0.00     0.000 A 
ENDBRANCH  39  52
ENDBRANCH  13  14
ENDBRANCH   6   8
ENDBRANCH   5   6
ENDBRANCH   4   5
ENDBRANCH   3   4
ENDBRANCH   2   3
ENDBRANCH   1   2
BRANCH   1  58
ATOM     58  C   UNL A   1      32.873  30.064  25.986  1.00  0.00     0.261 C 
BRANCH  58  59
ATOM     59  O   UNL A   1      31.931  29.651  24.991  1.00  0.00    -0.461 OA
BRANCH  59  60
ATOM     60  C   UNL A   1      32.479  29.123  23.860  1.00  0.00     0.333 C 
ATOM     61  O   UNL A   1      33.632  29.290  23.477  1.00  0.00    -0.249 OA
BRANCH  60  62
ATOM     62  C   UNL A   1      31.465  28.281  23.092  1.00  0.00     0.223 C 
BRANCH  62  63
ATOM     63  C   UNL A   1      30.151  28.906  22.677  1.00  0.00    -0.014 A 
ATOM     64  C   UNL A   1      30.062  30.015  21.819  1.00  0.00     0.006 A 
ATOM     65  C   UNL A   1      28.957  28.339  23.161  1.00  0.00     0.006 A 
ATOM     66  C   UNL A   1      28.816  30.566  21.502  1.00  0.00     0.000 A 
ATOM     67  C   UNL A   1      27.716  28.868  22.814  1.00  0.00     0.000 A 
ATOM     68  C   UNL A   1      27.646  29.988  21.994  1.00  0.00     0.000 A 
ENDBRANCH  62  63
BRANCH  62  69
ATOM     69  N   UNL A   1      32.092  27.544  22.015  1.00  0.00    -0.339 N 
ATOM     70  C   UNL A   1      32.505  26.248  22.111  1.00  0.00     0.224 C 
ATOM     71  H   UNL A   1      32.227  28.009  21.157  1.00  0.00     0.164 HD
ATOM     72  O   UNL A   1      33.145  25.757  21.186  1.00  0.00    -0.275 OA
BRANCH  70  73
ATOM     73  C   UNL A   1      32.144  25.479  23.388  1.00  0.00     0.078 C 
ATOM     74  C   UNL A   1      31.300  24.235  23.040  1.00  0.00     0.014 C 
ATOM     75  C   UNL A   1      33.418  25.150  24.186  1.00  0.00     0.014 C 
ATOM     76  C   UNL A   1      31.047  23.394  24.275  1.00  0.00     0.006 C 
ATOM     77  C   UNL A   1      33.180  24.138  25.305  1.00  0.00     0.006 C 
ATOM     78  C   UNL A   1      32.386  22.917  24.827  1.00  0.00     0.008 C 
BRANCH  78  79
ATOM     79  C   UNL A   1      33.127  22.121  23.732  1.00  0.00     0.119 C 
BRANCH  79  80
ATOM     80  N   UNL A   1      32.998  20.702  23.926  1.00  0.00    -0.351 N 
ATOM     81  C   UNL A   1      33.889  19.866  24.535  1.00  0.00     0.278 C 
ATOM     82  H   UNL A   1      32.175  20.287  23.581  1.00  0.00     0.163 HD
ATOM     83  O   UNL A   1      33.622  18.663  24.593  1.00  0.00    -0.268 OA
BRANCH  81  84
ATOM     84  C   UNL A   1      35.182  20.451  25.141  1.00  0.00     0.277 C 
ATOM     85  C   UNL A   1      35.570  21.774  24.455  1.00  0.00     0.111 C 
ATOM     86  N   UNL A   1      36.249  19.411  25.129  1.00  0.00    -0.332 N 
ATOM     87  C   UNL A   1      36.829  22.276  25.105  1.00  0.00    -0.033 A 
ATOM     88  C   UNL A   1      37.577  19.924  24.773  1.00  0.00     0.298 C 
ATOM     89  H   UNL A   1      35.990  18.694  24.452  1.00  0.00     0.347 HD
ATOM     90  H   UNL A   1      36.317  19.048  26.080  1.00  0.00     0.347 HD
ATOM     91  C   UNL A   1      36.992  23.589  25.551  1.00  0.00     0.004 A 
ATOM     92  C   UNL A   1      37.837  21.318  25.298  1.00  0.00     0.010 A 
ATOM     93  C   UNL A   1      38.173  23.948  26.196  1.00  0.00     0.000 A 
ATOM     94  C   UNL A   1      39.024  21.693  25.924  1.00  0.00     0.010 A 
ATOM     95  C   UNL A   1      39.187  23.004  26.378  1.00  0.00     0.001 A 
ENDBRANCH  81  84
ENDBRANCH  79  80
ENDBRANCH  78  79
ENDBRANCH  70  73
ENDBRANCH  62  69
ENDBRANCH  60  62
ENDBRANCH  59  60
ENDBRANCH  58  59
ENDBRANCH   1  58
TORSDOF 20
ENDMDL
MODEL 2
REMARK VINA RESULT:     -11.8      4.485     10.068
REMARK SMILES O=C(OCCOCCOC(=O)[C@H](NC(=O)[C@H]1CC[C@@H](CNC(=O)[C@@H]2Cc3ccccc3C[NH2+]2)CC1)c1ccccc1)c1ccc(-c2c3nc(c(-c4ccccc4)c4ccc([nH]4)c(-c4ccccc4)c4nc(c(-c5ccccc5)c5ccc2[nH]5)C=C4)C=C3)cc1
REMARK SMILES IDX 7 1 6 2 5 3 4 4 3 5 2 6 1 7 42 8 43 9 89 10 44 11 88 12
REMARK SMILES IDX 45 13 46 14 47 15 82 16 48 17 87 18 81 19 83 20 49 21 86 22
REMARK SMILES IDX 80 23 79 24 50 26 72 27 57 28 71 29 58 30 61 31 70 32 84 33
REMARK SMILES IDX 59 34 60 35 69 37 85 38 62 39 51 40 52 41 56 42 53 43 55 44
REMARK SMILES IDX 54 45 73 46 74 47 78 48 75 49 77 50 76 51 63 52 64 53 68 54
REMARK SMILES IDX 65 55 67 56 66 57 8 58 9 59 10 60 11 61 12 62 36 63 37 64
REMARK SMILES IDX 41 65 38 66 40 67 39 68 13 69 14 70 15 72 16 73 35 74 17 75
REMARK SMILES IDX 34 76 18 77 19 78 20 79 21 80 22 81 23 83 24 84 25 85 33 86
REMARK SMILES IDX 26 87 32 88 27 91 31 92 28 93 30 94 29 95
REMARK H PARENT 83 25 61 36 13 71 21 82 33 89 33 90
REMARK Flexibility Score: inf
ROOT
ATOM      1  C   UNL A   1      39.678  21.861  26.515  1.00  0.00     0.202 C 
ENDROOT
BRANCH   1   2
ATOM      2  O   UNL A   1      40.899  22.055  25.788  1.00  0.00    -0.374 OA
BRANCH   2   3
ATOM      3  C   UNL A   1      42.073  22.352  26.540  1.00  0.00     0.202 C 
BRANCH   3   4
ATOM      4  C   UNL A   1      42.726  23.722  26.366  1.00  0.00     0.261 C 
BRANCH   4   5
ATOM      5  O   UNL A   1      41.829  24.633  25.687  1.00  0.00    -0.460 OA
BRANCH   5   6
ATOM      6  C   UNL A   1      41.935  25.988  25.663  1.00  0.00     0.338 C 
ATOM      7  O   UNL A   1      42.428  26.573  24.705  1.00  0.00    -0.246 OA
BRANCH   6   8
ATOM      8  C   UNL A   1      41.395  26.761  26.796  1.00  0.00     0.060 A 
ATOM      9  C   UNL A   1      41.819  28.059  27.018  1.00  0.00     0.016 A 
ATOM     10  C   UNL A   1      40.468  26.205  27.669  1.00  0.00     0.016 A 
ATOM     11  C   UNL A   1      41.608  28.709  28.191  1.00  0.00     0.010 A 
ATOM     12  C   UNL A   1      40.059  26.951  28.777  1.00  0.00     0.010 A 
ATOM     13  C   UNL A   1      40.661  28.192  29.043  1.00  0.00    -0.014 A 
BRANCH  13  14
ATOM     14  C   UNL A   1      40.415  28.992  30.234  1.00  0.00     0.031 A 
ATOM     15  C   UNL A   1      39.242  29.898  30.212  1.00  0.00     0.074 A 
ATOM     16  C   UNL A   1      41.141  28.747  31.341  1.00  0.00     0.049 A 
ATOM     17  N   UNL A   1      38.933  30.848  31.040  1.00  0.00    -0.248 NA
ATOM     18  C   UNL A   1      38.292  29.717  29.100  1.00  0.00     0.031 C 
ATOM     19  C   UNL A   1      42.162  27.694  31.481  1.00  0.00     0.029 A 
ATOM     20  N   UNL A   1      41.112  29.336  32.569  1.00  0.00    -0.354 N 
ATOM     21  C   UNL A   1      37.809  31.448  30.496  1.00  0.00     0.074 A 
ATOM     22  C   UNL A   1      37.466  30.732  29.290  1.00  0.00     0.031 C 
ATOM     23  C   UNL A   1      42.644  27.707  32.729  1.00  0.00     0.029 A 
ATOM     24  C   UNL A   1      42.078  28.854  33.417  1.00  0.00     0.049 A 
ATOM     25  H   UNL A   1      40.466  30.035  32.822  1.00  0.00     0.167 HD
ATOM     26  C   UNL A   1      37.172  32.540  30.967  1.00  0.00     0.031 A 
ATOM     27  C   UNL A   1      42.524  29.363  34.575  1.00  0.00     0.031 A 
ATOM     28  C   UNL A   1      37.594  33.196  32.174  1.00  0.00     0.049 A 
ATOM     29  C   UNL A   1      41.881  30.638  35.029  1.00  0.00     0.074 A 
ATOM     30  C   UNL A   1      37.111  34.349  32.755  1.00  0.00     0.029 A 
ATOM     31  N   UNL A   1      38.624  32.728  32.987  1.00  0.00    -0.354 N 
ATOM     32  N   UNL A   1      40.898  31.304  34.465  1.00  0.00    -0.248 NA
ATOM     33  C   UNL A   1      42.411  31.248  36.249  1.00  0.00     0.031 C 
ATOM     34  C   UNL A   1      37.890  34.610  33.889  1.00  0.00     0.029 A 
ATOM     35  C   UNL A   1      38.810  33.581  34.056  1.00  0.00     0.049 A 
ATOM     36  H   UNL A   1      39.145  31.909  32.823  1.00  0.00     0.167 HD
ATOM     37  C   UNL A   1      40.675  32.408  35.267  1.00  0.00     0.074 A 
ATOM     38  C   UNL A   1      41.623  32.311  36.365  1.00  0.00     0.031 C 
ATOM     39  C   UNL A   1      39.774  33.411  35.120  1.00  0.00     0.031 A 
BRANCH  26  40
ATOM     40  C   UNL A   1      36.105  33.125  30.090  1.00  0.00    -0.014 A 
ATOM     41  C   UNL A   1      36.402  33.807  28.898  1.00  0.00     0.009 A 
ATOM     42  C   UNL A   1      34.773  33.087  30.531  1.00  0.00     0.009 A 
ATOM     43  C   UNL A   1      35.398  34.489  28.204  1.00  0.00     0.001 A 
ATOM     44  C   UNL A   1      33.766  33.739  29.818  1.00  0.00     0.001 A 
ATOM     45  C   UNL A   1      34.082  34.456  28.666  1.00  0.00     0.000 A 
ENDBRANCH  26  40
BRANCH  27  46
ATOM     46  C   UNL A   1      43.683  28.737  35.262  1.00  0.00    -0.014 A 
ATOM     47  C   UNL A   1      43.496  27.789  36.277  1.00  0.00     0.009 A 
ATOM     48  C   UNL A   1      44.997  29.032  34.852  1.00  0.00     0.009 A 
ATOM     49  C   UNL A   1      44.596  27.160  36.869  1.00  0.00     0.001 A 
ATOM     50  C   UNL A   1      46.091  28.380  35.422  1.00  0.00     0.001 A 
ATOM     51  C   UNL A   1      45.890  27.448  36.436  1.00  0.00     0.000 A 
ENDBRANCH  27  46
BRANCH  39  52
ATOM     52  C   UNL A   1      39.743  34.441  36.206  1.00  0.00    -0.014 A 
ATOM     53  C   UNL A   1      39.123  34.183  37.436  1.00  0.00     0.009 A 
ATOM     54  C   UNL A   1      40.438  35.646  36.016  1.00  0.00     0.009 A 
ATOM     55  C   UNL A   1      39.191  35.127  38.458  1.00  0.00     0.001 A 
ATOM     56  C   UNL A   1      40.531  36.571  37.051  1.00  0.00     0.001 A 
ATOM     57  C   UNL A   1      39.905  36.312  38.269  1.00  0.00     0.000 A 
ENDBRANCH  39  52
ENDBRANCH  13  14
ENDBRANCH   6   8
ENDBRANCH   5   6
ENDBRANCH   4   5
ENDBRANCH   3   4
ENDBRANCH   2   3
ENDBRANCH   1   2
BRANCH   1  58
ATOM     58  C   UNL A   1      38.520  22.421  25.704  1.00  0.00     0.261 C 
BRANCH  58  59
ATOM     59  O   UNL A   1      37.363  21.649  26.040  1.00  0.00    -0.461 OA
BRANCH  59  60
ATOM     60  C   UNL A   1      36.945  20.783  25.075  1.00  0.00     0.333 C 
ATOM     61  O   UNL A   1      37.673  20.108  24.353  1.00  0.00    -0.249 OA
BRANCH  60  62
ATOM     62  C   UNL A   1      35.423  20.749  24.979  1.00  0.00     0.223 C 
BRANCH  62  63
ATOM     63  C   UNL A   1      34.732  19.434  24.686  1.00  0.00    -0.014 A 
ATOM     64  C   UNL A   1      35.392  18.194  24.710  1.00  0.00     0.006 A 
ATOM     65  C   UNL A   1      33.357  19.453  24.389  1.00  0.00     0.006 A 
ATOM     66  C   UNL A   1      34.702  17.020  24.395  1.00  0.00     0.000 A 
ATOM     67  C   UNL A   1      32.663  18.277  24.112  1.00  0.00     0.000 A 
ATOM     68  C   UNL A   1      33.339  17.061  24.104  1.00  0.00     0.000 A 
ENDBRANCH  62  63
BRANCH  62  69
ATOM     69  N   UNL A   1      34.804  21.467  26.073  1.00  0.00    -0.339 N 
ATOM     70  C   UNL A   1      34.093  22.622  25.927  1.00  0.00     0.224 C 
ATOM     71  H   UNL A   1      34.901  21.096  26.981  1.00  0.00     0.164 HD
ATOM     72  O   UNL A   1      33.722  23.223  26.931  1.00  0.00    -0.275 OA
BRANCH  70  73
ATOM     73  C   UNL A   1      33.804  23.104  24.501  1.00  0.00     0.078 C 
ATOM     74  C   UNL A   1      32.296  22.987  24.194  1.00  0.00     0.014 C 
ATOM     75  C   UNL A   1      34.360  24.525  24.299  1.00  0.00     0.014 C 
ATOM     76  C   UNL A   1      31.975  23.582  22.838  1.00  0.00     0.006 C 
ATOM     77  C   UNL A   1      33.859  25.189  23.018  1.00  0.00     0.006 C 
ATOM     78  C   UNL A   1      32.340  25.062  22.852  1.00  0.00     0.008 C 
BRANCH  78  79
ATOM     79  C   UNL A   1      31.560  25.762  23.985  1.00  0.00     0.119 C 
BRANCH  79  80
ATOM     80  N   UNL A   1      30.477  26.557  23.474  1.00  0.00    -0.351 N 
ATOM     81  C   UNL A   1      30.281  27.896  23.644  1.00  0.00     0.278 C 
ATOM     82  H   UNL A   1      29.801  26.081  22.941  1.00  0.00     0.163 HD
ATOM     83  O   UNL A   1      29.276  28.413  23.148  1.00  0.00    -0.268 OA
BRANCH  81  84
ATOM     84  C   UNL A   1      31.324  28.719  24.431  1.00  0.00     0.277 C 
ATOM     85  C   UNL A   1      31.578  28.111  25.823  1.00  0.00     0.111 C 
ATOM     86  N   UNL A   1      30.917  30.152  24.445  1.00  0.00    -0.332 N 
ATOM     87  C   UNL A   1      32.604  28.964  26.515  1.00  0.00    -0.033 A 
ATOM     88  C   UNL A   1      31.146  30.824  25.728  1.00  0.00     0.298 C 
ATOM     89  H   UNL A   1      29.922  30.204  24.228  1.00  0.00     0.347 HD
ATOM     90  H   UNL A   1      31.495  30.629  23.753  1.00  0.00     0.347 HD
ATOM     91  C   UNL A   1      33.729  28.443  27.157  1.00  0.00     0.004 A 
ATOM     92  C   UNL A   1      32.397  30.351  26.433  1.00  0.00     0.010 A 
ATOM     93  C   UNL A   1      34.658  29.316  27.720  1.00  0.00     0.000 A 
ATOM     94  C   UNL A   1      33.320  31.214  27.020  1.00  0.00     0.010 A 
ATOM     95  C   UNL A   1      34.452  30.696  27.656  1.00  0.00     0.001 A 
ENDBRANCH  81  84
ENDBRANCH  79  80
ENDBRANCH  78  79
ENDBRANCH  70  73
ENDBRANCH  62  69
ENDBRANCH  60  62
ENDBRANCH  59  60
ENDBRANCH  58  59
ENDBRANCH   1  58
TORSDOF 20
ENDMDL
MODEL 3
REMARK VINA RESULT:     -11.7      4.053      9.729
REMARK SMILES O=C(OCCOCCOC(=O)[C@H](NC(=O)[C@H]1CC[C@@H](CNC(=O)[C@@H]2Cc3ccccc3C[NH2+]2)CC1)c1ccccc1)c1ccc(-c2c3nc(c(-c4ccccc4)c4ccc([nH]4)c(-c4ccccc4)c4nc(c(-c5ccccc5)c5ccc2[nH]5)C=C4)C=C3)cc1
REMARK SMILES IDX 7 1 6 2 5 3 4 4 3 5 2 6 1 7 42 8 43 9 89 10 44 11 88 12
REMARK SMILES IDX 45 13 46 14 47 15 82 16 48 17 87 18 81 19 83 20 49 21 86 22
REMARK SMILES IDX 80 23 79 24 50 26 72 27 57 28 71 29 58 30 61 31 70 32 84 33
REMARK SMILES IDX 59 34 60 35 69 37 85 38 62 39 51 40 52 41 56 42 53 43 55 44
REMARK SMILES IDX 54 45 73 46 74 47 78 48 75 49 77 50 76 51 63 52 64 53 68 54
REMARK SMILES IDX 65 55 67 56 66 57 8 58 9 59 10 60 11 61 12 62 36 63 37 64
REMARK SMILES IDX 41 65 38 66 40 67 39 68 13 69 14 70 15 72 16 73 35 74 17 75
REMARK SMILES IDX 34 76 18 77 19 78 20 79 21 80 22 81 23 83 24 84 25 85 33 86
REMARK SMILES IDX 26 87 32 88 27 91 31 92 28 93 30 94 29 95
REMARK H PARENT 83 25 61 36 13 71 21 82 33 89 33 90
REMARK Flexibility Score: inf
ROOT
ATOM      1  C   UNL A   1      42.815  20.294  26.283  1.00  0.00     0.202 C 
ENDROOT
BRANCH   1   2
ATOM      2  O   UNL A   1      43.356  20.669  25.008  1.00  0.00    -0.374 OA
BRANCH   2   3
ATOM      3  C   UNL A   1      44.433  21.602  24.999  1.00  0.00     0.202 C 
BRANCH   3   4
ATOM      4  C   UNL A   1      44.310  22.853  24.129  1.00  0.00     0.261 C 
BRANCH   4   5
ATOM      5  O   UNL A   1      43.990  24.009  24.940  1.00  0.00    -0.460 OA
BRANCH   5   6
ATOM      6  C   UNL A   1      44.817  25.055  25.200  1.00  0.00     0.338 C 
ATOM      7  O   UNL A   1      45.911  25.156  24.653  1.00  0.00    -0.246 OA
BRANCH   6   8
ATOM      8  C   UNL A   1      44.356  26.111  26.118  1.00  0.00     0.060 A 
ATOM      9  C   UNL A   1      44.420  25.919  27.487  1.00  0.00     0.016 A 
ATOM     10  C   UNL A   1      43.837  27.307  25.638  1.00  0.00     0.016 A 
ATOM     11  C   UNL A   1      43.743  26.698  28.370  1.00  0.00     0.010 A 
ATOM     12  C   UNL A   1      43.331  28.234  26.552  1.00  0.00     0.010 A 
ATOM     13  C   UNL A   1      43.263  27.903  27.916  1.00  0.00    -0.014 A 
BRANCH  13  14
ATOM     14  C   UNL A   1      42.635  28.730  28.937  1.00  0.00     0.031 A 
ATOM     15  C   UNL A   1      43.488  29.181  30.063  1.00  0.00     0.074 A 
ATOM     16  C   UNL A   1      41.386  29.185  28.725  1.00  0.00     0.049 A 
ATOM     17  N   UNL A   1      43.132  29.733  31.182  1.00  0.00    -0.248 NA
ATOM     18  C   UNL A   1      44.940  28.971  29.913  1.00  0.00     0.031 C 
ATOM     19  C   UNL A   1      40.584  28.953  27.511  1.00  0.00     0.029 A 
ATOM     20  N   UNL A   1      40.583  29.964  29.502  1.00  0.00    -0.354 N 
ATOM     21  C   UNL A   1      44.301  29.846  31.915  1.00  0.00     0.074 A 
ATOM     22  C   UNL A   1      45.383  29.342  31.102  1.00  0.00     0.031 C 
ATOM     23  C   UNL A   1      39.414  29.593  27.625  1.00  0.00     0.029 A 
ATOM     24  C   UNL A   1      39.332  30.143  28.966  1.00  0.00     0.049 A 
ATOM     25  H   UNL A   1      40.870  30.357  30.358  1.00  0.00     0.167 HD
ATOM     26  C   UNL A   1      44.416  30.291  33.184  1.00  0.00     0.031 A 
ATOM     27  C   UNL A   1      38.215  30.603  29.550  1.00  0.00     0.031 A 
ATOM     28  C   UNL A   1      43.277  30.763  33.921  1.00  0.00     0.049 A 
ATOM     29  C   UNL A   1      38.333  30.991  30.992  1.00  0.00     0.074 A 
ATOM     30  C   UNL A   1      43.199  31.182  35.233  1.00  0.00     0.029 A 
ATOM     31  N   UNL A   1      41.998  30.873  33.380  1.00  0.00    -0.354 N 
ATOM     32  N   UNL A   1      39.404  30.985  31.755  1.00  0.00    -0.248 NA
ATOM     33  C   UNL A   1      37.107  31.420  31.665  1.00  0.00     0.031 C 
ATOM     34  C   UNL A   1      41.860  31.488  35.500  1.00  0.00     0.029 A 
ATOM     35  C   UNL A   1      41.115  31.332  34.336  1.00  0.00     0.049 A 
ATOM     36  H   UNL A   1      41.758  30.655  32.451  1.00  0.00     0.167 HD
ATOM     37  C   UNL A   1      38.988  31.425  32.999  1.00  0.00     0.074 A 
ATOM     38  C   UNL A   1      37.566  31.699  32.879  1.00  0.00     0.031 C 
ATOM     39  C   UNL A   1      39.707  31.591  34.137  1.00  0.00     0.031 A 
BRANCH  26  40
ATOM     40  C   UNL A   1      45.756  30.123  33.835  1.00  0.00    -0.014 A 
ATOM     41  C   UNL A   1      46.107  28.963  34.547  1.00  0.00     0.009 A 
ATOM     42  C   UNL A   1      46.650  31.206  33.829  1.00  0.00     0.009 A 
ATOM     43  C   UNL A   1      47.292  28.918  35.287  1.00  0.00     0.001 A 
ATOM     44  C   UNL A   1      47.849  31.146  34.541  1.00  0.00     0.001 A 
ATOM     45  C   UNL A   1      48.161  30.010  35.285  1.00  0.00     0.000 A 
ENDBRANCH  26  40
BRANCH  27  46
ATOM     46  C   UNL A   1      36.928  30.584  28.806  1.00  0.00    -0.014 A 
ATOM     47  C   UNL A   1      36.195  29.400  28.661  1.00  0.00     0.009 A 
ATOM     48  C   UNL A   1      36.385  31.779  28.296  1.00  0.00     0.009 A 
ATOM     49  C   UNL A   1      34.954  29.411  28.015  1.00  0.00     0.001 A 
ATOM     50  C   UNL A   1      35.133  31.793  27.680  1.00  0.00     0.001 A 
ATOM     51  C   UNL A   1      34.421  30.606  27.534  1.00  0.00     0.000 A 
ENDBRANCH  27  46
BRANCH  39  52
ATOM     52  C   UNL A   1      38.968  32.146  35.314  1.00  0.00    -0.014 A 
ATOM     53  C   UNL A   1      38.359  31.305  36.255  1.00  0.00     0.009 A 
ATOM     54  C   UNL A   1      38.976  33.534  35.525  1.00  0.00     0.009 A 
ATOM     55  C   UNL A   1      37.759  31.851  37.388  1.00  0.00     0.001 A 
ATOM     56  C   UNL A   1      38.404  34.072  36.674  1.00  0.00     0.001 A 
ATOM     57  C   UNL A   1      37.793  33.230  37.602  1.00  0.00     0.000 A 
ENDBRANCH  39  52
ENDBRANCH  13  14
ENDBRANCH   6   8
ENDBRANCH   5   6
ENDBRANCH   4   5
ENDBRANCH   3   4
ENDBRANCH   2   3
ENDBRANCH   1   2
BRANCH   1  58
ATOM     58  C   UNL A   1      41.367  19.865  26.104  1.00  0.00     0.261 C 
BRANCH  58  59
ATOM     59  O   UNL A   1      40.641  21.018  25.666  1.00  0.00    -0.461 OA
BRANCH  59  60
ATOM     60  C   UNL A   1      39.289  20.860  25.601  1.00  0.00     0.333 C 
ATOM     61  O   UNL A   1      38.702  19.820  25.322  1.00  0.00    -0.249 OA
BRANCH  60  62
ATOM     62  C   UNL A   1      38.561  22.162  25.916  1.00  0.00     0.223 C 
BRANCH  62  63
ATOM     63  C   UNL A   1      39.296  23.256  26.661  1.00  0.00    -0.014 A 
ATOM     64  C   UNL A   1      39.035  24.624  26.478  1.00  0.00     0.006 A 
ATOM     65  C   UNL A   1      40.280  22.884  27.597  1.00  0.00     0.006 A 
ATOM     66  C   UNL A   1      39.776  25.585  27.173  1.00  0.00     0.000 A 
ATOM     67  C   UNL A   1      40.991  23.843  28.315  1.00  0.00     0.000 A 
ATOM     68  C   UNL A   1      40.746  25.194  28.095  1.00  0.00     0.000 A 
ENDBRANCH  62  63
BRANCH  62  69
ATOM     69  N   UNL A   1      37.845  22.665  24.763  1.00  0.00    -0.339 N 
ATOM     70  C   UNL A   1      36.551  22.351  24.468  1.00  0.00     0.224 C 
ATOM     71  H   UNL A   1      38.322  23.274  24.153  1.00  0.00     0.164 HD
ATOM     72  O   UNL A   1      36.077  22.722  23.398  1.00  0.00    -0.275 OA
BRANCH  70  73
ATOM     73  C   UNL A   1      35.761  21.541  25.504  1.00  0.00     0.078 C 
ATOM     74  C   UNL A   1      35.114  22.484  26.538  1.00  0.00     0.014 C 
ATOM     75  C   UNL A   1      34.749  20.622  24.796  1.00  0.00     0.014 C 
ATOM     76  C   UNL A   1      34.223  21.710  27.489  1.00  0.00     0.006 C 
ATOM     77  C   UNL A   1      33.727  20.008  25.752  1.00  0.00     0.006 C 
ATOM     78  C   UNL A   1      33.106  21.050  26.688  1.00  0.00     0.008 C 
BRANCH  78  79
ATOM     79  C   UNL A   1      32.322  22.139  25.926  1.00  0.00     0.119 C 
BRANCH  79  80
ATOM     80  N   UNL A   1      31.147  22.550  26.644  1.00  0.00    -0.351 N 
ATOM     81  C   UNL A   1      30.509  23.754  26.568  1.00  0.00     0.278 C 
ATOM     82  H   UNL A   1      30.758  21.888  27.259  1.00  0.00     0.163 HD
ATOM     83  O   UNL A   1      29.518  23.941  27.279  1.00  0.00    -0.268 OA
BRANCH  81  84
ATOM     84  C   UNL A   1      31.033  24.827  25.590  1.00  0.00     0.277 C 
ATOM     85  C   UNL A   1      31.687  25.998  26.347  1.00  0.00     0.111 C 
ATOM     86  N   UNL A   1      29.941  25.224  24.658  1.00  0.00    -0.332 N 
ATOM     87  C   UNL A   1      32.173  26.989  25.326  1.00  0.00    -0.033 A 
ATOM     88  C   UNL A   1      29.897  26.662  24.370  1.00  0.00     0.298 C 
ATOM     89  H   UNL A   1      29.050  24.953  25.074  1.00  0.00     0.347 HD
ATOM     90  H   UNL A   1      30.122  24.750  23.773  1.00  0.00     0.347 HD
ATOM     91  C   UNL A   1      33.456  27.540  25.341  1.00  0.00     0.004 A 
ATOM     92  C   UNL A   1      31.267  27.297  24.299  1.00  0.00     0.010 A 
ATOM     93  C   UNL A   1      33.837  28.405  24.319  1.00  0.00     0.000 A 
ATOM     94  C   UNL A   1      31.651  28.183  23.293  1.00  0.00     0.010 A 
ATOM     95  C   UNL A   1      32.937  28.729  23.301  1.00  0.00     0.001 A 
ENDBRANCH  81  84
ENDBRANCH  79  80
ENDBRANCH  78  79
ENDBRANCH  70  73
ENDBRANCH  62  69
ENDBRANCH  60  62
ENDBRANCH  59  60
ENDBRANCH  58  59
ENDBRANCH   1  58
TORSDOF 20
ENDMDL
