MODEL 1
REMARK VINA RESULT:      -9.2      0.000      0.000
REMARK SMILES CCOC(=O)COc1ccc(/C=C/C(=O)OCCOCCOC(=O)c2ccc(-c3c4nc(c(-c5ccccc5)c5ccc([nH]5)c(-c5ccccc5)c5nc(c(-c6ccccc6)c6ccc3[nH]6)C=C5)C=C4)cc2)cc1
REMARK SMILES IDX 17 1 16 2 14 3 15 4 13 5 12 6 11 7 8 8 9 9 74 10 10 11 73 12
REMARK SMILES IDX 7 13 6 14 4 15 5 16 3 17 2 18 1 19 18 20 19 21 20 22 21 23
REMARK SMILES IDX 22 24 23 25 24 26 25 27 26 28 72 29 27 30 71 31 28 32 29 33
REMARK SMILES IDX 30 34 65 35 31 36 70 37 64 38 66 39 32 40 69 41 63 42 62 43
REMARK SMILES IDX 33 45 55 46 40 47 54 48 41 49 44 50 53 51 67 52 42 53 43 54
REMARK SMILES IDX 52 56 68 57 45 58 34 59 35 60 39 61 36 62 38 63 37 64 56 65
REMARK SMILES IDX 57 66 61 67 58 68 60 69 59 70 46 71 47 72 51 73 48 74 50 75
REMARK SMILES IDX 49 76
REMARK H PARENT 66 44 44 55
REMARK Flexibility Score: inf
ROOT
ATOM      1  C   UNL A   1      32.887  36.237  30.610  1.00  0.00     0.261 C 
ENDROOT
BRANCH   1   2
ATOM      2  O   UNL A   1      32.525  35.537  29.408  1.00  0.00    -0.460 OA
BRANCH   2   3
ATOM      3  C   UNL A   1      33.541  35.303  28.544  1.00  0.00     0.330 C 
ATOM      4  O   UNL A   1      34.392  36.104  28.186  1.00  0.00    -0.247 OA
BRANCH   3   5
ATOM      5  C   UNL A   1      33.564  33.904  28.074  1.00  0.00     0.094 C 
ATOM      6  C   UNL A   1      34.552  33.023  28.294  1.00  0.00     0.015 C 
BRANCH   6   7
ATOM      7  C   UNL A   1      34.478  31.635  27.820  1.00  0.00    -0.025 A 
ATOM      8  C   UNL A   1      34.247  29.000  26.847  1.00  0.00     0.120 A 
ATOM      9  C   UNL A   1      35.439  29.436  27.426  1.00  0.00     0.047 A 
ATOM     10  C   UNL A   1      33.164  29.874  26.788  1.00  0.00     0.047 A 
ATOM     11  C   UNL A   1      35.558  30.746  27.903  1.00  0.00     0.012 A 
ATOM     12  C   UNL A   1      33.273  31.176  27.285  1.00  0.00     0.012 A 
BRANCH   8  13
ATOM     13  O   UNL A   1      34.225  27.694  26.443  1.00  0.00    -0.482 OA
BRANCH  13  14
ATOM     14  C   UNL A   1      32.956  27.049  26.467  1.00  0.00     0.351 C 
BRANCH  14  15
ATOM     15  C   UNL A   1      32.403  26.498  25.156  1.00  0.00     0.344 C 
ATOM     16  O   UNL A   1      31.689  27.147  24.400  1.00  0.00    -0.248 OA
BRANCH  15  17
ATOM     17  O   UNL A   1      32.782  25.206  24.956  1.00  0.00    -0.463 OA
BRANCH  17  18
ATOM     18  C   UNL A   1      34.078  25.011  24.371  1.00  0.00     0.229 C 
ATOM     19  C   UNL A   1      35.022  24.408  25.396  1.00  0.00     0.049 C 
ENDBRANCH  17  18
ENDBRANCH  15  17
ENDBRANCH  14  15
ENDBRANCH  13  14
ENDBRANCH   8  13
ENDBRANCH   6   7
ENDBRANCH   3   5
ENDBRANCH   2   3
ENDBRANCH   1   2
BRANCH   1  20
ATOM     20  C   UNL A   1      33.486  35.282  31.642  1.00  0.00     0.202 C 
BRANCH  20  21
ATOM     21  O   UNL A   1      34.470  35.854  32.502  1.00  0.00    -0.374 OA
BRANCH  21  22
ATOM     22  C   UNL A   1      34.930  35.036  33.580  1.00  0.00     0.202 C 
BRANCH  22  23
ATOM     23  C   UNL A   1      34.493  33.566  33.521  1.00  0.00     0.261 C 
BRANCH  23  24
ATOM     24  O   UNL A   1      35.410  32.771  32.744  1.00  0.00    -0.460 OA
BRANCH  24  25
ATOM     25  C   UNL A   1      36.500  32.332  33.414  1.00  0.00     0.338 C 
ATOM     26  O   UNL A   1      36.673  32.313  34.625  1.00  0.00    -0.246 OA
BRANCH  25  27
ATOM     27  C   UNL A   1      37.439  31.692  32.474  1.00  0.00     0.060 A 
ATOM     28  C   UNL A   1      38.517  30.980  33.015  1.00  0.00     0.016 A 
ATOM     29  C   UNL A   1      37.306  31.830  31.091  1.00  0.00     0.016 A 
ATOM     30  C   UNL A   1      39.490  30.438  32.177  1.00  0.00     0.010 A 
ATOM     31  C   UNL A   1      38.287  31.293  30.251  1.00  0.00     0.010 A 
ATOM     32  C   UNL A   1      39.398  30.621  30.791  1.00  0.00    -0.014 A 
BRANCH  32  33
ATOM     33  C   UNL A   1      40.526  30.221  29.915  1.00  0.00     0.031 A 
ATOM     34  C   UNL A   1      40.485  28.882  29.232  1.00  0.00     0.074 A 
ATOM     35  C   UNL A   1      41.571  31.045  29.721  1.00  0.00     0.049 A 
ATOM     36  N   UNL A   1      41.382  28.315  28.466  1.00  0.00    -0.248 NA
ATOM     37  C   UNL A   1      39.271  28.076  29.442  1.00  0.00     0.031 C 
ATOM     38  C   UNL A   1      41.712  32.384  30.291  1.00  0.00     0.029 A 
ATOM     39  N   UNL A   1      42.720  30.864  28.993  1.00  0.00    -0.354 N 
ATOM     40  C   UNL A   1      40.847  27.083  28.111  1.00  0.00     0.074 A 
ATOM     41  C   UNL A   1      39.561  26.975  28.764  1.00  0.00     0.031 C 
ATOM     42  C   UNL A   1      42.888  32.903  29.896  1.00  0.00     0.029 A 
ATOM     43  C   UNL A   1      43.594  31.920  29.078  1.00  0.00     0.049 A 
ATOM     44  H   UNL A   1      42.900  30.056  28.460  1.00  0.00     0.167 HD
ATOM     45  C   UNL A   1      41.377  26.129  27.309  1.00  0.00     0.031 A 
ATOM     46  C   UNL A   1      44.833  32.067  28.570  1.00  0.00     0.031 A 
ATOM     47  C   UNL A   1      42.661  26.228  26.670  1.00  0.00     0.049 A 
ATOM     48  C   UNL A   1      45.433  30.959  27.747  1.00  0.00     0.074 A 
ATOM     49  C   UNL A   1      43.277  25.320  25.825  1.00  0.00     0.029 A 
ATOM     50  N   UNL A   1      43.531  27.298  26.810  1.00  0.00    -0.354 N 
ATOM     51  N   UNL A   1      44.908  29.809  27.399  1.00  0.00    -0.248 NA
ATOM     52  C   UNL A   1      46.797  31.175  27.242  1.00  0.00     0.031 C 
ATOM     53  C   UNL A   1      44.542  25.816  25.497  1.00  0.00     0.029 A 
ATOM     54  C   UNL A   1      44.690  27.060  26.090  1.00  0.00     0.049 A 
ATOM     55  H   UNL A   1      43.351  28.106  27.341  1.00  0.00     0.167 HD
ATOM     56  C   UNL A   1      45.864  29.178  26.613  1.00  0.00     0.074 A 
ATOM     57  C   UNL A   1      46.996  30.078  26.525  1.00  0.00     0.031 C 
ATOM     58  C   UNL A   1      45.809  27.963  26.014  1.00  0.00     0.031 A 
BRANCH  45  59
ATOM     59  C   UNL A   1      40.576  24.873  27.108  1.00  0.00    -0.014 A 
ATOM     60  C   UNL A   1      39.433  24.858  26.294  1.00  0.00     0.009 A 
ATOM     61  C   UNL A   1      40.990  23.679  27.719  1.00  0.00     0.009 A 
ATOM     62  C   UNL A   1      38.704  23.680  26.121  1.00  0.00     0.001 A 
ATOM     63  C   UNL A   1      40.275  22.497  27.523  1.00  0.00     0.001 A 
ATOM     64  C   UNL A   1      39.127  22.501  26.732  1.00  0.00     0.000 A 
ENDBRANCH  45  59
BRANCH  46  65
ATOM     65  C   UNL A   1      45.606  33.307  28.843  1.00  0.00    -0.014 A 
ATOM     66  C   UNL A   1      46.467  33.385  29.947  1.00  0.00     0.009 A 
ATOM     67  C   UNL A   1      45.471  34.426  28.005  1.00  0.00     0.009 A 
ATOM     68  C   UNL A   1      47.161  34.566  30.221  1.00  0.00     0.001 A 
ATOM     69  C   UNL A   1      46.186  35.596  28.266  1.00  0.00     0.001 A 
ATOM     70  C   UNL A   1      47.023  35.668  29.378  1.00  0.00     0.000 A 
ENDBRANCH  46  65
BRANCH  58  71
ATOM     71  C   UNL A   1      46.988  27.552  25.179  1.00  0.00    -0.014 A 
ATOM     72  C   UNL A   1      48.043  26.803  25.724  1.00  0.00     0.009 A 
ATOM     73  C   UNL A   1      47.023  27.884  23.815  1.00  0.00     0.009 A 
ATOM     74  C   UNL A   1      49.124  26.423  24.925  1.00  0.00     0.001 A 
ATOM     75  C   UNL A   1      48.090  27.478  23.013  1.00  0.00     0.001 A 
ATOM     76  C   UNL A   1      49.145  26.756  23.571  1.00  0.00     0.000 A 
ENDBRANCH  58  71
ENDBRANCH  32  33
ENDBRANCH  25  27
ENDBRANCH  24  25
ENDBRANCH  23  24
ENDBRANCH  22  23
ENDBRANCH  21  22
ENDBRANCH  20  21
ENDBRANCH   1  20
TORSDOF 20
ENDMDL
MODEL 2
REMARK VINA RESULT:      -8.8      1.754      8.697
REMARK SMILES CCOC(=O)COc1ccc(/C=C/C(=O)OCCOCCOC(=O)c2ccc(-c3c4nc(c(-c5ccccc5)c5ccc([nH]5)c(-c5ccccc5)c5nc(c(-c6ccccc6)c6ccc3[nH]6)C=C5)C=C4)cc2)cc1
REMARK SMILES IDX 17 1 16 2 14 3 15 4 13 5 12 6 11 7 8 8 9 9 74 10 10 11 73 12
REMARK SMILES IDX 7 13 6 14 4 15 5 16 3 17 2 18 1 19 18 20 19 21 20 22 21 23
REMARK SMILES IDX 22 24 23 25 24 26 25 27 26 28 72 29 27 30 71 31 28 32 29 33
REMARK SMILES IDX 30 34 65 35 31 36 70 37 64 38 66 39 32 40 69 41 63 42 62 43
REMARK SMILES IDX 33 45 55 46 40 47 54 48 41 49 44 50 53 51 67 52 42 53 43 54
REMARK SMILES IDX 52 56 68 57 45 58 34 59 35 60 39 61 36 62 38 63 37 64 56 65
REMARK SMILES IDX 57 66 61 67 58 68 60 69 59 70 46 71 47 72 51 73 48 74 50 75
REMARK SMILES IDX 49 76
REMARK H PARENT 66 44 44 55
REMARK Flexibility Score: inf
ROOT
ATOM      1  C   UNL A   1      33.212  22.354  24.166  1.00  0.00     0.261 C 
ENDROOT
BRANCH   1   2
ATOM      2  O   UNL A   1      32.458  23.553  23.926  1.00  0.00    -0.460 OA
BRANCH   2   3
ATOM      3  C   UNL A   1      33.114  24.529  23.256  1.00  0.00     0.330 C 
ATOM      4  O   UNL A   1      33.712  24.410  22.197  1.00  0.00    -0.247 OA
BRANCH   3   5
ATOM      5  C   UNL A   1      33.005  25.838  23.927  1.00  0.00     0.094 C 
ATOM      6  C   UNL A   1      33.679  26.210  25.028  1.00  0.00     0.015 C 
BRANCH   6   7
ATOM      7  C   UNL A   1      33.538  27.550  25.612  1.00  0.00    -0.025 A 
ATOM      8  C   UNL A   1      33.372  30.113  26.771  1.00  0.00     0.120 A 
ATOM      9  C   UNL A   1      32.479  29.734  25.770  1.00  0.00     0.047 A 
ATOM     10  C   UNL A   1      34.325  29.197  27.212  1.00  0.00     0.047 A 
ATOM     11  C   UNL A   1      32.564  28.463  25.188  1.00  0.00     0.012 A 
ATOM     12  C   UNL A   1      34.397  27.920  26.649  1.00  0.00     0.012 A 
BRANCH   8  13
ATOM     13  O   UNL A   1      33.183  31.362  27.295  1.00  0.00    -0.482 OA
BRANCH  13  14
ATOM     14  C   UNL A   1      34.232  31.867  28.114  1.00  0.00     0.351 C 
BRANCH  14  15
ATOM     15  C   UNL A   1      34.285  33.370  28.372  1.00  0.00     0.344 C 
ATOM     16  O   UNL A   1      34.785  34.171  27.590  1.00  0.00    -0.248 OA
BRANCH  15  17
ATOM     17  O   UNL A   1      33.736  33.691  29.575  1.00  0.00    -0.463 OA
BRANCH  17  18
ATOM     18  C   UNL A   1      34.041  35.000  30.080  1.00  0.00     0.229 C 
ATOM     19  C   UNL A   1      32.786  35.855  30.092  1.00  0.00     0.049 C 
ENDBRANCH  17  18
ENDBRANCH  15  17
ENDBRANCH  14  15
ENDBRANCH  13  14
ENDBRANCH   8  13
ENDBRANCH   6   7
ENDBRANCH   3   5
ENDBRANCH   2   3
ENDBRANCH   1   2
BRANCH   1  20
ATOM     20  C   UNL A   1      34.030  22.469  25.453  1.00  0.00     0.202 C 
BRANCH  20  21
ATOM     21  O   UNL A   1      35.388  22.870  25.277  1.00  0.00    -0.374 OA
BRANCH  21  22
ATOM     22  C   UNL A   1      36.082  22.302  24.164  1.00  0.00     0.202 C 
BRANCH  22  23
ATOM     23  C   UNL A   1      37.143  21.252  24.518  1.00  0.00     0.261 C 
BRANCH  23  24
ATOM     24  O   UNL A   1      37.560  21.362  25.893  1.00  0.00    -0.460 OA
BRANCH  24  25
ATOM     25  C   UNL A   1      38.887  21.206  26.106  1.00  0.00     0.338 C 
ATOM     26  O   UNL A   1      39.584  20.251  25.790  1.00  0.00    -0.246 OA
BRANCH  25  27
ATOM     27  C   UNL A   1      39.456  22.455  26.643  1.00  0.00     0.060 A 
ATOM     28  C   UNL A   1      38.915  23.665  26.188  1.00  0.00     0.016 A 
ATOM     29  C   UNL A   1      40.534  22.452  27.531  1.00  0.00     0.016 A 
ATOM     30  C   UNL A   1      39.478  24.877  26.586  1.00  0.00     0.010 A 
ATOM     31  C   UNL A   1      41.103  23.668  27.922  1.00  0.00     0.010 A 
ATOM     32  C   UNL A   1      40.597  24.884  27.428  1.00  0.00    -0.014 A 
BRANCH  32  33
ATOM     33  C   UNL A   1      41.316  26.154  27.693  1.00  0.00     0.031 A 
ATOM     34  C   UNL A   1      40.660  27.203  28.547  1.00  0.00     0.074 A 
ATOM     35  C   UNL A   1      42.543  26.367  27.186  1.00  0.00     0.049 A 
ATOM     36  N   UNL A   1      41.088  28.399  28.864  1.00  0.00    -0.248 NA
ATOM     37  C   UNL A   1      39.349  26.858  29.120  1.00  0.00     0.031 C 
ATOM     38  C   UNL A   1      43.303  25.414  26.379  1.00  0.00     0.029 A 
ATOM     39  N   UNL A   1      43.360  27.465  27.273  1.00  0.00    -0.354 N 
ATOM     40  C   UNL A   1      40.095  28.953  29.663  1.00  0.00     0.074 A 
ATOM     41  C   UNL A   1      39.035  27.974  29.762  1.00  0.00     0.031 C 
ATOM     42  C   UNL A   1      44.477  25.974  26.036  1.00  0.00     0.029 A 
ATOM     43  C   UNL A   1      44.533  27.333  26.571  1.00  0.00     0.049 A 
ATOM     44  H   UNL A   1      43.129  28.271  27.791  1.00  0.00     0.167 HD
ATOM     45  C   UNL A   1      40.070  30.166  30.264  1.00  0.00     0.031 A 
ATOM     46  C   UNL A   1      45.528  28.217  26.364  1.00  0.00     0.031 A 
ATOM     47  C   UNL A   1      41.116  31.146  30.156  1.00  0.00     0.049 A 
ATOM     48  C   UNL A   1      45.441  29.588  26.977  1.00  0.00     0.074 A 
ATOM     49  C   UNL A   1      41.190  32.399  30.742  1.00  0.00     0.029 A 
ATOM     50  N   UNL A   1      42.271  30.988  29.406  1.00  0.00    -0.354 N 
ATOM     51  N   UNL A   1      44.509  30.091  27.750  1.00  0.00    -0.248 NA
ATOM     52  C   UNL A   1      46.550  30.512  26.694  1.00  0.00     0.031 C 
ATOM     53  C   UNL A   1      42.364  33.019  30.304  1.00  0.00     0.029 A 
ATOM     54  C   UNL A   1      43.049  32.130  29.491  1.00  0.00     0.049 A 
ATOM     55  H   UNL A   1      42.503  30.183  28.890  1.00  0.00     0.167 HD
ATOM     56  C   UNL A   1      44.931  31.377  28.067  1.00  0.00     0.074 A 
ATOM     57  C   UNL A   1      46.209  31.571  27.413  1.00  0.00     0.031 C 
ATOM     58  C   UNL A   1      44.317  32.311  28.834  1.00  0.00     0.031 A 
BRANCH  45  59
ATOM     59  C   UNL A   1      38.849  30.513  31.067  1.00  0.00    -0.014 A 
ATOM     60  C   UNL A   1      38.778  30.243  32.443  1.00  0.00     0.009 A 
ATOM     61  C   UNL A   1      37.764  31.150  30.444  1.00  0.00     0.009 A 
ATOM     62  C   UNL A   1      37.633  30.574  33.170  1.00  0.00     0.001 A 
ATOM     63  C   UNL A   1      36.632  31.504  31.178  1.00  0.00     0.001 A 
ATOM     64  C   UNL A   1      36.563  31.207  32.539  1.00  0.00     0.000 A 
ENDBRANCH  45  59
BRANCH  46  65
ATOM     65  C   UNL A   1      46.690  27.843  25.516  1.00  0.00    -0.014 A 
ATOM     66  C   UNL A   1      47.854  27.313  26.092  1.00  0.00     0.009 A 
ATOM     67  C   UNL A   1      46.645  28.033  24.126  1.00  0.00     0.009 A 
ATOM     68  C   UNL A   1      48.958  27.001  25.294  1.00  0.00     0.001 A 
ATOM     69  C   UNL A   1      47.740  27.696  23.329  1.00  0.00     0.001 A 
ATOM     70  C   UNL A   1      48.898  27.188  23.914  1.00  0.00     0.000 A 
ENDBRANCH  46  65
BRANCH  58  71
ATOM     71  C   UNL A   1      45.037  33.614  29.040  1.00  0.00    -0.014 A 
ATOM     72  C   UNL A   1      45.970  33.777  30.075  1.00  0.00     0.009 A 
ATOM     73  C   UNL A   1      44.805  34.682  28.157  1.00  0.00     0.009 A 
ATOM     74  C   UNL A   1      46.635  34.995  30.240  1.00  0.00     0.001 A 
ATOM     75  C   UNL A   1      45.491  35.887  28.307  1.00  0.00     0.001 A 
ATOM     76  C   UNL A   1      46.399  36.046  29.354  1.00  0.00     0.000 A 
ENDBRANCH  58  71
ENDBRANCH  32  33
ENDBRANCH  25  27
ENDBRANCH  24  25
ENDBRANCH  23  24
ENDBRANCH  22  23
ENDBRANCH  21  22
ENDBRANCH  20  21
ENDBRANCH   1  20
TORSDOF 20
ENDMDL
MODEL 3
REMARK VINA RESULT:      -8.8      3.922      8.556
REMARK SMILES CCOC(=O)COc1ccc(/C=C/C(=O)OCCOCCOC(=O)c2ccc(-c3c4nc(c(-c5ccccc5)c5ccc([nH]5)c(-c5ccccc5)c5nc(c(-c6ccccc6)c6ccc3[nH]6)C=C5)C=C4)cc2)cc1
REMARK SMILES IDX 17 1 16 2 14 3 15 4 13 5 12 6 11 7 8 8 9 9 74 10 10 11 73 12
REMARK SMILES IDX 7 13 6 14 4 15 5 16 3 17 2 18 1 19 18 20 19 21 20 22 21 23
REMARK SMILES IDX 22 24 23 25 24 26 25 27 26 28 72 29 27 30 71 31 28 32 29 33
REMARK SMILES IDX 30 34 65 35 31 36 70 37 64 38 66 39 32 40 69 41 63 42 62 43
REMARK SMILES IDX 33 45 55 46 40 47 54 48 41 49 44 50 53 51 67 52 42 53 43 54
REMARK SMILES IDX 52 56 68 57 45 58 34 59 35 60 39 61 36 62 38 63 37 64 56 65
REMARK SMILES IDX 57 66 61 67 58 68 60 69 59 70 46 71 47 72 51 73 48 74 50 75
REMARK SMILES IDX 49 76
REMARK H PARENT 66 44 44 55
REMARK Flexibility Score: inf
ROOT
ATOM      1  C   UNL A   1      32.204  24.970  24.699  1.00  0.00     0.261 C 
ENDROOT
BRANCH   1   2
ATOM      2  O   UNL A   1      33.537  24.605  25.092  1.00  0.00    -0.460 OA
BRANCH   2   3
ATOM      3  C   UNL A   1      34.377  24.290  24.077  1.00  0.00     0.330 C 
ATOM      4  O   UNL A   1      34.220  24.553  22.894  1.00  0.00    -0.247 OA
BRANCH   3   5
ATOM      5  C   UNL A   1      35.592  23.600  24.551  1.00  0.00     0.094 C 
ATOM      6  C   UNL A   1      36.507  24.116  25.387  1.00  0.00     0.015 C 
BRANCH   6   7
ATOM      7  C   UNL A   1      37.672  23.344  25.839  1.00  0.00    -0.025 A 
ATOM      8  C   UNL A   1      39.895  21.796  26.618  1.00  0.00     0.120 A 
ATOM      9  C   UNL A   1      39.734  23.094  27.103  1.00  0.00     0.047 A 
ATOM     10  C   UNL A   1      38.924  21.266  25.770  1.00  0.00     0.047 A 
ATOM     11  C   UNL A   1      38.635  23.867  26.712  1.00  0.00     0.012 A 
ATOM     12  C   UNL A   1      37.814  22.028  25.396  1.00  0.00     0.012 A 
BRANCH   8  13
ATOM     13  O   UNL A   1      40.984  21.116  27.086  1.00  0.00    -0.482 OA
BRANCH  13  14
ATOM     14  C   UNL A   1      42.073  20.970  26.181  1.00  0.00     0.351 C 
BRANCH  14  15
ATOM     15  C   UNL A   1      42.424  19.565  25.698  1.00  0.00     0.344 C 
ATOM     16  O   UNL A   1      41.867  18.553  26.105  1.00  0.00    -0.248 OA
BRANCH  15  17
ATOM     17  O   UNL A   1      43.438  19.588  24.791  1.00  0.00    -0.463 OA
BRANCH  17  18
ATOM     18  C   UNL A   1      44.729  19.188  25.276  1.00  0.00     0.229 C 
ATOM     19  C   UNL A   1      45.777  20.200  24.848  1.00  0.00     0.049 C 
ENDBRANCH  17  18
ENDBRANCH  15  17
ENDBRANCH  14  15
ENDBRANCH  13  14
ENDBRANCH   8  13
ENDBRANCH   6   7
ENDBRANCH   3   5
ENDBRANCH   2   3
ENDBRANCH   1   2
BRANCH   1  20
ATOM     20  C   UNL A   1      31.795  26.304  25.324  1.00  0.00     0.202 C 
BRANCH  20  21
ATOM     21  O   UNL A   1      31.872  27.433  24.454  1.00  0.00    -0.374 OA
BRANCH  21  22
ATOM     22  C   UNL A   1      31.321  28.657  24.945  1.00  0.00     0.202 C 
BRANCH  22  23
ATOM     23  C   UNL A   1      32.344  29.749  25.281  1.00  0.00     0.261 C 
BRANCH  23  24
ATOM     24  O   UNL A   1      32.496  29.914  26.704  1.00  0.00    -0.460 OA
BRANCH  24  25
ATOM     25  C   UNL A   1      33.040  31.090  27.093  1.00  0.00     0.338 C 
ATOM     26  O   UNL A   1      32.489  32.181  27.151  1.00  0.00    -0.246 OA
BRANCH  25  27
ATOM     27  C   UNL A   1      34.397  30.862  27.622  1.00  0.00     0.060 A 
ATOM     28  C   UNL A   1      34.742  29.552  27.984  1.00  0.00     0.016 A 
ATOM     29  C   UNL A   1      35.299  31.910  27.816  1.00  0.00     0.016 A 
ATOM     30  C   UNL A   1      35.975  29.293  28.581  1.00  0.00     0.010 A 
ATOM     31  C   UNL A   1      36.532  31.650  28.422  1.00  0.00     0.010 A 
ATOM     32  C   UNL A   1      36.863  30.346  28.835  1.00  0.00    -0.014 A 
BRANCH  32  33
ATOM     33  C   UNL A   1      38.083  30.107  29.643  1.00  0.00     0.031 A 
ATOM     34  C   UNL A   1      39.206  29.300  29.054  1.00  0.00     0.074 A 
ATOM     35  C   UNL A   1      38.193  30.611  30.885  1.00  0.00     0.049 A 
ATOM     36  N   UNL A   1      40.337  28.931  29.601  1.00  0.00    -0.248 NA
ATOM     37  C   UNL A   1      39.032  28.849  27.664  1.00  0.00     0.031 C 
ATOM     38  C   UNL A   1      37.195  31.443  31.554  1.00  0.00     0.029 A 
ATOM     39  N   UNL A   1      39.201  30.484  31.808  1.00  0.00    -0.354 N 
ATOM     40  C   UNL A   1      41.003  28.197  28.628  1.00  0.00     0.074 A 
ATOM     41  C   UNL A   1      40.141  28.152  27.467  1.00  0.00     0.031 C 
ATOM     42  C   UNL A   1      37.637  31.747  32.787  1.00  0.00     0.029 A 
ATOM     43  C   UNL A   1      38.931  31.102  33.004  1.00  0.00     0.049 A 
ATOM     44  H   UNL A   1      40.038  29.997  31.629  1.00  0.00     0.167 HD
ATOM     45  C   UNL A   1      42.225  27.616  28.693  1.00  0.00     0.031 A 
ATOM     46  C   UNL A   1      39.636  31.126  34.150  1.00  0.00     0.031 A 
ATOM     47  C   UNL A   1      43.078  27.648  29.850  1.00  0.00     0.049 A 
ATOM     48  C   UNL A   1      40.956  30.406  34.224  1.00  0.00     0.074 A 
ATOM     49  C   UNL A   1      44.341  27.103  30.007  1.00  0.00     0.029 A 
ATOM     50  N   UNL A   1      42.751  28.254  31.054  1.00  0.00    -0.354 N 
ATOM     51  N   UNL A   1      41.586  29.736  33.290  1.00  0.00    -0.248 NA
ATOM     52  C   UNL A   1      41.665  30.454  35.511  1.00  0.00     0.031 C 
ATOM     53  C   UNL A   1      44.756  27.333  31.322  1.00  0.00     0.029 A 
ATOM     54  C   UNL A   1      43.777  28.072  31.966  1.00  0.00     0.049 A 
ATOM     55  H   UNL A   1      41.915  28.742  31.232  1.00  0.00     0.167 HD
ATOM     56  C   UNL A   1      42.774  29.306  33.867  1.00  0.00     0.074 A 
ATOM     57  C   UNL A   1      42.784  29.803  35.228  1.00  0.00     0.031 C 
ATOM     58  C   UNL A   1      43.772  28.570  33.317  1.00  0.00     0.031 A 
BRANCH  45  59
ATOM     59  C   UNL A   1      42.696  26.863  27.482  1.00  0.00    -0.014 A 
ATOM     60  C   UNL A   1      42.440  25.491  27.329  1.00  0.00     0.009 A 
ATOM     61  C   UNL A   1      43.381  27.543  26.462  1.00  0.00     0.009 A 
ATOM     62  C   UNL A   1      42.887  24.811  26.194  1.00  0.00     0.001 A 
ATOM     63  C   UNL A   1      43.803  26.867  25.318  1.00  0.00     0.001 A 
ATOM     64  C   UNL A   1      43.564  25.499  25.189  1.00  0.00     0.000 A 
ENDBRANCH  45  59
BRANCH  46  65
ATOM     65  C   UNL A   1      39.101  31.841  35.338  1.00  0.00    -0.014 A 
ATOM     66  C   UNL A   1      38.294  31.173  36.272  1.00  0.00     0.009 A 
ATOM     67  C   UNL A   1      39.383  33.202  35.534  1.00  0.00     0.009 A 
ATOM     68  C   UNL A   1      37.762  31.860  37.366  1.00  0.00     0.001 A 
ATOM     69  C   UNL A   1      38.871  33.880  36.642  1.00  0.00     0.001 A 
ATOM     70  C   UNL A   1      38.054  33.211  37.552  1.00  0.00     0.000 A 
ENDBRANCH  46  65
BRANCH  58  71
ATOM     71  C   UNL A   1      44.973  28.288  34.175  1.00  0.00    -0.014 A 
ATOM     72  C   UNL A   1      46.068  29.164  34.209  1.00  0.00     0.009 A 
ATOM     73  C   UNL A   1      44.989  27.146  34.993  1.00  0.00     0.009 A 
ATOM     74  C   UNL A   1      47.169  28.887  35.022  1.00  0.00     0.001 A 
ATOM     75  C   UNL A   1      46.077  26.887  35.826  1.00  0.00     0.001 A 
ATOM     76  C   UNL A   1      47.171  27.752  35.833  1.00  0.00     0.000 A 
ENDBRANCH  58  71
ENDBRANCH  32  33
ENDBRANCH  25  27
ENDBRANCH  24  25
ENDBRANCH  23  24
ENDBRANCH  22  23
ENDBRANCH  21  22
ENDBRANCH  20  21
ENDBRANCH   1  20
TORSDOF 20
ENDMDL
