MODEL 1
REMARK VINA RESULT:     -10.7      0.000      0.000
REMARK SMILES C[C@@H]1CC[C@H](C)[N@H+]1Cc1cc2c(cc1Cl)C=C(C(=O)OCCOCCOC(=O)c1ccc(-c3c4nc(c(-c5ccccc5)c5ccc([nH]5)c(-c5ccccc5)c5nc(c(-c6ccccc6)c6ccc3[nH]6)C=C5)C=C4)cc1)[C@@H](C(F)(F)F)O2
REMARK SMILES IDX 23 1 22 2 21 3 20 4 18 5 19 6 17 7 9 8 10 9 14 10 11 11
REMARK SMILES IDX 13 12 15 13 12 14 82 15 16 16 77 17 8 18 7 19 6 20 5 21 4 22
REMARK SMILES IDX 3 23 2 24 1 26 78 27 79 28 80 29 81 30 24 31 25 32 26 33
REMARK SMILES IDX 27 34 28 35 29 36 30 37 76 38 31 39 75 40 32 41 33 42 34 43
REMARK SMILES IDX 69 44 35 45 74 46 68 47 70 48 36 49 73 50 67 51 66 52 37 54
REMARK SMILES IDX 59 55 44 56 58 57 45 58 48 59 57 60 71 61 46 62 47 63 56 65
REMARK SMILES IDX 72 66 49 67 38 68 39 69 43 70 40 71 42 72 41 73 60 74 61 75
REMARK SMILES IDX 65 76 62 77 64 78 63 79 50 80 51 81 55 82 52 83 54 84 53 85
REMARK H PARENT 7 25 70 53 48 64
REMARK Flexibility Score: inf
ROOT
ATOM      1  O   UNL A   1      31.654  30.911  26.894  1.00  0.00    -0.374 OA
ENDROOT
BRANCH   1   2
ATOM      2  C   UNL A   1      31.741  30.115  25.717  1.00  0.00     0.202 C 
BRANCH   2   3
ATOM      3  C   UNL A   1      30.749  30.393  24.583  1.00  0.00     0.261 C 
BRANCH   3   4
ATOM      4  O   UNL A   1      30.174  29.187  24.058  1.00  0.00    -0.460 OA
BRANCH   4   5
ATOM      5  C   UNL A   1      30.567  28.911  22.793  1.00  0.00     0.338 C 
ATOM      6  O   UNL A   1      30.484  29.652  21.825  1.00  0.00    -0.246 OA
BRANCH   5   7
ATOM      7  C   UNL A   1      31.253  27.611  22.738  1.00  0.00     0.087 C 
ATOM      8  C   UNL A   1      32.759  23.048  24.169  1.00  0.00     0.029 A 
ATOM      9  C   UNL A   1      33.238  23.983  23.217  1.00  0.00     0.058 A 
ATOM     10  C   UNL A   1      31.595  23.384  24.882  1.00  0.00     0.050 A 
ATOM     11  C   UNL A   1      32.551  25.174  22.964  1.00  0.00     0.128 A 
ATOM     12  C   UNL A   1      30.841  24.500  24.526  1.00  0.00     0.033 A 
ATOM     13  Cl  UNL A   1      31.089  22.582  26.329  1.00  0.00    -0.084 Cl
ATOM     14  C   UNL A   1      31.323  25.396  23.579  1.00  0.00     0.019 A 
ATOM     15  O   UNL A   1      33.123  26.081  22.110  1.00  0.00    -0.475 OA
ATOM     16  C   UNL A   1      30.593  26.620  23.346  1.00  0.00     0.027 C 
ATOM     17  C   UNL A   1      32.627  27.460  22.151  1.00  0.00     0.316 C 
BRANCH   8  18
ATOM     18  C   UNL A   1      33.523  21.751  24.391  1.00  0.00     0.301 C 
BRANCH  18  19
ATOM     19  N   UNL A   1      34.755  21.819  25.201  1.00  0.00    -0.327 N 
ATOM     20  C   UNL A   1      34.403  22.503  27.552  1.00  0.00     0.075 C 
ATOM     21  C   UNL A   1      34.833  22.937  26.156  1.00  0.00     0.181 C 
ATOM     22  C   UNL A   1      36.293  23.390  26.136  1.00  0.00     0.071 C 
ATOM     23  C   UNL A   1      36.740  23.043  24.734  1.00  0.00     0.071 C 
ATOM     24  C   UNL A   1      36.015  21.736  24.452  1.00  0.00     0.181 C 
ATOM     25  H   UNL A   1      34.655  20.958  25.739  1.00  0.00     0.348 HD
ATOM     26  C   UNL A   1      36.809  20.510  24.903  1.00  0.00     0.075 C 
ENDBRANCH  18  19
ENDBRANCH   8  18
BRANCH  17  27
ATOM     27  C   UNL A   1      33.643  28.375  22.853  1.00  0.00     0.430 C 
ATOM     28  F   UNL A   1      33.892  27.962  24.117  1.00  0.00    -0.167 F 
ATOM     29  F   UNL A   1      34.832  28.374  22.204  1.00  0.00    -0.167 F 
ATOM     30  F   UNL A   1      33.218  29.656  22.916  1.00  0.00    -0.167 F 
ENDBRANCH  17  27
ENDBRANCH   5   7
ENDBRANCH   4   5
ENDBRANCH   3   4
ENDBRANCH   2   3
ENDBRANCH   1   2
BRANCH   1  31
ATOM     31  C   UNL A   1      32.734  31.785  27.218  1.00  0.00     0.202 C 
BRANCH  31  32
ATOM     32  C   UNL A   1      32.518  33.301  27.115  1.00  0.00     0.261 C 
BRANCH  32  33
ATOM     33  O   UNL A   1      32.278  33.926  28.387  1.00  0.00    -0.460 OA
BRANCH  33  34
ATOM     34  C   UNL A   1      33.240  34.794  28.788  1.00  0.00     0.338 C 
ATOM     35  O   UNL A   1      33.110  35.985  29.033  1.00  0.00    -0.246 OA
BRANCH  34  36
ATOM     36  C   UNL A   1      34.469  34.044  29.094  1.00  0.00     0.060 A 
ATOM     37  C   UNL A   1      35.566  34.079  28.235  1.00  0.00     0.016 A 
ATOM     38  C   UNL A   1      34.524  33.323  30.295  1.00  0.00     0.016 A 
ATOM     39  C   UNL A   1      36.733  33.398  28.590  1.00  0.00     0.010 A 
ATOM     40  C   UNL A   1      35.688  32.640  30.644  1.00  0.00     0.010 A 
ATOM     41  C   UNL A   1      36.807  32.685  29.801  1.00  0.00    -0.014 A 
BRANCH  41  42
ATOM     42  C   UNL A   1      38.085  32.071  30.233  1.00  0.00     0.031 A 
ATOM     43  C   UNL A   1      38.523  30.737  29.707  1.00  0.00     0.074 A 
ATOM     44  C   UNL A   1      38.850  32.733  31.122  1.00  0.00     0.049 A 
ATOM     45  N   UNL A   1      39.636  30.089  29.945  1.00  0.00    -0.248 NA
ATOM     46  C   UNL A   1      37.602  30.038  28.798  1.00  0.00     0.031 C 
ATOM     47  C   UNL A   1      38.519  34.033  31.707  1.00  0.00     0.029 A 
ATOM     48  N   UNL A   1      40.067  32.416  31.677  1.00  0.00    -0.354 N 
ATOM     49  C   UNL A   1      39.561  28.920  29.200  1.00  0.00     0.074 A 
ATOM     50  C   UNL A   1      38.271  28.921  28.542  1.00  0.00     0.031 C 
ATOM     51  C   UNL A   1      39.526  34.424  32.502  1.00  0.00     0.029 A 
ATOM     52  C   UNL A   1      40.554  33.385  32.521  1.00  0.00     0.049 A 
ATOM     53  H   UNL A   1      40.543  31.577  31.487  1.00  0.00     0.167 HD
ATOM     54  C   UNL A   1      40.495  27.950  29.063  1.00  0.00     0.031 A 
ATOM     55  C   UNL A   1      41.701  33.438  33.226  1.00  0.00     0.031 A 
ATOM     56  C   UNL A   1      41.767  27.949  29.738  1.00  0.00     0.049 A 
ATOM     57  C   UNL A   1      42.684  32.305  33.116  1.00  0.00     0.074 A 
ATOM     58  C   UNL A   1      42.782  27.013  29.644  1.00  0.00     0.029 A 
ATOM     59  N   UNL A   1      42.198  28.918  30.630  1.00  0.00    -0.354 N 
ATOM     60  N   UNL A   1      42.626  31.236  32.360  1.00  0.00    -0.248 NA
ATOM     61  C   UNL A   1      43.897  32.389  33.943  1.00  0.00     0.031 C 
ATOM     62  C   UNL A   1      43.794  27.374  30.534  1.00  0.00     0.029 A 
ATOM     63  C   UNL A   1      43.451  28.584  31.116  1.00  0.00     0.049 A 
ATOM     64  H   UNL A   1      41.689  29.724  30.880  1.00  0.00     0.167 HD
ATOM     65  C   UNL A   1      43.805  30.540  32.592  1.00  0.00     0.074 A 
ATOM     66  C   UNL A   1      44.567  31.313  33.551  1.00  0.00     0.031 C 
ATOM     67  C   UNL A   1      44.215  29.365  32.056  1.00  0.00     0.031 A 
BRANCH  54  68
ATOM     68  C   UNL A   1      40.204  26.801  28.135  1.00  0.00    -0.014 A 
ATOM     69  C   UNL A   1      39.552  25.655  28.618  1.00  0.00     0.009 A 
ATOM     70  C   UNL A   1      40.710  26.793  26.826  1.00  0.00     0.009 A 
ATOM     71  C   UNL A   1      39.439  24.514  27.820  1.00  0.00     0.001 A 
ATOM     72  C   UNL A   1      40.567  25.661  26.020  1.00  0.00     0.001 A 
ATOM     73  C   UNL A   1      39.946  24.518  26.523  1.00  0.00     0.000 A 
ENDBRANCH  54  68
BRANCH  55  74
ATOM     74  C   UNL A   1      41.995  34.633  34.065  1.00  0.00    -0.014 A 
ATOM     75  C   UNL A   1      41.569  34.697  35.402  1.00  0.00     0.009 A 
ATOM     76  C   UNL A   1      42.672  35.734  33.519  1.00  0.00     0.009 A 
ATOM     77  C   UNL A   1      41.790  35.847  36.165  1.00  0.00     0.001 A 
ATOM     78  C   UNL A   1      42.925  36.868  34.296  1.00  0.00     0.001 A 
ATOM     79  C   UNL A   1      42.474  36.928  35.614  1.00  0.00     0.000 A 
ENDBRANCH  55  74
BRANCH  67  80
ATOM     80  C   UNL A   1      45.565  28.828  32.449  1.00  0.00    -0.014 A 
ATOM     81  C   UNL A   1      45.684  28.032  33.602  1.00  0.00     0.009 A 
ATOM     82  C   UNL A   1      46.731  29.224  31.778  1.00  0.00     0.009 A 
ATOM     83  C   UNL A   1      46.940  27.671  34.091  1.00  0.00     0.001 A 
ATOM     84  C   UNL A   1      47.985  28.832  32.250  1.00  0.00     0.001 A 
ATOM     85  C   UNL A   1      48.090  28.071  33.414  1.00  0.00     0.000 A 
ENDBRANCH  67  80
ENDBRANCH  41  42
ENDBRANCH  34  36
ENDBRANCH  33  34
ENDBRANCH  32  33
ENDBRANCH  31  32
ENDBRANCH   1  31
TORSDOF 17
ENDMDL
MODEL 2
REMARK VINA RESULT:     -10.7      5.159      8.686
REMARK SMILES C[C@@H]1CC[C@H](C)[N@H+]1Cc1cc2c(cc1Cl)C=C(C(=O)OCCOCCOC(=O)c1ccc(-c3c4nc(c(-c5ccccc5)c5ccc([nH]5)c(-c5ccccc5)c5nc(c(-c6ccccc6)c6ccc3[nH]6)C=C5)C=C4)cc1)[C@@H](C(F)(F)F)O2
REMARK SMILES IDX 23 1 22 2 21 3 20 4 18 5 19 6 17 7 9 8 10 9 14 10 11 11
REMARK SMILES IDX 13 12 15 13 12 14 82 15 16 16 77 17 8 18 7 19 6 20 5 21 4 22
REMARK SMILES IDX 3 23 2 24 1 26 78 27 79 28 80 29 81 30 24 31 25 32 26 33
REMARK SMILES IDX 27 34 28 35 29 36 30 37 76 38 31 39 75 40 32 41 33 42 34 43
REMARK SMILES IDX 69 44 35 45 74 46 68 47 70 48 36 49 73 50 67 51 66 52 37 54
REMARK SMILES IDX 59 55 44 56 58 57 45 58 48 59 57 60 71 61 46 62 47 63 56 65
REMARK SMILES IDX 72 66 49 67 38 68 39 69 43 70 40 71 42 72 41 73 60 74 61 75
REMARK SMILES IDX 65 76 62 77 64 78 63 79 50 80 51 81 55 82 52 83 54 84 53 85
REMARK H PARENT 7 25 70 53 48 64
REMARK Flexibility Score: inf
ROOT
ATOM      1  O   UNL A   1      34.161  34.187  31.122  1.00  0.00    -0.374 OA
ENDROOT
BRANCH   1   2
ATOM      2  C   UNL A   1      34.614  34.816  32.317  1.00  0.00     0.202 C 
BRANCH   2   3
ATOM      3  C   UNL A   1      36.125  34.942  32.538  1.00  0.00     0.261 C 
BRANCH   3   4
ATOM      4  O   UNL A   1      36.457  35.141  33.920  1.00  0.00    -0.460 OA
BRANCH   4   5
ATOM      5  C   UNL A   1      36.443  33.999  34.646  1.00  0.00     0.338 C 
ATOM      6  O   UNL A   1      35.537  33.599  35.360  1.00  0.00    -0.246 OA
BRANCH   5   7
ATOM      7  C   UNL A   1      37.643  33.195  34.365  1.00  0.00     0.087 C 
ATOM      8  C   UNL A   1      40.441  29.173  33.302  1.00  0.00     0.029 A 
ATOM      9  C   UNL A   1      40.729  30.446  33.858  1.00  0.00     0.058 A 
ATOM     10  C   UNL A   1      39.117  28.920  32.907  1.00  0.00     0.050 A 
ATOM     11  C   UNL A   1      39.739  31.428  33.965  1.00  0.00     0.128 A 
ATOM     12  C   UNL A   1      38.174  29.944  32.884  1.00  0.00     0.033 A 
ATOM     13  Cl  UNL A   1      38.496  27.337  32.587  1.00  0.00    -0.084 Cl
ATOM     14  C   UNL A   1      38.480  31.189  33.421  1.00  0.00     0.019 A 
ATOM     15  O   UNL A   1      40.055  32.597  34.606  1.00  0.00    -0.475 OA
ATOM     16  C   UNL A   1      37.434  32.179  33.522  1.00  0.00     0.027 C 
ATOM     17  C   UNL A   1      38.948  33.441  35.066  1.00  0.00     0.316 C 
BRANCH   8  18
ATOM     18  C   UNL A   1      41.556  28.145  33.179  1.00  0.00     0.301 C 
BRANCH  18  19
ATOM     19  N   UNL A   1      42.348  27.853  34.390  1.00  0.00    -0.327 N 
ATOM     20  C   UNL A   1      44.448  29.147  34.580  1.00  0.00     0.075 C 
ATOM     21  C   UNL A   1      43.808  27.816  34.207  1.00  0.00     0.181 C 
ATOM     22  C   UNL A   1      44.304  26.684  35.108  1.00  0.00     0.071 C 
ATOM     23  C   UNL A   1      43.126  25.738  35.149  1.00  0.00     0.071 C 
ATOM     24  C   UNL A   1      41.928  26.675  35.158  1.00  0.00     0.181 C 
ATOM     25  H   UNL A   1      42.126  28.681  34.943  1.00  0.00     0.348 HD
ATOM     26  C   UNL A   1      41.515  27.093  36.569  1.00  0.00     0.075 C 
ENDBRANCH  18  19
ENDBRANCH   8  18
BRANCH  17  27
ATOM     27  C   UNL A   1      38.794  33.339  36.592  1.00  0.00     0.430 C 
ATOM     28  F   UNL A   1      38.260  34.468  37.114  1.00  0.00    -0.167 F 
ATOM     29  F   UNL A   1      37.963  32.324  36.933  1.00  0.00    -0.167 F 
ATOM     30  F   UNL A   1      39.975  33.119  37.211  1.00  0.00    -0.167 F 
ENDBRANCH  17  27
ENDBRANCH   5   7
ENDBRANCH   4   5
ENDBRANCH   3   4
ENDBRANCH   2   3
ENDBRANCH   1   2
BRANCH   1  31
ATOM     31  C   UNL A   1      35.097  33.944  30.073  1.00  0.00     0.202 C 
BRANCH  31  32
ATOM     32  C   UNL A   1      34.637  33.160  28.837  1.00  0.00     0.261 C 
BRANCH  32  33
ATOM     33  O   UNL A   1      34.371  31.774  29.112  1.00  0.00    -0.460 OA
BRANCH  33  34
ATOM     34  C   UNL A   1      34.617  30.928  28.080  1.00  0.00     0.338 C 
ATOM     35  O   UNL A   1      33.960  30.793  27.059  1.00  0.00    -0.246 OA
BRANCH  34  36
ATOM     36  C   UNL A   1      35.942  30.313  28.266  1.00  0.00     0.060 A 
ATOM     37  C   UNL A   1      36.908  30.369  27.263  1.00  0.00     0.016 A 
ATOM     38  C   UNL A   1      36.223  29.701  29.495  1.00  0.00     0.016 A 
ATOM     39  C   UNL A   1      38.171  29.820  27.501  1.00  0.00     0.010 A 
ATOM     40  C   UNL A   1      37.482  29.150  29.729  1.00  0.00     0.010 A 
ATOM     41  C   UNL A   1      38.470  29.218  28.737  1.00  0.00    -0.014 A 
BRANCH  41  42
ATOM     42  C   UNL A   1      39.847  28.752  29.031  1.00  0.00     0.031 A 
ATOM     43  C   UNL A   1      40.287  27.363  28.682  1.00  0.00     0.074 A 
ATOM     44  C   UNL A   1      40.701  29.603  29.631  1.00  0.00     0.049 A 
ATOM     45  N   UNL A   1      41.470  26.819  28.824  1.00  0.00    -0.248 NA
ATOM     46  C   UNL A   1      39.279  26.465  28.097  1.00  0.00     0.031 C 
ATOM     47  C   UNL A   1      40.379  30.976  30.024  1.00  0.00     0.029 A 
ATOM     48  N   UNL A   1      42.015  29.450  30.001  1.00  0.00    -0.354 N 
ATOM     49  C   UNL A   1      41.356  25.528  28.328  1.00  0.00     0.074 A 
ATOM     50  C   UNL A   1      39.977  25.349  27.928  1.00  0.00     0.031 C 
ATOM     51  C   UNL A   1      41.475  31.553  30.537  1.00  0.00     0.029 A 
ATOM     52  C   UNL A   1      42.566  30.581  30.553  1.00  0.00     0.049 A 
ATOM     53  H   UNL A   1      42.514  28.610  29.881  1.00  0.00     0.167 HD
ATOM     54  C   UNL A   1      42.324  24.590  28.198  1.00  0.00     0.031 A 
ATOM     55  C   UNL A   1      43.810  30.816  31.016  1.00  0.00     0.031 A 
ATOM     56  C   UNL A   1      43.689  24.770  28.618  1.00  0.00     0.049 A 
ATOM     57  C   UNL A   1      44.843  29.724  30.932  1.00  0.00     0.074 A 
ATOM     58  C   UNL A   1      44.741  23.877  28.508  1.00  0.00     0.029 A 
ATOM     59  N   UNL A   1      44.193  25.909  29.226  1.00  0.00    -0.354 N 
ATOM     60  N   UNL A   1      44.736  28.529  30.404  1.00  0.00    -0.248 NA
ATOM     61  C   UNL A   1      46.170  30.015  31.494  1.00  0.00     0.031 C 
ATOM     62  C   UNL A   1      45.860  24.443  29.118  1.00  0.00     0.029 A 
ATOM     63  C   UNL A   1      45.533  25.727  29.527  1.00  0.00     0.049 A 
ATOM     64  H   UNL A   1      43.676  26.725  29.417  1.00  0.00     0.167 HD
ATOM     65  C   UNL A   1      45.987  27.941  30.538  1.00  0.00     0.074 A 
ATOM     66  C   UNL A   1      46.842  28.913  31.186  1.00  0.00     0.031 C 
ATOM     67  C   UNL A   1      46.386  26.704  30.155  1.00  0.00     0.031 A 
BRANCH  54  68
ATOM     68  C   UNL A   1      41.965  23.274  27.561  1.00  0.00    -0.014 A 
ATOM     69  C   UNL A   1      41.495  22.214  28.353  1.00  0.00     0.009 A 
ATOM     70  C   UNL A   1      42.237  23.038  26.204  1.00  0.00     0.009 A 
ATOM     71  C   UNL A   1      41.333  20.938  27.808  1.00  0.00     0.001 A 
ATOM     72  C   UNL A   1      42.044  21.769  25.655  1.00  0.00     0.001 A 
ATOM     73  C   UNL A   1      41.607  20.717  26.460  1.00  0.00     0.000 A 
ENDBRANCH  54  68
BRANCH  55  74
ATOM     74  C   UNL A   1      44.153  32.159  31.558  1.00  0.00    -0.014 A 
ATOM     75  C   UNL A   1      43.672  32.575  32.811  1.00  0.00     0.009 A 
ATOM     76  C   UNL A   1      44.933  33.050  30.805  1.00  0.00     0.009 A 
ATOM     77  C   UNL A   1      43.943  33.861  33.286  1.00  0.00     0.001 A 
ATOM     78  C   UNL A   1      45.234  34.323  31.300  1.00  0.00     0.001 A 
ATOM     79  C   UNL A   1      44.729  34.731  32.533  1.00  0.00     0.000 A 
ENDBRANCH  55  74
BRANCH  67  80
ATOM     80  C   UNL A   1      47.820  26.309  30.384  1.00  0.00    -0.014 A 
ATOM     81  C   UNL A   1      48.719  26.307  29.303  1.00  0.00     0.009 A 
ATOM     82  C   UNL A   1      48.247  25.801  31.620  1.00  0.00     0.009 A 
ATOM     83  C   UNL A   1      50.002  25.776  29.445  1.00  0.00     0.001 A 
ATOM     84  C   UNL A   1      49.543  25.303  31.768  1.00  0.00     0.001 A 
ATOM     85  C   UNL A   1      50.413  25.275  30.678  1.00  0.00     0.000 A 
ENDBRANCH  67  80
ENDBRANCH  41  42
ENDBRANCH  34  36
ENDBRANCH  33  34
ENDBRANCH  32  33
ENDBRANCH  31  32
ENDBRANCH   1  31
TORSDOF 17
ENDMDL
MODEL 3
REMARK VINA RESULT:     -10.5      2.010      6.182
REMARK SMILES C[C@@H]1CC[C@H](C)[N@H+]1Cc1cc2c(cc1Cl)C=C(C(=O)OCCOCCOC(=O)c1ccc(-c3c4nc(c(-c5ccccc5)c5ccc([nH]5)c(-c5ccccc5)c5nc(c(-c6ccccc6)c6ccc3[nH]6)C=C5)C=C4)cc1)[C@@H](C(F)(F)F)O2
REMARK SMILES IDX 23 1 22 2 21 3 20 4 18 5 19 6 17 7 9 8 10 9 14 10 11 11
REMARK SMILES IDX 13 12 15 13 12 14 82 15 16 16 77 17 8 18 7 19 6 20 5 21 4 22
REMARK SMILES IDX 3 23 2 24 1 26 78 27 79 28 80 29 81 30 24 31 25 32 26 33
REMARK SMILES IDX 27 34 28 35 29 36 30 37 76 38 31 39 75 40 32 41 33 42 34 43
REMARK SMILES IDX 69 44 35 45 74 46 68 47 70 48 36 49 73 50 67 51 66 52 37 54
REMARK SMILES IDX 59 55 44 56 58 57 45 58 48 59 57 60 71 61 46 62 47 63 56 65
REMARK SMILES IDX 72 66 49 67 38 68 39 69 43 70 40 71 42 72 41 73 60 74 61 75
REMARK SMILES IDX 65 76 62 77 64 78 63 79 50 80 51 81 55 82 52 83 54 84 53 85
REMARK H PARENT 7 25 70 53 48 64
REMARK Flexibility Score: inf
ROOT
ATOM      1  O   UNL A   1      33.306  31.234  27.643  1.00  0.00    -0.374 OA
ENDROOT
BRANCH   1   2
ATOM      2  C   UNL A   1      33.427  29.866  27.270  1.00  0.00     0.202 C 
BRANCH   2   3
ATOM      3  C   UNL A   1      32.150  29.021  27.202  1.00  0.00     0.261 C 
BRANCH   3   4
ATOM      4  O   UNL A   1      31.646  28.906  25.863  1.00  0.00    -0.460 OA
BRANCH   4   5
ATOM      5  C   UNL A   1      32.400  28.109  25.071  1.00  0.00     0.338 C 
ATOM      6  O   UNL A   1      33.204  28.470  24.226  1.00  0.00    -0.246 OA
BRANCH   5   7
ATOM      7  C   UNL A   1      32.229  26.698  25.449  1.00  0.00     0.087 C 
ATOM      8  C   UNL A   1      33.257  21.810  25.888  1.00  0.00     0.029 A 
ATOM      9  C   UNL A   1      32.065  22.571  25.984  1.00  0.00     0.058 A 
ATOM     10  C   UNL A   1      34.456  22.504  25.654  1.00  0.00     0.050 A 
ATOM     11  C   UNL A   1      32.089  23.967  25.898  1.00  0.00     0.128 A 
ATOM     12  C   UNL A   1      34.494  23.896  25.710  1.00  0.00     0.033 A 
ATOM     13  Cl  UNL A   1      35.917  21.747  25.120  1.00  0.00    -0.084 Cl
ATOM     14  C   UNL A   1      33.314  24.623  25.821  1.00  0.00     0.019 A 
ATOM     15  O   UNL A   1      30.893  24.636  25.894  1.00  0.00    -0.475 OA
ATOM     16  C   UNL A   1      33.373  26.062  25.721  1.00  0.00     0.027 C 
ATOM     17  C   UNL A   1      30.890  26.020  25.411  1.00  0.00     0.316 C 
BRANCH   8  18
ATOM     18  C   UNL A   1      33.186  20.295  26.017  1.00  0.00     0.301 C 
BRANCH  18  19
ATOM     19  N   UNL A   1      33.378  19.499  24.789  1.00  0.00    -0.327 N 
ATOM     20  C   UNL A   1      32.407  20.509  22.749  1.00  0.00     0.075 C 
ATOM     21  C   UNL A   1      32.238  19.476  23.856  1.00  0.00     0.181 C 
ATOM     22  C   UNL A   1      32.199  18.055  23.295  1.00  0.00     0.071 C 
ATOM     23  C   UNL A   1      32.783  17.227  24.417  1.00  0.00     0.071 C 
ATOM     24  C   UNL A   1      33.867  18.129  24.986  1.00  0.00     0.181 C 
ATOM     25  H   UNL A   1      34.126  20.037  24.351  1.00  0.00     0.348 HD
ATOM     26  C   UNL A   1      35.213  17.951  24.285  1.00  0.00     0.075 C 
ENDBRANCH  18  19
ENDBRANCH   8  18
BRANCH  17  27
ATOM     27  C   UNL A   1      30.260  26.098  24.011  1.00  0.00     0.430 C 
ATOM     28  F   UNL A   1      31.179  26.417  23.070  1.00  0.00    -0.167 F 
ATOM     29  F   UNL A   1      29.731  24.905  23.645  1.00  0.00    -0.167 F 
ATOM     30  F   UNL A   1      29.270  27.015  23.946  1.00  0.00    -0.167 F 
ENDBRANCH  17  27
ENDBRANCH   5   7
ENDBRANCH   4   5
ENDBRANCH   3   4
ENDBRANCH   2   3
ENDBRANCH   1   2
BRANCH   1  31
ATOM     31  C   UNL A   1      32.224  32.000  27.116  1.00  0.00     0.202 C 
BRANCH  31  32
ATOM     32  C   UNL A   1      32.146  33.497  27.445  1.00  0.00     0.261 C 
BRANCH  32  33
ATOM     33  O   UNL A   1      33.410  34.056  27.841  1.00  0.00    -0.460 OA
BRANCH  33  34
ATOM     34  C   UNL A   1      33.507  34.376  29.156  1.00  0.00     0.338 C 
ATOM     35  O   UNL A   1      32.658  34.911  29.855  1.00  0.00    -0.246 OA
BRANCH  34  36
ATOM     36  C   UNL A   1      34.741  33.791  29.705  1.00  0.00     0.060 A 
ATOM     37  C   UNL A   1      34.699  32.880  30.759  1.00  0.00     0.016 A 
ATOM     38  C   UNL A   1      35.962  34.143  29.114  1.00  0.00     0.016 A 
ATOM     39  C   UNL A   1      35.889  32.307  31.214  1.00  0.00     0.010 A 
ATOM     40  C   UNL A   1      37.149  33.573  29.573  1.00  0.00     0.010 A 
ATOM     41  C   UNL A   1      37.119  32.639  30.618  1.00  0.00    -0.014 A 
BRANCH  41  42
ATOM     42  C   UNL A   1      38.361  31.934  31.017  1.00  0.00     0.031 A 
ATOM     43  C   UNL A   1      39.168  32.391  32.195  1.00  0.00     0.074 A 
ATOM     44  C   UNL A   1      38.762  30.873  30.291  1.00  0.00     0.049 A 
ATOM     45  N   UNL A   1      40.248  31.853  32.705  1.00  0.00    -0.248 NA
ATOM     46  C   UNL A   1      38.711  33.602  32.894  1.00  0.00     0.031 C 
ATOM     47  C   UNL A   1      38.059  30.345  29.120  1.00  0.00     0.029 A 
ATOM     48  N   UNL A   1      39.843  30.037  30.437  1.00  0.00    -0.354 N 
ATOM     49  C   UNL A   1      40.586  32.643  33.795  1.00  0.00     0.074 A 
ATOM     50  C   UNL A   1      39.629  33.727  33.844  1.00  0.00     0.031 C 
ATOM     51  C   UNL A   1      38.701  29.252  28.682  1.00  0.00     0.029 A 
ATOM     52  C   UNL A   1      39.883  29.025  29.509  1.00  0.00     0.049 A 
ATOM     53  H   UNL A   1      40.522  30.154  31.139  1.00  0.00     0.167 HD
ATOM     54  C   UNL A   1      41.590  32.460  34.684  1.00  0.00     0.031 A 
ATOM     55  C   UNL A   1      40.766  28.021  29.344  1.00  0.00     0.031 A 
ATOM     56  C   UNL A   1      42.549  31.389  34.615  1.00  0.00     0.049 A 
ATOM     57  C   UNL A   1      41.920  27.892  30.302  1.00  0.00     0.074 A 
ATOM     58  C   UNL A   1      43.591  31.118  35.486  1.00  0.00     0.029 A 
ATOM     59  N   UNL A   1      42.592  30.418  33.627  1.00  0.00    -0.354 N 
ATOM     60  N   UNL A   1      42.191  28.611  31.364  1.00  0.00    -0.248 NA
ATOM     61  C   UNL A   1      42.882  26.809  30.049  1.00  0.00     0.031 C 
ATOM     62  C   UNL A   1      44.309  30.033  34.984  1.00  0.00     0.029 A 
ATOM     63  C   UNL A   1      43.662  29.568  33.850  1.00  0.00     0.049 A 
ATOM     64  H   UNL A   1      41.956  30.344  32.879  1.00  0.00     0.167 HD
ATOM     65  C   UNL A   1      43.330  28.047  31.925  1.00  0.00     0.074 A 
ATOM     66  C   UNL A   1      43.693  26.919  31.093  1.00  0.00     0.031 C 
ATOM     67  C   UNL A   1      44.009  28.434  33.031  1.00  0.00     0.031 A 
BRANCH  54  68
ATOM     68  C   UNL A   1      41.713  33.425  35.834  1.00  0.00    -0.014 A 
ATOM     69  C   UNL A   1      40.949  33.233  36.997  1.00  0.00     0.009 A 
ATOM     70  C   UNL A   1      42.468  34.601  35.704  1.00  0.00     0.009 A 
ATOM     71  C   UNL A   1      40.915  34.213  37.992  1.00  0.00     0.001 A 
ATOM     72  C   UNL A   1      42.456  35.564  36.716  1.00  0.00     0.001 A 
ATOM     73  C   UNL A   1      41.669  35.376  37.850  1.00  0.00     0.000 A 
ENDBRANCH  54  68
BRANCH  55  74
ATOM     74  C   UNL A   1      40.562  27.032  28.249  1.00  0.00    -0.014 A 
ATOM     75  C   UNL A   1      39.803  25.869  28.460  1.00  0.00     0.009 A 
ATOM     76  C   UNL A   1      41.160  27.229  26.995  1.00  0.00     0.009 A 
ATOM     77  C   UNL A   1      39.669  24.914  27.450  1.00  0.00     0.001 A 
ATOM     78  C   UNL A   1      40.993  26.289  25.974  1.00  0.00     0.001 A 
ATOM     79  C   UNL A   1      40.258  25.128  26.206  1.00  0.00     0.000 A 
ENDBRANCH  55  74
BRANCH  67  80
ATOM     80  C   UNL A   1      45.209  27.629  33.455  1.00  0.00    -0.014 A 
ATOM     81  C   UNL A   1      45.055  26.608  34.410  1.00  0.00     0.009 A 
ATOM     82  C   UNL A   1      46.502  27.970  33.032  1.00  0.00     0.009 A 
ATOM     83  C   UNL A   1      46.170  25.969  34.954  1.00  0.00     0.001 A 
ATOM     84  C   UNL A   1      47.614  27.305  33.553  1.00  0.00     0.001 A 
ATOM     85  C   UNL A   1      47.448  26.318  34.525  1.00  0.00     0.000 A 
ENDBRANCH  67  80
ENDBRANCH  41  42
ENDBRANCH  34  36
ENDBRANCH  33  34
ENDBRANCH  32  33
ENDBRANCH  31  32
ENDBRANCH   1  31
TORSDOF 17
ENDMDL
