MODEL 1
REMARK VINA RESULT:     -11.9      0.000      0.000
REMARK SMILES O=C(OCCOCCOC(=O)c1ccc(-c2c3nc(c(-c4ccccc4)c4ccc([nH]4)c(-c4ccccc4)c4nc(c(-c5ccccc5)c5ccc2[nH]5)C=C4)C=C3)cc1)C1=Cc2ccc(Cl)c(Cl)c2O[C@@H]1C(F)(F)F
REMARK SMILES IDX 7 1 6 2 5 3 4 4 3 5 2 6 1 7 60 8 61 9 71 10 62 11 70 12
REMARK SMILES IDX 63 13 69 14 64 15 67 16 65 17 68 18 66 19 72 20 73 21 74 22
REMARK SMILES IDX 75 23 8 24 9 25 10 26 11 27 12 28 13 29 59 30 14 31 58 32
REMARK SMILES IDX 15 33 16 34 17 35 52 36 18 37 57 38 51 39 53 40 19 41 56 42
REMARK SMILES IDX 50 43 49 44 20 46 42 47 27 48 41 49 28 50 31 51 40 52 54 53
REMARK SMILES IDX 29 54 30 55 39 57 55 58 32 59 21 60 22 61 26 62 23 63 25 64
REMARK SMILES IDX 24 65 43 66 44 67 48 68 45 69 47 70 46 71 33 72 34 73 38 74
REMARK SMILES IDX 35 75 37 76 36 77
REMARK H PARENT 53 45 31 56
REMARK Flexibility Score: inf
ROOT
ATOM      1  C   UNL A   1      42.571  20.604  26.295  1.00  0.00     0.202 C 
ENDROOT
BRANCH   1   2
ATOM      2  O   UNL A   1      41.248  20.640  25.733  1.00  0.00    -0.374 OA
BRANCH   2   3
ATOM      3  C   UNL A   1      39.928  21.305  26.326  1.00  0.00     0.202 C 
BRANCH   3   4
ATOM      4  C   UNL A   1      38.002  21.643  25.396  1.00  0.00     0.261 C 
BRANCH   4   5
ATOM      5  O   UNL A   1      37.341  23.020  25.124  1.00  0.00    -0.460 OA
BRANCH   5   6
ATOM      6  C   UNL A   1      36.462  22.991  24.120  1.00  0.00     0.338 C 
ATOM      7  O   UNL A   1      36.622  23.101  22.933  1.00  0.00    -0.246 OA
BRANCH   6   8
ATOM      8  C   UNL A   1      35.298  23.086  24.962  1.00  0.00     0.087 C 
ATOM      9  C   UNL A   1      35.194  24.464  25.535  1.00  0.00     0.027 C 
ATOM     10  C   UNL A   1      34.023  22.313  23.714  1.00  0.00     0.316 C 
ATOM     11  C   UNL A   1      33.953  25.688  24.991  1.00  0.00     0.019 A 
ATOM     12  O   UNL A   1      32.749  23.604  23.096  1.00  0.00    -0.474 OA
ATOM     13  C   UNL A   1      34.082  26.984  25.412  1.00  0.00     0.013 A 
ATOM     14  C   UNL A   1      32.788  25.305  23.762  1.00  0.00     0.148 A 
ATOM     15  C   UNL A   1      33.288  27.906  24.718  1.00  0.00     0.023 A 
ATOM     16  C   UNL A   1      32.182  26.304  23.040  1.00  0.00     0.102 A 
ATOM     17  C   UNL A   1      32.438  27.600  23.572  1.00  0.00     0.063 A 
ATOM     18  Cl  UNL A   1      31.537  26.025  21.482  1.00  0.00    -0.079 Cl
ATOM     19  Cl  UNL A   1      31.824  29.033  22.807  1.00  0.00    -0.083 Cl
BRANCH  10  20
ATOM     20  C   UNL A   1      33.763  20.893  24.340  1.00  0.00     0.430 C 
ATOM     21  F   UNL A   1      34.877  20.192  24.621  1.00  0.00    -0.167 F 
ATOM     22  F   UNL A   1      33.131  21.079  25.535  1.00  0.00    -0.167 F 
ATOM     23  F   UNL A   1      32.930  20.106  23.625  1.00  0.00    -0.167 F 
ENDBRANCH  10  20
ENDBRANCH   6   8
ENDBRANCH   5   6
ENDBRANCH   4   5
ENDBRANCH   3   4
ENDBRANCH   2   3
ENDBRANCH   1   2
BRANCH   1  24
ATOM     24  C   UNL A   1      43.550  21.506  25.546  1.00  0.00     0.261 C 
BRANCH  24  25
ATOM     25  O   UNL A   1      42.883  22.642  25.005  1.00  0.00    -0.460 OA
BRANCH  25  26
ATOM     26  C   UNL A   1      43.613  23.780  25.029  1.00  0.00     0.338 C 
ATOM     27  O   UNL A   1      44.578  24.068  24.342  1.00  0.00    -0.246 OA
BRANCH  26  28
ATOM     28  C   UNL A   1      43.055  24.669  26.061  1.00  0.00     0.060 A 
ATOM     29  C   UNL A   1      43.538  25.979  26.136  1.00  0.00     0.016 A 
ATOM     30  C   UNL A   1      42.060  24.218  26.941  1.00  0.00     0.016 A 
ATOM     31  C   UNL A   1      43.016  26.845  27.092  1.00  0.00     0.010 A 
ATOM     32  C   UNL A   1      41.529  25.086  27.885  1.00  0.00     0.010 A 
ATOM     33  C   UNL A   1      42.019  26.396  27.970  1.00  0.00    -0.014 A 
BRANCH  33  34
ATOM     34  C   UNL A   1      41.661  27.219  29.137  1.00  0.00     0.031 A 
ATOM     35  C   UNL A   1      40.407  28.026  29.036  1.00  0.00     0.074 A 
ATOM     36  C   UNL A   1      42.423  27.240  30.240  1.00  0.00     0.049 A 
ATOM     37  N   UNL A   1      39.840  28.786  29.932  1.00  0.00    -0.248 NA
ATOM     38  C   UNL A   1      39.705  27.979  27.741  1.00  0.00     0.031 C 
ATOM     39  C   UNL A   1      43.668  26.504  30.420  1.00  0.00     0.029 A 
ATOM     40  N   UNL A   1      42.249  27.900  31.428  1.00  0.00    -0.354 N 
ATOM     41  C   UNL A   1      38.712  29.301  29.312  1.00  0.00     0.074 A 
ATOM     42  C   UNL A   1      38.697  28.806  27.955  1.00  0.00     0.031 C 
ATOM     43  C   UNL A   1      44.119  26.700  31.671  1.00  0.00     0.029 A 
ATOM     44  C   UNL A   1      43.231  27.635  32.351  1.00  0.00     0.049 A 
ATOM     45  H   UNL A   1      41.492  28.505  31.604  1.00  0.00     0.167 HD
ATOM     46  C   UNL A   1      37.768  30.115  29.834  1.00  0.00     0.031 A 
ATOM     47  C   UNL A   1      43.392  28.115  33.598  1.00  0.00     0.031 A 
ATOM     48  C   UNL A   1      37.837  30.653  31.163  1.00  0.00     0.049 A 
ATOM     49  C   UNL A   1      42.375  29.092  34.124  1.00  0.00     0.074 A 
ATOM     50  C   UNL A   1      36.950  31.500  31.797  1.00  0.00     0.029 A 
ATOM     51  N   UNL A   1      38.875  30.410  32.052  1.00  0.00    -0.354 N 
ATOM     52  N   UNL A   1      41.279  29.535  33.554  1.00  0.00    -0.248 NA
ATOM     53  C   UNL A   1      42.617  29.635  35.467  1.00  0.00     0.031 C 
ATOM     54  C   UNL A   1      37.486  31.827  33.046  1.00  0.00     0.029 A 
ATOM     55  C   UNL A   1      38.667  31.120  33.222  1.00  0.00     0.049 A 
ATOM     56  H   UNL A   1      39.645  29.823  31.877  1.00  0.00     0.167 HD
ATOM     57  C   UNL A   1      40.684  30.383  34.479  1.00  0.00     0.074 A 
ATOM     58  C   UNL A   1      41.536  30.379  35.652  1.00  0.00     0.031 C 
ATOM     59  C   UNL A   1      39.536  31.097  34.373  1.00  0.00     0.031 A 
BRANCH  46  60
ATOM     60  C   UNL A   1      36.639  30.503  28.924  1.00  0.00    -0.014 A 
ATOM     61  C   UNL A   1      36.462  31.834  28.506  1.00  0.00     0.009 A 
ATOM     62  C   UNL A   1      35.711  29.534  28.518  1.00  0.00     0.009 A 
ATOM     63  C   UNL A   1      35.349  32.193  27.746  1.00  0.00     0.001 A 
ATOM     64  C   UNL A   1      34.618  29.891  27.729  1.00  0.00     0.001 A 
ATOM     65  C   UNL A   1      34.429  31.221  27.355  1.00  0.00     0.000 A 
ENDBRANCH  46  60
BRANCH  47  66
ATOM     66  C   UNL A   1      44.556  27.696  34.423  1.00  0.00    -0.014 A 
ATOM     67  C   UNL A   1      44.514  26.508  35.168  1.00  0.00     0.009 A 
ATOM     68  C   UNL A   1      45.713  28.490  34.484  1.00  0.00     0.009 A 
ATOM     69  C   UNL A   1      45.592  26.139  35.978  1.00  0.00     0.001 A 
ATOM     70  C   UNL A   1      46.802  28.103  35.270  1.00  0.00     0.001 A 
ATOM     71  C   UNL A   1      46.736  26.934  36.025  1.00  0.00     0.000 A 
ENDBRANCH  47  66
BRANCH  59  72
ATOM     72  C   UNL A   1      39.109  31.894  35.574  1.00  0.00    -0.014 A 
ATOM     73  C   UNL A   1      39.463  33.244  35.726  1.00  0.00     0.009 A 
ATOM     74  C   UNL A   1      38.290  31.292  36.541  1.00  0.00     0.009 A 
ATOM     75  C   UNL A   1      39.033  33.962  36.843  1.00  0.00     0.001 A 
ATOM     76  C   UNL A   1      37.830  32.022  37.636  1.00  0.00     0.001 A 
ATOM     77  C   UNL A   1      38.211  33.353  37.792  1.00  0.00     0.000 A 
ENDBRANCH  59  72
ENDBRANCH  33  34
ENDBRANCH  26  28
ENDBRANCH  25  26
ENDBRANCH  24  25
ENDBRANCH   1  24
TORSDOF 15
ENDMDL
MODEL 2
REMARK VINA RESULT:     -11.8      0.829      5.994
REMARK SMILES O=C(OCCOCCOC(=O)c1ccc(-c2c3nc(c(-c4ccccc4)c4ccc([nH]4)c(-c4ccccc4)c4nc(c(-c5ccccc5)c5ccc2[nH]5)C=C4)C=C3)cc1)C1=Cc2ccc(Cl)c(Cl)c2O[C@@H]1C(F)(F)F
REMARK SMILES IDX 7 1 6 2 5 3 4 4 3 5 2 6 1 7 60 8 61 9 71 10 62 11 70 12
REMARK SMILES IDX 63 13 69 14 64 15 67 16 65 17 68 18 66 19 72 20 73 21 74 22
REMARK SMILES IDX 75 23 8 24 9 25 10 26 11 27 12 28 13 29 59 30 14 31 58 32
REMARK SMILES IDX 15 33 16 34 17 35 52 36 18 37 57 38 51 39 53 40 19 41 56 42
REMARK SMILES IDX 50 43 49 44 20 46 42 47 27 48 41 49 28 50 31 51 40 52 54 53
REMARK SMILES IDX 29 54 30 55 39 57 55 58 32 59 21 60 22 61 26 62 23 63 25 64
REMARK SMILES IDX 24 65 43 66 44 67 48 68 45 69 47 70 46 71 33 72 34 73 38 74
REMARK SMILES IDX 35 75 37 76 36 77
REMARK H PARENT 53 45 31 56
REMARK Flexibility Score: inf
ROOT
ATOM      1  C   UNL A   1      42.460  21.222  26.001  1.00  0.00     0.202 C 
ENDROOT
BRANCH   1   2
ATOM      2  O   UNL A   1      41.169  21.821  25.792  1.00  0.00    -0.374 OA
BRANCH   2   3
ATOM      3  C   UNL A   1      39.728  21.229  26.124  1.00  0.00     0.202 C 
BRANCH   3   4
ATOM      4  C   UNL A   1      37.792  21.735  25.294  1.00  0.00     0.261 C 
BRANCH   4   5
ATOM      5  O   UNL A   1      37.420  23.051  24.564  1.00  0.00    -0.460 OA
BRANCH   5   6
ATOM      6  C   UNL A   1      36.241  22.990  23.942  1.00  0.00     0.338 C 
ATOM      7  O   UNL A   1      35.959  23.120  22.779  1.00  0.00    -0.246 OA
BRANCH   6   8
ATOM      8  C   UNL A   1      35.453  23.022  25.147  1.00  0.00     0.087 C 
ATOM      9  C   UNL A   1      35.307  24.432  25.623  1.00  0.00     0.027 C 
ATOM     10  C   UNL A   1      33.986  21.914  24.517  1.00  0.00     0.316 C 
ATOM     11  C   UNL A   1      33.751  25.379  25.498  1.00  0.00     0.019 A 
ATOM     12  O   UNL A   1      32.361  22.912  24.331  1.00  0.00    -0.474 OA
ATOM     13  C   UNL A   1      33.779  26.724  25.752  1.00  0.00     0.013 A 
ATOM     14  C   UNL A   1      32.318  24.672  24.817  1.00  0.00     0.148 A 
ATOM     15  C   UNL A   1      32.635  27.420  25.342  1.00  0.00     0.023 A 
ATOM     16  C   UNL A   1      31.323  25.468  24.307  1.00  0.00     0.102 A 
ATOM     17  C   UNL A   1      31.506  26.846  24.617  1.00  0.00     0.063 A 
ATOM     18  Cl  UNL A   1      30.231  24.897  23.123  1.00  0.00    -0.079 Cl
ATOM     19  Cl  UNL A   1      30.408  28.062  24.041  1.00  0.00    -0.083 Cl
BRANCH  10  20
ATOM     20  C   UNL A   1      34.232  20.565  25.288  1.00  0.00     0.430 C 
ATOM     21  F   UNL A   1      34.482  20.708  26.603  1.00  0.00    -0.167 F 
ATOM     22  F   UNL A   1      33.084  19.831  25.207  1.00  0.00    -0.167 F 
ATOM     23  F   UNL A   1      35.187  19.775  24.752  1.00  0.00    -0.167 F 
ENDBRANCH  10  20
ENDBRANCH   6   8
ENDBRANCH   5   6
ENDBRANCH   4   5
ENDBRANCH   3   4
ENDBRANCH   2   3
ENDBRANCH   1   2
BRANCH   1  24
ATOM     24  C   UNL A   1      43.595  22.062  25.419  1.00  0.00     0.261 C 
BRANCH  24  25
ATOM     25  O   UNL A   1      43.101  23.289  24.891  1.00  0.00    -0.460 OA
BRANCH  25  26
ATOM     26  C   UNL A   1      43.897  24.357  25.125  1.00  0.00     0.338 C 
ATOM     27  O   UNL A   1      44.991  24.597  24.645  1.00  0.00    -0.246 OA
BRANCH  26  28
ATOM     28  C   UNL A   1      43.225  25.233  26.099  1.00  0.00     0.060 A 
ATOM     29  C   UNL A   1      43.759  26.507  26.319  1.00  0.00     0.016 A 
ATOM     30  C   UNL A   1      42.078  24.806  26.783  1.00  0.00     0.016 A 
ATOM     31  C   UNL A   1      43.135  27.361  27.223  1.00  0.00     0.010 A 
ATOM     32  C   UNL A   1      41.446  25.664  27.673  1.00  0.00     0.010 A 
ATOM     33  C   UNL A   1      41.985  26.936  27.904  1.00  0.00    -0.014 A 
BRANCH  33  34
ATOM     34  C   UNL A   1      41.485  27.728  29.040  1.00  0.00     0.031 A 
ATOM     35  C   UNL A   1      42.237  27.616  30.327  1.00  0.00     0.074 A 
ATOM     36  C   UNL A   1      40.408  28.519  28.924  1.00  0.00     0.049 A 
ATOM     37  N   UNL A   1      42.044  28.243  31.454  1.00  0.00    -0.248 NA
ATOM     38  C   UNL A   1      43.353  26.652  30.346  1.00  0.00     0.031 C 
ATOM     39  C   UNL A   1      39.603  28.675  27.719  1.00  0.00     0.029 A 
ATOM     40  N   UNL A   1      39.814  29.351  29.835  1.00  0.00    -0.354 N 
ATOM     41  C   UNL A   1      43.017  27.756  32.314  1.00  0.00     0.074 A 
ATOM     42  C   UNL A   1      43.768  26.752  31.597  1.00  0.00     0.031 C 
ATOM     43  C   UNL A   1      38.654  29.600  27.940  1.00  0.00     0.029 A 
ATOM     44  C   UNL A   1      38.741  30.042  29.326  1.00  0.00     0.049 A 
ATOM     45  H   UNL A   1      40.126  29.446  30.763  1.00  0.00     0.167 HD
ATOM     46  C   UNL A   1      43.261  28.119  33.592  1.00  0.00     0.031 A 
ATOM     47  C   UNL A   1      37.919  30.919  29.931  1.00  0.00     0.031 A 
ATOM     48  C   UNL A   1      42.459  29.068  34.311  1.00  0.00     0.049 A 
ATOM     49  C   UNL A   1      38.157  31.240  31.382  1.00  0.00     0.074 A 
ATOM     50  C   UNL A   1      42.599  29.504  35.613  1.00  0.00     0.029 A 
ATOM     51  N   UNL A   1      41.345  29.707  33.785  1.00  0.00    -0.354 N 
ATOM     52  N   UNL A   1      39.112  30.817  32.178  1.00  0.00    -0.248 NA
ATOM     53  C   UNL A   1      37.204  32.158  32.019  1.00  0.00     0.031 C 
ATOM     54  C   UNL A   1      41.527  30.355  35.899  1.00  0.00     0.029 A 
ATOM     55  C   UNL A   1      40.765  30.512  34.750  1.00  0.00     0.049 A 
ATOM     56  H   UNL A   1      41.014  29.603  32.864  1.00  0.00     0.167 HD
ATOM     57  C   UNL A   1      38.894  31.442  33.399  1.00  0.00     0.074 A 
ATOM     58  C   UNL A   1      37.725  32.283  33.232  1.00  0.00     0.031 C 
ATOM     59  C   UNL A   1      39.599  31.336  34.553  1.00  0.00     0.031 A 
BRANCH  46  60
ATOM     60  C   UNL A   1      44.400  27.425  34.280  1.00  0.00    -0.014 A 
ATOM     61  C   UNL A   1      44.205  26.228  34.990  1.00  0.00     0.009 A 
ATOM     62  C   UNL A   1      45.678  28.002  34.261  1.00  0.00     0.009 A 
ATOM     63  C   UNL A   1      45.254  25.653  35.709  1.00  0.00     0.001 A 
ATOM     64  C   UNL A   1      46.732  27.406  34.952  1.00  0.00     0.001 A 
ATOM     65  C   UNL A   1      46.518  26.241  35.688  1.00  0.00     0.000 A 
ENDBRANCH  46  60
BRANCH  47  66
ATOM     66  C   UNL A   1      36.796  31.543  29.179  1.00  0.00    -0.014 A 
ATOM     67  C   UNL A   1      36.882  32.871  28.736  1.00  0.00     0.009 A 
ATOM     68  C   UNL A   1      35.624  30.817  28.913  1.00  0.00     0.009 A 
ATOM     69  C   UNL A   1      35.808  33.468  28.070  1.00  0.00     0.001 A 
ATOM     70  C   UNL A   1      34.564  31.406  28.218  1.00  0.00     0.001 A 
ATOM     71  C   UNL A   1      34.653  32.734  27.807  1.00  0.00     0.000 A 
ENDBRANCH  47  66
BRANCH  59  72
ATOM     72  C   UNL A   1      39.153  32.186  35.710  1.00  0.00    -0.014 A 
ATOM     73  C   UNL A   1      39.598  33.507  35.870  1.00  0.00     0.009 A 
ATOM     74  C   UNL A   1      38.225  31.665  36.626  1.00  0.00     0.009 A 
ATOM     75  C   UNL A   1      39.149  34.277  36.945  1.00  0.00     0.001 A 
ATOM     76  C   UNL A   1      37.748  32.448  37.677  1.00  0.00     0.001 A 
ATOM     77  C   UNL A   1      38.219  33.750  37.841  1.00  0.00     0.000 A 
ENDBRANCH  59  72
ENDBRANCH  33  34
ENDBRANCH  26  28
ENDBRANCH  25  26
ENDBRANCH  24  25
ENDBRANCH   1  24
TORSDOF 15
ENDMDL
MODEL 3
REMARK VINA RESULT:     -11.6      3.860      7.307
REMARK SMILES O=C(OCCOCCOC(=O)c1ccc(-c2c3nc(c(-c4ccccc4)c4ccc([nH]4)c(-c4ccccc4)c4nc(c(-c5ccccc5)c5ccc2[nH]5)C=C4)C=C3)cc1)C1=Cc2ccc(Cl)c(Cl)c2O[C@@H]1C(F)(F)F
REMARK SMILES IDX 7 1 6 2 5 3 4 4 3 5 2 6 1 7 60 8 61 9 71 10 62 11 70 12
REMARK SMILES IDX 63 13 69 14 64 15 67 16 65 17 68 18 66 19 72 20 73 21 74 22
REMARK SMILES IDX 75 23 8 24 9 25 10 26 11 27 12 28 13 29 59 30 14 31 58 32
REMARK SMILES IDX 15 33 16 34 17 35 52 36 18 37 57 38 51 39 53 40 19 41 56 42
REMARK SMILES IDX 50 43 49 44 20 46 42 47 27 48 41 49 28 50 31 51 40 52 54 53
REMARK SMILES IDX 29 54 30 55 39 57 55 58 32 59 21 60 22 61 26 62 23 63 25 64
REMARK SMILES IDX 24 65 43 66 44 67 48 68 45 69 47 70 46 71 33 72 34 73 38 74
REMARK SMILES IDX 35 75 37 76 36 77
REMARK H PARENT 53 45 31 56
REMARK Flexibility Score: inf
ROOT
ATOM      1  C   UNL A   1      36.193  20.955  25.068  1.00  0.00     0.202 C 
ENDROOT
BRANCH   1   2
ATOM      2  O   UNL A   1      35.988  22.327  25.447  1.00  0.00    -0.374 OA
BRANCH   2   3
ATOM      3  C   UNL A   1      35.589  23.568  24.532  1.00  0.00     0.202 C 
BRANCH   3   4
ATOM      4  C   UNL A   1      33.661  24.501  24.218  1.00  0.00     0.261 C 
BRANCH   4   5
ATOM      5  O   UNL A   1      33.279  25.455  23.056  1.00  0.00    -0.460 OA
BRANCH   5   6
ATOM      6  C   UNL A   1      33.320  26.743  23.399  1.00  0.00     0.338 C 
ATOM      7  O   UNL A   1      33.761  27.698  22.816  1.00  0.00    -0.246 OA
BRANCH   6   8
ATOM      8  C   UNL A   1      32.946  26.525  24.773  1.00  0.00     0.087 C 
ATOM      9  C   UNL A   1      34.035  27.005  25.680  1.00  0.00     0.027 C 
ATOM     10  C   UNL A   1      31.169  27.307  24.677  1.00  0.00     0.316 C 
ATOM     11  C   UNL A   1      33.908  28.520  26.689  1.00  0.00     0.019 A 
ATOM     12  O   UNL A   1      31.041  28.928  25.690  1.00  0.00    -0.474 OA
ATOM     13  C   UNL A   1      35.034  28.993  27.309  1.00  0.00     0.013 A 
ATOM     14  C   UNL A   1      32.476  29.503  26.664  1.00  0.00     0.148 A 
ATOM     15  C   UNL A   1      34.926  30.300  27.799  1.00  0.00     0.023 A 
ATOM     16  C   UNL A   1      32.531  30.825  27.029  1.00  0.00     0.102 A 
ATOM     17  C   UNL A   1      33.776  31.181  27.623  1.00  0.00     0.063 A 
ATOM     18  Cl  UNL A   1      31.384  31.963  26.472  1.00  0.00    -0.079 Cl
ATOM     19  Cl  UNL A   1      34.111  32.809  28.125  1.00  0.00    -0.083 Cl
BRANCH  10  20
ATOM     20  C   UNL A   1      30.242  26.036  24.728  1.00  0.00     0.430 C 
ATOM     21  F   UNL A   1      30.378  25.288  25.838  1.00  0.00    -0.167 F 
ATOM     22  F   UNL A   1      28.949  26.471  24.730  1.00  0.00    -0.167 F 
ATOM     23  F   UNL A   1      30.335  25.228  23.650  1.00  0.00    -0.167 F 
ENDBRANCH  10  20
ENDBRANCH   6   8
ENDBRANCH   5   6
ENDBRANCH   4   5
ENDBRANCH   3   4
ENDBRANCH   2   3
ENDBRANCH   1   2
BRANCH   1  24
ATOM     24  C   UNL A   1      37.642  20.507  25.254  1.00  0.00     0.261 C 
BRANCH  24  25
ATOM     25  O   UNL A   1      38.510  21.630  25.372  1.00  0.00    -0.460 OA
BRANCH  25  26
ATOM     26  C   UNL A   1      39.510  21.468  26.269  1.00  0.00     0.338 C 
ATOM     27  O   UNL A   1      40.042  20.429  26.621  1.00  0.00    -0.246 OA
BRANCH  26  28
ATOM     28  C   UNL A   1      39.883  22.792  26.793  1.00  0.00     0.060 A 
ATOM     29  C   UNL A   1      39.134  23.900  26.382  1.00  0.00     0.016 A 
ATOM     30  C   UNL A   1      40.954  22.940  27.686  1.00  0.00     0.016 A 
ATOM     31  C   UNL A   1      39.455  25.161  26.875  1.00  0.00     0.010 A 
ATOM     32  C   UNL A   1      41.265  24.195  28.189  1.00  0.00     0.010 A 
ATOM     33  C   UNL A   1      40.525  25.308  27.770  1.00  0.00    -0.014 A 
BRANCH  33  34
ATOM     34  C   UNL A   1      41.025  26.658  28.080  1.00  0.00     0.031 A 
ATOM     35  C   UNL A   1      42.375  27.017  27.550  1.00  0.00     0.074 A 
ATOM     36  C   UNL A   1      40.300  27.526  28.801  1.00  0.00     0.049 A 
ATOM     37  N   UNL A   1      43.020  28.149  27.631  1.00  0.00    -0.248 NA
ATOM     38  C   UNL A   1      43.103  25.948  26.843  1.00  0.00     0.031 C 
ATOM     39  C   UNL A   1      38.987  27.256  29.375  1.00  0.00     0.029 A 
ATOM     40  N   UNL A   1      40.565  28.820  29.163  1.00  0.00    -0.354 N 
ATOM     41  C   UNL A   1      44.224  27.929  26.980  1.00  0.00     0.074 A 
ATOM     42  C   UNL A   1      44.242  26.550  26.550  1.00  0.00     0.031 C 
ATOM     43  C   UNL A   1      38.526  28.372  29.965  1.00  0.00     0.029 A 
ATOM     44  C   UNL A   1      39.548  29.409  29.874  1.00  0.00     0.049 A 
ATOM     45  H   UNL A   1      41.402  29.284  28.935  1.00  0.00     0.167 HD
ATOM     46  C   UNL A   1      45.227  28.807  26.758  1.00  0.00     0.031 A 
ATOM     47  C   UNL A   1      39.470  30.645  30.402  1.00  0.00     0.031 A 
ATOM     48  C   UNL A   1      45.221  30.154  27.254  1.00  0.00     0.049 A 
ATOM     49  C   UNL A   1      40.640  31.574  30.218  1.00  0.00     0.074 A 
ATOM     50  C   UNL A   1      46.187  31.131  27.107  1.00  0.00     0.029 A 
ATOM     51  N   UNL A   1      44.201  30.702  28.019  1.00  0.00    -0.354 N 
ATOM     52  N   UNL A   1      41.756  31.381  29.555  1.00  0.00    -0.248 NA
ATOM     53  C   UNL A   1      40.539  32.893  30.857  1.00  0.00     0.031 C 
ATOM     54  C   UNL A   1      45.783  32.248  27.844  1.00  0.00     0.029 A 
ATOM     55  C   UNL A   1      44.529  31.996  28.382  1.00  0.00     0.049 A 
ATOM     56  H   UNL A   1      43.369  30.239  28.269  1.00  0.00     0.167 HD
ATOM     57  C   UNL A   1      42.476  32.563  29.669  1.00  0.00     0.074 A 
ATOM     58  C   UNL A   1      41.662  33.471  30.453  1.00  0.00     0.031 C 
ATOM     59  C   UNL A   1      43.696  32.875  29.167  1.00  0.00     0.031 A 
BRANCH  46  60
ATOM     60  C   UNL A   1      46.417  28.289  26.005  1.00  0.00    -0.014 A 
ATOM     61  C   UNL A   1      46.404  28.179  24.603  1.00  0.00     0.009 A 
ATOM     62  C   UNL A   1      47.550  27.858  26.710  1.00  0.00     0.009 A 
ATOM     63  C   UNL A   1      47.481  27.599  23.930  1.00  0.00     0.001 A 
ATOM     64  C   UNL A   1      48.638  27.310  26.030  1.00  0.00     0.001 A 
ATOM     65  C   UNL A   1      48.598  27.167  24.644  1.00  0.00     0.000 A 
ENDBRANCH  46  60
BRANCH  47  66
ATOM     66  C   UNL A   1      38.261  31.068  31.157  1.00  0.00    -0.014 A 
ATOM     67  C   UNL A   1      38.207  30.939  32.553  1.00  0.00     0.009 A 
ATOM     68  C   UNL A   1      37.144  31.591  30.484  1.00  0.00     0.009 A 
ATOM     69  C   UNL A   1      37.053  31.297  33.255  1.00  0.00     0.001 A 
ATOM     70  C   UNL A   1      36.003  31.977  31.192  1.00  0.00     0.001 A 
ATOM     71  C   UNL A   1      35.954  31.819  32.575  1.00  0.00     0.000 A 
ENDBRANCH  47  66
BRANCH  59  72
ATOM     72  C   UNL A   1      44.204  34.269  29.409  1.00  0.00    -0.014 A 
ATOM     73  C   UNL A   1      45.085  34.560  30.463  1.00  0.00     0.009 A 
ATOM     74  C   UNL A   1      43.832  35.297  28.529  1.00  0.00     0.009 A 
ATOM     75  C   UNL A   1      45.555  35.862  30.648  1.00  0.00     0.001 A 
ATOM     76  C   UNL A   1      44.333  36.588  28.694  1.00  0.00     0.001 A 
ATOM     77  C   UNL A   1      45.185  36.872  29.760  1.00  0.00     0.000 A 
ENDBRANCH  59  72
ENDBRANCH  33  34
ENDBRANCH  26  28
ENDBRANCH  25  26
ENDBRANCH  24  25
ENDBRANCH   1  24
TORSDOF 15
ENDMDL
