MODEL 1
REMARK VINA RESULT:     -10.2      0.000      0.000
REMARK SMILES CC[C@@H](C(=O)OCCOCCOC(=O)c1ccc(-c2c3nc(c(-c4ccccc4)c4ccc([nH]4)c(-c4ccccc4)c4nc(c(-c5ccccc5)c5ccc2[nH]5)C=C4)C=C3)cc1)N1CCN(Cc2cccc(C)c2)C(=O)C1=O
REMARK SMILES IDX 8 1 7 2 6 3 4 4 5 5 3 6 2 7 1 8 63 9 64 10 77 11 65 12 75 13
REMARK SMILES IDX 78 14 66 15 76 16 67 17 68 18 69 19 74 20 70 21 72 22 71 23
REMARK SMILES IDX 73 24 9 25 10 26 11 27 12 28 13 29 14 30 15 31 16 32 62 33
REMARK SMILES IDX 17 34 61 35 18 36 19 37 20 38 55 39 21 40 60 41 54 42 56 43
REMARK SMILES IDX 22 44 59 45 53 46 52 47 23 49 45 50 30 51 44 52 31 53 34 54
REMARK SMILES IDX 43 55 57 56 32 57 33 58 42 60 58 61 35 62 24 63 25 64 29 65
REMARK SMILES IDX 26 66 28 67 27 68 46 69 47 70 51 71 48 72 50 73 49 74 36 75
REMARK SMILES IDX 37 76 41 77 38 78 40 79 39 80
REMARK H PARENT 56 48 34 59
REMARK Flexibility Score: inf
ROOT
ATOM      1  C   UNL A   1      32.610  29.900  27.186  1.00  0.00     0.202 C 
ENDROOT
BRANCH   1   2
ATOM      2  C   UNL A   1      32.213  30.423  25.802  1.00  0.00     0.261 C 
BRANCH   2   3
ATOM      3  O   UNL A   1      31.451  29.456  25.057  1.00  0.00    -0.462 OA
BRANCH   3   4
ATOM      4  C   UNL A   1      32.113  28.871  24.024  1.00  0.00     0.328 C 
ATOM      5  O   UNL A   1      33.256  29.167  23.697  1.00  0.00    -0.250 OA
BRANCH   4   6
ATOM      6  C   UNL A   1      31.258  27.781  23.326  1.00  0.00     0.195 C 
BRANCH   6   7
ATOM      7  C   UNL A   1      29.745  27.811  23.658  1.00  0.00     0.034 C 
ATOM      8  C   UNL A   1      29.017  26.478  23.712  1.00  0.00     0.007 C 
ENDBRANCH   6   7
BRANCH   6   9
ATOM      9  N   UNL A   1      31.864  26.465  23.687  1.00  0.00    -0.319 N 
ATOM     10  C   UNL A   1      32.301  26.154  25.039  1.00  0.00     0.142 C 
ATOM     11  C   UNL A   1      32.288  25.614  22.647  1.00  0.00     0.312 C 
ATOM     12  C   UNL A   1      32.205  24.648  25.263  1.00  0.00     0.142 C 
ATOM     13  C   UNL A   1      33.217  24.411  23.046  1.00  0.00     0.312 C 
ATOM     14  O   UNL A   1      31.941  25.769  21.482  1.00  0.00    -0.263 OA
ATOM     15  N   UNL A   1      33.103  23.945  24.365  1.00  0.00    -0.328 N 
ATOM     16  O   UNL A   1      33.959  23.908  22.212  1.00  0.00    -0.263 OA
BRANCH  15  17
ATOM     17  C   UNL A   1      33.584  22.602  24.693  1.00  0.00     0.155 C 
BRANCH  17  18
ATOM     18  C   UNL A   1      35.063  22.503  24.997  1.00  0.00    -0.028 A 
ATOM     19  C   UNL A   1      35.745  23.584  25.571  1.00  0.00     0.005 A 
ATOM     20  C   UNL A   1      35.788  21.334  24.707  1.00  0.00     0.009 A 
ATOM     21  C   UNL A   1      37.109  23.491  25.857  1.00  0.00     0.001 A 
ATOM     22  C   UNL A   1      37.132  21.200  25.073  1.00  0.00    -0.051 A 
ATOM     23  C   UNL A   1      37.796  22.299  25.624  1.00  0.00     0.003 A 
ATOM     24  C   UNL A   1      37.851  19.899  24.875  1.00  0.00     0.044 C 
ENDBRANCH  17  18
ENDBRANCH  15  17
ENDBRANCH   6   9
ENDBRANCH   4   6
ENDBRANCH   3   4
ENDBRANCH   2   3
ENDBRANCH   1   2
BRANCH   1  25
ATOM     25  O   UNL A   1      33.878  30.311  27.696  1.00  0.00    -0.374 OA
BRANCH  25  26
ATOM     26  C   UNL A   1      34.160  31.708  27.718  1.00  0.00     0.202 C 
BRANCH  26  27
ATOM     27  C   UNL A   1      34.399  32.331  29.097  1.00  0.00     0.261 C 
BRANCH  27  28
ATOM     28  O   UNL A   1      35.798  32.321  29.437  1.00  0.00    -0.460 OA
BRANCH  28  29
ATOM     29  C   UNL A   1      36.122  31.453  30.422  1.00  0.00     0.338 C 
ATOM     30  O   UNL A   1      35.523  31.269  31.474  1.00  0.00    -0.246 OA
BRANCH  29  31
ATOM     31  C   UNL A   1      37.235  30.584  29.998  1.00  0.00     0.060 A 
ATOM     32  C   UNL A   1      37.998  29.992  31.012  1.00  0.00     0.016 A 
ATOM     33  C   UNL A   1      37.587  30.422  28.656  1.00  0.00     0.016 A 
ATOM     34  C   UNL A   1      39.169  29.309  30.696  1.00  0.00     0.010 A 
ATOM     35  C   UNL A   1      38.768  29.741  28.340  1.00  0.00     0.010 A 
ATOM     36  C   UNL A   1      39.591  29.233  29.363  1.00  0.00    -0.014 A 
BRANCH  36  37
ATOM     37  C   UNL A   1      40.985  28.816  29.081  1.00  0.00     0.031 A 
ATOM     38  C   UNL A   1      41.235  27.398  28.635  1.00  0.00     0.074 A 
ATOM     39  C   UNL A   1      42.002  29.693  29.141  1.00  0.00     0.049 A 
ATOM     40  N   UNL A   1      42.361  26.817  28.310  1.00  0.00    -0.248 NA
ATOM     41  C   UNL A   1      40.055  26.522  28.542  1.00  0.00     0.031 C 
ATOM     42  C   UNL A   1      41.884  31.104  29.501  1.00  0.00     0.029 A 
ATOM     43  N   UNL A   1      43.339  29.517  28.889  1.00  0.00    -0.354 N 
ATOM     44  C   UNL A   1      42.027  25.508  27.981  1.00  0.00     0.074 A 
ATOM     45  C   UNL A   1      40.601  25.372  28.177  1.00  0.00     0.031 C 
ATOM     46  C   UNL A   1      43.103  31.669  29.445  1.00  0.00     0.029 A 
ATOM     47  C   UNL A   1      44.086  30.654  29.072  1.00  0.00     0.049 A 
ATOM     48  H   UNL A   1      43.726  28.658  28.605  1.00  0.00     0.167 HD
ATOM     49  C   UNL A   1      42.831  24.510  27.544  1.00  0.00     0.031 A 
ATOM     50  C   UNL A   1      45.415  30.848  28.961  1.00  0.00     0.031 A 
ATOM     51  C   UNL A   1      44.250  24.638  27.353  1.00  0.00     0.049 A 
ATOM     52  C   UNL A   1      46.298  29.702  28.544  1.00  0.00     0.074 A 
ATOM     53  C   UNL A   1      45.151  23.685  26.912  1.00  0.00     0.029 A 
ATOM     54  N   UNL A   1      44.975  25.794  27.595  1.00  0.00    -0.354 N 
ATOM     55  N   UNL A   1      45.968  28.474  28.224  1.00  0.00    -0.248 NA
ATOM     56  C   UNL A   1      47.741  29.977  28.462  1.00  0.00     0.031 C 
ATOM     57  C   UNL A   1      46.431  24.251  26.935  1.00  0.00     0.029 A 
ATOM     58  C   UNL A   1      46.316  25.573  27.334  1.00  0.00     0.049 A 
ATOM     59  H   UNL A   1      44.593  26.646  27.907  1.00  0.00     0.167 HD
ATOM     60  C   UNL A   1      47.154  27.842  27.871  1.00  0.00     0.074 A 
ATOM     61  C   UNL A   1      48.209  28.825  28.004  1.00  0.00     0.031 C 
ATOM     62  C   UNL A   1      47.353  26.562  27.470  1.00  0.00     0.031 A 
BRANCH  49  63
ATOM     63  C   UNL A   1      42.189  23.177  27.276  1.00  0.00    -0.014 A 
ATOM     64  C   UNL A   1      42.042  22.688  25.968  1.00  0.00     0.009 A 
ATOM     65  C   UNL A   1      41.745  22.392  28.350  1.00  0.00     0.009 A 
ATOM     66  C   UNL A   1      41.430  21.453  25.741  1.00  0.00     0.001 A 
ATOM     67  C   UNL A   1      41.158  21.146  28.122  1.00  0.00     0.001 A 
ATOM     68  C   UNL A   1      40.993  20.682  26.818  1.00  0.00     0.000 A 
ENDBRANCH  49  63
BRANCH  50  69
ATOM     69  C   UNL A   1      46.001  32.180  29.259  1.00  0.00    -0.014 A 
ATOM     70  C   UNL A   1      46.566  32.451  30.515  1.00  0.00     0.009 A 
ATOM     71  C   UNL A   1      45.970  33.200  28.294  1.00  0.00     0.009 A 
ATOM     72  C   UNL A   1      47.064  33.723  30.806  1.00  0.00     0.001 A 
ATOM     73  C   UNL A   1      46.494  34.463  28.580  1.00  0.00     0.001 A 
ATOM     74  C   UNL A   1      47.031  34.726  29.839  1.00  0.00     0.000 A 
ENDBRANCH  50  69
BRANCH  62  75
ATOM     75  C   UNL A   1      48.756  26.167  27.100  1.00  0.00    -0.014 A 
ATOM     76  C   UNL A   1      49.616  25.563  28.030  1.00  0.00     0.009 A 
ATOM     77  C   UNL A   1      49.211  26.375  25.788  1.00  0.00     0.009 A 
ATOM     78  C   UNL A   1      50.918  25.212  27.663  1.00  0.00     0.001 A 
ATOM     79  C   UNL A   1      50.501  25.997  25.416  1.00  0.00     0.001 A 
ATOM     80  C   UNL A   1      51.357  25.426  26.357  1.00  0.00     0.000 A 
ENDBRANCH  62  75
ENDBRANCH  36  37
ENDBRANCH  29  31
ENDBRANCH  28  29
ENDBRANCH  27  28
ENDBRANCH  26  27
ENDBRANCH  25  26
ENDBRANCH   1  25
TORSDOF 18
ENDMDL
MODEL 2
REMARK VINA RESULT:     -10.0      2.473      8.323
REMARK SMILES CC[C@@H](C(=O)OCCOCCOC(=O)c1ccc(-c2c3nc(c(-c4ccccc4)c4ccc([nH]4)c(-c4ccccc4)c4nc(c(-c5ccccc5)c5ccc2[nH]5)C=C4)C=C3)cc1)N1CCN(Cc2cccc(C)c2)C(=O)C1=O
REMARK SMILES IDX 8 1 7 2 6 3 4 4 5 5 3 6 2 7 1 8 63 9 64 10 77 11 65 12 75 13
REMARK SMILES IDX 78 14 66 15 76 16 67 17 68 18 69 19 74 20 70 21 72 22 71 23
REMARK SMILES IDX 73 24 9 25 10 26 11 27 12 28 13 29 14 30 15 31 16 32 62 33
REMARK SMILES IDX 17 34 61 35 18 36 19 37 20 38 55 39 21 40 60 41 54 42 56 43
REMARK SMILES IDX 22 44 59 45 53 46 52 47 23 49 45 50 30 51 44 52 31 53 34 54
REMARK SMILES IDX 43 55 57 56 32 57 33 58 42 60 58 61 35 62 24 63 25 64 29 65
REMARK SMILES IDX 26 66 28 67 27 68 46 69 47 70 51 71 48 72 50 73 49 74 36 75
REMARK SMILES IDX 37 76 41 77 38 78 40 79 39 80
REMARK H PARENT 56 48 34 59
REMARK Flexibility Score: inf
ROOT
ATOM      1  C   UNL A   1      37.008  22.180  25.376  1.00  0.00     0.202 C 
ENDROOT
BRANCH   1   2
ATOM      2  C   UNL A   1      35.692  21.978  26.134  1.00  0.00     0.261 C 
BRANCH   2   3
ATOM      3  O   UNL A   1      34.720  21.265  25.348  1.00  0.00    -0.462 OA
BRANCH   3   4
ATOM      4  C   UNL A   1      33.552  20.989  25.987  1.00  0.00     0.328 C 
ATOM      5  O   UNL A   1      33.481  20.702  27.176  1.00  0.00    -0.250 OA
BRANCH   4   6
ATOM      6  C   UNL A   1      32.330  21.097  25.039  1.00  0.00     0.195 C 
BRANCH   6   7
ATOM      7  C   UNL A   1      32.496  20.410  23.660  1.00  0.00     0.034 C 
ATOM      8  C   UNL A   1      32.732  18.908  23.654  1.00  0.00     0.007 C 
ENDBRANCH   6   7
BRANCH   6   9
ATOM      9  N   UNL A   1      32.034  22.552  24.885  1.00  0.00    -0.319 N 
ATOM     10  C   UNL A   1      32.903  23.449  24.139  1.00  0.00     0.142 C 
ATOM     11  C   UNL A   1      31.052  23.128  25.715  1.00  0.00     0.312 C 
ATOM     12  C   UNL A   1      32.073  24.597  23.575  1.00  0.00     0.142 C 
ATOM     13  C   UNL A   1      31.002  24.697  25.774  1.00  0.00     0.312 C 
ATOM     14  O   UNL A   1      30.247  22.459  26.351  1.00  0.00    -0.263 OA
ATOM     15  N   UNL A   1      31.495  25.380  24.651  1.00  0.00    -0.328 N 
ATOM     16  O   UNL A   1      30.514  25.259  26.747  1.00  0.00    -0.263 OA
BRANCH  15  17
ATOM     17  C   UNL A   1      31.103  26.773  24.432  1.00  0.00     0.155 C 
BRANCH  17  18
ATOM     18  C   UNL A   1      31.926  27.800  25.179  1.00  0.00    -0.028 A 
ATOM     19  C   UNL A   1      33.250  27.523  25.542  1.00  0.00     0.005 A 
ATOM     20  C   UNL A   1      31.384  29.049  25.531  1.00  0.00     0.009 A 
ATOM     21  C   UNL A   1      34.012  28.473  26.226  1.00  0.00     0.001 A 
ATOM     22  C   UNL A   1      32.167  30.039  26.135  1.00  0.00    -0.051 A 
ATOM     23  C   UNL A   1      33.478  29.731  26.508  1.00  0.00     0.003 A 
ATOM     24  C   UNL A   1      31.609  31.409  26.383  1.00  0.00     0.044 C 
ENDBRANCH  17  18
ENDBRANCH  15  17
ENDBRANCH   6   9
ENDBRANCH   4   6
ENDBRANCH   3   4
ENDBRANCH   2   3
ENDBRANCH   1   2
BRANCH   1  25
ATOM     25  O   UNL A   1      37.404  21.145  24.476  1.00  0.00    -0.374 OA
BRANCH  25  26
ATOM     26  C   UNL A   1      37.485  19.818  24.991  1.00  0.00     0.202 C 
BRANCH  26  27
ATOM     27  C   UNL A   1      38.894  19.281  25.264  1.00  0.00     0.261 C 
BRANCH  27  28
ATOM     28  O   UNL A   1      39.638  20.176  26.110  1.00  0.00    -0.460 OA
BRANCH  28  29
ATOM     29  C   UNL A   1      40.966  19.925  26.149  1.00  0.00     0.338 C 
ATOM     30  O   UNL A   1      41.542  18.920  25.751  1.00  0.00    -0.246 OA
BRANCH  29  31
ATOM     31  C   UNL A   1      41.705  21.123  26.589  1.00  0.00     0.060 A 
ATOM     32  C   UNL A   1      41.872  21.292  27.970  1.00  0.00     0.016 A 
ATOM     33  C   UNL A   1      42.140  22.103  25.694  1.00  0.00     0.016 A 
ATOM     34  C   UNL A   1      42.395  22.481  28.468  1.00  0.00     0.010 A 
ATOM     35  C   UNL A   1      42.660  23.301  26.197  1.00  0.00     0.010 A 
ATOM     36  C   UNL A   1      42.735  23.515  27.586  1.00  0.00    -0.014 A 
BRANCH  36  37
ATOM     37  C   UNL A   1      42.957  24.874  28.135  1.00  0.00     0.031 A 
ATOM     38  C   UNL A   1      44.367  25.297  28.457  1.00  0.00     0.074 A 
ATOM     39  C   UNL A   1      41.944  25.745  28.274  1.00  0.00     0.049 A 
ATOM     40  N   UNL A   1      44.806  26.440  28.921  1.00  0.00    -0.248 NA
ATOM     41  C   UNL A   1      45.423  24.298  28.221  1.00  0.00     0.031 C 
ATOM     42  C   UNL A   1      40.546  25.480  27.944  1.00  0.00     0.029 A 
ATOM     43  N   UNL A   1      41.945  27.041  28.725  1.00  0.00    -0.354 N 
ATOM     44  C   UNL A   1      46.183  26.295  29.037  1.00  0.00     0.074 A 
ATOM     45  C   UNL A   1      46.504  24.945  28.629  1.00  0.00     0.031 C 
ATOM     46  C   UNL A   1      39.821  26.583  28.202  1.00  0.00     0.029 A 
ATOM     47  C   UNL A   1      40.700  27.619  28.739  1.00  0.00     0.049 A 
ATOM     48  H   UNL A   1      42.761  27.512  29.010  1.00  0.00     0.167 HD
ATOM     49  C   UNL A   1      47.103  27.203  29.438  1.00  0.00     0.031 A 
ATOM     50  C   UNL A   1      40.314  28.842  29.151  1.00  0.00     0.031 A 
ATOM     51  C   UNL A   1      46.789  28.544  29.852  1.00  0.00     0.049 A 
ATOM     52  C   UNL A   1      41.347  29.812  29.662  1.00  0.00     0.074 A 
ATOM     53  C   UNL A   1      47.651  29.541  30.274  1.00  0.00     0.029 A 
ATOM     54  N   UNL A   1      45.509  29.074  29.897  1.00  0.00    -0.354 N 
ATOM     55  N   UNL A   1      42.647  29.666  29.756  1.00  0.00    -0.248 NA
ATOM     56  C   UNL A   1      40.856  31.122  30.114  1.00  0.00     0.031 C 
ATOM     57  C   UNL A   1      46.886  30.660  30.622  1.00  0.00     0.029 A 
ATOM     58  C   UNL A   1      45.555  30.377  30.361  1.00  0.00     0.049 A 
ATOM     59  H   UNL A   1      44.689  28.594  29.638  1.00  0.00     0.167 HD
ATOM     60  C   UNL A   1      43.130  30.873  30.244  1.00  0.00     0.074 A 
ATOM     61  C   UNL A   1      41.986  31.744  30.415  1.00  0.00     0.031 C 
ATOM     62  C   UNL A   1      44.408  31.232  30.524  1.00  0.00     0.031 A 
BRANCH  49  63
ATOM     63  C   UNL A   1      48.538  26.758  29.480  1.00  0.00    -0.014 A 
ATOM     64  C   UNL A   1      49.076  26.134  30.617  1.00  0.00     0.009 A 
ATOM     65  C   UNL A   1      49.357  26.948  28.357  1.00  0.00     0.009 A 
ATOM     66  C   UNL A   1      50.416  25.742  30.640  1.00  0.00     0.001 A 
ATOM     67  C   UNL A   1      50.689  26.530  28.372  1.00  0.00     0.001 A 
ATOM     68  C   UNL A   1      51.219  25.935  29.516  1.00  0.00     0.000 A 
ENDBRANCH  49  63
BRANCH  50  69
ATOM     69  C   UNL A   1      38.879  29.225  29.110  1.00  0.00    -0.014 A 
ATOM     70  C   UNL A   1      38.052  29.030  30.226  1.00  0.00     0.009 A 
ATOM     71  C   UNL A   1      38.322  29.761  27.938  1.00  0.00     0.009 A 
ATOM     72  C   UNL A   1      36.691  29.339  30.161  1.00  0.00     0.001 A 
ATOM     73  C   UNL A   1      36.967  30.094  27.885  1.00  0.00     0.001 A 
ATOM     74  C   UNL A   1      36.151  29.874  28.992  1.00  0.00     0.000 A 
ENDBRANCH  50  69
BRANCH  62  75
ATOM     75  C   UNL A   1      44.640  32.640  30.997  1.00  0.00    -0.014 A 
ATOM     76  C   UNL A   1      44.647  32.962  32.363  1.00  0.00     0.009 A 
ATOM     77  C   UNL A   1      44.888  33.654  30.058  1.00  0.00     0.009 A 
ATOM     78  C   UNL A   1      44.858  34.280  32.776  1.00  0.00     0.001 A 
ATOM     79  C   UNL A   1      45.127  34.963  30.475  1.00  0.00     0.001 A 
ATOM     80  C   UNL A   1      45.101  35.277  31.832  1.00  0.00     0.000 A 
ENDBRANCH  62  75
ENDBRANCH  36  37
ENDBRANCH  29  31
ENDBRANCH  28  29
ENDBRANCH  27  28
ENDBRANCH  26  27
ENDBRANCH  25  26
ENDBRANCH   1  25
TORSDOF 18
ENDMDL
MODEL 3
REMARK VINA RESULT:      -9.9      2.264      8.126
REMARK SMILES CC[C@@H](C(=O)OCCOCCOC(=O)c1ccc(-c2c3nc(c(-c4ccccc4)c4ccc([nH]4)c(-c4ccccc4)c4nc(c(-c5ccccc5)c5ccc2[nH]5)C=C4)C=C3)cc1)N1CCN(Cc2cccc(C)c2)C(=O)C1=O
REMARK SMILES IDX 8 1 7 2 6 3 4 4 5 5 3 6 2 7 1 8 63 9 64 10 77 11 65 12 75 13
REMARK SMILES IDX 78 14 66 15 76 16 67 17 68 18 69 19 74 20 70 21 72 22 71 23
REMARK SMILES IDX 73 24 9 25 10 26 11 27 12 28 13 29 14 30 15 31 16 32 62 33
REMARK SMILES IDX 17 34 61 35 18 36 19 37 20 38 55 39 21 40 60 41 54 42 56 43
REMARK SMILES IDX 22 44 59 45 53 46 52 47 23 49 45 50 30 51 44 52 31 53 34 54
REMARK SMILES IDX 43 55 57 56 32 57 33 58 42 60 58 61 35 62 24 63 25 64 29 65
REMARK SMILES IDX 26 66 28 67 27 68 46 69 47 70 51 71 48 72 50 73 49 74 36 75
REMARK SMILES IDX 37 76 41 77 38 78 40 79 39 80
REMARK H PARENT 56 48 34 59
REMARK Flexibility Score: inf
ROOT
ATOM      1  C   UNL A   1      37.717  21.997  25.715  1.00  0.00     0.202 C 
ENDROOT
BRANCH   1   2
ATOM      2  C   UNL A   1      37.120  23.383  25.448  1.00  0.00     0.261 C 
BRANCH   2   3
ATOM      3  O   UNL A   1      35.688  23.389  25.584  1.00  0.00    -0.462 OA
BRANCH   3   4
ATOM      4  C   UNL A   1      35.003  22.934  24.501  1.00  0.00     0.328 C 
ATOM      5  O   UNL A   1      35.401  23.052  23.348  1.00  0.00    -0.250 OA
BRANCH   4   6
ATOM      6  C   UNL A   1      33.676  22.238  24.901  1.00  0.00     0.195 C 
BRANCH   6   7
ATOM      7  C   UNL A   1      33.351  20.935  24.129  1.00  0.00     0.034 C 
ATOM      8  C   UNL A   1      32.371  19.968  24.774  1.00  0.00     0.007 C 
ENDBRANCH   6   7
BRANCH   6   9
ATOM      9  N   UNL A   1      32.593  23.251  24.731  1.00  0.00    -0.319 N 
ATOM     10  C   UNL A   1      32.262  23.828  23.438  1.00  0.00     0.142 C 
ATOM     11  C   UNL A   1      32.072  23.875  25.882  1.00  0.00     0.312 C 
ATOM     12  C   UNL A   1      30.791  24.231  23.430  1.00  0.00     0.142 C 
ATOM     13  C   UNL A   1      31.194  25.159  25.659  1.00  0.00     0.312 C 
ATOM     14  O   UNL A   1      32.260  23.443  27.013  1.00  0.00    -0.263 OA
ATOM     15  N   UNL A   1      30.544  25.263  24.419  1.00  0.00    -0.328 N 
ATOM     16  O   UNL A   1      31.076  25.984  26.557  1.00  0.00    -0.263 OA
BRANCH  15  17
ATOM     17  C   UNL A   1      29.399  26.165  24.286  1.00  0.00     0.155 C 
BRANCH  17  18
ATOM     18  C   UNL A   1      29.670  27.444  23.525  1.00  0.00    -0.028 A 
ATOM     19  C   UNL A   1      30.978  27.792  23.161  1.00  0.00     0.005 A 
ATOM     20  C   UNL A   1      28.625  28.315  23.171  1.00  0.00     0.009 A 
ATOM     21  C   UNL A   1      31.228  28.969  22.453  1.00  0.00     0.001 A 
ATOM     22  C   UNL A   1      28.856  29.450  22.385  1.00  0.00    -0.051 A 
ATOM     23  C   UNL A   1      30.170  29.787  22.053  1.00  0.00     0.003 A 
ATOM     24  C   UNL A   1      27.711  30.293  21.907  1.00  0.00     0.044 C 
ENDBRANCH  17  18
ENDBRANCH  15  17
ENDBRANCH   6   9
ENDBRANCH   4   6
ENDBRANCH   3   4
ENDBRANCH   2   3
ENDBRANCH   1   2
BRANCH   1  25
ATOM     25  O   UNL A   1      37.878  21.133  24.590  1.00  0.00    -0.374 OA
BRANCH  25  26
ATOM     26  C   UNL A   1      38.185  19.764  24.848  1.00  0.00     0.202 C 
BRANCH  26  27
ATOM     27  C   UNL A   1      39.225  19.495  25.939  1.00  0.00     0.261 C 
BRANCH  27  28
ATOM     28  O   UNL A   1      40.502  19.151  25.370  1.00  0.00    -0.460 OA
BRANCH  28  29
ATOM     29  C   UNL A   1      41.550  19.349  26.200  1.00  0.00     0.338 C 
ATOM     30  O   UNL A   1      42.473  18.576  26.424  1.00  0.00    -0.246 OA
BRANCH  29  31
ATOM     31  C   UNL A   1      41.556  20.736  26.702  1.00  0.00     0.060 A 
ATOM     32  C   UNL A   1      41.631  21.755  25.744  1.00  0.00     0.016 A 
ATOM     33  C   UNL A   1      41.583  21.036  28.065  1.00  0.00     0.016 A 
ATOM     34  C   UNL A   1      41.824  23.074  26.143  1.00  0.00     0.010 A 
ATOM     35  C   UNL A   1      41.783  22.362  28.465  1.00  0.00     0.010 A 
ATOM     36  C   UNL A   1      41.962  23.375  27.504  1.00  0.00    -0.014 A 
BRANCH  36  37
ATOM     37  C   UNL A   1      42.503  24.701  27.888  1.00  0.00     0.031 A 
ATOM     38  C   UNL A   1      41.532  25.812  28.192  1.00  0.00     0.074 A 
ATOM     39  C   UNL A   1      43.823  24.898  28.041  1.00  0.00     0.049 A 
ATOM     40  N   UNL A   1      41.771  27.043  28.571  1.00  0.00    -0.248 NA
ATOM     41  C   UNL A   1      40.102  25.491  28.054  1.00  0.00     0.031 C 
ATOM     42  C   UNL A   1      44.861  23.890  27.835  1.00  0.00     0.029 A 
ATOM     43  N   UNL A   1      44.513  26.023  28.417  1.00  0.00    -0.354 N 
ATOM     44  C   UNL A   1      40.524  27.642  28.709  1.00  0.00     0.074 A 
ATOM     45  C   UNL A   1      39.535  26.653  28.342  1.00  0.00     0.031 C 
ATOM     46  C   UNL A   1      46.060  24.443  28.089  1.00  0.00     0.029 A 
ATOM     47  C   UNL A   1      45.875  25.848  28.450  1.00  0.00     0.049 A 
ATOM     48  H   UNL A   1      44.074  26.875  28.642  1.00  0.00     0.167 HD
ATOM     49  C   UNL A   1      40.225  28.898  29.114  1.00  0.00     0.031 A 
ATOM     50  C   UNL A   1      46.858  26.725  28.727  1.00  0.00     0.031 A 
ATOM     51  C   UNL A   1      41.205  29.887  29.473  1.00  0.00     0.049 A 
ATOM     52  C   UNL A   1      46.503  28.140  29.105  1.00  0.00     0.074 A 
ATOM     53  C   UNL A   1      41.002  31.188  29.898  1.00  0.00     0.029 A 
ATOM     54  N   UNL A   1      42.576  29.683  29.446  1.00  0.00    -0.354 N 
ATOM     55  N   UNL A   1      45.321  28.689  29.242  1.00  0.00    -0.248 NA
ATOM     56  C   UNL A   1      47.625  29.051  29.376  1.00  0.00     0.031 C 
ATOM     57  C   UNL A   1      42.254  31.788  30.081  1.00  0.00     0.029 A 
ATOM     58  C   UNL A   1      43.232  30.841  29.826  1.00  0.00     0.049 A 
ATOM     59  H   UNL A   1      43.017  28.840  29.194  1.00  0.00     0.167 HD
ATOM     60  C   UNL A   1      45.555  29.997  29.649  1.00  0.00     0.074 A 
ATOM     61  C   UNL A   1      46.992  30.154  29.746  1.00  0.00     0.031 C 
ATOM     62  C   UNL A   1      44.662  30.981  29.920  1.00  0.00     0.031 A 
BRANCH  49  63
ATOM     63  C   UNL A   1      38.773  29.281  29.155  1.00  0.00    -0.014 A 
ATOM     64  C   UNL A   1      38.122  29.798  28.023  1.00  0.00     0.009 A 
ATOM     65  C   UNL A   1      38.040  29.103  30.338  1.00  0.00     0.009 A 
ATOM     66  C   UNL A   1      36.774  30.161  28.087  1.00  0.00     0.001 A 
ATOM     67  C   UNL A   1      36.687  29.441  30.392  1.00  0.00     0.001 A 
ATOM     68  C   UNL A   1      36.058  29.978  29.269  1.00  0.00     0.000 A 
ENDBRANCH  49  63
BRANCH  50  69
ATOM     69  C   UNL A   1      48.279  26.301  28.650  1.00  0.00    -0.014 A 
ATOM     70  C   UNL A   1      48.993  26.394  27.445  1.00  0.00     0.009 A 
ATOM     71  C   UNL A   1      48.923  25.772  29.780  1.00  0.00     0.009 A 
ATOM     72  C   UNL A   1      50.311  25.941  27.367  1.00  0.00     0.001 A 
ATOM     73  C   UNL A   1      50.250  25.344  29.705  1.00  0.00     0.001 A 
ATOM     74  C   UNL A   1      50.940  25.420  28.497  1.00  0.00     0.000 A 
ENDBRANCH  50  69
BRANCH  62  75
ATOM     75  C   UNL A   1      45.211  32.298  30.394  1.00  0.00    -0.014 A 
ATOM     76  C   UNL A   1      45.444  32.547  31.755  1.00  0.00     0.009 A 
ATOM     77  C   UNL A   1      45.530  33.293  29.456  1.00  0.00     0.009 A 
ATOM     78  C   UNL A   1      45.948  33.783  32.170  1.00  0.00     0.001 A 
ATOM     79  C   UNL A   1      46.061  34.514  29.870  1.00  0.00     0.001 A 
ATOM     80  C   UNL A   1      46.258  34.763  31.227  1.00  0.00     0.000 A 
ENDBRANCH  62  75
ENDBRANCH  36  37
ENDBRANCH  29  31
ENDBRANCH  28  29
ENDBRANCH  27  28
ENDBRANCH  26  27
ENDBRANCH  25  26
ENDBRANCH   1  25
TORSDOF 18
ENDMDL
