MODEL 1
REMARK VINA RESULT:     -10.7      0.000      0.000
REMARK SMILES O=C(OCCOCCOC(=O)[C@@H]1CCC(=O)N1C(=O)/C=C/c1ccccc1)c1ccc(-c2c3nc(c(-c4ccccc4)c4ccc([nH]4)c(-c4ccccc4)c4nc(c(-c5ccccc5)c5ccc2[nH]5)C=C4)C=C3)cc1
REMARK SMILES IDX 7 1 6 2 5 3 4 4 3 5 2 6 1 7 28 8 29 9 75 10 30 11 74 12
REMARK SMILES IDX 31 13 32 14 33 15 68 16 34 17 73 18 67 19 69 20 35 21 72 22
REMARK SMILES IDX 66 23 65 24 36 26 58 27 43 28 57 29 44 30 47 31 56 32 70 33
REMARK SMILES IDX 45 34 46 35 55 37 71 38 48 39 37 40 38 41 42 42 39 43 41 44
REMARK SMILES IDX 40 45 59 46 60 47 64 48 61 49 63 50 62 51 49 52 50 53 54 54
REMARK SMILES IDX 51 55 53 56 52 57 8 58 9 59 10 60 11 61 12 62 13 63 17 64
REMARK SMILES IDX 14 65 15 66 16 67 18 68 19 69 20 70 21 71 22 72 23 73 27 74
REMARK SMILES IDX 24 75 26 76 25 77
REMARK H PARENT 69 25 47 36
REMARK Flexibility Score: inf
ROOT
ATOM      1  C   UNL A   1      37.996  22.244  25.735  1.00  0.00     0.202 C 
ENDROOT
BRANCH   1   2
ATOM      2  O   UNL A   1      37.614  21.247  24.781  1.00  0.00    -0.374 OA
BRANCH   2   3
ATOM      3  C   UNL A   1      38.231  19.964  24.899  1.00  0.00     0.202 C 
BRANCH   3   4
ATOM      4  C   UNL A   1      39.210  19.740  26.053  1.00  0.00     0.261 C 
BRANCH   4   5
ATOM      5  O   UNL A   1      40.346  18.975  25.620  1.00  0.00    -0.460 OA
BRANCH   5   6
ATOM      6  C   UNL A   1      41.646  19.246  25.889  1.00  0.00     0.338 C 
ATOM      7  O   UNL A   1      42.485  18.355  25.805  1.00  0.00    -0.246 OA
BRANCH   6   8
ATOM      8  C   UNL A   1      42.091  20.608  26.289  1.00  0.00     0.060 A 
ATOM      9  C   UNL A   1      42.289  21.641  25.375  1.00  0.00     0.016 A 
ATOM     10  C   UNL A   1      42.232  20.890  27.654  1.00  0.00     0.016 A 
ATOM     11  C   UNL A   1      42.714  22.889  25.765  1.00  0.00     0.010 A 
ATOM     12  C   UNL A   1      42.575  22.179  28.072  1.00  0.00     0.010 A 
ATOM     13  C   UNL A   1      42.816  23.176  27.118  1.00  0.00    -0.014 A 
BRANCH  13  14
ATOM     14  C   UNL A   1      43.193  24.550  27.463  1.00  0.00     0.031 A 
ATOM     15  C   UNL A   1      44.619  24.958  27.313  1.00  0.00     0.074 A 
ATOM     16  C   UNL A   1      42.213  25.431  27.740  1.00  0.00     0.049 A 
ATOM     17  N   UNL A   1      45.178  26.099  27.603  1.00  0.00    -0.248 NA
ATOM     18  C   UNL A   1      45.540  23.956  26.746  1.00  0.00     0.031 C 
ATOM     19  C   UNL A   1      40.776  25.126  27.741  1.00  0.00     0.029 A 
ATOM     20  N   UNL A   1      42.266  26.765  28.029  1.00  0.00    -0.354 N 
ATOM     21  C   UNL A   1      46.521  25.938  27.300  1.00  0.00     0.074 A 
ATOM     22  C   UNL A   1      46.696  24.601  26.784  1.00  0.00     0.031 C 
ATOM     23  C   UNL A   1      40.087  26.249  27.992  1.00  0.00     0.029 A 
ATOM     24  C   UNL A   1      41.032  27.321  28.266  1.00  0.00     0.049 A 
ATOM     25  H   UNL A   1      43.106  27.278  28.066  1.00  0.00     0.167 HD
ATOM     26  C   UNL A   1      47.514  26.838  27.471  1.00  0.00     0.031 A 
ATOM     27  C   UNL A   1      40.718  28.548  28.715  1.00  0.00     0.031 A 
ATOM     28  C   UNL A   1      47.290  28.157  27.992  1.00  0.00     0.049 A 
ATOM     29  C   UNL A   1      41.858  29.483  29.006  1.00  0.00     0.074 A 
ATOM     30  C   UNL A   1      48.213  29.147  28.268  1.00  0.00     0.029 A 
ATOM     31  N   UNL A   1      46.039  28.665  28.317  1.00  0.00    -0.354 N 
ATOM     32  N   UNL A   1      43.141  29.311  28.786  1.00  0.00    -0.248 NA
ATOM     33  C   UNL A   1      41.517  30.764  29.632  1.00  0.00     0.031 C 
ATOM     34  C   UNL A   1      47.524  30.233  28.818  1.00  0.00     0.029 A 
ATOM     35  C   UNL A   1      46.167  29.942  28.827  1.00  0.00     0.049 A 
ATOM     36  H   UNL A   1      45.187  28.185  28.201  1.00  0.00     0.167 HD
ATOM     37  C   UNL A   1      43.761  30.464  29.240  1.00  0.00     0.074 A 
ATOM     38  C   UNL A   1      42.707  31.341  29.714  1.00  0.00     0.031 C 
ATOM     39  C   UNL A   1      45.080  30.773  29.281  1.00  0.00     0.031 A 
BRANCH  26  40
ATOM     40  C   UNL A   1      48.914  26.381  27.194  1.00  0.00    -0.014 A 
ATOM     41  C   UNL A   1      49.490  26.475  25.918  1.00  0.00     0.009 A 
ATOM     42  C   UNL A   1      49.672  25.838  28.244  1.00  0.00     0.009 A 
ATOM     43  C   UNL A   1      50.791  26.012  25.697  1.00  0.00     0.001 A 
ATOM     44  C   UNL A   1      50.978  25.398  28.026  1.00  0.00     0.001 A 
ATOM     45  C   UNL A   1      51.534  25.480  26.750  1.00  0.00     0.000 A 
ENDBRANCH  26  40
BRANCH  27  46
ATOM     46  C   UNL A   1      39.309  28.912  29.030  1.00  0.00    -0.014 A 
ATOM     47  C   UNL A   1      38.749  28.634  30.285  1.00  0.00     0.009 A 
ATOM     48  C   UNL A   1      38.495  29.504  28.048  1.00  0.00     0.009 A 
ATOM     49  C   UNL A   1      37.400  28.904  30.536  1.00  0.00     0.001 A 
ATOM     50  C   UNL A   1      37.158  29.807  28.312  1.00  0.00     0.001 A 
ATOM     51  C   UNL A   1      36.607  29.491  29.550  1.00  0.00     0.000 A 
ENDBRANCH  27  46
BRANCH  39  52
ATOM     52  C   UNL A   1      45.434  32.118  29.837  1.00  0.00    -0.014 A 
ATOM     53  C   UNL A   1      45.730  32.282  31.198  1.00  0.00     0.009 A 
ATOM     54  C   UNL A   1      45.518  33.221  28.975  1.00  0.00     0.009 A 
ATOM     55  C   UNL A   1      46.078  33.539  31.691  1.00  0.00     0.001 A 
ATOM     56  C   UNL A   1      45.899  34.468  29.466  1.00  0.00     0.001 A 
ATOM     57  C   UNL A   1      46.170  34.628  30.824  1.00  0.00     0.000 A 
ENDBRANCH  39  52
ENDBRANCH  13  14
ENDBRANCH   6   8
ENDBRANCH   5   6
ENDBRANCH   4   5
ENDBRANCH   3   4
ENDBRANCH   2   3
ENDBRANCH   1   2
BRANCH   1  58
ATOM     58  C   UNL A   1      37.406  23.602  25.330  1.00  0.00     0.261 C 
BRANCH  58  59
ATOM     59  O   UNL A   1      35.971  23.492  25.326  1.00  0.00    -0.462 OA
BRANCH  59  60
ATOM     60  C   UNL A   1      35.396  23.785  24.120  1.00  0.00     0.329 C 
ATOM     61  O   UNL A   1      35.922  23.533  23.044  1.00  0.00    -0.250 OA
BRANCH  60  62
ATOM     62  C   UNL A   1      33.996  24.410  24.306  1.00  0.00     0.204 C 
ATOM     63  C   UNL A   1      34.015  25.615  25.254  1.00  0.00     0.047 C 
ATOM     64  N   UNL A   1      33.097  23.455  24.957  1.00  0.00    -0.265 N 
ATOM     65  C   UNL A   1      32.757  25.490  26.081  1.00  0.00     0.103 C 
ATOM     66  C   UNL A   1      32.510  24.004  26.109  1.00  0.00     0.230 C 
ATOM     67  O   UNL A   1      31.943  23.442  27.016  1.00  0.00    -0.274 OA
BRANCH  64  68
ATOM     68  C   UNL A   1      32.666  22.340  24.251  1.00  0.00     0.253 C 
ATOM     69  O   UNL A   1      31.873  22.416  23.312  1.00  0.00    -0.269 OA
BRANCH  68  70
ATOM     70  C   UNL A   1      33.110  20.989  24.674  1.00  0.00     0.072 C 
ATOM     71  C   UNL A   1      32.474  19.905  24.202  1.00  0.00     0.014 C 
BRANCH  71  72
ATOM     72  C   UNL A   1      32.883  18.497  24.347  1.00  0.00    -0.025 A 
ATOM     73  C   UNL A   1      32.523  17.840  25.534  1.00  0.00     0.008 A 
ATOM     74  C   UNL A   1      33.583  17.773  23.373  1.00  0.00     0.008 A 
ATOM     75  C   UNL A   1      32.823  16.490  25.733  1.00  0.00     0.001 A 
ATOM     76  C   UNL A   1      33.885  16.420  23.573  1.00  0.00     0.001 A 
ATOM     77  C   UNL A   1      33.500  15.779  24.750  1.00  0.00     0.000 A 
ENDBRANCH  71  72
ENDBRANCH  68  70
ENDBRANCH  64  68
ENDBRANCH  60  62
ENDBRANCH  59  60
ENDBRANCH  58  59
ENDBRANCH   1  58
TORSDOF 17
ENDMDL
MODEL 2
REMARK VINA RESULT:     -10.5      5.154     10.321
REMARK SMILES O=C(OCCOCCOC(=O)[C@@H]1CCC(=O)N1C(=O)/C=C/c1ccccc1)c1ccc(-c2c3nc(c(-c4ccccc4)c4ccc([nH]4)c(-c4ccccc4)c4nc(c(-c5ccccc5)c5ccc2[nH]5)C=C4)C=C3)cc1
REMARK SMILES IDX 7 1 6 2 5 3 4 4 3 5 2 6 1 7 28 8 29 9 75 10 30 11 74 12
REMARK SMILES IDX 31 13 32 14 33 15 68 16 34 17 73 18 67 19 69 20 35 21 72 22
REMARK SMILES IDX 66 23 65 24 36 26 58 27 43 28 57 29 44 30 47 31 56 32 70 33
REMARK SMILES IDX 45 34 46 35 55 37 71 38 48 39 37 40 38 41 42 42 39 43 41 44
REMARK SMILES IDX 40 45 59 46 60 47 64 48 61 49 63 50 62 51 49 52 50 53 54 54
REMARK SMILES IDX 51 55 53 56 52 57 8 58 9 59 10 60 11 61 12 62 13 63 17 64
REMARK SMILES IDX 14 65 15 66 16 67 18 68 19 69 20 70 21 71 22 72 23 73 27 74
REMARK SMILES IDX 24 75 26 76 25 77
REMARK H PARENT 69 25 47 36
REMARK Flexibility Score: inf
ROOT
ATOM      1  C   UNL A   1      32.453  29.970  25.898  1.00  0.00     0.202 C 
ENDROOT
BRANCH   1   2
ATOM      2  O   UNL A   1      31.229  30.695  25.736  1.00  0.00    -0.374 OA
BRANCH   2   3
ATOM      3  C   UNL A   1      31.162  31.997  26.322  1.00  0.00     0.202 C 
BRANCH   3   4
ATOM      4  C   UNL A   1      32.387  32.508  27.082  1.00  0.00     0.261 C 
BRANCH   4   5
ATOM      5  O   UNL A   1      32.166  33.839  27.575  1.00  0.00    -0.460 OA
BRANCH   5   6
ATOM      6  C   UNL A   1      32.951  34.511  28.451  1.00  0.00     0.338 C 
ATOM      7  O   UNL A   1      32.676  35.669  28.753  1.00  0.00    -0.246 OA
BRANCH   6   8
ATOM      8  C   UNL A   1      34.151  33.881  29.064  1.00  0.00     0.060 A 
ATOM      9  C   UNL A   1      34.074  32.828  29.974  1.00  0.00     0.016 A 
ATOM     10  C   UNL A   1      35.417  34.304  28.641  1.00  0.00     0.016 A 
ATOM     11  C   UNL A   1      35.196  32.269  30.539  1.00  0.00     0.010 A 
ATOM     12  C   UNL A   1      36.566  33.684  29.138  1.00  0.00     0.010 A 
ATOM     13  C   UNL A   1      36.447  32.664  30.091  1.00  0.00    -0.014 A 
BRANCH  13  14
ATOM     14  C   UNL A   1      37.596  31.967  30.677  1.00  0.00     0.031 A 
ATOM     15  C   UNL A   1      38.005  32.309  32.069  1.00  0.00     0.074 A 
ATOM     16  C   UNL A   1      38.129  30.933  29.999  1.00  0.00     0.049 A 
ATOM     17  N   UNL A   1      39.011  31.855  32.761  1.00  0.00    -0.248 NA
ATOM     18  C   UNL A   1      37.160  33.281  32.788  1.00  0.00     0.031 C 
ATOM     19  C   UNL A   1      37.661  30.444  28.695  1.00  0.00     0.029 A 
ATOM     20  N   UNL A   1      39.145  30.080  30.325  1.00  0.00    -0.354 N 
ATOM     21  C   UNL A   1      38.951  32.518  33.977  1.00  0.00     0.074 A 
ATOM     22  C   UNL A   1      37.800  33.390  33.943  1.00  0.00     0.031 C 
ATOM     23  C   UNL A   1      38.374  29.362  28.348  1.00  0.00     0.029 A 
ATOM     24  C   UNL A   1      39.405  29.145  29.351  1.00  0.00     0.049 A 
ATOM     25  H   UNL A   1      39.643  30.130  31.173  1.00  0.00     0.167 HD
ATOM     26  C   UNL A   1      39.811  32.411  35.013  1.00  0.00     0.031 A 
ATOM     27  C   UNL A   1      40.411  28.257  29.264  1.00  0.00     0.031 A 
ATOM     28  C   UNL A   1      40.945  31.530  34.998  1.00  0.00     0.049 A 
ATOM     29  C   UNL A   1      41.416  28.249  30.382  1.00  0.00     0.074 A 
ATOM     30  C   UNL A   1      41.926  31.365  35.956  1.00  0.00     0.029 A 
ATOM     31  N   UNL A   1      41.243  30.661  33.956  1.00  0.00    -0.354 N 
ATOM     32  N   UNL A   1      41.402  28.926  31.507  1.00  0.00    -0.248 NA
ATOM     33  C   UNL A   1      42.586  27.383  30.210  1.00  0.00     0.031 C 
ATOM     34  C   UNL A   1      42.852  30.440  35.465  1.00  0.00     0.029 A 
ATOM     35  C   UNL A   1      42.415  29.983  34.229  1.00  0.00     0.049 A 
ATOM     36  H   UNL A   1      40.700  30.546  33.143  1.00  0.00     0.167 HD
ATOM     37  C   UNL A   1      42.557  28.564  32.181  1.00  0.00     0.074 A 
ATOM     38  C   UNL A   1      43.228  27.580  31.352  1.00  0.00     0.031 C 
ATOM     39  C   UNL A   1      43.036  29.009  33.368  1.00  0.00     0.031 A 
BRANCH  26  40
ATOM     40  C   UNL A   1      39.610  33.336  36.175  1.00  0.00    -0.014 A 
ATOM     41  C   UNL A   1      40.167  34.623  36.207  1.00  0.00     0.009 A 
ATOM     42  C   UNL A   1      38.844  32.899  37.268  1.00  0.00     0.009 A 
ATOM     43  C   UNL A   1      39.977  35.445  37.322  1.00  0.00     0.001 A 
ATOM     44  C   UNL A   1      38.637  33.730  38.369  1.00  0.00     0.001 A 
ATOM     45  C   UNL A   1      39.210  35.000  38.399  1.00  0.00     0.000 A 
ENDBRANCH  26  40
BRANCH  27  46
ATOM     46  C   UNL A   1      40.586  27.414  28.050  1.00  0.00    -0.014 A 
ATOM     47  C   UNL A   1      40.060  26.116  27.984  1.00  0.00     0.009 A 
ATOM     48  C   UNL A   1      41.329  27.894  26.958  1.00  0.00     0.009 A 
ATOM     49  C   UNL A   1      40.307  25.307  26.870  1.00  0.00     0.001 A 
ATOM     50  C   UNL A   1      41.544  27.098  25.830  1.00  0.00     0.001 A 
ATOM     51  C   UNL A   1      41.048  25.798  25.795  1.00  0.00     0.000 A 
ENDBRANCH  27  46
BRANCH  39  52
ATOM     52  C   UNL A   1      44.330  28.412  33.832  1.00  0.00    -0.014 A 
ATOM     53  C   UNL A   1      45.558  29.000  33.495  1.00  0.00     0.009 A 
ATOM     54  C   UNL A   1      44.311  27.278  34.656  1.00  0.00     0.009 A 
ATOM     55  C   UNL A   1      46.750  28.441  33.955  1.00  0.00     0.001 A 
ATOM     56  C   UNL A   1      45.501  26.742  35.140  1.00  0.00     0.001 A 
ATOM     57  C   UNL A   1      46.720  27.319  34.783  1.00  0.00     0.000 A 
ENDBRANCH  39  52
ENDBRANCH  13  14
ENDBRANCH   6   8
ENDBRANCH   5   6
ENDBRANCH   4   5
ENDBRANCH   3   4
ENDBRANCH   2   3
ENDBRANCH   1   2
BRANCH   1  58
ATOM     58  C   UNL A   1      32.212  28.738  26.779  1.00  0.00     0.261 C 
BRANCH  58  59
ATOM     59  O   UNL A   1      32.763  27.587  26.114  1.00  0.00    -0.462 OA
BRANCH  59  60
ATOM     60  C   UNL A   1      32.099  26.421  26.379  1.00  0.00     0.329 C 
ATOM     61  O   UNL A   1      31.065  26.369  27.033  1.00  0.00    -0.250 OA
BRANCH  60  62
ATOM     62  C   UNL A   1      32.790  25.217  25.703  1.00  0.00     0.204 C 
ATOM     63  C   UNL A   1      34.317  25.356  25.683  1.00  0.00     0.047 C 
ATOM     64  N   UNL A   1      32.418  25.148  24.288  1.00  0.00    -0.265 N 
ATOM     65  C   UNL A   1      34.746  24.836  24.331  1.00  0.00     0.103 C 
ATOM     66  C   UNL A   1      33.552  25.120  23.459  1.00  0.00     0.230 C 
ATOM     67  O   UNL A   1      33.629  25.324  22.270  1.00  0.00    -0.274 OA
BRANCH  64  68
ATOM     68  C   UNL A   1      31.123  24.782  23.946  1.00  0.00     0.253 C 
ATOM     69  O   UNL A   1      30.681  23.649  24.138  1.00  0.00    -0.269 OA
BRANCH  68  70
ATOM     70  C   UNL A   1      30.246  25.759  23.256  1.00  0.00     0.072 C 
ATOM     71  C   UNL A   1      30.147  27.011  23.730  1.00  0.00     0.014 C 
BRANCH  71  72
ATOM     72  C   UNL A   1      29.493  28.162  23.083  1.00  0.00    -0.025 A 
ATOM     73  C   UNL A   1      28.101  28.276  23.224  1.00  0.00     0.008 A 
ATOM     74  C   UNL A   1      30.170  29.153  22.361  1.00  0.00     0.008 A 
ATOM     75  C   UNL A   1      27.406  29.363  22.688  1.00  0.00     0.001 A 
ATOM     76  C   UNL A   1      29.474  30.243  21.823  1.00  0.00     0.001 A 
ATOM     77  C   UNL A   1      28.094  30.350  21.993  1.00  0.00     0.000 A 
ENDBRANCH  71  72
ENDBRANCH  68  70
ENDBRANCH  64  68
ENDBRANCH  60  62
ENDBRANCH  59  60
ENDBRANCH  58  59
ENDBRANCH   1  58
TORSDOF 17
ENDMDL
MODEL 3
REMARK VINA RESULT:     -10.5      0.544      6.008
REMARK SMILES O=C(OCCOCCOC(=O)[C@@H]1CCC(=O)N1C(=O)/C=C/c1ccccc1)c1ccc(-c2c3nc(c(-c4ccccc4)c4ccc([nH]4)c(-c4ccccc4)c4nc(c(-c5ccccc5)c5ccc2[nH]5)C=C4)C=C3)cc1
REMARK SMILES IDX 7 1 6 2 5 3 4 4 3 5 2 6 1 7 28 8 29 9 75 10 30 11 74 12
REMARK SMILES IDX 31 13 32 14 33 15 68 16 34 17 73 18 67 19 69 20 35 21 72 22
REMARK SMILES IDX 66 23 65 24 36 26 58 27 43 28 57 29 44 30 47 31 56 32 70 33
REMARK SMILES IDX 45 34 46 35 55 37 71 38 48 39 37 40 38 41 42 42 39 43 41 44
REMARK SMILES IDX 40 45 59 46 60 47 64 48 61 49 63 50 62 51 49 52 50 53 54 54
REMARK SMILES IDX 51 55 53 56 52 57 8 58 9 59 10 60 11 61 12 62 13 63 17 64
REMARK SMILES IDX 14 65 15 66 16 67 18 68 19 69 20 70 21 71 22 72 23 73 27 74
REMARK SMILES IDX 24 75 26 76 25 77
REMARK H PARENT 69 25 47 36
REMARK Flexibility Score: inf
ROOT
ATOM      1  C   UNL A   1      37.833  22.489  25.361  1.00  0.00     0.202 C 
ENDROOT
BRANCH   1   2
ATOM      2  O   UNL A   1      37.500  21.362  24.544  1.00  0.00    -0.374 OA
BRANCH   2   3
ATOM      3  C   UNL A   1      38.032  20.095  24.935  1.00  0.00     0.202 C 
BRANCH   3   4
ATOM      4  C   UNL A   1      39.104  20.071  26.026  1.00  0.00     0.261 C 
BRANCH   4   5
ATOM      5  O   UNL A   1      40.185  19.197  25.662  1.00  0.00    -0.460 OA
BRANCH   5   6
ATOM      6  C   UNL A   1      41.501  19.405  25.906  1.00  0.00     0.338 C 
ATOM      7  O   UNL A   1      42.299  18.480  25.780  1.00  0.00    -0.246 OA
BRANCH   6   8
ATOM      8  C   UNL A   1      42.015  20.736  26.328  1.00  0.00     0.060 A 
ATOM      9  C   UNL A   1      42.251  21.777  25.432  1.00  0.00     0.016 A 
ATOM     10  C   UNL A   1      42.185  20.982  27.696  1.00  0.00     0.016 A 
ATOM     11  C   UNL A   1      42.739  22.995  25.842  1.00  0.00     0.010 A 
ATOM     12  C   UNL A   1      42.594  22.244  28.135  1.00  0.00     0.010 A 
ATOM     13  C   UNL A   1      42.870  23.249  27.200  1.00  0.00    -0.014 A 
BRANCH  13  14
ATOM     14  C   UNL A   1      43.317  24.596  27.567  1.00  0.00     0.031 A 
ATOM     15  C   UNL A   1      42.307  25.572  28.067  1.00  0.00     0.074 A 
ATOM     16  C   UNL A   1      44.640  24.844  27.595  1.00  0.00     0.049 A 
ATOM     17  N   UNL A   1      42.472  26.820  28.400  1.00  0.00    -0.248 NA
ATOM     18  C   UNL A   1      40.929  25.074  28.232  1.00  0.00     0.031 C 
ATOM     19  C   UNL A   1      45.692  23.870  27.270  1.00  0.00     0.029 A 
ATOM     20  N   UNL A   1      45.331  25.968  27.950  1.00  0.00    -0.354 N 
ATOM     21  C   UNL A   1      41.214  27.272  28.768  1.00  0.00     0.074 A 
ATOM     22  C   UNL A   1      40.296  26.164  28.640  1.00  0.00     0.031 C 
ATOM     23  C   UNL A   1      46.891  24.436  27.468  1.00  0.00     0.029 A 
ATOM     24  C   UNL A   1      46.693  25.830  27.835  1.00  0.00     0.049 A 
ATOM     25  H   UNL A   1      44.896  26.796  28.259  1.00  0.00     0.167 HD
ATOM     26  C   UNL A   1      40.870  28.521  29.153  1.00  0.00     0.031 A 
ATOM     27  C   UNL A   1      47.661  26.755  27.954  1.00  0.00     0.031 A 
ATOM     28  C   UNL A   1      41.820  29.593  29.262  1.00  0.00     0.049 A 
ATOM     29  C   UNL A   1      47.229  28.160  28.267  1.00  0.00     0.074 A 
ATOM     30  C   UNL A   1      41.598  30.917  29.586  1.00  0.00     0.029 A 
ATOM     31  N   UNL A   1      43.184  29.450  29.044  1.00  0.00    -0.354 N 
ATOM     32  N   UNL A   1      46.028  28.610  28.549  1.00  0.00    -0.248 NA
ATOM     33  C   UNL A   1      48.272  29.190  28.252  1.00  0.00     0.031 C 
ATOM     34  C   UNL A   1      42.822  31.588  29.503  1.00  0.00     0.029 A 
ATOM     35  C   UNL A   1      43.815  30.670  29.189  1.00  0.00     0.049 A 
ATOM     36  H   UNL A   1      43.636  28.604  28.819  1.00  0.00     0.167 HD
ATOM     37  C   UNL A   1      46.171  29.972  28.751  1.00  0.00     0.074 A 
ATOM     38  C   UNL A   1      47.583  30.268  28.594  1.00  0.00     0.031 C 
ATOM     39  C   UNL A   1      45.227  30.906  29.024  1.00  0.00     0.031 A 
BRANCH  26  40
ATOM     40  C   UNL A   1      39.414  28.800  29.371  1.00  0.00    -0.014 A 
ATOM     41  C   UNL A   1      38.566  29.193  28.325  1.00  0.00     0.009 A 
ATOM     42  C   UNL A   1      38.883  28.669  30.664  1.00  0.00     0.009 A 
ATOM     43  C   UNL A   1      37.219  29.469  28.577  1.00  0.00     0.001 A 
ATOM     44  C   UNL A   1      37.533  28.922  30.909  1.00  0.00     0.001 A 
ATOM     45  C   UNL A   1      36.703  29.329  29.865  1.00  0.00     0.000 A 
ENDBRANCH  26  40
BRANCH  27  46
ATOM     46  C   UNL A   1      49.081  26.422  27.659  1.00  0.00    -0.014 A 
ATOM     47  C   UNL A   1      49.570  26.418  26.344  1.00  0.00     0.009 A 
ATOM     48  C   UNL A   1      49.952  26.056  28.700  1.00  0.00     0.009 A 
ATOM     49  C   UNL A   1      50.883  26.019  26.077  1.00  0.00     0.001 A 
ATOM     50  C   UNL A   1      51.275  25.693  28.435  1.00  0.00     0.001 A 
ATOM     51  C   UNL A   1      51.734  25.658  27.122  1.00  0.00     0.000 A 
ENDBRANCH  27  46
BRANCH  39  52
ATOM     52  C   UNL A   1      45.709  32.315  29.189  1.00  0.00    -0.014 A 
ATOM     53  C   UNL A   1      46.147  32.787  30.434  1.00  0.00     0.009 A 
ATOM     54  C   UNL A   1      45.769  33.160  28.071  1.00  0.00     0.009 A 
ATOM     55  C   UNL A   1      46.612  34.095  30.562  1.00  0.00     0.001 A 
ATOM     56  C   UNL A   1      46.266  34.455  28.196  1.00  0.00     0.001 A 
ATOM     57  C   UNL A   1      46.679  34.924  29.442  1.00  0.00     0.000 A 
ENDBRANCH  39  52
ENDBRANCH  13  14
ENDBRANCH   6   8
ENDBRANCH   5   6
ENDBRANCH   4   5
ENDBRANCH   3   4
ENDBRANCH   2   3
ENDBRANCH   1   2
BRANCH   1  58
ATOM     58  C   UNL A   1      36.919  23.671  25.013  1.00  0.00     0.261 C 
BRANCH  58  59
ATOM     59  O   UNL A   1      35.559  23.200  24.981  1.00  0.00    -0.462 OA
BRANCH  59  60
ATOM     60  C   UNL A   1      34.852  23.618  23.887  1.00  0.00     0.329 C 
ATOM     61  O   UNL A   1      35.203  23.397  22.735  1.00  0.00    -0.250 OA
BRANCH  60  62
ATOM     62  C   UNL A   1      33.551  24.338  24.303  1.00  0.00     0.204 C 
ATOM     63  C   UNL A   1      33.744  25.221  25.543  1.00  0.00     0.047 C 
ATOM     64  N   UNL A   1      32.540  23.361  24.712  1.00  0.00    -0.265 N 
ATOM     65  C   UNL A   1      32.489  25.031  26.364  1.00  0.00     0.103 C 
ATOM     66  C   UNL A   1      32.046  23.640  25.997  1.00  0.00     0.230 C 
ATOM     67  O   UNL A   1      31.418  22.924  26.742  1.00  0.00    -0.274 OA
BRANCH  64  68
ATOM     68  C   UNL A   1      31.954  22.550  23.750  1.00  0.00     0.253 C 
ATOM     69  O   UNL A   1      30.995  22.914  23.069  1.00  0.00    -0.269 OA
BRANCH  68  70
ATOM     70  C   UNL A   1      32.442  21.161  23.569  1.00  0.00     0.072 C 
ATOM     71  C   UNL A   1      32.496  20.335  24.626  1.00  0.00     0.014 C 
BRANCH  71  72
ATOM     72  C   UNL A   1      32.761  18.886  24.614  1.00  0.00    -0.025 A 
ATOM     73  C   UNL A   1      33.191  18.319  23.403  1.00  0.00     0.008 A 
ATOM     74  C   UNL A   1      32.634  18.048  25.730  1.00  0.00     0.008 A 
ATOM     75  C   UNL A   1      33.516  16.963  23.314  1.00  0.00     0.001 A 
ATOM     76  C   UNL A   1      32.959  16.689  25.640  1.00  0.00     0.001 A 
ATOM     77  C   UNL A   1      33.405  16.150  24.435  1.00  0.00     0.000 A 
ENDBRANCH  71  72
ENDBRANCH  68  70
ENDBRANCH  64  68
ENDBRANCH  60  62
ENDBRANCH  59  60
ENDBRANCH  58  59
ENDBRANCH   1  58
TORSDOF 17
ENDMDL
