MODEL 1
REMARK VINA RESULT:      -9.2      0.000      0.000
REMARK SMILES Cc1cc(Cl)c2c(c1)C=C(C(=O)OCCOCCOC(=O)c1ccc(-c3c4nc(c(-c5ccccc5)c5ccc([nH]5)c(-c5ccccc5)c5nc(c(-c6ccccc6)c6ccc3[nH]6)C=C5)C=C4)cc1)[C@@H](C(F)(F)F)O2
REMARK SMILES IDX 17 1 16 2 15 3 14 4 13 5 11 6 12 7 10 8 1 9 2 10 3 11 8 12
REMARK SMILES IDX 4 13 7 14 5 15 6 16 9 17 75 18 70 19 71 20 72 21 73 22 74 23
REMARK SMILES IDX 18 24 19 25 20 26 21 27 22 28 23 29 69 30 24 31 68 32 25 33
REMARK SMILES IDX 26 34 27 35 62 36 28 37 67 38 61 39 63 40 29 41 66 42 60 43
REMARK SMILES IDX 59 44 30 46 52 47 37 48 51 49 38 50 41 51 50 52 64 53 39 54
REMARK SMILES IDX 40 55 49 57 65 58 42 59 31 60 32 61 36 62 33 63 35 64 34 65
REMARK SMILES IDX 53 66 54 67 58 68 55 69 57 70 56 71 43 72 44 73 48 74 45 75
REMARK SMILES IDX 47 76 46 77
REMARK H PARENT 63 45 41 56
REMARK Flexibility Score: inf
ROOT
ATOM      1  C   UNL A   1      33.810  34.626  28.009  1.00  0.00     0.202 C 
ENDROOT
BRANCH   1   2
ATOM      2  O   UNL A   1      32.750  35.350  28.637  1.00  0.00    -0.374 OA
BRANCH   2   3
ATOM      3  C   UNL A   1      33.054  36.068  29.831  1.00  0.00     0.202 C 
BRANCH   3   4
ATOM      4  C   UNL A   1      32.899  35.299  31.146  1.00  0.00     0.261 C 
BRANCH   4   5
ATOM      5  O   UNL A   1      34.135  35.266  31.878  1.00  0.00    -0.460 OA
BRANCH   5   6
ATOM      6  C   UNL A   1      34.841  34.120  31.741  1.00  0.00     0.338 C 
ATOM      7  O   UNL A   1      34.438  33.063  31.279  1.00  0.00    -0.246 OA
BRANCH   6   8
ATOM      8  C   UNL A   1      36.247  34.346  32.123  1.00  0.00     0.087 C 
ATOM      9  C   UNL A   1      41.897  33.589  29.812  1.00  0.00     0.044 C 
ATOM     10  C   UNL A   1      40.875  33.980  30.838  1.00  0.00    -0.049 A 
ATOM     11  C   UNL A   1      41.257  34.276  32.152  1.00  0.00     0.028 A 
ATOM     12  C   UNL A   1      39.515  33.978  30.516  1.00  0.00     0.015 A 
ATOM     13  C   UNL A   1      40.294  34.598  33.115  1.00  0.00     0.084 A 
ATOM     14  C   UNL A   1      38.548  34.274  31.486  1.00  0.00     0.019 A 
ATOM     15  Cl  UNL A   1      40.833  34.954  34.718  1.00  0.00    -0.080 Cl
ATOM     16  C   UNL A   1      38.933  34.600  32.789  1.00  0.00     0.146 A 
ATOM     17  C   UNL A   1      37.142  34.182  31.143  1.00  0.00     0.027 C 
ATOM     18  O   UNL A   1      38.030  34.937  33.762  1.00  0.00    -0.474 OA
ATOM     19  C   UNL A   1      36.612  34.706  33.536  1.00  0.00     0.316 C 
BRANCH  19  20
ATOM     20  C   UNL A   1      36.112  33.668  34.552  1.00  0.00     0.430 C 
ATOM     21  F   UNL A   1      36.749  33.794  35.740  1.00  0.00    -0.167 F 
ATOM     22  F   UNL A   1      34.791  33.814  34.806  1.00  0.00    -0.167 F 
ATOM     23  F   UNL A   1      36.302  32.401  34.118  1.00  0.00    -0.167 F 
ENDBRANCH  19  20
ENDBRANCH   6   8
ENDBRANCH   5   6
ENDBRANCH   4   5
ENDBRANCH   3   4
ENDBRANCH   2   3
ENDBRANCH   1   2
BRANCH   1  24
ATOM     24  C   UNL A   1      33.763  33.097  28.111  1.00  0.00     0.261 C 
BRANCH  24  25
ATOM     25  O   UNL A   1      34.983  32.487  27.650  1.00  0.00    -0.460 OA
BRANCH  25  26
ATOM     26  C   UNL A   1      35.028  31.141  27.797  1.00  0.00     0.338 C 
ATOM     27  O   UNL A   1      34.333  30.307  27.234  1.00  0.00    -0.246 OA
BRANCH  26  28
ATOM     28  C   UNL A   1      36.181  30.760  28.630  1.00  0.00     0.060 A 
ATOM     29  C   UNL A   1      37.401  31.403  28.378  1.00  0.00     0.016 A 
ATOM     30  C   UNL A   1      36.101  29.717  29.556  1.00  0.00     0.016 A 
ATOM     31  C   UNL A   1      38.563  30.961  29.003  1.00  0.00     0.010 A 
ATOM     32  C   UNL A   1      37.273  29.265  30.170  1.00  0.00     0.010 A 
ATOM     33  C   UNL A   1      38.512  29.856  29.861  1.00  0.00    -0.014 A 
BRANCH  33  34
ATOM     34  C   UNL A   1      39.770  29.193  30.271  1.00  0.00     0.031 A 
ATOM     35  C   UNL A   1      40.480  29.694  31.499  1.00  0.00     0.074 A 
ATOM     36  C   UNL A   1      40.254  28.138  29.593  1.00  0.00     0.049 A 
ATOM     37  N   UNL A   1      41.624  29.316  32.008  1.00  0.00    -0.248 NA
ATOM     38  C   UNL A   1      39.803  30.758  32.259  1.00  0.00     0.031 C 
ATOM     39  C   UNL A   1      39.619  27.508  28.439  1.00  0.00     0.029 A 
ATOM     40  N   UNL A   1      41.402  27.414  29.787  1.00  0.00    -0.354 N 
ATOM     41  C   UNL A   1      41.807  30.098  33.142  1.00  0.00     0.074 A 
ATOM     42  C   UNL A   1      40.668  30.986  33.236  1.00  0.00     0.031 C 
ATOM     43  C   UNL A   1      40.390  26.488  28.022  1.00  0.00     0.029 A 
ATOM     44  C   UNL A   1      41.589  26.423  28.856  1.00  0.00     0.049 A 
ATOM     45  H   UNL A   1      42.032  27.586  30.524  1.00  0.00     0.167 HD
ATOM     46  C   UNL A   1      42.830  30.078  34.028  1.00  0.00     0.031 A 
ATOM     47  C   UNL A   1      42.623  25.579  28.682  1.00  0.00     0.031 A 
ATOM     48  C   UNL A   1      43.973  29.214  33.924  1.00  0.00     0.049 A 
ATOM     49  C   UNL A   1      43.802  25.653  29.614  1.00  0.00     0.074 A 
ATOM     50  C   UNL A   1      45.076  29.137  34.756  1.00  0.00     0.029 A 
ATOM     51  N   UNL A   1      44.160  28.277  32.921  1.00  0.00    -0.354 N 
ATOM     52  N   UNL A   1      43.982  26.420  30.662  1.00  0.00    -0.248 NA
ATOM     53  C   UNL A   1      44.925  24.746  29.332  1.00  0.00     0.031 C 
ATOM     54  C   UNL A   1      45.954  28.184  34.229  1.00  0.00     0.029 A 
ATOM     55  C   UNL A   1      45.371  27.629  33.101  1.00  0.00     0.049 A 
ATOM     56  H   UNL A   1      43.527  28.097  32.189  1.00  0.00     0.167 HD
ATOM     57  C   UNL A   1      45.228  26.077  31.174  1.00  0.00     0.074 A 
ATOM     58  C   UNL A   1      45.749  25.019  30.333  1.00  0.00     0.031 C 
ATOM     59  C   UNL A   1      45.882  26.592  32.244  1.00  0.00     0.031 A 
BRANCH  46  60
ATOM     60  C   UNL A   1      42.770  31.050  35.172  1.00  0.00    -0.014 A 
ATOM     61  C   UNL A   1      42.130  30.717  36.376  1.00  0.00     0.009 A 
ATOM     62  C   UNL A   1      43.389  32.304  35.055  1.00  0.00     0.009 A 
ATOM     63  C   UNL A   1      42.092  31.629  37.432  1.00  0.00     0.001 A 
ATOM     64  C   UNL A   1      43.371  33.205  36.121  1.00  0.00     0.001 A 
ATOM     65  C   UNL A   1      42.717  32.870  37.306  1.00  0.00     0.000 A 
ENDBRANCH  46  60
BRANCH  47  66
ATOM     66  C   UNL A   1      42.606  24.604  27.561  1.00  0.00    -0.014 A 
ATOM     67  C   UNL A   1      42.047  23.329  27.734  1.00  0.00     0.009 A 
ATOM     68  C   UNL A   1      43.157  24.941  26.315  1.00  0.00     0.009 A 
ATOM     69  C   UNL A   1      42.055  22.406  26.685  1.00  0.00     0.001 A 
ATOM     70  C   UNL A   1      43.140  24.026  25.260  1.00  0.00     0.001 A 
ATOM     71  C   UNL A   1      42.596  22.758  25.448  1.00  0.00     0.000 A 
ENDBRANCH  47  66
BRANCH  59  72
ATOM     72  C   UNL A   1      47.227  26.007  32.574  1.00  0.00    -0.014 A 
ATOM     73  C   UNL A   1      47.365  25.015  33.556  1.00  0.00     0.009 A 
ATOM     74  C   UNL A   1      48.362  26.426  31.863  1.00  0.00     0.009 A 
ATOM     75  C   UNL A   1      48.622  24.478  33.845  1.00  0.00     0.001 A 
ATOM     76  C   UNL A   1      49.612  25.867  32.133  1.00  0.00     0.001 A 
ATOM     77  C   UNL A   1      49.743  24.902  33.130  1.00  0.00     0.000 A 
ENDBRANCH  59  72
ENDBRANCH  33  34
ENDBRANCH  26  28
ENDBRANCH  25  26
ENDBRANCH  24  25
ENDBRANCH   1  24
TORSDOF 15
ENDMDL
MODEL 2
REMARK VINA RESULT:      -9.1      5.068      9.836
REMARK SMILES Cc1cc(Cl)c2c(c1)C=C(C(=O)OCCOCCOC(=O)c1ccc(-c3c4nc(c(-c5ccccc5)c5ccc([nH]5)c(-c5ccccc5)c5nc(c(-c6ccccc6)c6ccc3[nH]6)C=C5)C=C4)cc1)[C@@H](C(F)(F)F)O2
REMARK SMILES IDX 17 1 16 2 15 3 14 4 13 5 11 6 12 7 10 8 1 9 2 10 3 11 8 12
REMARK SMILES IDX 4 13 7 14 5 15 6 16 9 17 75 18 70 19 71 20 72 21 73 22 74 23
REMARK SMILES IDX 18 24 19 25 20 26 21 27 22 28 23 29 69 30 24 31 68 32 25 33
REMARK SMILES IDX 26 34 27 35 62 36 28 37 67 38 61 39 63 40 29 41 66 42 60 43
REMARK SMILES IDX 59 44 30 46 52 47 37 48 51 49 38 50 41 51 50 52 64 53 39 54
REMARK SMILES IDX 40 55 49 57 65 58 42 59 31 60 32 61 36 62 33 63 35 64 34 65
REMARK SMILES IDX 53 66 54 67 58 68 55 69 57 70 56 71 43 72 44 73 48 74 45 75
REMARK SMILES IDX 47 76 46 77
REMARK H PARENT 63 45 41 56
REMARK Flexibility Score: inf
ROOT
ATOM      1  C   UNL A   1      31.978  30.417  26.095  1.00  0.00     0.202 C 
ENDROOT
BRANCH   1   2
ATOM      2  O   UNL A   1      32.896  29.685  25.283  1.00  0.00    -0.374 OA
BRANCH   2   3
ATOM      3  C   UNL A   1      33.794  28.790  25.937  1.00  0.00     0.202 C 
BRANCH   3   4
ATOM      4  C   UNL A   1      33.832  27.355  25.405  1.00  0.00     0.261 C 
BRANCH   4   5
ATOM      5  O   UNL A   1      33.616  27.321  23.985  1.00  0.00    -0.460 OA
BRANCH   5   6
ATOM      6  C   UNL A   1      32.802  26.327  23.562  1.00  0.00     0.338 C 
ATOM      7  O   UNL A   1      33.097  25.149  23.425  1.00  0.00    -0.246 OA
BRANCH   6   8
ATOM      8  C   UNL A   1      31.429  26.837  23.394  1.00  0.00     0.087 C 
ATOM      9  C   UNL A   1      28.528  31.864  21.357  1.00  0.00     0.044 C 
ATOM     10  C   UNL A   1      28.642  30.490  21.947  1.00  0.00    -0.049 A 
ATOM     11  C   UNL A   1      27.534  29.871  22.538  1.00  0.00     0.028 A 
ATOM     12  C   UNL A   1      29.878  29.838  21.985  1.00  0.00     0.015 A 
ATOM     13  C   UNL A   1      27.658  28.607  23.125  1.00  0.00     0.084 A 
ATOM     14  C   UNL A   1      30.009  28.584  22.596  1.00  0.00     0.019 A 
ATOM     15  Cl  UNL A   1      26.251  27.897  23.836  1.00  0.00    -0.080 Cl
ATOM     16  C   UNL A   1      28.896  27.954  23.158  1.00  0.00     0.146 A 
ATOM     17  C   UNL A   1      31.319  27.971  22.694  1.00  0.00     0.027 C 
ATOM     18  O   UNL A   1      28.962  26.710  23.730  1.00  0.00    -0.474 OA
ATOM     19  C   UNL A   1      30.261  26.118  24.008  1.00  0.00     0.316 C 
BRANCH  19  20
ATOM     20  C   UNL A   1      30.412  25.948  25.527  1.00  0.00     0.430 C 
ATOM     21  F   UNL A   1      30.819  27.098  26.114  1.00  0.00    -0.167 F 
ATOM     22  F   UNL A   1      29.237  25.613  26.110  1.00  0.00    -0.167 F 
ATOM     23  F   UNL A   1      31.309  24.987  25.843  1.00  0.00    -0.167 F 
ENDBRANCH  19  20
ENDBRANCH   6   8
ENDBRANCH   5   6
ENDBRANCH   4   5
ENDBRANCH   3   4
ENDBRANCH   2   3
ENDBRANCH   1   2
BRANCH   1  24
ATOM     24  C   UNL A   1      32.564  31.178  27.291  1.00  0.00     0.261 C 
BRANCH  24  25
ATOM     25  O   UNL A   1      33.249  32.378  26.886  1.00  0.00    -0.460 OA
BRANCH  25  26
ATOM     26  C   UNL A   1      33.297  33.344  27.833  1.00  0.00     0.338 C 
ATOM     27  O   UNL A   1      32.414  34.133  28.137  1.00  0.00    -0.246 OA
BRANCH  26  28
ATOM     28  C   UNL A   1      34.540  33.227  28.615  1.00  0.00     0.060 A 
ATOM     29  C   UNL A   1      35.729  33.654  28.006  1.00  0.00     0.016 A 
ATOM     30  C   UNL A   1      34.561  32.608  29.866  1.00  0.00     0.016 A 
ATOM     31  C   UNL A   1      36.953  33.404  28.618  1.00  0.00     0.010 A 
ATOM     32  C   UNL A   1      35.793  32.344  30.471  1.00  0.00     0.010 A 
ATOM     33  C   UNL A   1      36.993  32.700  29.828  1.00  0.00    -0.014 A 
BRANCH  33  34
ATOM     34  C   UNL A   1      38.282  32.159  30.314  1.00  0.00     0.031 A 
ATOM     35  C   UNL A   1      38.764  30.845  29.763  1.00  0.00     0.074 A 
ATOM     36  C   UNL A   1      39.033  32.839  31.196  1.00  0.00     0.049 A 
ATOM     37  N   UNL A   1      39.821  30.148  30.088  1.00  0.00    -0.248 NA
ATOM     38  C   UNL A   1      37.946  30.241  28.698  1.00  0.00     0.031 C 
ATOM     39  C   UNL A   1      38.717  34.158  31.741  1.00  0.00     0.029 A 
ATOM     40  N   UNL A   1      40.224  32.504  31.788  1.00  0.00    -0.354 N 
ATOM     41  C   UNL A   1      39.794  29.022  29.273  1.00  0.00     0.074 A 
ATOM     42  C   UNL A   1      38.606  29.118  28.453  1.00  0.00     0.031 C 
ATOM     43  C   UNL A   1      39.692  34.519  32.594  1.00  0.00     0.029 A 
ATOM     44  C   UNL A   1      40.675  33.441  32.683  1.00  0.00     0.049 A 
ATOM     45  H   UNL A   1      40.710  31.670  31.589  1.00  0.00     0.167 HD
ATOM     46  C   UNL A   1      40.680  28.001  29.209  1.00  0.00     0.031 A 
ATOM     47  C   UNL A   1      41.746  33.418  33.498  1.00  0.00     0.031 A 
ATOM     48  C   UNL A   1      41.849  27.892  30.038  1.00  0.00     0.049 A 
ATOM     49  C   UNL A   1      42.655  32.219  33.491  1.00  0.00     0.074 A 
ATOM     50  C   UNL A   1      42.794  26.882  30.069  1.00  0.00     0.029 A 
ATOM     51  N   UNL A   1      42.229  28.827  30.987  1.00  0.00    -0.354 N 
ATOM     52  N   UNL A   1      42.601  31.144  32.742  1.00  0.00    -0.248 NA
ATOM     53  C   UNL A   1      43.771  32.230  34.448  1.00  0.00     0.031 C 
ATOM     54  C   UNL A   1      43.722  27.185  31.071  1.00  0.00     0.029 A 
ATOM     55  C   UNL A   1      43.385  28.409  31.625  1.00  0.00     0.049 A 
ATOM     56  H   UNL A   1      41.749  29.665  31.180  1.00  0.00     0.167 HD
ATOM     57  C   UNL A   1      43.683  30.360  33.125  1.00  0.00     0.074 A 
ATOM     58  C   UNL A   1      44.386  31.092  34.158  1.00  0.00     0.031 C 
ATOM     59  C   UNL A   1      44.061  29.142  32.663  1.00  0.00     0.031 A 
BRANCH  46  60
ATOM     60  C   UNL A   1      40.395  26.902  28.227  1.00  0.00    -0.014 A 
ATOM     61  C   UNL A   1      40.927  26.931  26.929  1.00  0.00     0.009 A 
ATOM     62  C   UNL A   1      39.609  25.806  28.616  1.00  0.00     0.009 A 
ATOM     63  C   UNL A   1      40.660  25.895  26.032  1.00  0.00     0.001 A 
ATOM     64  C   UNL A   1      39.363  24.760  27.726  1.00  0.00     0.001 A 
ATOM     65  C   UNL A   1      39.882  24.808  26.432  1.00  0.00     0.000 A 
ENDBRANCH  46  60
BRANCH  47  66
ATOM     66  C   UNL A   1      42.006  34.558  34.415  1.00  0.00    -0.014 A 
ATOM     67  C   UNL A   1      41.489  34.556  35.719  1.00  0.00     0.009 A 
ATOM     68  C   UNL A   1      42.766  35.658  33.986  1.00  0.00     0.009 A 
ATOM     69  C   UNL A   1      41.715  35.642  36.570  1.00  0.00     0.001 A 
ATOM     70  C   UNL A   1      43.012  36.729  34.848  1.00  0.00     0.001 A 
ATOM     71  C   UNL A   1      42.480  36.723  36.135  1.00  0.00     0.000 A 
ENDBRANCH  47  66
BRANCH  59  72
ATOM     72  C   UNL A   1      45.297  28.534  33.263  1.00  0.00    -0.014 A 
ATOM     73  C   UNL A   1      46.568  28.800  32.731  1.00  0.00     0.009 A 
ATOM     74  C   UNL A   1      45.191  27.716  34.398  1.00  0.00     0.009 A 
ATOM     75  C   UNL A   1      47.706  28.231  33.305  1.00  0.00     0.001 A 
ATOM     76  C   UNL A   1      46.333  27.172  34.987  1.00  0.00     0.001 A 
ATOM     77  C   UNL A   1      47.588  27.421  34.435  1.00  0.00     0.000 A 
ENDBRANCH  59  72
ENDBRANCH  33  34
ENDBRANCH  26  28
ENDBRANCH  25  26
ENDBRANCH  24  25
ENDBRANCH   1  24
TORSDOF 15
ENDMDL
MODEL 3
REMARK VINA RESULT:      -9.0      6.035      9.743
REMARK SMILES Cc1cc(Cl)c2c(c1)C=C(C(=O)OCCOCCOC(=O)c1ccc(-c3c4nc(c(-c5ccccc5)c5ccc([nH]5)c(-c5ccccc5)c5nc(c(-c6ccccc6)c6ccc3[nH]6)C=C5)C=C4)cc1)[C@@H](C(F)(F)F)O2
REMARK SMILES IDX 17 1 16 2 15 3 14 4 13 5 11 6 12 7 10 8 1 9 2 10 3 11 8 12
REMARK SMILES IDX 4 13 7 14 5 15 6 16 9 17 75 18 70 19 71 20 72 21 73 22 74 23
REMARK SMILES IDX 18 24 19 25 20 26 21 27 22 28 23 29 69 30 24 31 68 32 25 33
REMARK SMILES IDX 26 34 27 35 62 36 28 37 67 38 61 39 63 40 29 41 66 42 60 43
REMARK SMILES IDX 59 44 30 46 52 47 37 48 51 49 38 50 41 51 50 52 64 53 39 54
REMARK SMILES IDX 40 55 49 57 65 58 42 59 31 60 32 61 36 62 33 63 35 64 34 65
REMARK SMILES IDX 53 66 54 67 58 68 55 69 57 70 56 71 43 72 44 73 48 74 45 75
REMARK SMILES IDX 47 76 46 77
REMARK H PARENT 63 45 41 56
REMARK Flexibility Score: inf
ROOT
ATOM      1  C   UNL A   1      35.955  20.279  24.988  1.00  0.00     0.202 C 
ENDROOT
BRANCH   1   2
ATOM      2  O   UNL A   1      35.510  21.602  25.296  1.00  0.00    -0.374 OA
BRANCH   2   3
ATOM      3  C   UNL A   1      34.815  21.798  26.525  1.00  0.00     0.202 C 
BRANCH   3   4
ATOM      4  C   UNL A   1      33.295  21.614  26.483  1.00  0.00     0.261 C 
BRANCH   4   5
ATOM      5  O   UNL A   1      32.622  22.682  27.169  1.00  0.00    -0.460 OA
BRANCH   5   6
ATOM      6  C   UNL A   1      31.644  23.284  26.455  1.00  0.00     0.338 C 
ATOM      7  O   UNL A   1      30.472  22.944  26.391  1.00  0.00    -0.246 OA
BRANCH   6   8
ATOM      8  C   UNL A   1      32.159  24.517  25.832  1.00  0.00     0.087 C 
ATOM      9  C   UNL A   1      31.790  30.616  26.542  1.00  0.00     0.044 C 
ATOM     10  C   UNL A   1      32.233  29.333  25.904  1.00  0.00    -0.049 A 
ATOM     11  C   UNL A   1      32.862  29.336  24.653  1.00  0.00     0.028 A 
ATOM     12  C   UNL A   1      31.954  28.107  26.515  1.00  0.00     0.015 A 
ATOM     13  C   UNL A   1      33.234  28.133  24.044  1.00  0.00     0.084 A 
ATOM     14  C   UNL A   1      32.302  26.901  25.893  1.00  0.00     0.019 A 
ATOM     15  Cl  UNL A   1      34.008  28.206  22.500  1.00  0.00    -0.080 Cl
ATOM     16  C   UNL A   1      32.958  26.906  24.660  1.00  0.00     0.146 A 
ATOM     17  C   UNL A   1      31.924  25.645  26.512  1.00  0.00     0.027 C 
ATOM     18  O   UNL A   1      33.356  25.756  24.031  1.00  0.00    -0.474 OA
ATOM     19  C   UNL A   1      32.868  24.472  24.508  1.00  0.00     0.316 C 
BRANCH  19  20
ATOM     20  C   UNL A   1      32.011  23.829  23.407  1.00  0.00     0.430 C 
ATOM     21  F   UNL A   1      32.396  24.244  22.177  1.00  0.00    -0.167 F 
ATOM     22  F   UNL A   1      32.124  22.480  23.411  1.00  0.00    -0.167 F 
ATOM     23  F   UNL A   1      30.700  24.126  23.547  1.00  0.00    -0.167 F 
ENDBRANCH  19  20
ENDBRANCH   6   8
ENDBRANCH   5   6
ENDBRANCH   4   5
ENDBRANCH   3   4
ENDBRANCH   2   3
ENDBRANCH   1   2
BRANCH   1  24
ATOM     24  C   UNL A   1      37.471  20.052  24.936  1.00  0.00     0.261 C 
BRANCH  24  25
ATOM     25  O   UNL A   1      38.208  21.236  25.293  1.00  0.00    -0.460 OA
BRANCH  25  26
ATOM     26  C   UNL A   1      39.300  21.008  26.060  1.00  0.00     0.338 C 
ATOM     27  O   UNL A   1      39.957  19.979  26.133  1.00  0.00    -0.246 OA
BRANCH  26  28
ATOM     28  C   UNL A   1      39.734  22.256  26.709  1.00  0.00     0.060 A 
ATOM     29  C   UNL A   1      39.109  23.445  26.306  1.00  0.00     0.016 A 
ATOM     30  C   UNL A   1      40.806  22.281  27.604  1.00  0.00     0.016 A 
ATOM     31  C   UNL A   1      39.597  24.672  26.747  1.00  0.00     0.010 A 
ATOM     32  C   UNL A   1      41.303  23.515  28.032  1.00  0.00     0.010 A 
ATOM     33  C   UNL A   1      40.729  24.713  27.569  1.00  0.00    -0.014 A 
BRANCH  33  34
ATOM     34  C   UNL A   1      41.433  25.999  27.777  1.00  0.00     0.031 A 
ATOM     35  C   UNL A   1      40.771  27.053  28.622  1.00  0.00     0.074 A 
ATOM     36  C   UNL A   1      42.655  26.215  27.261  1.00  0.00     0.049 A 
ATOM     37  N   UNL A   1      41.163  28.272  28.885  1.00  0.00    -0.248 NA
ATOM     38  C   UNL A   1      39.499  26.676  29.262  1.00  0.00     0.031 C 
ATOM     39  C   UNL A   1      43.436  25.246  26.496  1.00  0.00     0.029 A 
ATOM     40  N   UNL A   1      43.451  27.331  27.309  1.00  0.00    -0.354 N 
ATOM     41  C   UNL A   1      40.186  28.810  29.715  1.00  0.00     0.074 A 
ATOM     42  C   UNL A   1      39.173  27.794  29.895  1.00  0.00     0.031 C 
ATOM     43  C   UNL A   1      44.602  25.813  26.141  1.00  0.00     0.029 A 
ATOM     44  C   UNL A   1      44.630  27.193  26.620  1.00  0.00     0.049 A 
ATOM     45  H   UNL A   1      43.201  28.152  27.793  1.00  0.00     0.167 HD
ATOM     46  C   UNL A   1      40.138  30.039  30.279  1.00  0.00     0.031 A 
ATOM     47  C   UNL A   1      45.605  28.090  26.382  1.00  0.00     0.031 A 
ATOM     48  C   UNL A   1      41.132  31.059  30.083  1.00  0.00     0.049 A 
ATOM     49  C   UNL A   1      45.474  29.486  26.926  1.00  0.00     0.074 A 
ATOM     50  C   UNL A   1      41.159  32.346  30.589  1.00  0.00     0.029 A 
ATOM     51  N   UNL A   1      42.274  30.905  29.314  1.00  0.00    -0.354 N 
ATOM     52  N   UNL A   1      44.530  29.996  27.680  1.00  0.00    -0.248 NA
ATOM     53  C   UNL A   1      46.544  30.433  26.579  1.00  0.00     0.031 C 
ATOM     54  C   UNL A   1      42.297  32.987  30.087  1.00  0.00     0.029 A 
ATOM     55  C   UNL A   1      43.005  32.081  29.314  1.00  0.00     0.049 A 
ATOM     56  H   UNL A   1      42.529  30.081  28.838  1.00  0.00     0.167 HD
ATOM     57  C   UNL A   1      44.900  31.316  27.911  1.00  0.00     0.074 A 
ATOM     58  C   UNL A   1      46.164  31.521  27.235  1.00  0.00     0.031 C 
ATOM     59  C   UNL A   1      44.252  32.272  28.621  1.00  0.00     0.031 A 
BRANCH  46  60
ATOM     60  C   UNL A   1      38.948  30.357  31.138  1.00  0.00    -0.014 A 
ATOM     61  C   UNL A   1      37.797  30.947  30.594  1.00  0.00     0.009 A 
ATOM     62  C   UNL A   1      38.966  30.033  32.503  1.00  0.00     0.009 A 
ATOM     63  C   UNL A   1      36.695  31.227  31.405  1.00  0.00     0.001 A 
ATOM     64  C   UNL A   1      37.855  30.291  33.308  1.00  0.00     0.001 A 
ATOM     65  C   UNL A   1      36.723  30.894  32.760  1.00  0.00     0.000 A 
ENDBRANCH  46  60
BRANCH  47  66
ATOM     66  C   UNL A   1      46.785  27.704  25.566  1.00  0.00    -0.014 A 
ATOM     67  C   UNL A   1      47.934  27.181  26.177  1.00  0.00     0.009 A 
ATOM     68  C   UNL A   1      46.770  27.866  24.172  1.00  0.00     0.009 A 
ATOM     69  C   UNL A   1      49.052  26.843  25.408  1.00  0.00     0.001 A 
ATOM     70  C   UNL A   1      47.878  27.503  23.404  1.00  0.00     0.001 A 
ATOM     71  C   UNL A   1      49.020  26.998  24.023  1.00  0.00     0.000 A 
ENDBRANCH  47  66
BRANCH  59  72
ATOM     72  C   UNL A   1      44.906  33.622  28.711  1.00  0.00    -0.014 A 
ATOM     73  C   UNL A   1      45.838  33.910  29.720  1.00  0.00     0.009 A 
ATOM     74  C   UNL A   1      44.616  34.603  27.751  1.00  0.00     0.009 A 
ATOM     75  C   UNL A   1      46.441  35.168  29.785  1.00  0.00     0.001 A 
ATOM     76  C   UNL A   1      45.241  35.850  27.801  1.00  0.00     0.001 A 
ATOM     77  C   UNL A   1      46.145  36.135  28.823  1.00  0.00     0.000 A 
ENDBRANCH  59  72
ENDBRANCH  33  34
ENDBRANCH  26  28
ENDBRANCH  25  26
ENDBRANCH  24  25
ENDBRANCH   1  24
TORSDOF 15
ENDMDL
