MODEL 1
REMARK VINA RESULT:     -10.1      0.000      0.000
REMARK SMILES C/C(=N/OCc1ccccc1Nc1c(Cl)cccc1Cl)C(=O)OCCOCCOC(=O)c1ccc(-c2c3nc(c(-c4ccccc4)c4ccc([nH]4)c(-c4ccccc4)c4nc(c(-c5ccccc5)c5ccc2[nH]5)C=C4)C=C3)cc1
REMARK SMILES IDX 24 1 23 2 21 3 22 4 2 5 1 6 3 7 4 8 5 9 6 10 7 11 11 12 8 13
REMARK SMILES IDX 10 14 9 15 12 16 13 18 14 19 19 20 15 21 16 22 18 23 20 24
REMARK SMILES IDX 17 25 25 26 26 27 27 28 28 29 29 30 30 31 31 32 32 33 33 34
REMARK SMILES IDX 79 35 34 36 78 37 35 38 36 39 37 40 72 41 38 42 77 43 71 44
REMARK SMILES IDX 73 45 39 46 76 47 70 48 69 49 40 51 62 52 47 53 61 54 48 55
REMARK SMILES IDX 51 56 60 57 74 58 49 59 50 60 59 62 75 63 52 64 41 65 42 66
REMARK SMILES IDX 46 67 43 68 45 69 44 70 63 71 64 72 68 73 65 74 67 75 66 76
REMARK SMILES IDX 53 77 54 78 58 79 55 80 57 81 56 82
REMARK H PARENT 12 17 73 50 51 61
REMARK Flexibility Score: inf
ROOT
ATOM      1  C   UNL A   1      32.889  26.957  25.847  1.00  0.00     0.261 C 
ENDROOT
BRANCH   1   2
ATOM      2  O   UNL A   1      32.186  25.903  26.512  1.00  0.00    -0.459 OA
BRANCH   2   3
ATOM      3  C   UNL A   1      32.181  24.702  25.905  1.00  0.00     0.355 C 
ATOM      4  O   UNL A   1      32.755  24.383  24.879  1.00  0.00    -0.245 OA
BRANCH   3   5
ATOM      5  C   UNL A   1      31.509  23.663  26.800  1.00  0.00     0.161 C 
ATOM      6  C   UNL A   1      30.035  23.471  26.576  1.00  0.00     0.079 C 
ATOM      7  N   UNL A   1      32.114  22.921  27.680  1.00  0.00    -0.084 NA
BRANCH   7   8
ATOM      8  O   UNL A   1      33.480  23.231  27.767  1.00  0.00    -0.390 OA
BRANCH   8   9
ATOM      9  C   UNL A   1      34.257  22.044  27.580  1.00  0.00     0.302 C 
BRANCH   9  10
ATOM     10  C   UNL A   1      35.194  22.126  26.389  1.00  0.00     0.016 A 
ATOM     11  C   UNL A   1      36.019  23.256  26.205  1.00  0.00     0.009 A 
ATOM     12  C   UNL A   1      35.265  21.072  25.454  1.00  0.00     0.045 A 
ATOM     13  C   UNL A   1      36.930  23.333  25.157  1.00  0.00     0.001 A 
ATOM     14  C   UNL A   1      36.186  21.178  24.396  1.00  0.00     0.026 A 
ATOM     15  C   UNL A   1      37.015  22.291  24.252  1.00  0.00     0.002 A 
BRANCH  12  16
ATOM     16  N   UNL A   1      34.463  19.916  25.613  1.00  0.00    -0.353 N 
ATOM     17  H   UNL A   1      34.313  19.629  26.542  1.00  0.00     0.167 HD
BRANCH  16  18
ATOM     18  C   UNL A   1      33.845  19.113  24.620  1.00  0.00     0.076 A 
ATOM     19  C   UNL A   1      32.742  19.630  23.907  1.00  0.00     0.066 A 
ATOM     20  C   UNL A   1      34.336  17.852  24.229  1.00  0.00     0.066 A 
ATOM     21  Cl  UNL A   1      32.051  21.160  24.339  1.00  0.00    -0.082 Cl
ATOM     22  C   UNL A   1      32.181  18.942  22.828  1.00  0.00     0.023 A 
ATOM     23  C   UNL A   1      33.777  17.166  23.143  1.00  0.00     0.023 A 
ATOM     24  Cl  UNL A   1      35.588  17.035  25.105  1.00  0.00    -0.082 Cl
ATOM     25  C   UNL A   1      32.709  17.716  22.436  1.00  0.00     0.003 A 
ENDBRANCH  16  18
ENDBRANCH  12  16
ENDBRANCH   9  10
ENDBRANCH   8   9
ENDBRANCH   7   8
ENDBRANCH   3   5
ENDBRANCH   2   3
ENDBRANCH   1   2
BRANCH   1  26
ATOM     26  C   UNL A   1      31.896  27.759  25.004  1.00  0.00     0.202 C 
BRANCH  26  27
ATOM     27  O   UNL A   1      32.151  29.160  24.882  1.00  0.00    -0.374 OA
BRANCH  27  28
ATOM     28  C   UNL A   1      31.766  30.015  25.958  1.00  0.00     0.202 C 
BRANCH  28  29
ATOM     29  C   UNL A   1      32.845  30.886  26.613  1.00  0.00     0.261 C 
BRANCH  29  30
ATOM     30  O   UNL A   1      33.738  30.149  27.462  1.00  0.00    -0.460 OA
BRANCH  30  31
ATOM     31  C   UNL A   1      34.532  30.914  28.247  1.00  0.00     0.338 C 
ATOM     32  O   UNL A   1      34.226  31.927  28.856  1.00  0.00    -0.246 OA
BRANCH  31  33
ATOM     33  C   UNL A   1      35.838  30.257  28.409  1.00  0.00     0.060 A 
ATOM     34  C   UNL A   1      36.173  29.751  29.673  1.00  0.00     0.016 A 
ATOM     35  C   UNL A   1      36.751  30.212  27.356  1.00  0.00     0.016 A 
ATOM     36  C   UNL A   1      37.443  29.225  29.899  1.00  0.00     0.010 A 
ATOM     37  C   UNL A   1      38.027  29.696  27.588  1.00  0.00     0.010 A 
ATOM     38  C   UNL A   1      38.388  29.228  28.865  1.00  0.00    -0.014 A 
BRANCH  38  39
ATOM     39  C   UNL A   1      39.804  28.887  29.135  1.00  0.00     0.031 A 
ATOM     40  C   UNL A   1      40.310  27.534  28.722  1.00  0.00     0.074 A 
ATOM     41  C   UNL A   1      40.613  29.751  29.771  1.00  0.00     0.049 A 
ATOM     42  N   UNL A   1      41.449  26.955  28.999  1.00  0.00    -0.248 NA
ATOM     43  C   UNL A   1      39.401  26.721  27.897  1.00  0.00     0.031 C 
ATOM     44  C   UNL A   1      40.256  31.113  30.167  1.00  0.00     0.029 A 
ATOM     45  N   UNL A   1      41.901  29.594  30.216  1.00  0.00    -0.354 N 
ATOM     46  C   UNL A   1      41.385  25.701  28.405  1.00  0.00     0.074 A 
ATOM     47  C   UNL A   1      40.090  25.596  27.770  1.00  0.00     0.031 C 
ATOM     48  C   UNL A   1      41.296  31.659  30.820  1.00  0.00     0.029 A 
ATOM     49  C   UNL A   1      42.367  30.671  30.929  1.00  0.00     0.049 A 
ATOM     50  H   UNL A   1      42.438  28.787  30.042  1.00  0.00     0.167 HD
ATOM     51  C   UNL A   1      42.323  24.725  28.392  1.00  0.00     0.031 A 
ATOM     52  C   UNL A   1      43.510  30.823  31.625  1.00  0.00     0.031 A 
ATOM     53  C   UNL A   1      43.604  24.832  29.038  1.00  0.00     0.049 A 
ATOM     54  C   UNL A   1      44.500  29.688  31.676  1.00  0.00     0.074 A 
ATOM     55  C   UNL A   1      44.630  23.905  29.074  1.00  0.00     0.029 A 
ATOM     56  N   UNL A   1      44.030  25.932  29.766  1.00  0.00    -0.354 N 
ATOM     57  N   UNL A   1      44.439  28.510  31.103  1.00  0.00    -0.248 NA
ATOM     58  C   UNL A   1      45.720  29.906  32.468  1.00  0.00     0.031 C 
ATOM     59  C   UNL A   1      45.651  24.417  29.878  1.00  0.00     0.029 A 
ATOM     60  C   UNL A   1      45.293  25.695  30.279  1.00  0.00     0.049 A 
ATOM     61  H   UNL A   1      43.512  26.758  29.897  1.00  0.00     0.167 HD
ATOM     62  C   UNL A   1      45.626  27.865  31.431  1.00  0.00     0.074 A 
ATOM     63  C   UNL A   1      46.390  28.783  32.249  1.00  0.00     0.031 C 
ATOM     64  C   UNL A   1      46.049  26.626  31.077  1.00  0.00     0.031 A 
BRANCH  51  65
ATOM     65  C   UNL A   1      41.978  23.437  27.697  1.00  0.00    -0.014 A 
ATOM     66  C   UNL A   1      41.255  22.424  28.346  1.00  0.00     0.009 A 
ATOM     67  C   UNL A   1      42.356  23.249  26.358  1.00  0.00     0.009 A 
ATOM     68  C   UNL A   1      40.948  21.236  27.678  1.00  0.00     0.001 A 
ATOM     69  C   UNL A   1      42.020  22.075  25.683  1.00  0.00     0.001 A 
ATOM     70  C   UNL A   1      41.326  21.065  26.346  1.00  0.00     0.000 A 
ENDBRANCH  51  65
BRANCH  52  71
ATOM     71  C   UNL A   1      43.773  32.090  32.359  1.00  0.00    -0.014 A 
ATOM     72  C   UNL A   1      44.387  33.174  31.714  1.00  0.00     0.009 A 
ATOM     73  C   UNL A   1      43.427  32.216  33.715  1.00  0.00     0.009 A 
ATOM     74  C   UNL A   1      44.674  34.346  32.417  1.00  0.00     0.001 A 
ATOM     75  C   UNL A   1      43.686  33.400  34.406  1.00  0.00     0.001 A 
ATOM     76  C   UNL A   1      44.320  34.461  33.760  1.00  0.00     0.000 A 
ENDBRANCH  52  71
BRANCH  64  77
ATOM     77  C   UNL A   1      47.426  26.205  31.510  1.00  0.00    -0.014 A 
ATOM     78  C   UNL A   1      47.646  25.551  32.731  1.00  0.00     0.009 A 
ATOM     79  C   UNL A   1      48.508  26.394  30.634  1.00  0.00     0.009 A 
ATOM     80  C   UNL A   1      48.929  25.115  33.074  1.00  0.00     0.001 A 
ATOM     81  C   UNL A   1      49.780  25.930  30.966  1.00  0.00     0.001 A 
ATOM     82  C   UNL A   1      49.992  25.296  32.189  1.00  0.00     0.000 A 
ENDBRANCH  64  77
ENDBRANCH  38  39
ENDBRANCH  31  33
ENDBRANCH  30  31
ENDBRANCH  29  30
ENDBRANCH  28  29
ENDBRANCH  27  28
ENDBRANCH  26  27
ENDBRANCH   1  26
TORSDOF 19
ENDMDL
MODEL 2
REMARK VINA RESULT:     -10.1      0.720      5.894
REMARK SMILES C/C(=N/OCc1ccccc1Nc1c(Cl)cccc1Cl)C(=O)OCCOCCOC(=O)c1ccc(-c2c3nc(c(-c4ccccc4)c4ccc([nH]4)c(-c4ccccc4)c4nc(c(-c5ccccc5)c5ccc2[nH]5)C=C4)C=C3)cc1
REMARK SMILES IDX 24 1 23 2 21 3 22 4 2 5 1 6 3 7 4 8 5 9 6 10 7 11 11 12 8 13
REMARK SMILES IDX 10 14 9 15 12 16 13 18 14 19 19 20 15 21 16 22 18 23 20 24
REMARK SMILES IDX 17 25 25 26 26 27 27 28 28 29 29 30 30 31 31 32 32 33 33 34
REMARK SMILES IDX 79 35 34 36 78 37 35 38 36 39 37 40 72 41 38 42 77 43 71 44
REMARK SMILES IDX 73 45 39 46 76 47 70 48 69 49 40 51 62 52 47 53 61 54 48 55
REMARK SMILES IDX 51 56 60 57 74 58 49 59 50 60 59 62 75 63 52 64 41 65 42 66
REMARK SMILES IDX 46 67 43 68 45 69 44 70 63 71 64 72 68 73 65 74 67 75 66 76
REMARK SMILES IDX 53 77 54 78 58 79 55 80 57 81 56 82
REMARK H PARENT 12 17 73 50 51 61
REMARK Flexibility Score: inf
ROOT
ATOM      1  C   UNL A   1      32.434  27.583  26.756  1.00  0.00     0.261 C 
ENDROOT
BRANCH   1   2
ATOM      2  O   UNL A   1      31.682  26.368  26.815  1.00  0.00    -0.459 OA
BRANCH   2   3
ATOM      3  C   UNL A   1      32.280  25.262  26.334  1.00  0.00     0.355 C 
ATOM      4  O   UNL A   1      33.367  25.180  25.789  1.00  0.00    -0.245 OA
BRANCH   3   5
ATOM      5  C   UNL A   1      31.499  24.018  26.750  1.00  0.00     0.161 C 
ATOM      6  C   UNL A   1      30.048  24.000  26.356  1.00  0.00     0.079 C 
ATOM      7  N   UNL A   1      31.998  22.983  27.359  1.00  0.00    -0.084 NA
BRANCH   7   8
ATOM      8  O   UNL A   1      33.357  23.165  27.659  1.00  0.00    -0.390 OA
BRANCH   8   9
ATOM      9  C   UNL A   1      34.075  21.955  27.393  1.00  0.00     0.302 C 
BRANCH   9  10
ATOM     10  C   UNL A   1      35.193  22.134  26.382  1.00  0.00     0.016 A 
ATOM     11  C   UNL A   1      35.946  23.327  26.354  1.00  0.00     0.009 A 
ATOM     12  C   UNL A   1      35.503  21.110  25.463  1.00  0.00     0.045 A 
ATOM     13  C   UNL A   1      37.015  23.496  25.479  1.00  0.00     0.001 A 
ATOM     14  C   UNL A   1      36.580  21.310  24.580  1.00  0.00     0.026 A 
ATOM     15  C   UNL A   1      37.333  22.484  24.591  1.00  0.00     0.002 A 
BRANCH  12  16
ATOM     16  N   UNL A   1      34.778  19.894  25.469  1.00  0.00    -0.353 N 
ATOM     17  H   UNL A   1      34.826  19.378  26.306  1.00  0.00     0.167 HD
BRANCH  16  18
ATOM     18  C   UNL A   1      33.993  19.316  24.441  1.00  0.00     0.076 A 
ATOM     19  C   UNL A   1      34.146  17.944  24.146  1.00  0.00     0.066 A 
ATOM     20  C   UNL A   1      32.982  20.017  23.752  1.00  0.00     0.066 A 
ATOM     21  Cl  UNL A   1      35.384  17.009  24.921  1.00  0.00    -0.082 Cl
ATOM     22  C   UNL A   1      33.305  17.291  23.242  1.00  0.00     0.023 A 
ATOM     23  C   UNL A   1      32.135  19.360  22.850  1.00  0.00     0.023 A 
ATOM     24  Cl  UNL A   1      32.776  21.730  23.907  1.00  0.00    -0.082 Cl
ATOM     25  C   UNL A   1      32.289  17.997  22.604  1.00  0.00     0.003 A 
ENDBRANCH  16  18
ENDBRANCH  12  16
ENDBRANCH   9  10
ENDBRANCH   8   9
ENDBRANCH   7   8
ENDBRANCH   3   5
ENDBRANCH   2   3
ENDBRANCH   1   2
BRANCH   1  26
ATOM     26  C   UNL A   1      32.313  28.172  25.349  1.00  0.00     0.202 C 
BRANCH  26  27
ATOM     27  O   UNL A   1      32.382  29.595  25.247  1.00  0.00    -0.374 OA
BRANCH  27  28
ATOM     28  C   UNL A   1      31.917  30.377  26.346  1.00  0.00     0.202 C 
BRANCH  28  29
ATOM     29  C   UNL A   1      32.929  31.259  27.088  1.00  0.00     0.261 C 
BRANCH  29  30
ATOM     30  O   UNL A   1      34.200  30.623  27.292  1.00  0.00    -0.460 OA
BRANCH  30  31
ATOM     31  C   UNL A   1      34.926  31.126  28.318  1.00  0.00     0.338 C 
ATOM     32  O   UNL A   1      34.606  32.010  29.095  1.00  0.00    -0.246 OA
BRANCH  31  33
ATOM     33  C   UNL A   1      36.152  30.329  28.486  1.00  0.00     0.060 A 
ATOM     34  C   UNL A   1      36.381  29.720  29.727  1.00  0.00     0.016 A 
ATOM     35  C   UNL A   1      37.099  30.251  27.465  1.00  0.00     0.016 A 
ATOM     36  C   UNL A   1      37.581  29.054  29.966  1.00  0.00     0.010 A 
ATOM     37  C   UNL A   1      38.306  29.594  27.711  1.00  0.00     0.010 A 
ATOM     38  C   UNL A   1      38.564  29.020  28.969  1.00  0.00    -0.014 A 
BRANCH  38  39
ATOM     39  C   UNL A   1      39.926  28.520  29.268  1.00  0.00     0.031 A 
ATOM     40  C   UNL A   1      40.904  29.448  29.931  1.00  0.00     0.074 A 
ATOM     41  C   UNL A   1      40.296  27.276  28.920  1.00  0.00     0.049 A 
ATOM     42  N   UNL A   1      42.185  29.291  30.137  1.00  0.00    -0.248 NA
ATOM     43  C   UNL A   1      40.364  30.729  30.414  1.00  0.00     0.031 C 
ATOM     44  C   UNL A   1      39.422  26.265  28.328  1.00  0.00     0.029 A 
ATOM     45  N   UNL A   1      41.521  26.663  28.997  1.00  0.00    -0.354 N 
ATOM     46  C   UNL A   1      42.611  30.463  30.750  1.00  0.00     0.074 A 
ATOM     47  C   UNL A   1      41.457  31.327  30.864  1.00  0.00     0.031 C 
ATOM     48  C   UNL A   1      40.147  25.162  28.071  1.00  0.00     0.029 A 
ATOM     49  C   UNL A   1      41.540  25.410  28.436  1.00  0.00     0.049 A 
ATOM     50  H   UNL A   1      42.309  27.082  29.412  1.00  0.00     0.167 HD
ATOM     51  C   UNL A   1      43.854  30.788  31.177  1.00  0.00     0.031 A 
ATOM     52  C   UNL A   1      42.574  24.577  28.205  1.00  0.00     0.031 A 
ATOM     53  C   UNL A   1      45.000  29.928  31.047  1.00  0.00     0.049 A 
ATOM     54  C   UNL A   1      43.965  24.998  28.604  1.00  0.00     0.074 A 
ATOM     55  C   UNL A   1      46.300  30.159  31.458  1.00  0.00     0.029 A 
ATOM     56  N   UNL A   1      44.981  28.675  30.456  1.00  0.00    -0.354 N 
ATOM     57  N   UNL A   1      44.358  26.102  29.192  1.00  0.00    -0.248 NA
ATOM     58  C   UNL A   1      45.054  24.055  28.309  1.00  0.00     0.031 C 
ATOM     59  C   UNL A   1      47.082  29.072  31.058  1.00  0.00     0.029 A 
ATOM     60  C   UNL A   1      46.254  28.132  30.466  1.00  0.00     0.049 A 
ATOM     61  H   UNL A   1      44.182  28.236  30.085  1.00  0.00     0.167 HD
ATOM     62  C   UNL A   1      45.730  25.968  29.374  1.00  0.00     0.074 A 
ATOM     63  C   UNL A   1      46.100  24.676  28.837  1.00  0.00     0.031 C 
ATOM     64  C   UNL A   1      46.603  26.835  29.944  1.00  0.00     0.031 A 
BRANCH  51  65
ATOM     65  C   UNL A   1      44.048  32.151  31.780  1.00  0.00    -0.014 A 
ATOM     66  C   UNL A   1      43.926  32.366  33.162  1.00  0.00     0.009 A 
ATOM     67  C   UNL A   1      44.391  33.233  30.954  1.00  0.00     0.009 A 
ATOM     68  C   UNL A   1      44.110  33.644  33.698  1.00  0.00     0.001 A 
ATOM     69  C   UNL A   1      44.606  34.501  31.496  1.00  0.00     0.001 A 
ATOM     70  C   UNL A   1      44.455  34.708  32.865  1.00  0.00     0.000 A 
ENDBRANCH  51  65
BRANCH  52  71
ATOM     71  C   UNL A   1      42.342  23.269  27.537  1.00  0.00    -0.014 A 
ATOM     72  C   UNL A   1      41.799  22.189  28.249  1.00  0.00     0.009 A 
ATOM     73  C   UNL A   1      42.679  23.087  26.185  1.00  0.00     0.009 A 
ATOM     74  C   UNL A   1      41.624  20.949  27.632  1.00  0.00     0.001 A 
ATOM     75  C   UNL A   1      42.473  21.855  25.562  1.00  0.00     0.001 A 
ATOM     76  C   UNL A   1      41.956  20.783  26.288  1.00  0.00     0.000 A 
ENDBRANCH  52  71
BRANCH  64  77
ATOM     77  C   UNL A   1      48.035  26.399  30.083  1.00  0.00    -0.014 A 
ATOM     78  C   UNL A   1      48.499  25.751  31.238  1.00  0.00     0.009 A 
ATOM     79  C   UNL A   1      48.912  26.569  28.999  1.00  0.00     0.009 A 
ATOM     80  C   UNL A   1      49.820  25.301  31.309  1.00  0.00     0.001 A 
ATOM     81  C   UNL A   1      50.221  26.091  29.062  1.00  0.00     0.001 A 
ATOM     82  C   UNL A   1      50.676  25.463  30.219  1.00  0.00     0.000 A 
ENDBRANCH  64  77
ENDBRANCH  38  39
ENDBRANCH  31  33
ENDBRANCH  30  31
ENDBRANCH  29  30
ENDBRANCH  28  29
ENDBRANCH  27  28
ENDBRANCH  26  27
ENDBRANCH   1  26
TORSDOF 19
ENDMDL
MODEL 3
REMARK VINA RESULT:      -9.7     10.769     16.193
REMARK SMILES C/C(=N/OCc1ccccc1Nc1c(Cl)cccc1Cl)C(=O)OCCOCCOC(=O)c1ccc(-c2c3nc(c(-c4ccccc4)c4ccc([nH]4)c(-c4ccccc4)c4nc(c(-c5ccccc5)c5ccc2[nH]5)C=C4)C=C3)cc1
REMARK SMILES IDX 24 1 23 2 21 3 22 4 2 5 1 6 3 7 4 8 5 9 6 10 7 11 11 12 8 13
REMARK SMILES IDX 10 14 9 15 12 16 13 18 14 19 19 20 15 21 16 22 18 23 20 24
REMARK SMILES IDX 17 25 25 26 26 27 27 28 28 29 29 30 30 31 31 32 32 33 33 34
REMARK SMILES IDX 79 35 34 36 78 37 35 38 36 39 37 40 72 41 38 42 77 43 71 44
REMARK SMILES IDX 73 45 39 46 76 47 70 48 69 49 40 51 62 52 47 53 61 54 48 55
REMARK SMILES IDX 51 56 60 57 74 58 49 59 50 60 59 62 75 63 52 64 41 65 42 66
REMARK SMILES IDX 46 67 43 68 45 69 44 70 63 71 64 72 68 73 65 74 67 75 66 76
REMARK SMILES IDX 53 77 54 78 58 79 55 80 57 81 56 82
REMARK H PARENT 12 17 73 50 51 61
REMARK Flexibility Score: inf
ROOT
ATOM      1  C   UNL A   1      44.062  41.396  25.631  1.00  0.00     0.261 C 
ENDROOT
BRANCH   1   2
ATOM      2  O   UNL A   1      43.907  41.746  24.253  1.00  0.00    -0.459 OA
BRANCH   2   3
ATOM      3  C   UNL A   1      43.584  43.025  23.986  1.00  0.00     0.355 C 
ATOM      4  O   UNL A   1      44.000  44.029  24.537  1.00  0.00    -0.245 OA
BRANCH   3   5
ATOM      5  C   UNL A   1      42.750  43.102  22.709  1.00  0.00     0.161 C 
ATOM      6  C   UNL A   1      41.312  42.682  22.848  1.00  0.00     0.079 C 
ATOM      7  N   UNL A   1      43.170  43.539  21.559  1.00  0.00    -0.084 NA
BRANCH   7   8
ATOM      8  O   UNL A   1      44.530  43.882  21.601  1.00  0.00    -0.390 OA
BRANCH   8   9
ATOM      9  C   UNL A   1      45.239  43.166  20.585  1.00  0.00     0.302 C 
BRANCH   9  10
ATOM     10  C   UNL A   1      46.263  44.018  19.858  1.00  0.00     0.016 A 
ATOM     11  C   UNL A   1      47.608  43.599  19.768  1.00  0.00     0.009 A 
ATOM     12  C   UNL A   1      45.887  45.236  19.253  1.00  0.00     0.045 A 
ATOM     13  C   UNL A   1      48.555  44.330  19.058  1.00  0.00     0.001 A 
ATOM     14  C   UNL A   1      46.865  45.963  18.551  1.00  0.00     0.026 A 
ATOM     15  C   UNL A   1      48.182  45.513  18.446  1.00  0.00     0.002 A 
BRANCH  12  16
ATOM     16  N   UNL A   1      44.545  45.682  19.311  1.00  0.00    -0.353 N 
ATOM     17  H   UNL A   1      44.107  45.596  20.188  1.00  0.00     0.167 HD
BRANCH  16  18
ATOM     18  C   UNL A   1      43.743  46.239  18.283  1.00  0.00     0.076 A 
ATOM     19  C   UNL A   1      43.054  45.375  17.404  1.00  0.00     0.066 A 
ATOM     20  C   UNL A   1      43.510  47.622  18.146  1.00  0.00     0.066 A 
ATOM     21  Cl  UNL A   1      43.301  43.661  17.478  1.00  0.00    -0.082 Cl
ATOM     22  C   UNL A   1      42.143  45.863  16.463  1.00  0.00     0.023 A 
ATOM     23  C   UNL A   1      42.593  48.110  17.206  1.00  0.00     0.023 A 
ATOM     24  Cl  UNL A   1      44.393  48.802  19.057  1.00  0.00    -0.082 Cl
ATOM     25  C   UNL A   1      41.902  47.231  16.374  1.00  0.00     0.003 A 
ENDBRANCH  16  18
ENDBRANCH  12  16
ENDBRANCH   9  10
ENDBRANCH   8   9
ENDBRANCH   7   8
ENDBRANCH   3   5
ENDBRANCH   2   3
ENDBRANCH   1   2
BRANCH   1  26
ATOM     26  C   UNL A   1      42.717  40.908  26.172  1.00  0.00     0.202 C 
BRANCH  26  27
ATOM     27  O   UNL A   1      42.592  39.502  26.392  1.00  0.00    -0.374 OA
BRANCH  27  28
ATOM     28  C   UNL A   1      42.130  39.054  27.665  1.00  0.00     0.202 C 
BRANCH  28  29
ATOM     29  C   UNL A   1      42.936  37.967  28.388  1.00  0.00     0.261 C 
BRANCH  29  30
ATOM     30  O   UNL A   1      43.965  37.382  27.575  1.00  0.00    -0.460 OA
BRANCH  30  31
ATOM     31  C   UNL A   1      44.988  36.831  28.268  1.00  0.00     0.338 C 
ATOM     32  O   UNL A   1      45.785  37.397  28.999  1.00  0.00    -0.246 OA
BRANCH  31  33
ATOM     33  C   UNL A   1      44.927  35.366  28.148  1.00  0.00     0.060 A 
ATOM     34  C   UNL A   1      44.308  34.819  27.015  1.00  0.00     0.016 A 
ATOM     35  C   UNL A   1      45.396  34.544  29.172  1.00  0.00     0.016 A 
ATOM     36  C   UNL A   1      44.125  33.441  26.917  1.00  0.00     0.010 A 
ATOM     37  C   UNL A   1      45.202  33.166  29.078  1.00  0.00     0.010 A 
ATOM     38  C   UNL A   1      44.540  32.612  27.966  1.00  0.00    -0.014 A 
BRANCH  38  39
ATOM     39  C   UNL A   1      44.160  31.180  27.992  1.00  0.00     0.031 A 
ATOM     40  C   UNL A   1      45.025  30.192  27.262  1.00  0.00     0.074 A 
ATOM     41  C   UNL A   1      43.045  30.774  28.621  1.00  0.00     0.049 A 
ATOM     42  N   UNL A   1      44.807  28.929  27.008  1.00  0.00    -0.248 NA
ATOM     43  C   UNL A   1      46.303  30.704  26.739  1.00  0.00     0.031 C 
ATOM     44  C   UNL A   1      42.158  31.626  29.412  1.00  0.00     0.029 A 
ATOM     45  N   UNL A   1      42.456  29.536  28.668  1.00  0.00    -0.354 N 
ATOM     46  C   UNL A   1      45.905  28.500  26.273  1.00  0.00     0.074 A 
ATOM     47  C   UNL A   1      46.777  29.641  26.107  1.00  0.00     0.031 C 
ATOM     48  C   UNL A   1      41.122  30.887  29.847  1.00  0.00     0.029 A 
ATOM     49  C   UNL A   1      41.250  29.529  29.325  1.00  0.00     0.049 A 
ATOM     50  H   UNL A   1      42.859  28.731  28.269  1.00  0.00     0.167 HD
ATOM     51  C   UNL A   1      46.160  27.265  25.780  1.00  0.00     0.031 A 
ATOM     52  C   UNL A   1      40.335  28.548  29.451  1.00  0.00     0.031 A 
ATOM     53  C   UNL A   1      45.280  26.138  25.938  1.00  0.00     0.049 A 
ATOM     54  C   UNL A   1      40.597  27.207  28.814  1.00  0.00     0.074 A 
ATOM     55  C   UNL A   1      45.452  24.842  25.488  1.00  0.00     0.029 A 
ATOM     56  N   UNL A   1      44.059  26.178  26.593  1.00  0.00    -0.354 N 
ATOM     57  N   UNL A   1      41.641  26.806  28.131  1.00  0.00    -0.248 NA
ATOM     58  C   UNL A   1      39.553  26.183  28.970  1.00  0.00     0.031 C 
ATOM     59  C   UNL A   1      44.306  24.112  25.814  1.00  0.00     0.029 A 
ATOM     60  C   UNL A   1      43.454  24.935  26.534  1.00  0.00     0.049 A 
ATOM     61  H   UNL A   1      43.680  26.971  27.034  1.00  0.00     0.167 HD
ATOM     62  C   UNL A   1      41.399  25.474  27.812  1.00  0.00     0.074 A 
ATOM     63  C   UNL A   1      40.111  25.136  28.379  1.00  0.00     0.031 C 
ATOM     64  C   UNL A   1      42.179  24.608  27.120  1.00  0.00     0.031 A 
BRANCH  51  65
ATOM     65  C   UNL A   1      47.421  27.081  24.982  1.00  0.00    -0.014 A 
ATOM     66  C   UNL A   1      47.494  27.453  23.631  1.00  0.00     0.009 A 
ATOM     67  C   UNL A   1      48.565  26.557  25.605  1.00  0.00     0.009 A 
ATOM     68  C   UNL A   1      48.678  27.271  22.911  1.00  0.00     0.001 A 
ATOM     69  C   UNL A   1      49.755  26.406  24.892  1.00  0.00     0.001 A 
ATOM     70  C   UNL A   1      49.808  26.752  23.543  1.00  0.00     0.000 A 
ENDBRANCH  51  65
BRANCH  52  71
ATOM     71  C   UNL A   1      39.068  28.801  30.187  1.00  0.00    -0.014 A 
ATOM     72  C   UNL A   1      37.964  29.369  29.533  1.00  0.00     0.009 A 
ATOM     73  C   UNL A   1      38.960  28.492  31.553  1.00  0.00     0.009 A 
ATOM     74  C   UNL A   1      36.790  29.649  30.236  1.00  0.00     0.001 A 
ATOM     75  C   UNL A   1      37.774  28.743  32.246  1.00  0.00     0.001 A 
ATOM     76  C   UNL A   1      36.694  29.331  31.590  1.00  0.00     0.000 A 
ENDBRANCH  52  71
BRANCH  64  77
ATOM     77  C   UNL A   1      41.703  23.188  26.987  1.00  0.00    -0.014 A 
ATOM     78  C   UNL A   1      42.283  22.144  27.724  1.00  0.00     0.009 A 
ATOM     79  C   UNL A   1      40.596  22.909  26.168  1.00  0.00     0.009 A 
ATOM     80  C   UNL A   1      41.775  20.846  27.625  1.00  0.00     0.001 A 
ATOM     81  C   UNL A   1      40.072  21.618  26.096  1.00  0.00     0.001 A 
ATOM     82  C   UNL A   1      40.666  20.587  26.820  1.00  0.00     0.000 A 
ENDBRANCH  64  77
ENDBRANCH  38  39
ENDBRANCH  31  33
ENDBRANCH  30  31
ENDBRANCH  29  30
ENDBRANCH  28  29
ENDBRANCH  27  28
ENDBRANCH  26  27
ENDBRANCH   1  26
TORSDOF 19
ENDMDL
