MODEL 1
REMARK VINA RESULT:     -10.6      0.000      0.000
REMARK SMILES N#C/C(=C\c1ccc(Oc2ccccc2Cl)c([N+](=O)[O-])c1)C(=O)OCCOCCOC(=O)c1ccc(-c2c3nc(c(-c4ccccc4)c4ccc([nH]4)c(-c4ccccc4)c4nc(c(-c5ccccc5)c5ccc2[nH]5)C=C4)C=C3)cc1
REMARK SMILES IDX 26 1 25 2 24 3 22 4 23 5 3 6 4 7 2 8 1 9 5 10 6 11 21 12
REMARK SMILES IDX 7 13 17 14 8 15 18 16 19 17 20 18 9 19 10 20 11 21 15 22
REMARK SMILES IDX 12 23 14 24 16 25 13 26 27 27 28 28 29 29 30 30 31 31 32 32
REMARK SMILES IDX 33 33 34 34 80 35 35 36 79 37 36 38 37 39 38 40 73 41 39 42
REMARK SMILES IDX 78 43 72 44 74 45 40 46 77 47 71 48 70 49 41 51 63 52 48 53
REMARK SMILES IDX 62 54 49 55 52 56 61 57 75 58 50 59 51 60 60 62 76 63 53 64
REMARK SMILES IDX 42 65 43 66 47 67 44 68 46 69 45 70 64 71 65 72 69 73 66 74
REMARK SMILES IDX 68 75 67 76 54 77 55 78 59 79 56 80 58 81 57 82
REMARK H PARENT 74 50 52 61
REMARK Flexibility Score: inf
ROOT
ATOM      1  C   UNL A   1      40.127  21.312  27.118  1.00  0.00     0.202 C 
ENDROOT
BRANCH   1   2
ATOM      2  C   UNL A   1      39.504  21.773  25.800  1.00  0.00     0.261 C 
BRANCH   2   3
ATOM      3  O   UNL A   1      38.117  22.106  25.974  1.00  0.00    -0.459 OA
BRANCH   3   4
ATOM      4  C   UNL A   1      37.286  21.451  25.129  1.00  0.00     0.348 C 
ATOM      5  O   UNL A   1      37.578  20.488  24.438  1.00  0.00    -0.245 OA
BRANCH   4   6
ATOM      6  C   UNL A   1      35.904  21.961  25.220  1.00  0.00     0.138 C 
ATOM      7  C   UNL A   1      35.283  22.164  26.403  1.00  0.00     0.035 C 
BRANCH   6   8
ATOM      8  C   UNL A   1      35.404  22.626  23.948  1.00  0.00     0.107 C 
ATOM      9  N   UNL A   1      34.989  23.178  22.893  1.00  0.00    -0.192 NA
ENDBRANCH   6   8
BRANCH   7  10
ATOM     10  C   UNL A   1      34.150  23.107  26.554  1.00  0.00    -0.017 A 
ATOM     11  C   UNL A   1      34.328  24.441  26.170  1.00  0.00     0.012 A 
ATOM     12  C   UNL A   1      32.863  22.689  26.908  1.00  0.00     0.098 A 
ATOM     13  C   UNL A   1      33.234  25.317  26.089  1.00  0.00     0.055 A 
ATOM     14  C   UNL A   1      31.761  23.548  26.728  1.00  0.00     0.312 A 
ATOM     15  C   UNL A   1      31.925  24.885  26.352  1.00  0.00     0.204 A 
BRANCH  14  16
ATOM     16  N   UNL A   1      30.466  22.905  26.799  1.00  0.00     0.066 N 
ATOM     17  O   UNL A   1      29.654  23.355  27.617  1.00  0.00    -0.258 OA
ATOM     18  O   UNL A   1      30.244  22.000  25.981  1.00  0.00    -0.258 OA
ENDBRANCH  14  16
BRANCH  15  19
ATOM     19  O   UNL A   1      30.988  25.875  26.156  1.00  0.00    -0.449 OA
BRANCH  19  20
ATOM     20  C   UNL A   1      31.361  27.190  26.042  1.00  0.00     0.146 A 
ATOM     21  C   UNL A   1      31.525  27.880  27.249  1.00  0.00     0.049 A 
ATOM     22  C   UNL A   1      31.525  27.866  24.828  1.00  0.00     0.083 A 
ATOM     23  C   UNL A   1      31.950  29.208  27.247  1.00  0.00     0.004 A 
ATOM     24  C   UNL A   1      31.970  29.191  24.830  1.00  0.00     0.024 A 
ATOM     25  Cl  UNL A   1      31.203  27.116  23.306  1.00  0.00    -0.080 Cl
ATOM     26  C   UNL A   1      32.194  29.856  26.037  1.00  0.00     0.002 A 
ENDBRANCH  19  20
ENDBRANCH  15  19
ENDBRANCH   7  10
ENDBRANCH   4   6
ENDBRANCH   3   4
ENDBRANCH   2   3
ENDBRANCH   1   2
BRANCH   1  27
ATOM     27  O   UNL A   1      41.544  21.164  27.172  1.00  0.00    -0.374 OA
BRANCH  27  28
ATOM     28  C   UNL A   1      42.254  20.783  25.999  1.00  0.00     0.202 C 
BRANCH  28  29
ATOM     29  C   UNL A   1      43.242  21.778  25.372  1.00  0.00     0.261 C 
BRANCH  29  30
ATOM     30  O   UNL A   1      43.697  22.797  26.275  1.00  0.00    -0.460 OA
BRANCH  30  31
ATOM     31  C   UNL A   1      43.756  24.034  25.725  1.00  0.00     0.338 C 
ATOM     32  O   UNL A   1      44.212  24.339  24.630  1.00  0.00    -0.246 OA
BRANCH  31  33
ATOM     33  C   UNL A   1      43.025  25.005  26.556  1.00  0.00     0.060 A 
ATOM     34  C   UNL A   1      43.534  26.309  26.625  1.00  0.00     0.016 A 
ATOM     35  C   UNL A   1      41.932  24.624  27.335  1.00  0.00     0.016 A 
ATOM     36  C   UNL A   1      42.976  27.229  27.507  1.00  0.00     0.010 A 
ATOM     37  C   UNL A   1      41.381  25.545  28.232  1.00  0.00     0.010 A 
ATOM     38  C   UNL A   1      41.924  26.839  28.346  1.00  0.00    -0.014 A 
BRANCH  38  39
ATOM     39  C   UNL A   1      41.499  27.741  29.442  1.00  0.00     0.031 A 
ATOM     40  C   UNL A   1      42.250  27.709  30.745  1.00  0.00     0.074 A 
ATOM     41  C   UNL A   1      40.486  28.606  29.266  1.00  0.00     0.049 A 
ATOM     42  N   UNL A   1      42.046  28.404  31.835  1.00  0.00    -0.248 NA
ATOM     43  C   UNL A   1      43.382  26.770  30.830  1.00  0.00     0.031 C 
ATOM     44  C   UNL A   1      39.715  28.769  28.034  1.00  0.00     0.029 A 
ATOM     45  N   UNL A   1      39.935  29.515  30.133  1.00  0.00    -0.354 N 
ATOM     46  C   UNL A   1      43.017  27.984  32.735  1.00  0.00     0.074 A 
ATOM     47  C   UNL A   1      43.796  26.959  32.075  1.00  0.00     0.031 C 
ATOM     48  C   UNL A   1      38.783  29.718  28.228  1.00  0.00     0.029 A 
ATOM     49  C   UNL A   1      38.876  30.207  29.602  1.00  0.00     0.049 A 
ATOM     50  H   UNL A   1      40.267  29.656  31.049  1.00  0.00     0.167 HD
ATOM     51  C   UNL A   1      43.246  28.417  33.997  1.00  0.00     0.031 A 
ATOM     52  C   UNL A   1      38.062  31.120  30.167  1.00  0.00     0.031 A 
ATOM     53  C   UNL A   1      42.469  29.430  34.660  1.00  0.00     0.049 A 
ATOM     54  C   UNL A   1      38.289  31.527  31.598  1.00  0.00     0.074 A 
ATOM     55  C   UNL A   1      42.633  29.946  35.933  1.00  0.00     0.029 A 
ATOM     56  N   UNL A   1      41.376  30.074  34.103  1.00  0.00    -0.354 N 
ATOM     57  N   UNL A   1      39.226  31.141  32.430  1.00  0.00    -0.248 NA
ATOM     58  C   UNL A   1      37.346  32.503  32.165  1.00  0.00     0.031 C 
ATOM     59  C   UNL A   1      41.608  30.868  36.166  1.00  0.00     0.029 A 
ATOM     60  C   UNL A   1      40.839  30.965  35.017  1.00  0.00     0.049 A 
ATOM     61  H   UNL A   1      41.034  29.923  33.193  1.00  0.00     0.167 HD
ATOM     62  C   UNL A   1      39.003  31.846  33.606  1.00  0.00     0.074 A 
ATOM     63  C   UNL A   1      37.850  32.692  33.376  1.00  0.00     0.031 C 
ATOM     64  C   UNL A   1      39.693  31.800  34.772  1.00  0.00     0.031 A 
BRANCH  51  65
ATOM     65  C   UNL A   1      44.367  27.770  34.759  1.00  0.00    -0.014 A 
ATOM     66  C   UNL A   1      45.708  28.078  34.481  1.00  0.00     0.009 A 
ATOM     67  C   UNL A   1      44.074  26.871  35.796  1.00  0.00     0.009 A 
ATOM     68  C   UNL A   1      46.736  27.474  35.210  1.00  0.00     0.001 A 
ATOM     69  C   UNL A   1      45.103  26.289  36.538  1.00  0.00     0.001 A 
ATOM     70  C   UNL A   1      46.432  26.584  36.240  1.00  0.00     0.000 A 
ENDBRANCH  51  65
BRANCH  52  71
ATOM     71  C   UNL A   1      36.939  31.700  29.389  1.00  0.00    -0.014 A 
ATOM     72  C   UNL A   1      37.038  32.987  28.837  1.00  0.00     0.009 A 
ATOM     73  C   UNL A   1      35.746  30.980  29.220  1.00  0.00     0.009 A 
ATOM     74  C   UNL A   1      35.957  33.549  28.155  1.00  0.00     0.001 A 
ATOM     75  C   UNL A   1      34.676  31.534  28.515  1.00  0.00     0.001 A 
ATOM     76  C   UNL A   1      34.778  32.821  27.992  1.00  0.00     0.000 A 
ENDBRANCH  52  71
BRANCH  64  77
ATOM     77  C   UNL A   1      39.242  32.714  35.875  1.00  0.00    -0.014 A 
ATOM     78  C   UNL A   1      39.740  34.021  35.989  1.00  0.00     0.009 A 
ATOM     79  C   UNL A   1      38.273  32.271  36.790  1.00  0.00     0.009 A 
ATOM     80  C   UNL A   1      39.297  34.856  37.016  1.00  0.00     0.001 A 
ATOM     81  C   UNL A   1      37.813  33.118  37.798  1.00  0.00     0.001 A 
ATOM     82  C   UNL A   1      38.331  34.407  37.916  1.00  0.00     0.000 A 
ENDBRANCH  64  77
ENDBRANCH  38  39
ENDBRANCH  31  33
ENDBRANCH  30  31
ENDBRANCH  29  30
ENDBRANCH  28  29
ENDBRANCH  27  28
ENDBRANCH   1  27
TORSDOF 19
ENDMDL
MODEL 2
REMARK VINA RESULT:     -10.6      1.474      2.132
REMARK SMILES N#C/C(=C\c1ccc(Oc2ccccc2Cl)c([N+](=O)[O-])c1)C(=O)OCCOCCOC(=O)c1ccc(-c2c3nc(c(-c4ccccc4)c4ccc([nH]4)c(-c4ccccc4)c4nc(c(-c5ccccc5)c5ccc2[nH]5)C=C4)C=C3)cc1
REMARK SMILES IDX 26 1 25 2 24 3 22 4 23 5 3 6 4 7 2 8 1 9 5 10 6 11 21 12
REMARK SMILES IDX 7 13 17 14 8 15 18 16 19 17 20 18 9 19 10 20 11 21 15 22
REMARK SMILES IDX 12 23 14 24 16 25 13 26 27 27 28 28 29 29 30 30 31 31 32 32
REMARK SMILES IDX 33 33 34 34 80 35 35 36 79 37 36 38 37 39 38 40 73 41 39 42
REMARK SMILES IDX 78 43 72 44 74 45 40 46 77 47 71 48 70 49 41 51 63 52 48 53
REMARK SMILES IDX 62 54 49 55 52 56 61 57 75 58 50 59 51 60 60 62 76 63 53 64
REMARK SMILES IDX 42 65 43 66 47 67 44 68 46 69 45 70 64 71 65 72 69 73 66 74
REMARK SMILES IDX 68 75 67 76 54 77 55 78 59 79 56 80 58 81 57 82
REMARK H PARENT 74 50 52 61
REMARK Flexibility Score: inf
ROOT
ATOM      1  C   UNL A   1      40.558  20.274  26.277  1.00  0.00     0.202 C 
ENDROOT
BRANCH   1   2
ATOM      2  C   UNL A   1      39.440  21.301  26.458  1.00  0.00     0.261 C 
BRANCH   2   3
ATOM      3  O   UNL A   1      38.750  21.535  25.219  1.00  0.00    -0.459 OA
BRANCH   3   4
ATOM      4  C   UNL A   1      37.634  20.785  25.062  1.00  0.00     0.348 C 
ATOM      5  O   UNL A   1      37.600  19.579  24.874  1.00  0.00    -0.245 OA
BRANCH   4   6
ATOM      6  C   UNL A   1      36.409  21.581  25.270  1.00  0.00     0.138 C 
ATOM      7  C   UNL A   1      36.390  22.927  25.148  1.00  0.00     0.035 C 
BRANCH   6   8
ATOM      8  C   UNL A   1      35.124  20.771  25.204  1.00  0.00     0.107 C 
ATOM      9  N   UNL A   1      34.059  20.098  25.150  1.00  0.00    -0.192 NA
ENDBRANCH   6   8
BRANCH   7  10
ATOM     10  C   UNL A   1      35.149  23.681  24.854  1.00  0.00    -0.017 A 
ATOM     11  C   UNL A   1      34.526  24.384  25.891  1.00  0.00     0.012 A 
ATOM     12  C   UNL A   1      34.663  23.857  23.554  1.00  0.00     0.098 A 
ATOM     13  C   UNL A   1      33.481  25.283  25.624  1.00  0.00     0.055 A 
ATOM     14  C   UNL A   1      33.683  24.832  23.286  1.00  0.00     0.312 A 
ATOM     15  C   UNL A   1      33.047  25.537  24.313  1.00  0.00     0.204 A 
BRANCH  14  16
ATOM     16  N   UNL A   1      33.510  25.158  21.886  1.00  0.00     0.066 N 
ATOM     17  O   UNL A   1      33.199  24.234  21.124  1.00  0.00    -0.258 OA
ATOM     18  O   UNL A   1      33.613  26.352  21.572  1.00  0.00    -0.258 OA
ENDBRANCH  14  16
BRANCH  15  19
ATOM     19  O   UNL A   1      32.059  26.494  24.256  1.00  0.00    -0.449 OA
BRANCH  19  20
ATOM     20  C   UNL A   1      32.056  27.561  25.118  1.00  0.00     0.146 A 
ATOM     21  C   UNL A   1      31.394  27.355  26.335  1.00  0.00     0.049 A 
ATOM     22  C   UNL A   1      32.610  28.814  24.833  1.00  0.00     0.083 A 
ATOM     23  C   UNL A   1      31.374  28.359  27.302  1.00  0.00     0.004 A 
ATOM     24  C   UNL A   1      32.605  29.811  25.813  1.00  0.00     0.024 A 
ATOM     25  Cl  UNL A   1      33.317  29.180  23.301  1.00  0.00    -0.080 Cl
ATOM     26  C   UNL A   1      31.999  29.578  27.049  1.00  0.00     0.002 A 
ENDBRANCH  19  20
ENDBRANCH  15  19
ENDBRANCH   7  10
ENDBRANCH   4   6
ENDBRANCH   3   4
ENDBRANCH   2   3
ENDBRANCH   1   2
BRANCH   1  27
ATOM     27  O   UNL A   1      41.857  20.609  26.761  1.00  0.00    -0.374 OA
BRANCH  27  28
ATOM     28  C   UNL A   1      42.992  20.396  25.929  1.00  0.00     0.202 C 
BRANCH  28  29
ATOM     29  C   UNL A   1      43.902  21.587  25.594  1.00  0.00     0.261 C 
BRANCH  29  30
ATOM     30  O   UNL A   1      43.201  22.829  25.426  1.00  0.00    -0.460 OA
BRANCH  30  31
ATOM     31  C   UNL A   1      44.004  23.921  25.439  1.00  0.00     0.338 C 
ATOM     32  O   UNL A   1      44.729  24.320  24.536  1.00  0.00    -0.246 OA
BRANCH  31  33
ATOM     33  C   UNL A   1      43.779  24.713  26.658  1.00  0.00     0.060 A 
ATOM     34  C   UNL A   1      42.880  24.202  27.605  1.00  0.00     0.016 A 
ATOM     35  C   UNL A   1      44.348  25.977  26.825  1.00  0.00     0.016 A 
ATOM     36  C   UNL A   1      42.514  24.972  28.704  1.00  0.00     0.010 A 
ATOM     37  C   UNL A   1      43.967  26.755  27.923  1.00  0.00     0.010 A 
ATOM     38  C   UNL A   1      43.023  26.269  28.847  1.00  0.00    -0.014 A 
BRANCH  38  39
ATOM     39  C   UNL A   1      42.448  27.163  29.878  1.00  0.00     0.031 A 
ATOM     40  C   UNL A   1      43.138  27.281  31.209  1.00  0.00     0.074 A 
ATOM     41  C   UNL A   1      41.349  27.894  29.618  1.00  0.00     0.049 A 
ATOM     42  N   UNL A   1      42.805  27.997  32.253  1.00  0.00    -0.248 NA
ATOM     43  C   UNL A   1      44.366  26.488  31.387  1.00  0.00     0.031 C 
ATOM     44  C   UNL A   1      40.621  27.906  28.351  1.00  0.00     0.029 A 
ATOM     45  N   UNL A   1      40.658  28.770  30.415  1.00  0.00    -0.354 N 
ATOM     46  C   UNL A   1      43.777  27.738  33.211  1.00  0.00     0.074 A 
ATOM     47  C   UNL A   1      44.699  26.782  32.635  1.00  0.00     0.031 C 
ATOM     48  C   UNL A   1      39.577  28.746  28.458  1.00  0.00     0.029 A 
ATOM     49  C   UNL A   1      39.550  29.306  29.808  1.00  0.00     0.049 A 
ATOM     50  H   UNL A   1      40.930  28.992  31.335  1.00  0.00     0.167 HD
ATOM     51  C   UNL A   1      43.897  28.253  34.457  1.00  0.00     0.031 A 
ATOM     52  C   UNL A   1      38.611  30.141  30.293  1.00  0.00     0.031 A 
ATOM     53  C   UNL A   1      42.978  29.196  35.036  1.00  0.00     0.049 A 
ATOM     54  C   UNL A   1      38.724  30.638  31.709  1.00  0.00     0.074 A 
ATOM     55  C   UNL A   1      43.023  29.787  36.287  1.00  0.00     0.029 A 
ATOM     56  N   UNL A   1      41.844  29.680  34.405  1.00  0.00    -0.354 N 
ATOM     57  N   UNL A   1      39.662  30.405  32.596  1.00  0.00    -0.248 NA
ATOM     58  C   UNL A   1      37.650  31.521  32.187  1.00  0.00     0.031 C 
ATOM     59  C   UNL A   1      41.888  30.591  36.431  1.00  0.00     0.029 A 
ATOM     60  C   UNL A   1      41.166  30.542  35.250  1.00  0.00     0.049 A 
ATOM     61  H   UNL A   1      41.563  29.447  33.491  1.00  0.00     0.167 HD
ATOM     62  C   UNL A   1      39.305  31.133  33.724  1.00  0.00     0.074 A 
ATOM     63  C   UNL A   1      38.073  31.825  33.406  1.00  0.00     0.031 C 
ATOM     64  C   UNL A   1      39.943  31.223  34.917  1.00  0.00     0.031 A 
BRANCH  51  65
ATOM     65  C   UNL A   1      45.050  27.780  35.294  1.00  0.00    -0.014 A 
ATOM     66  C   UNL A   1      46.279  28.458  35.290  1.00  0.00     0.009 A 
ATOM     67  C   UNL A   1      44.890  26.663  36.130  1.00  0.00     0.009 A 
ATOM     68  C   UNL A   1      47.336  28.008  36.087  1.00  0.00     0.001 A 
ATOM     69  C   UNL A   1      45.940  26.232  36.942  1.00  0.00     0.001 A 
ATOM     70  C   UNL A   1      47.163  26.899  36.915  1.00  0.00     0.000 A 
ENDBRANCH  51  65
BRANCH  52  71
ATOM     71  C   UNL A   1      37.464  30.548  29.443  1.00  0.00    -0.014 A 
ATOM     72  C   UNL A   1      36.436  29.640  29.143  1.00  0.00     0.009 A 
ATOM     73  C   UNL A   1      37.407  31.841  28.899  1.00  0.00     0.009 A 
ATOM     74  C   UNL A   1      35.389  30.012  28.297  1.00  0.00     0.001 A 
ATOM     75  C   UNL A   1      36.345  32.219  28.076  1.00  0.00     0.001 A 
ATOM     76  C   UNL A   1      35.343  31.301  27.767  1.00  0.00     0.000 A 
ENDBRANCH  52  71
BRANCH  64  77
ATOM     77  C   UNL A   1      39.340  32.127  35.954  1.00  0.00    -0.014 A 
ATOM     78  C   UNL A   1      38.273  31.703  36.760  1.00  0.00     0.009 A 
ATOM     79  C   UNL A   1      39.878  33.409  36.153  1.00  0.00     0.009 A 
ATOM     80  C   UNL A   1      37.736  32.557  37.726  1.00  0.00     0.001 A 
ATOM     81  C   UNL A   1      39.357  34.249  37.137  1.00  0.00     0.001 A 
ATOM     82  C   UNL A   1      38.282  33.826  37.917  1.00  0.00     0.000 A 
ENDBRANCH  64  77
ENDBRANCH  38  39
ENDBRANCH  31  33
ENDBRANCH  30  31
ENDBRANCH  29  30
ENDBRANCH  28  29
ENDBRANCH  27  28
ENDBRANCH   1  27
TORSDOF 19
ENDMDL
MODEL 3
REMARK VINA RESULT:     -10.5      4.126      9.654
REMARK SMILES N#C/C(=C\c1ccc(Oc2ccccc2Cl)c([N+](=O)[O-])c1)C(=O)OCCOCCOC(=O)c1ccc(-c2c3nc(c(-c4ccccc4)c4ccc([nH]4)c(-c4ccccc4)c4nc(c(-c5ccccc5)c5ccc2[nH]5)C=C4)C=C3)cc1
REMARK SMILES IDX 26 1 25 2 24 3 22 4 23 5 3 6 4 7 2 8 1 9 5 10 6 11 21 12
REMARK SMILES IDX 7 13 17 14 8 15 18 16 19 17 20 18 9 19 10 20 11 21 15 22
REMARK SMILES IDX 12 23 14 24 16 25 13 26 27 27 28 28 29 29 30 30 31 31 32 32
REMARK SMILES IDX 33 33 34 34 80 35 35 36 79 37 36 38 37 39 38 40 73 41 39 42
REMARK SMILES IDX 78 43 72 44 74 45 40 46 77 47 71 48 70 49 41 51 63 52 48 53
REMARK SMILES IDX 62 54 49 55 52 56 61 57 75 58 50 59 51 60 60 62 76 63 53 64
REMARK SMILES IDX 42 65 43 66 47 67 44 68 46 69 45 70 64 71 65 72 69 73 66 74
REMARK SMILES IDX 68 75 67 76 54 77 55 78 59 79 56 80 58 81 57 82
REMARK H PARENT 74 50 52 61
REMARK Flexibility Score: inf
ROOT
ATOM      1  C   UNL A   1      34.593  33.935  28.131  1.00  0.00     0.202 C 
ENDROOT
BRANCH   1   2
ATOM      2  C   UNL A   1      33.277  33.204  27.869  1.00  0.00     0.261 C 
BRANCH   2   3
ATOM      3  O   UNL A   1      33.515  31.864  27.406  1.00  0.00    -0.459 OA
BRANCH   3   4
ATOM      4  C   UNL A   1      32.399  31.223  26.986  1.00  0.00     0.348 C 
ATOM      5  O   UNL A   1      31.380  31.752  26.570  1.00  0.00    -0.245 OA
BRANCH   4   6
ATOM      6  C   UNL A   1      32.586  29.758  26.967  1.00  0.00     0.138 C 
ATOM      7  C   UNL A   1      31.764  28.932  26.282  1.00  0.00     0.035 C 
BRANCH   6   8
ATOM      8  C   UNL A   1      33.971  29.305  27.400  1.00  0.00     0.107 C 
ATOM      9  N   UNL A   1      35.119  28.929  27.760  1.00  0.00    -0.192 NA
ENDBRANCH   6   8
BRANCH   7  10
ATOM     10  C   UNL A   1      32.187  27.585  25.834  1.00  0.00    -0.017 A 
ATOM     11  C   UNL A   1      33.412  27.448  25.172  1.00  0.00     0.012 A 
ATOM     12  C   UNL A   1      31.495  26.421  26.186  1.00  0.00     0.098 A 
ATOM     13  C   UNL A   1      33.956  26.178  24.922  1.00  0.00     0.055 A 
ATOM     14  C   UNL A   1      32.094  25.158  26.018  1.00  0.00     0.312 A 
ATOM     15  C   UNL A   1      33.315  25.006  25.353  1.00  0.00     0.204 A 
BRANCH  14  16
ATOM     16  N   UNL A   1      31.442  24.073  26.721  1.00  0.00     0.066 N 
ATOM     17  O   UNL A   1      30.480  23.533  26.161  1.00  0.00    -0.258 OA
ATOM     18  O   UNL A   1      31.946  23.719  27.797  1.00  0.00    -0.258 OA
ENDBRANCH  14  16
BRANCH  15  19
ATOM     19  O   UNL A   1      34.037  23.868  25.068  1.00  0.00    -0.449 OA
BRANCH  19  20
ATOM     20  C   UNL A   1      33.440  22.778  24.489  1.00  0.00     0.146 A 
ATOM     21  C   UNL A   1      32.861  23.000  23.233  1.00  0.00     0.049 A 
ATOM     22  C   UNL A   1      33.335  21.518  25.089  1.00  0.00     0.083 A 
ATOM     23  C   UNL A   1      32.271  21.946  22.536  1.00  0.00     0.004 A 
ATOM     24  C   UNL A   1      32.760  20.460  24.379  1.00  0.00     0.024 A 
ATOM     25  Cl  UNL A   1      33.902  21.212  26.691  1.00  0.00    -0.080 Cl
ATOM     26  C   UNL A   1      32.240  20.672  23.100  1.00  0.00     0.002 A 
ENDBRANCH  19  20
ENDBRANCH  15  19
ENDBRANCH   7  10
ENDBRANCH   4   6
ENDBRANCH   3   4
ENDBRANCH   2   3
ENDBRANCH   1   2
BRANCH   1  27
ATOM     27  O   UNL A   1      34.658  34.811  29.255  1.00  0.00    -0.374 OA
BRANCH  27  28
ATOM     28  C   UNL A   1      33.767  34.618  30.347  1.00  0.00     0.202 C 
BRANCH  28  29
ATOM     29  C   UNL A   1      34.341  34.196  31.708  1.00  0.00     0.261 C 
BRANCH  29  30
ATOM     30  O   UNL A   1      34.484  32.776  31.867  1.00  0.00    -0.460 OA
BRANCH  30  31
ATOM     31  C   UNL A   1      35.495  32.414  32.694  1.00  0.00     0.338 C 
ATOM     32  O   UNL A   1      35.557  32.575  33.906  1.00  0.00    -0.246 OA
BRANCH  31  33
ATOM     33  C   UNL A   1      36.495  31.615  31.968  1.00  0.00     0.060 A 
ATOM     34  C   UNL A   1      37.526  31.031  32.718  1.00  0.00     0.016 A 
ATOM     35  C   UNL A   1      36.489  31.526  30.575  1.00  0.00     0.016 A 
ATOM     36  C   UNL A   1      38.580  30.392  32.074  1.00  0.00     0.010 A 
ATOM     37  C   UNL A   1      37.557  30.895  29.928  1.00  0.00     0.010 A 
ATOM     38  C   UNL A   1      38.622  30.356  30.674  1.00  0.00    -0.014 A 
BRANCH  38  39
ATOM     39  C   UNL A   1      39.856  29.892  29.999  1.00  0.00     0.031 A 
ATOM     40  C   UNL A   1      41.012  30.843  29.855  1.00  0.00     0.074 A 
ATOM     41  C   UNL A   1      39.962  28.627  29.557  1.00  0.00     0.049 A 
ATOM     42  N   UNL A   1      42.179  30.649  29.295  1.00  0.00    -0.248 NA
ATOM     43  C   UNL A   1      40.829  32.191  30.418  1.00  0.00     0.031 C 
ATOM     44  C   UNL A   1      38.933  27.596  29.683  1.00  0.00     0.029 A 
ATOM     45  N   UNL A   1      40.995  27.996  28.911  1.00  0.00    -0.354 N 
ATOM     46  C   UNL A   1      42.866  31.848  29.433  1.00  0.00     0.074 A 
ATOM     47  C   UNL A   1      41.980  32.772  30.108  1.00  0.00     0.031 C 
ATOM     48  C   UNL A   1      39.385  26.460  29.125  1.00  0.00     0.029 A 
ATOM     49  C   UNL A   1      40.721  26.693  28.579  1.00  0.00     0.049 A 
ATOM     50  H   UNL A   1      41.851  28.437  28.705  1.00  0.00     0.167 HD
ATOM     51  C   UNL A   1      44.125  32.154  29.040  1.00  0.00     0.031 A 
ATOM     52  C   UNL A   1      41.458  25.796  27.897  1.00  0.00     0.031 A 
ATOM     53  C   UNL A   1      45.005  31.241  28.361  1.00  0.00     0.049 A 
ATOM     54  C   UNL A   1      42.824  26.186  27.401  1.00  0.00     0.074 A 
ATOM     55  C   UNL A   1      46.305  31.455  27.935  1.00  0.00     0.029 A 
ATOM     56  N   UNL A   1      44.673  29.945  28.003  1.00  0.00    -0.354 N 
ATOM     57  N   UNL A   1      43.472  27.315  27.560  1.00  0.00    -0.248 NA
ATOM     58  C   UNL A   1      43.563  25.171  26.635  1.00  0.00     0.031 C 
ATOM     59  C   UNL A   1      46.742  30.302  27.274  1.00  0.00     0.029 A 
ATOM     60  C   UNL A   1      45.733  29.354  27.337  1.00  0.00     0.049 A 
ATOM     61  H   UNL A   1      43.812  29.509  28.195  1.00  0.00     0.167 HD
ATOM     62  C   UNL A   1      44.702  27.137  26.941  1.00  0.00     0.074 A 
ATOM     63  C   UNL A   1      44.716  25.788  26.414  1.00  0.00     0.031 C 
ATOM     64  C   UNL A   1      45.731  28.011  26.821  1.00  0.00     0.031 A 
BRANCH  51  65
ATOM     65  C   UNL A   1      44.614  33.548  29.305  1.00  0.00    -0.014 A 
ATOM     66  C   UNL A   1      45.310  33.863  30.483  1.00  0.00     0.009 A 
ATOM     67  C   UNL A   1      44.410  34.551  28.345  1.00  0.00     0.009 A 
ATOM     68  C   UNL A   1      45.769  35.165  30.705  1.00  0.00     0.001 A 
ATOM     69  C   UNL A   1      44.891  35.844  28.559  1.00  0.00     0.001 A 
ATOM     70  C   UNL A   1      45.562  36.152  29.741  1.00  0.00     0.000 A 
ENDBRANCH  51  65
BRANCH  52  71
ATOM     71  C   UNL A   1      40.915  24.442  27.619  1.00  0.00    -0.014 A 
ATOM     72  C   UNL A   1      41.477  23.306  28.222  1.00  0.00     0.009 A 
ATOM     73  C   UNL A   1      39.847  24.276  26.723  1.00  0.00     0.009 A 
ATOM     74  C   UNL A   1      40.998  22.032  27.912  1.00  0.00     0.001 A 
ATOM     75  C   UNL A   1      39.353  23.003  26.435  1.00  0.00     0.001 A 
ATOM     76  C   UNL A   1      39.935  21.881  27.022  1.00  0.00     0.000 A 
ENDBRANCH  52  71
BRANCH  64  77
ATOM     77  C   UNL A   1      46.970  27.525  26.125  1.00  0.00    -0.014 A 
ATOM     78  C   UNL A   1      47.975  26.836  26.820  1.00  0.00     0.009 A 
ATOM     79  C   UNL A   1      47.112  27.726  24.742  1.00  0.00     0.009 A 
ATOM     80  C   UNL A   1      49.112  26.383  26.148  1.00  0.00     0.001 A 
ATOM     81  C   UNL A   1      48.237  27.248  24.070  1.00  0.00     0.001 A 
ATOM     82  C   UNL A   1      49.240  26.584  24.774  1.00  0.00     0.000 A 
ENDBRANCH  64  77
ENDBRANCH  38  39
ENDBRANCH  31  33
ENDBRANCH  30  31
ENDBRANCH  29  30
ENDBRANCH  28  29
ENDBRANCH  27  28
ENDBRANCH   1  27
TORSDOF 19
ENDMDL
