MODEL 1
REMARK VINA RESULT:     -12.3      0.000      0.000
REMARK SMILES Cc1c(NC(=O)c2ccc(-c3cccc(Cl)c3)o2)cccc1C(=O)OCCOCCOC(=O)c1ccc(-c2c3nc(c(-c4ccccc4)c4ccc([nH]4)c(-c4ccccc4)c4nc(c(-c5ccccc5)c5ccc2[nH]5)C=C4)C=C3)cc1
REMARK SMILES IDX 27 1 26 2 25 3 23 4 24 5 22 6 1 7 2 8 3 9 19 10 21 11 20 12
REMARK SMILES IDX 4 13 5 14 6 16 7 17 8 18 18 19 9 20 10 21 11 22 12 23 17 24
REMARK SMILES IDX 13 25 15 26 14 27 16 28 28 29 29 30 30 31 31 32 32 33 33 34
REMARK SMILES IDX 34 35 35 36 81 37 36 38 80 39 37 40 38 41 39 42 74 43 40 44
REMARK SMILES IDX 79 45 73 46 75 47 41 48 78 49 72 50 71 51 42 53 64 54 49 55
REMARK SMILES IDX 63 56 50 57 53 58 62 59 76 60 51 61 52 62 61 64 77 65 54 66
REMARK SMILES IDX 43 67 44 68 48 69 45 70 47 71 46 72 65 73 66 74 70 75 67 76
REMARK SMILES IDX 69 77 68 78 55 79 56 80 60 81 57 82 59 83 58 84
REMARK H PARENT 4 15 75 52 53 63
REMARK Flexibility Score: inf
ROOT
ATOM      1  C   UNL A   1      33.981  33.367  27.926  1.00  0.00     0.202 C 
ENDROOT
BRANCH   1   2
ATOM      2  C   UNL A   1      33.395  31.993  27.991  1.00  0.00     0.261 C 
BRANCH   2   3
ATOM      3  O   UNL A   1      33.729  31.227  26.827  1.00  0.00    -0.460 OA
BRANCH   3   4
ATOM      4  C   UNL A   1      34.318  30.023  26.967  1.00  0.00     0.338 C 
ATOM      5  O   UNL A   1      35.465  29.798  27.284  1.00  0.00    -0.246 OA
BRANCH   4   6
ATOM      6  C   UNL A   1      33.289  28.988  26.685  1.00  0.00     0.065 A 
ATOM      7  C   UNL A   1      33.992  28.496  24.224  1.00  0.00     0.047 C 
ATOM      8  C   UNL A   1      33.172  28.249  25.474  1.00  0.00    -0.013 A 
ATOM      9  C   UNL A   1      32.225  27.208  25.430  1.00  0.00     0.045 A 
ATOM     10  C   UNL A   1      31.403  26.970  26.541  1.00  0.00     0.026 A 
ATOM     11  C   UNL A   1      32.379  28.790  27.739  1.00  0.00     0.016 A 
ATOM     12  C   UNL A   1      31.428  27.791  27.662  1.00  0.00     0.003 A 
BRANCH   9  13
ATOM     13  N   UNL A   1      32.166  26.425  24.255  1.00  0.00    -0.319 N 
ATOM     14  C   UNL A   1      31.156  26.225  23.342  1.00  0.00     0.291 C 
ATOM     15  H   UNL A   1      32.995  25.934  24.054  1.00  0.00     0.170 HD
ATOM     16  O   UNL A   1      31.354  25.435  22.420  1.00  0.00    -0.265 OA
BRANCH  14  17
ATOM     17  C   UNL A   1      29.960  27.000  23.489  1.00  0.00     0.192 A 
ATOM     18  C   UNL A   1      28.645  26.640  23.726  1.00  0.00     0.057 A 
ATOM     19  O   UNL A   1      30.035  28.323  23.177  1.00  0.00    -0.451 OA
ATOM     20  C   UNL A   1      27.871  27.798  23.477  1.00  0.00     0.052 A 
ATOM     21  C   UNL A   1      28.762  28.795  23.137  1.00  0.00     0.135 A 
BRANCH  21  22
ATOM     22  C   UNL A   1      28.629  30.181  22.750  1.00  0.00     0.019 A 
ATOM     23  C   UNL A   1      28.809  31.177  23.713  1.00  0.00     0.012 A 
ATOM     24  C   UNL A   1      28.323  30.538  21.429  1.00  0.00     0.032 A 
ATOM     25  C   UNL A   1      28.696  32.521  23.365  1.00  0.00     0.002 A 
ATOM     26  C   UNL A   1      28.197  31.885  21.090  1.00  0.00     0.041 A 
ATOM     27  C   UNL A   1      28.387  32.876  22.053  1.00  0.00     0.020 A 
ATOM     28  Cl  UNL A   1      27.799  32.330  19.477  1.00  0.00    -0.084 Cl
ENDBRANCH  21  22
ENDBRANCH  14  17
ENDBRANCH   9  13
ENDBRANCH   4   6
ENDBRANCH   3   4
ENDBRANCH   2   3
ENDBRANCH   1   2
BRANCH   1  29
ATOM     29  O   UNL A   1      32.881  34.243  28.093  1.00  0.00    -0.374 OA
BRANCH  29  30
ATOM     30  C   UNL A   1      33.101  35.358  28.925  1.00  0.00     0.202 C 
BRANCH  30  31
ATOM     31  C   UNL A   1      33.000  34.995  30.411  1.00  0.00     0.261 C 
BRANCH  31  32
ATOM     32  O   UNL A   1      33.740  35.961  31.191  1.00  0.00    -0.460 OA
BRANCH  32  33
ATOM     33  C   UNL A   1      34.418  35.491  32.277  1.00  0.00     0.338 C 
ATOM     34  O   UNL A   1      34.727  36.149  33.257  1.00  0.00    -0.246 OA
BRANCH  33  35
ATOM     35  C   UNL A   1      34.993  34.142  31.973  1.00  0.00     0.060 A 
ATOM     36  C   UNL A   1      34.949  33.117  32.943  1.00  0.00     0.016 A 
ATOM     37  C   UNL A   1      35.872  34.035  30.900  1.00  0.00     0.016 A 
ATOM     38  C   UNL A   1      35.901  32.079  32.925  1.00  0.00     0.010 A 
ATOM     39  C   UNL A   1      36.864  33.078  30.948  1.00  0.00     0.010 A 
ATOM     40  C   UNL A   1      36.921  32.117  31.976  1.00  0.00    -0.014 A 
BRANCH  40  41
ATOM     41  C   UNL A   1      38.180  31.356  32.004  1.00  0.00     0.031 A 
ATOM     42  C   UNL A   1      38.280  30.150  31.155  1.00  0.00     0.074 A 
ATOM     43  C   UNL A   1      39.320  31.895  32.512  1.00  0.00     0.049 A 
ATOM     44  N   UNL A   1      39.288  29.355  31.172  1.00  0.00    -0.248 NA
ATOM     45  C   UNL A   1      37.235  29.701  30.234  1.00  0.00     0.031 C 
ATOM     46  C   UNL A   1      40.714  31.618  32.147  1.00  0.00     0.029 A 
ATOM     47  N   UNL A   1      39.460  32.861  33.505  1.00  0.00    -0.354 N 
ATOM     48  C   UNL A   1      39.203  28.547  30.067  1.00  0.00     0.074 A 
ATOM     49  C   UNL A   1      37.853  28.705  29.592  1.00  0.00     0.031 C 
ATOM     50  C   UNL A   1      41.545  32.175  33.049  1.00  0.00     0.029 A 
ATOM     51  C   UNL A   1      40.724  32.751  34.099  1.00  0.00     0.049 A 
ATOM     52  H   UNL A   1      38.774  33.523  33.752  1.00  0.00     0.167 HD
ATOM     53  C   UNL A   1      40.340  27.947  29.628  1.00  0.00     0.031 A 
ATOM     54  C   UNL A   1      40.829  32.577  35.442  1.00  0.00     0.031 A 
ATOM     55  C   UNL A   1      41.447  28.164  30.574  1.00  0.00     0.049 A 
ATOM     56  C   UNL A   1      41.323  31.174  35.648  1.00  0.00     0.074 A 
ATOM     57  C   UNL A   1      42.598  28.931  30.539  1.00  0.00     0.029 A 
ATOM     58  N   UNL A   1      41.264  27.802  31.912  1.00  0.00    -0.354 N 
ATOM     59  N   UNL A   1      41.167  30.246  34.740  1.00  0.00    -0.248 NA
ATOM     60  C   UNL A   1      42.151  30.734  36.766  1.00  0.00     0.031 C 
ATOM     61  C   UNL A   1      43.038  29.116  31.887  1.00  0.00     0.029 A 
ATOM     62  C   UNL A   1      42.183  28.425  32.736  1.00  0.00     0.049 A 
ATOM     63  H   UNL A   1      40.568  27.182  32.228  1.00  0.00     0.167 HD
ATOM     64  C   UNL A   1      41.968  29.194  35.036  1.00  0.00     0.074 A 
ATOM     65  C   UNL A   1      42.503  29.502  36.353  1.00  0.00     0.031 C 
ATOM     66  C   UNL A   1      42.189  28.162  34.176  1.00  0.00     0.031 A 
BRANCH  53  67
ATOM     67  C   UNL A   1      40.503  27.309  28.266  1.00  0.00    -0.014 A 
ATOM     68  C   UNL A   1      39.970  26.029  28.035  1.00  0.00     0.009 A 
ATOM     69  C   UNL A   1      41.218  27.871  27.189  1.00  0.00     0.009 A 
ATOM     70  C   UNL A   1      40.127  25.365  26.807  1.00  0.00     0.001 A 
ATOM     71  C   UNL A   1      41.358  27.228  25.952  1.00  0.00     0.001 A 
ATOM     72  C   UNL A   1      40.814  25.970  25.761  1.00  0.00     0.000 A 
ENDBRANCH  53  67
BRANCH  54  73
ATOM     73  C   UNL A   1      39.789  33.368  36.178  1.00  0.00    -0.014 A 
ATOM     74  C   UNL A   1      38.879  32.624  36.971  1.00  0.00     0.009 A 
ATOM     75  C   UNL A   1      40.002  34.711  36.526  1.00  0.00     0.009 A 
ATOM     76  C   UNL A   1      38.322  33.158  38.143  1.00  0.00     0.001 A 
ATOM     77  C   UNL A   1      39.449  35.240  37.707  1.00  0.00     0.001 A 
ATOM     78  C   UNL A   1      38.641  34.456  38.531  1.00  0.00     0.000 A 
ENDBRANCH  54  73
BRANCH  66  79
ATOM     79  C   UNL A   1      42.456  26.776  34.676  1.00  0.00    -0.014 A 
ATOM     80  C   UNL A   1      41.534  26.067  35.460  1.00  0.00     0.009 A 
ATOM     81  C   UNL A   1      43.566  26.065  34.183  1.00  0.00     0.009 A 
ATOM     82  C   UNL A   1      41.738  24.728  35.786  1.00  0.00     0.001 A 
ATOM     83  C   UNL A   1      43.741  24.709  34.453  1.00  0.00     0.001 A 
ATOM     84  C   UNL A   1      42.835  24.046  35.270  1.00  0.00     0.000 A 
ENDBRANCH  66  79
ENDBRANCH  40  41
ENDBRANCH  33  35
ENDBRANCH  32  33
ENDBRANCH  31  32
ENDBRANCH  30  31
ENDBRANCH  29  30
ENDBRANCH   1  29
TORSDOF 17
ENDMDL
MODEL 2
REMARK VINA RESULT:     -11.9      2.928      4.617
REMARK SMILES Cc1c(NC(=O)c2ccc(-c3cccc(Cl)c3)o2)cccc1C(=O)OCCOCCOC(=O)c1ccc(-c2c3nc(c(-c4ccccc4)c4ccc([nH]4)c(-c4ccccc4)c4nc(c(-c5ccccc5)c5ccc2[nH]5)C=C4)C=C3)cc1
REMARK SMILES IDX 27 1 26 2 25 3 23 4 24 5 22 6 1 7 2 8 3 9 19 10 21 11 20 12
REMARK SMILES IDX 4 13 5 14 6 16 7 17 8 18 18 19 9 20 10 21 11 22 12 23 17 24
REMARK SMILES IDX 13 25 15 26 14 27 16 28 28 29 29 30 30 31 31 32 32 33 33 34
REMARK SMILES IDX 34 35 35 36 81 37 36 38 80 39 37 40 38 41 39 42 74 43 40 44
REMARK SMILES IDX 79 45 73 46 75 47 41 48 78 49 72 50 71 51 42 53 64 54 49 55
REMARK SMILES IDX 63 56 50 57 53 58 62 59 76 60 51 61 52 62 61 64 77 65 54 66
REMARK SMILES IDX 43 67 44 68 48 69 45 70 47 71 46 72 65 73 66 74 70 75 67 76
REMARK SMILES IDX 69 77 68 78 55 79 56 80 60 81 57 82 59 83 58 84
REMARK H PARENT 4 15 75 52 53 63
REMARK Flexibility Score: inf
ROOT
ATOM      1  C   UNL A   1      31.412  32.450  26.489  1.00  0.00     0.202 C 
ENDROOT
BRANCH   1   2
ATOM      2  C   UNL A   1      32.293  31.275  26.764  1.00  0.00     0.261 C 
BRANCH   2   3
ATOM      3  O   UNL A   1      31.691  30.055  26.314  1.00  0.00    -0.460 OA
BRANCH   3   4
ATOM      4  C   UNL A   1      32.217  29.398  25.261  1.00  0.00     0.338 C 
ATOM      5  O   UNL A   1      33.206  29.695  24.629  1.00  0.00    -0.246 OA
BRANCH   4   6
ATOM      6  C   UNL A   1      31.372  28.200  25.015  1.00  0.00     0.065 A 
ATOM      7  C   UNL A   1      32.035  26.889  27.167  1.00  0.00     0.047 C 
ATOM      8  C   UNL A   1      31.234  27.091  25.896  1.00  0.00    -0.013 A 
ATOM      9  C   UNL A   1      30.284  26.106  25.569  1.00  0.00     0.045 A 
ATOM     10  C   UNL A   1      29.553  26.217  24.377  1.00  0.00     0.026 A 
ATOM     11  C   UNL A   1      30.699  28.225  23.780  1.00  0.00     0.016 A 
ATOM     12  C   UNL A   1      29.799  27.227  23.456  1.00  0.00     0.003 A 
BRANCH   9  13
ATOM     13  N   UNL A   1      30.093  25.048  26.485  1.00  0.00    -0.319 N 
ATOM     14  C   UNL A   1      30.581  23.762  26.508  1.00  0.00     0.291 C 
ATOM     15  H   UNL A   1      29.507  25.271  27.244  1.00  0.00     0.170 HD
ATOM     16  O   UNL A   1      30.207  23.014  27.411  1.00  0.00    -0.265 OA
BRANCH  14  17
ATOM     17  C   UNL A   1      31.543  23.395  25.511  1.00  0.00     0.192 A 
ATOM     18  C   UNL A   1      31.408  22.825  24.257  1.00  0.00     0.057 A 
ATOM     19  O   UNL A   1      32.855  23.426  25.874  1.00  0.00    -0.451 OA
ATOM     20  C   UNL A   1      32.709  22.427  23.867  1.00  0.00     0.052 A 
ATOM     21  C   UNL A   1      33.554  22.807  24.888  1.00  0.00     0.135 A 
BRANCH  21  22
ATOM     22  C   UNL A   1      34.974  22.677  25.127  1.00  0.00     0.019 A 
ATOM     23  C   UNL A   1      35.702  23.800  25.528  1.00  0.00     0.012 A 
ATOM     24  C   UNL A   1      35.628  21.448  24.961  1.00  0.00     0.032 A 
ATOM     25  C   UNL A   1      37.070  23.701  25.774  1.00  0.00     0.002 A 
ATOM     26  C   UNL A   1      36.999  21.359  25.195  1.00  0.00     0.041 A 
ATOM     27  C   UNL A   1      37.720  22.480  25.604  1.00  0.00     0.020 A 
ATOM     28  Cl  UNL A   1      37.812  19.859  24.972  1.00  0.00    -0.084 Cl
ENDBRANCH  21  22
ENDBRANCH  14  17
ENDBRANCH   9  13
ENDBRANCH   4   6
ENDBRANCH   3   4
ENDBRANCH   2   3
ENDBRANCH   1   2
BRANCH   1  29
ATOM     29  O   UNL A   1      31.836  33.446  27.401  1.00  0.00    -0.374 OA
BRANCH  29  30
ATOM     30  C   UNL A   1      33.225  33.530  27.624  1.00  0.00     0.202 C 
BRANCH  30  31
ATOM     31  C   UNL A   1      33.573  34.573  28.693  1.00  0.00     0.261 C 
BRANCH  31  32
ATOM     32  O   UNL A   1      33.523  33.953  29.999  1.00  0.00    -0.460 OA
BRANCH  32  33
ATOM     33  C   UNL A   1      34.673  33.962  30.732  1.00  0.00     0.338 C 
ATOM     34  O   UNL A   1      35.136  34.934  31.308  1.00  0.00    -0.246 OA
BRANCH  33  35
ATOM     35  C   UNL A   1      35.444  32.703  30.484  1.00  0.00     0.060 A 
ATOM     36  C   UNL A   1      35.356  31.627  31.394  1.00  0.00     0.016 A 
ATOM     37  C   UNL A   1      36.498  32.751  29.577  1.00  0.00     0.016 A 
ATOM     38  C   UNL A   1      36.412  30.701  31.505  1.00  0.00     0.010 A 
ATOM     39  C   UNL A   1      37.572  31.906  29.763  1.00  0.00     0.010 A 
ATOM     40  C   UNL A   1      37.565  30.901  30.749  1.00  0.00    -0.014 A 
BRANCH  40  41
ATOM     41  C   UNL A   1      38.882  30.281  30.969  1.00  0.00     0.031 A 
ATOM     42  C   UNL A   1      39.240  29.106  30.145  1.00  0.00     0.074 A 
ATOM     43  C   UNL A   1      39.866  30.932  31.643  1.00  0.00     0.049 A 
ATOM     44  N   UNL A   1      40.314  28.425  30.315  1.00  0.00    -0.248 NA
ATOM     45  C   UNL A   1      38.401  28.561  29.077  1.00  0.00     0.031 C 
ATOM     46  C   UNL A   1      41.321  30.813  31.493  1.00  0.00     0.029 A 
ATOM     47  N   UNL A   1      39.748  31.891  32.645  1.00  0.00    -0.354 N 
ATOM     48  C   UNL A   1      40.485  27.630  29.211  1.00  0.00     0.074 A 
ATOM     49  C   UNL A   1      39.214  27.649  28.537  1.00  0.00     0.031 C 
ATOM     50  C   UNL A   1      41.941  31.442  32.511  1.00  0.00     0.029 A 
ATOM     51  C   UNL A   1      40.913  31.909  33.424  1.00  0.00     0.049 A 
ATOM     52  H   UNL A   1      38.964  32.471  32.784  1.00  0.00     0.167 HD
ATOM     53  C   UNL A   1      41.735  27.163  28.950  1.00  0.00     0.031 A 
ATOM     54  C   UNL A   1      40.832  31.726  34.768  1.00  0.00     0.031 A 
ATOM     55  C   UNL A   1      42.656  27.484  30.053  1.00  0.00     0.049 A 
ATOM     56  C   UNL A   1      41.440  30.382  35.047  1.00  0.00     0.074 A 
ATOM     57  C   UNL A   1      43.709  28.371  30.192  1.00  0.00     0.029 A 
ATOM     58  N   UNL A   1      42.314  27.083  31.347  1.00  0.00    -0.354 N 
ATOM     59  N   UNL A   1      41.525  29.457  34.126  1.00  0.00    -0.248 NA
ATOM     60  C   UNL A   1      42.133  30.016  36.277  1.00  0.00     0.031 C 
ATOM     61  C   UNL A   1      43.916  28.582  31.591  1.00  0.00     0.029 A 
ATOM     62  C   UNL A   1      43.025  27.789  32.301  1.00  0.00     0.049 A 
ATOM     63  H   UNL A   1      41.650  26.386  31.555  1.00  0.00     0.167 HD
ATOM     64  C   UNL A   1      42.382  28.493  34.542  1.00  0.00     0.074 A 
ATOM     65  C   UNL A   1      42.676  28.836  35.924  1.00  0.00     0.031 C 
ATOM     66  C   UNL A   1      42.842  27.505  33.725  1.00  0.00     0.031 A 
BRANCH  53  67
ATOM     67  C   UNL A   1      42.170  26.568  27.629  1.00  0.00    -0.014 A 
ATOM     68  C   UNL A   1      41.985  25.194  27.396  1.00  0.00     0.009 A 
ATOM     69  C   UNL A   1      42.823  27.275  26.599  1.00  0.00     0.009 A 
ATOM     70  C   UNL A   1      42.409  24.575  26.208  1.00  0.00     0.001 A 
ATOM     71  C   UNL A   1      43.226  26.671  25.400  1.00  0.00     0.001 A 
ATOM     72  C   UNL A   1      43.021  25.316  25.205  1.00  0.00     0.000 A 
ENDBRANCH  53  67
BRANCH  54  73
ATOM     73  C   UNL A   1      39.613  32.388  35.337  1.00  0.00    -0.014 A 
ATOM     74  C   UNL A   1      38.693  31.541  36.005  1.00  0.00     0.009 A 
ATOM     75  C   UNL A   1      39.616  33.747  35.690  1.00  0.00     0.009 A 
ATOM     76  C   UNL A   1      37.916  32.004  37.078  1.00  0.00     0.001 A 
ATOM     77  C   UNL A   1      38.843  34.205  36.773  1.00  0.00     0.001 A 
ATOM     78  C   UNL A   1      38.024  33.330  37.487  1.00  0.00     0.000 A 
ENDBRANCH  54  73
BRANCH  66  79
ATOM     79  C   UNL A   1      43.181  26.148  34.262  1.00  0.00    -0.014 A 
ATOM     80  C   UNL A   1      42.283  25.399  35.037  1.00  0.00     0.009 A 
ATOM     81  C   UNL A   1      44.345  25.497  33.812  1.00  0.00     0.009 A 
ATOM     82  C   UNL A   1      42.561  24.081  35.395  1.00  0.00     0.001 A 
ATOM     83  C   UNL A   1      44.595  24.161  34.114  1.00  0.00     0.001 A 
ATOM     84  C   UNL A   1      43.710  23.459  34.923  1.00  0.00     0.000 A 
ENDBRANCH  66  79
ENDBRANCH  40  41
ENDBRANCH  33  35
ENDBRANCH  32  33
ENDBRANCH  31  32
ENDBRANCH  30  31
ENDBRANCH  29  30
ENDBRANCH   1  29
TORSDOF 17
ENDMDL
MODEL 3
REMARK VINA RESULT:     -11.7      5.064      9.720
REMARK SMILES Cc1c(NC(=O)c2ccc(-c3cccc(Cl)c3)o2)cccc1C(=O)OCCOCCOC(=O)c1ccc(-c2c3nc(c(-c4ccccc4)c4ccc([nH]4)c(-c4ccccc4)c4nc(c(-c5ccccc5)c5ccc2[nH]5)C=C4)C=C3)cc1
REMARK SMILES IDX 27 1 26 2 25 3 23 4 24 5 22 6 1 7 2 8 3 9 19 10 21 11 20 12
REMARK SMILES IDX 4 13 5 14 6 16 7 17 8 18 18 19 9 20 10 21 11 22 12 23 17 24
REMARK SMILES IDX 13 25 15 26 14 27 16 28 28 29 29 30 30 31 31 32 32 33 33 34
REMARK SMILES IDX 34 35 35 36 81 37 36 38 80 39 37 40 38 41 39 42 74 43 40 44
REMARK SMILES IDX 79 45 73 46 75 47 41 48 78 49 72 50 71 51 42 53 64 54 49 55
REMARK SMILES IDX 63 56 50 57 53 58 62 59 76 60 51 61 52 62 61 64 77 65 54 66
REMARK SMILES IDX 43 67 44 68 48 69 45 70 47 71 46 72 65 73 66 74 70 75 67 76
REMARK SMILES IDX 69 77 68 78 55 79 56 80 60 81 57 82 59 83 58 84
REMARK H PARENT 4 15 75 52 53 63
REMARK Flexibility Score: inf
ROOT
ATOM      1  C   UNL A   1      35.552  22.563  23.440  1.00  0.00     0.202 C 
ENDROOT
BRANCH   1   2
ATOM      2  C   UNL A   1      34.697  23.767  23.670  1.00  0.00     0.261 C 
BRANCH   2   3
ATOM      3  O   UNL A   1      34.144  24.257  22.442  1.00  0.00    -0.460 OA
BRANCH   3   4
ATOM      4  C   UNL A   1      33.620  25.498  22.395  1.00  0.00     0.338 C 
ATOM      5  O   UNL A   1      33.517  26.216  21.425  1.00  0.00    -0.246 OA
BRANCH   4   6
ATOM      6  C   UNL A   1      33.153  25.838  23.764  1.00  0.00     0.065 A 
ATOM      7  C   UNL A   1      30.962  24.428  23.717  1.00  0.00     0.047 C 
ATOM      8  C   UNL A   1      31.989  25.314  24.393  1.00  0.00    -0.013 A 
ATOM      9  C   UNL A   1      31.771  25.637  25.746  1.00  0.00     0.045 A 
ATOM     10  C   UNL A   1      32.663  26.496  26.406  1.00  0.00     0.026 A 
ATOM     11  C   UNL A   1      33.966  26.778  24.424  1.00  0.00     0.016 A 
ATOM     12  C   UNL A   1      33.713  27.116  25.740  1.00  0.00     0.003 A 
BRANCH   9  13
ATOM     13  N   UNL A   1      30.660  25.051  26.390  1.00  0.00    -0.319 N 
ATOM     14  C   UNL A   1      30.432  23.766  26.827  1.00  0.00     0.291 C 
ATOM     15  H   UNL A   1      29.914  25.672  26.557  1.00  0.00     0.170 HD
ATOM     16  O   UNL A   1      29.334  23.504  27.317  1.00  0.00    -0.265 OA
BRANCH  14  17
ATOM     17  C   UNL A   1      31.514  22.830  26.740  1.00  0.00     0.192 A 
ATOM     18  C   UNL A   1      32.816  22.872  27.205  1.00  0.00     0.057 A 
ATOM     19  O   UNL A   1      31.345  21.762  25.913  1.00  0.00    -0.451 OA
ATOM     20  C   UNL A   1      33.493  21.804  26.570  1.00  0.00     0.052 A 
ATOM     21  C   UNL A   1      32.557  21.163  25.786  1.00  0.00     0.135 A 
BRANCH  21  22
ATOM     22  C   UNL A   1      32.597  20.036  24.881  1.00  0.00     0.019 A 
ATOM     23  C   UNL A   1      32.377  20.250  23.518  1.00  0.00     0.012 A 
ATOM     24  C   UNL A   1      32.851  18.739  25.349  1.00  0.00     0.032 A 
ATOM     25  C   UNL A   1      32.419  19.184  22.622  1.00  0.00     0.002 A 
ATOM     26  C   UNL A   1      32.878  17.674  24.449  1.00  0.00     0.041 A 
ATOM     27  C   UNL A   1      32.667  17.894  23.088  1.00  0.00     0.020 A 
ATOM     28  Cl  UNL A   1      33.167  16.077  25.019  1.00  0.00    -0.084 Cl
ENDBRANCH  21  22
ENDBRANCH  14  17
ENDBRANCH   9  13
ENDBRANCH   4   6
ENDBRANCH   3   4
ENDBRANCH   2   3
ENDBRANCH   1   2
BRANCH   1  29
ATOM     29  O   UNL A   1      36.856  22.963  23.821  1.00  0.00    -0.374 OA
BRANCH  29  30
ATOM     30  C   UNL A   1      37.464  22.200  24.838  1.00  0.00     0.202 C 
BRANCH  30  31
ATOM     31  C   UNL A   1      38.109  23.084  25.911  1.00  0.00     0.261 C 
BRANCH  31  32
ATOM     32  O   UNL A   1      39.216  22.375  26.513  1.00  0.00    -0.460 OA
BRANCH  32  33
ATOM     33  C   UNL A   1      40.286  23.122  26.912  1.00  0.00     0.338 C 
ATOM     34  O   UNL A   1      41.335  22.678  27.348  1.00  0.00    -0.246 OA
BRANCH  33  35
ATOM     35  C   UNL A   1      39.886  24.561  27.027  1.00  0.00     0.060 A 
ATOM     36  C   UNL A   1      40.455  25.525  26.167  1.00  0.00     0.016 A 
ATOM     37  C   UNL A   1      39.254  24.971  28.196  1.00  0.00     0.016 A 
ATOM     38  C   UNL A   1      40.538  26.874  26.566  1.00  0.00     0.010 A 
ATOM     39  C   UNL A   1      39.432  26.270  28.626  1.00  0.00     0.010 A 
ATOM     40  C   UNL A   1      40.107  27.225  27.843  1.00  0.00    -0.014 A 
BRANCH  40  41
ATOM     41  C   UNL A   1      40.423  28.466  28.569  1.00  0.00     0.031 A 
ATOM     42  C   UNL A   1      39.317  29.409  28.843  1.00  0.00     0.074 A 
ATOM     43  C   UNL A   1      41.587  28.606  29.257  1.00  0.00     0.049 A 
ATOM     44  N   UNL A   1      39.489  30.563  29.379  1.00  0.00    -0.248 NA
ATOM     45  C   UNL A   1      37.917  29.159  28.502  1.00  0.00     0.031 C 
ATOM     46  C   UNL A   1      41.863  29.413  30.451  1.00  0.00     0.029 A 
ATOM     47  N   UNL A   1      42.820  28.007  29.012  1.00  0.00    -0.354 N 
ATOM     48  C   UNL A   1      38.262  31.028  29.774  1.00  0.00     0.074 A 
ATOM     49  C   UNL A   1      37.308  30.191  29.093  1.00  0.00     0.031 C 
ATOM     50  C   UNL A   1      43.191  29.469  30.671  1.00  0.00     0.029 A 
ATOM     51  C   UNL A   1      43.844  28.785  29.570  1.00  0.00     0.049 A 
ATOM     52  H   UNL A   1      42.953  27.163  28.522  1.00  0.00     0.167 HD
ATOM     53  C   UNL A   1      38.223  31.989  30.735  1.00  0.00     0.031 A 
ATOM     54  C   UNL A   1      44.861  29.228  28.786  1.00  0.00     0.031 A 
ATOM     55  C   UNL A   1      39.578  32.474  31.046  1.00  0.00     0.049 A 
ATOM     56  C   UNL A   1      44.681  30.714  28.662  1.00  0.00     0.074 A 
ATOM     57  C   UNL A   1      40.422  32.320  32.132  1.00  0.00     0.029 A 
ATOM     58  N   UNL A   1      40.374  32.949  30.001  1.00  0.00    -0.354 N 
ATOM     59  N   UNL A   1      43.521  31.287  28.852  1.00  0.00    -0.248 NA
ATOM     60  C   UNL A   1      45.762  31.677  28.487  1.00  0.00     0.031 C 
ATOM     61  C   UNL A   1      41.753  32.603  31.690  1.00  0.00     0.029 A 
ATOM     62  C   UNL A   1      41.711  32.973  30.353  1.00  0.00     0.049 A 
ATOM     63  H   UNL A   1      40.028  33.232  29.124  1.00  0.00     0.167 HD
ATOM     64  C   UNL A   1      43.703  32.623  28.995  1.00  0.00     0.074 A 
ATOM     65  C   UNL A   1      45.106  32.836  28.677  1.00  0.00     0.031 C 
ATOM     66  C   UNL A   1      42.719  33.467  29.413  1.00  0.00     0.031 A 
BRANCH  53  67
ATOM     67  C   UNL A   1      36.986  32.372  31.517  1.00  0.00    -0.014 A 
ATOM     68  C   UNL A   1      35.811  32.717  30.826  1.00  0.00     0.009 A 
ATOM     69  C   UNL A   1      36.917  32.478  32.921  1.00  0.00     0.009 A 
ATOM     70  C   UNL A   1      34.645  33.124  31.494  1.00  0.00     0.001 A 
ATOM     71  C   UNL A   1      35.750  32.859  33.597  1.00  0.00     0.001 A 
ATOM     72  C   UNL A   1      34.611  33.186  32.882  1.00  0.00     0.000 A 
ENDBRANCH  53  67
BRANCH  54  73
ATOM     73  C   UNL A   1      45.254  28.200  27.767  1.00  0.00    -0.014 A 
ATOM     74  C   UNL A   1      45.279  28.632  26.417  1.00  0.00     0.009 A 
ATOM     75  C   UNL A   1      46.057  27.101  28.111  1.00  0.00     0.009 A 
ATOM     76  C   UNL A   1      46.175  28.081  25.488  1.00  0.00     0.001 A 
ATOM     77  C   UNL A   1      46.962  26.558  27.179  1.00  0.00     0.001 A 
ATOM     78  C   UNL A   1      47.046  27.070  25.884  1.00  0.00     0.000 A 
ENDBRANCH  54  73
BRANCH  66  79
ATOM     79  C   UNL A   1      42.664  34.888  28.944  1.00  0.00    -0.014 A 
ATOM     80  C   UNL A   1      43.047  35.965  29.757  1.00  0.00     0.009 A 
ATOM     81  C   UNL A   1      42.426  35.158  27.583  1.00  0.00     0.009 A 
ATOM     82  C   UNL A   1      43.132  37.261  29.250  1.00  0.00     0.001 A 
ATOM     83  C   UNL A   1      42.572  36.440  27.059  1.00  0.00     0.001 A 
ATOM     84  C   UNL A   1      42.907  37.495  27.899  1.00  0.00     0.000 A 
ENDBRANCH  66  79
ENDBRANCH  40  41
ENDBRANCH  33  35
ENDBRANCH  32  33
ENDBRANCH  31  32
ENDBRANCH  30  31
ENDBRANCH  29  30
ENDBRANCH   1  29
TORSDOF 17
ENDMDL
