MODEL 1
REMARK VINA RESULT:     -12.0      0.000      0.000
REMARK SMILES Cc1ccc2cc(C[N@H+]3CC[NH2+][C@H](C(=O)OCCOCCOC(=O)c4ccc(-c5c6nc(c(-c7ccccc7)c7ccc([nH]7)c(-c7ccccc7)c7nc(c(-c8ccccc8)c8ccc5[nH]8)C=C7)C=C6)cc4)C3)c(N3CCOCC3)nc2c1
REMARK SMILES IDX 18 1 17 2 16 3 14 4 15 5 13 6 9 7 10 8 73 9 11 11 12 12 8 15
REMARK SMILES IDX 7 16 1 17 2 18 3 19 83 20 4 21 82 22 5 23 81 24 6 25 74 26
REMARK SMILES IDX 75 27 76 28 80 29 77 30 79 31 78 32 19 33 20 34 21 35 22 36
REMARK SMILES IDX 23 37 24 38 25 39 26 40 72 41 27 42 71 43 28 44 29 45 30 46
REMARK SMILES IDX 65 47 31 48 70 49 64 50 66 51 32 52 69 53 63 54 62 55 33 57
REMARK SMILES IDX 55 58 40 59 54 60 41 61 44 62 53 63 67 64 42 65 43 66 52 68
REMARK SMILES IDX 68 69 45 70 34 71 35 72 39 73 36 74 38 75 37 76 56 77 57 78
REMARK SMILES IDX 61 79 58 80 60 81 59 82 46 83 47 84 51 85 48 86 50 87 49 88
REMARK H PARENT 9 10 12 13 12 14 66 56 44 67
REMARK Flexibility Score: inf
ROOT
ATOM      1  C   UNL A   1      42.369  19.743  25.874  1.00  0.00     0.202 C 
ENDROOT
BRANCH   1   2
ATOM      2  C   UNL A   1      41.671  20.914  26.562  1.00  0.00     0.261 C 
BRANCH   2   3
ATOM      3  O   UNL A   1      40.318  21.021  26.096  1.00  0.00    -0.459 OA
BRANCH   3   4
ATOM      4  C   UNL A   1      39.601  22.021  26.664  1.00  0.00     0.371 C 
ATOM      5  O   UNL A   1      40.022  22.752  27.557  1.00  0.00    -0.245 OA
BRANCH   4   6
ATOM      6  C   UNL A   1      38.269  22.276  25.976  1.00  0.00     0.348 C 
ATOM      7  N   UNL A   1      36.648  21.103  24.467  1.00  0.00    -0.321 N 
ATOM      8  C   UNL A   1      36.319  22.423  23.904  1.00  0.00     0.324 C 
ATOM      9  C   UNL A   1      38.001  21.103  25.024  1.00  0.00     0.341 C 
ATOM     10  H   UNL A   1      36.620  20.476  23.662  1.00  0.00     0.348 HD
ATOM     11  C   UNL A   1      36.739  23.661  24.749  1.00  0.00     0.323 C 
ATOM     12  N   UNL A   1      38.116  23.592  25.297  1.00  0.00    -0.325 N 
ATOM     13  H   UNL A   1      38.261  24.347  25.967  1.00  0.00     0.347 HD
ATOM     14  H   UNL A   1      38.803  23.691  24.550  1.00  0.00     0.347 HD
BRANCH   7  15
ATOM     15  C   UNL A   1      35.641  20.445  25.328  1.00  0.00     0.303 C 
BRANCH  15  16
ATOM     16  C   UNL A   1      34.296  21.118  25.523  1.00  0.00     0.049 A 
ATOM     17  C   UNL A   1      29.924  25.771  24.661  1.00  0.00     0.044 C 
ATOM     18  C   UNL A   1      30.967  24.835  25.200  1.00  0.00    -0.049 A 
ATOM     19  C   UNL A   1      31.991  25.330  26.006  1.00  0.00     0.004 A 
ATOM     20  C   UNL A   1      30.985  23.478  24.832  1.00  0.00     0.032 A 
ATOM     21  C   UNL A   1      33.042  24.497  26.381  1.00  0.00     0.010 A 
ATOM     22  C   UNL A   1      32.024  22.621  25.191  1.00  0.00     0.073 A 
ATOM     23  C   UNL A   1      33.085  23.168  25.932  1.00  0.00     0.001 A 
ATOM     24  N   UNL A   1      32.021  21.331  24.792  1.00  0.00    -0.230 NA
ATOM     25  C   UNL A   1      34.221  22.382  26.115  1.00  0.00     0.023 A 
ATOM     26  C   UNL A   1      33.116  20.566  25.007  1.00  0.00     0.138 A 
BRANCH  26  27
ATOM     27  N   UNL A   1      33.080  19.232  24.664  1.00  0.00    -0.352 N 
ATOM     28  C   UNL A   1      32.829  18.239  25.719  1.00  0.00     0.146 C 
ATOM     29  C   UNL A   1      32.611  18.809  23.348  1.00  0.00     0.146 C 
ATOM     30  C   UNL A   1      33.533  16.933  25.318  1.00  0.00     0.181 C 
ATOM     31  C   UNL A   1      33.301  17.467  23.020  1.00  0.00     0.181 C 
ATOM     32  O   UNL A   1      33.069  16.470  24.036  1.00  0.00    -0.378 OA
ENDBRANCH  26  27
ENDBRANCH  15  16
ENDBRANCH   7  15
ENDBRANCH   4   6
ENDBRANCH   3   4
ENDBRANCH   2   3
ENDBRANCH   1   2
BRANCH   1  33
ATOM     33  O   UNL A   1      43.414  20.038  24.951  1.00  0.00    -0.374 OA
BRANCH  33  34
ATOM     34  C   UNL A   1      44.268  21.147  25.222  1.00  0.00     0.202 C 
BRANCH  34  35
ATOM     35  C   UNL A   1      44.391  22.263  24.172  1.00  0.00     0.261 C 
BRANCH  35  36
ATOM     36  O   UNL A   1      43.763  23.487  24.564  1.00  0.00    -0.460 OA
BRANCH  36  37
ATOM     37  C   UNL A   1      44.601  24.442  25.033  1.00  0.00     0.338 C 
ATOM     38  O   UNL A   1      45.673  24.794  24.571  1.00  0.00    -0.246 OA
BRANCH  37  39
ATOM     39  C   UNL A   1      43.886  25.176  26.091  1.00  0.00     0.060 A 
ATOM     40  C   UNL A   1      42.921  24.547  26.879  1.00  0.00     0.016 A 
ATOM     41  C   UNL A   1      44.166  26.540  26.243  1.00  0.00     0.016 A 
ATOM     42  C   UNL A   1      42.238  25.293  27.840  1.00  0.00     0.010 A 
ATOM     43  C   UNL A   1      43.464  27.289  27.180  1.00  0.00     0.010 A 
ATOM     44  C   UNL A   1      42.512  26.663  27.997  1.00  0.00    -0.014 A 
BRANCH  44  45
ATOM     45  C   UNL A   1      41.944  27.414  29.134  1.00  0.00     0.031 A 
ATOM     46  C   UNL A   1      40.698  28.225  28.995  1.00  0.00     0.074 A 
ATOM     47  C   UNL A   1      42.628  27.381  30.292  1.00  0.00     0.049 A 
ATOM     48  N   UNL A   1      40.076  28.924  29.909  1.00  0.00    -0.248 NA
ATOM     49  C   UNL A   1      40.066  28.264  27.668  1.00  0.00     0.031 C 
ATOM     50  C   UNL A   1      43.868  26.629  30.506  1.00  0.00     0.029 A 
ATOM     51  N   UNL A   1      42.390  27.988  31.495  1.00  0.00    -0.354 N 
ATOM     52  C   UNL A   1      38.968  29.473  29.277  1.00  0.00     0.074 A 
ATOM     53  C   UNL A   1      39.025  29.058  27.891  1.00  0.00     0.031 C 
ATOM     54  C   UNL A   1      44.271  26.805  31.772  1.00  0.00     0.029 A 
ATOM     55  C   UNL A   1      43.342  27.707  32.444  1.00  0.00     0.049 A 
ATOM     56  H   UNL A   1      41.613  28.568  31.664  1.00  0.00     0.167 HD
ATOM     57  C   UNL A   1      37.994  30.240  29.820  1.00  0.00     0.031 A 
ATOM     58  C   UNL A   1      43.456  28.130  33.717  1.00  0.00     0.031 A 
ATOM     59  C   UNL A   1      37.982  30.664  31.198  1.00  0.00     0.049 A 
ATOM     60  C   UNL A   1      42.395  29.033  34.274  1.00  0.00     0.074 A 
ATOM     61  C   UNL A   1      37.020  31.410  31.856  1.00  0.00     0.029 A 
ATOM     62  N   UNL A   1      38.982  30.394  32.122  1.00  0.00    -0.354 N 
ATOM     63  N   UNL A   1      41.310  29.481  33.689  1.00  0.00    -0.248 NA
ATOM     64  C   UNL A   1      42.562  29.482  35.662  1.00  0.00     0.031 C 
ATOM     65  C   UNL A   1      37.473  31.655  33.154  1.00  0.00     0.029 A 
ATOM     66  C   UNL A   1      38.679  30.996  33.332  1.00  0.00     0.049 A 
ATOM     67  H   UNL A   1      39.786  29.855  31.943  1.00  0.00     0.167 HD
ATOM     68  C   UNL A   1      40.654  30.248  34.639  1.00  0.00     0.074 A 
ATOM     69  C   UNL A   1      41.455  30.192  35.846  1.00  0.00     0.031 C 
ATOM     70  C   UNL A   1      39.493  30.937  34.521  1.00  0.00     0.031 A 
BRANCH  57  71
ATOM     71  C   UNL A   1      36.853  30.676  28.943  1.00  0.00    -0.014 A 
ATOM     72  C   UNL A   1      36.732  32.024  28.567  1.00  0.00     0.009 A 
ATOM     73  C   UNL A   1      35.831  29.780  28.589  1.00  0.00     0.009 A 
ATOM     74  C   UNL A   1      35.605  32.469  27.872  1.00  0.00     0.001 A 
ATOM     75  C   UNL A   1      34.718  30.223  27.871  1.00  0.00     0.001 A 
ATOM     76  C   UNL A   1      34.600  31.569  27.523  1.00  0.00     0.000 A 
ENDBRANCH  57  71
BRANCH  58  77
ATOM     77  C   UNL A   1      44.604  27.661  34.533  1.00  0.00    -0.014 A 
ATOM     78  C   UNL A   1      44.507  26.485  35.297  1.00  0.00     0.009 A 
ATOM     79  C   UNL A   1      45.771  28.433  34.626  1.00  0.00     0.009 A 
ATOM     80  C   UNL A   1      45.540  26.111  36.160  1.00  0.00     0.001 A 
ATOM     81  C   UNL A   1      46.815  28.039  35.465  1.00  0.00     0.001 A 
ATOM     82  C   UNL A   1      46.694  26.886  36.241  1.00  0.00     0.000 A 
ENDBRANCH  58  77
BRANCH  70  83
ATOM     83  C   UNL A   1      39.003  31.697  35.721  1.00  0.00    -0.014 A 
ATOM     84  C   UNL A   1      38.172  31.060  36.658  1.00  0.00     0.009 A 
ATOM     85  C   UNL A   1      39.254  33.069  35.857  1.00  0.00     0.009 A 
ATOM     86  C   UNL A   1      37.579  31.788  37.690  1.00  0.00     0.001 A 
ATOM     87  C   UNL A   1      38.686  33.790  36.910  1.00  0.00     0.001 A 
ATOM     88  C   UNL A   1      37.839  33.152  37.816  1.00  0.00     0.000 A 
ENDBRANCH  70  83
ENDBRANCH  44  45
ENDBRANCH  37  39
ENDBRANCH  36  37
ENDBRANCH  35  36
ENDBRANCH  34  35
ENDBRANCH  33  34
ENDBRANCH   1  33
TORSDOF 17
ENDMDL
MODEL 2
REMARK VINA RESULT:     -11.4      4.160      8.354
REMARK SMILES Cc1ccc2cc(C[N@H+]3CC[NH2+][C@H](C(=O)OCCOCCOC(=O)c4ccc(-c5c6nc(c(-c7ccccc7)c7ccc([nH]7)c(-c7ccccc7)c7nc(c(-c8ccccc8)c8ccc5[nH]8)C=C7)C=C6)cc4)C3)c(N3CCOCC3)nc2c1
REMARK SMILES IDX 18 1 17 2 16 3 14 4 15 5 13 6 9 7 10 8 73 9 11 11 12 12 8 15
REMARK SMILES IDX 7 16 1 17 2 18 3 19 83 20 4 21 82 22 5 23 81 24 6 25 74 26
REMARK SMILES IDX 75 27 76 28 80 29 77 30 79 31 78 32 19 33 20 34 21 35 22 36
REMARK SMILES IDX 23 37 24 38 25 39 26 40 72 41 27 42 71 43 28 44 29 45 30 46
REMARK SMILES IDX 65 47 31 48 70 49 64 50 66 51 32 52 69 53 63 54 62 55 33 57
REMARK SMILES IDX 55 58 40 59 54 60 41 61 44 62 53 63 67 64 42 65 43 66 52 68
REMARK SMILES IDX 68 69 45 70 34 71 35 72 39 73 36 74 38 75 37 76 56 77 57 78
REMARK SMILES IDX 61 79 58 80 60 81 59 82 46 83 47 84 51 85 48 86 50 87 49 88
REMARK H PARENT 9 10 12 13 12 14 66 56 44 67
REMARK Flexibility Score: inf
ROOT
ATOM      1  C   UNL A   1      33.983  21.203  26.819  1.00  0.00     0.202 C 
ENDROOT
BRANCH   1   2
ATOM      2  C   UNL A   1      33.237  22.353  27.491  1.00  0.00     0.261 C 
BRANCH   2   3
ATOM      3  O   UNL A   1      33.632  23.603  26.905  1.00  0.00    -0.459 OA
BRANCH   3   4
ATOM      4  C   UNL A   1      32.631  24.286  26.301  1.00  0.00     0.371 C 
ATOM      5  O   UNL A   1      31.650  24.738  26.886  1.00  0.00    -0.245 OA
BRANCH   4   6
ATOM      6  C   UNL A   1      32.908  24.598  24.838  1.00  0.00     0.348 C 
ATOM      7  N   UNL A   1      31.883  25.863  22.933  1.00  0.00    -0.321 N 
ATOM      8  C   UNL A   1      32.471  24.855  22.034  1.00  0.00     0.324 C 
ATOM      9  C   UNL A   1      31.670  25.303  24.267  1.00  0.00     0.341 C 
ATOM     10  H   UNL A   1      30.978  26.073  22.512  1.00  0.00     0.348 HD
ATOM     11  C   UNL A   1      33.613  23.980  22.628  1.00  0.00     0.323 C 
ATOM     12  N   UNL A   1      33.341  23.455  23.988  1.00  0.00    -0.325 N 
ATOM     13  H   UNL A   1      34.187  23.037  24.375  1.00  0.00     0.347 HD
ATOM     14  H   UNL A   1      32.616  22.739  23.957  1.00  0.00     0.347 HD
BRANCH   7  15
ATOM     15  C   UNL A   1      32.474  27.219  22.935  1.00  0.00     0.303 C 
BRANCH  15  16
ATOM     16  C   UNL A   1      32.376  28.056  24.196  1.00  0.00     0.049 A 
ATOM     17  C   UNL A   1      34.452  32.362  28.515  1.00  0.00     0.044 C 
ATOM     18  C   UNL A   1      34.044  31.119  27.780  1.00  0.00    -0.049 A 
ATOM     19  C   UNL A   1      34.806  29.959  27.906  1.00  0.00     0.004 A 
ATOM     20  C   UNL A   1      32.955  31.125  26.890  1.00  0.00     0.032 A 
ATOM     21  C   UNL A   1      34.521  28.852  27.110  1.00  0.00     0.010 A 
ATOM     22  C   UNL A   1      32.647  30.034  26.079  1.00  0.00     0.073 A 
ATOM     23  C   UNL A   1      33.483  28.909  26.166  1.00  0.00     0.001 A 
ATOM     24  N   UNL A   1      31.612  30.089  25.214  1.00  0.00    -0.230 NA
ATOM     25  C   UNL A   1      33.315  27.899  25.219  1.00  0.00     0.023 A 
ATOM     26  C   UNL A   1      31.436  29.087  24.322  1.00  0.00     0.138 A 
BRANCH  26  27
ATOM     27  N   UNL A   1      30.336  29.114  23.492  1.00  0.00    -0.352 N 
ATOM     28  C   UNL A   1      30.490  29.656  22.135  1.00  0.00     0.146 C 
ATOM     29  C   UNL A   1      29.296  28.094  23.594  1.00  0.00     0.146 C 
ATOM     30  C   UNL A   1      29.139  30.255  21.708  1.00  0.00     0.181 C 
ATOM     31  C   UNL A   1      27.977  28.727  23.098  1.00  0.00     0.181 C 
ATOM     32  O   UNL A   1      28.096  29.265  21.766  1.00  0.00    -0.378 OA
ENDBRANCH  26  27
ENDBRANCH  15  16
ENDBRANCH   7  15
ENDBRANCH   4   6
ENDBRANCH   3   4
ENDBRANCH   2   3
ENDBRANCH   1   2
BRANCH   1  33
ATOM     33  O   UNL A   1      34.785  21.504  25.679  1.00  0.00    -0.374 OA
BRANCH  33  34
ATOM     34  C   UNL A   1      35.506  20.445  25.055  1.00  0.00     0.202 C 
BRANCH  34  35
ATOM     35  C   UNL A   1      37.024  20.590  24.863  1.00  0.00     0.261 C 
BRANCH  35  36
ATOM     36  O   UNL A   1      37.637  21.467  25.813  1.00  0.00    -0.460 OA
BRANCH  36  37
ATOM     37  C   UNL A   1      38.937  21.206  26.085  1.00  0.00     0.338 C 
ATOM     38  O   UNL A   1      39.562  20.184  25.857  1.00  0.00    -0.246 OA
BRANCH  37  39
ATOM     39  C   UNL A   1      39.563  22.472  26.502  1.00  0.00     0.060 A 
ATOM     40  C   UNL A   1      40.693  22.482  27.322  1.00  0.00     0.016 A 
ATOM     41  C   UNL A   1      38.955  23.667  26.094  1.00  0.00     0.016 A 
ATOM     42  C   UNL A   1      41.225  23.706  27.726  1.00  0.00     0.010 A 
ATOM     43  C   UNL A   1      39.470  24.885  26.523  1.00  0.00     0.010 A 
ATOM     44  C   UNL A   1      40.620  24.909  27.324  1.00  0.00    -0.014 A 
BRANCH  44  45
ATOM     45  C   UNL A   1      41.284  26.203  27.579  1.00  0.00     0.031 A 
ATOM     46  C   UNL A   1      42.655  26.497  27.064  1.00  0.00     0.074 A 
ATOM     47  C   UNL A   1      40.622  27.089  28.345  1.00  0.00     0.049 A 
ATOM     48  N   UNL A   1      43.356  27.593  27.199  1.00  0.00    -0.248 NA
ATOM     49  C   UNL A   1      43.330  25.435  26.306  1.00  0.00     0.031 C 
ATOM     50  C   UNL A   1      39.286  26.871  28.906  1.00  0.00     0.029 A 
ATOM     51  N   UNL A   1      40.973  28.337  28.785  1.00  0.00    -0.354 N 
ATOM     52  C   UNL A   1      44.549  27.364  26.527  1.00  0.00     0.074 A 
ATOM     53  C   UNL A   1      44.493  26.008  26.020  1.00  0.00     0.031 C 
ATOM     54  C   UNL A   1      38.922  27.958  29.602  1.00  0.00     0.029 A 
ATOM     55  C   UNL A   1      40.011  28.930  29.565  1.00  0.00     0.049 A 
ATOM     56  H   UNL A   1      41.831  28.767  28.564  1.00  0.00     0.167 HD
ATOM     57  C   UNL A   1      45.582  28.219  26.347  1.00  0.00     0.031 A 
ATOM     58  C   UNL A   1      40.004  30.124  30.185  1.00  0.00     0.031 A 
ATOM     59  C   UNL A   1      45.623  29.553  26.892  1.00  0.00     0.049 A 
ATOM     60  C   UNL A   1      41.191  31.028  30.021  1.00  0.00     0.074 A 
ATOM     61  C   UNL A   1      46.606  30.513  26.735  1.00  0.00     0.029 A 
ATOM     62  N   UNL A   1      44.648  30.108  27.710  1.00  0.00    -0.354 N 
ATOM     63  N   UNL A   1      42.280  30.830  29.317  1.00  0.00    -0.248 NA
ATOM     64  C   UNL A   1      41.151  32.317  30.722  1.00  0.00     0.031 C 
ATOM     65  C   UNL A   1      46.264  31.618  27.517  1.00  0.00     0.029 A 
ATOM     66  C   UNL A   1      45.029  31.381  28.099  1.00  0.00     0.049 A 
ATOM     67  H   UNL A   1      43.811  29.662  27.974  1.00  0.00     0.167 HD
ATOM     68  C   UNL A   1      43.047  31.974  29.474  1.00  0.00     0.074 A 
ATOM     69  C   UNL A   1      42.291  32.870  30.327  1.00  0.00     0.031 C 
ATOM     70  C   UNL A   1      44.267  32.255  28.957  1.00  0.00     0.031 A 
BRANCH  57  71
ATOM     71  C   UNL A   1      46.757  27.761  25.529  1.00  0.00    -0.014 A 
ATOM     72  C   UNL A   1      46.760  27.947  24.137  1.00  0.00     0.009 A 
ATOM     73  C   UNL A   1      47.806  27.035  26.116  1.00  0.00     0.009 A 
ATOM     74  C   UNL A   1      47.776  27.403  23.349  1.00  0.00     0.001 A 
ATOM     75  C   UNL A   1      48.836  26.515  25.328  1.00  0.00     0.001 A 
ATOM     76  C   UNL A   1      48.815  26.689  23.945  1.00  0.00     0.000 A 
ENDBRANCH  57  71
BRANCH  58  77
ATOM     77  C   UNL A   1      38.811  30.521  30.975  1.00  0.00    -0.014 A 
ATOM     78  C   UNL A   1      38.551  29.935  32.225  1.00  0.00     0.009 A 
ATOM     79  C   UNL A   1      37.877  31.422  30.443  1.00  0.00     0.009 A 
ATOM     80  C   UNL A   1      37.368  30.216  32.911  1.00  0.00     0.001 A 
ATOM     81  C   UNL A   1      36.709  31.726  31.146  1.00  0.00     0.001 A 
ATOM     82  C   UNL A   1      36.449  31.114  32.372  1.00  0.00     0.000 A 
ENDBRANCH  58  77
BRANCH  70  83
ATOM     83  C   UNL A   1      44.881  33.586  29.292  1.00  0.00    -0.014 A 
ATOM     84  C   UNL A   1      45.549  33.757  30.516  1.00  0.00     0.009 A 
ATOM     85  C   UNL A   1      44.689  34.698  28.461  1.00  0.00     0.009 A 
ATOM     86  C   UNL A   1      45.986  35.021  30.914  1.00  0.00     0.001 A 
ATOM     87  C   UNL A   1      45.155  35.957  28.847  1.00  0.00     0.001 A 
ATOM     88  C   UNL A   1      45.790  36.119  30.078  1.00  0.00     0.000 A 
ENDBRANCH  70  83
ENDBRANCH  44  45
ENDBRANCH  37  39
ENDBRANCH  36  37
ENDBRANCH  35  36
ENDBRANCH  34  35
ENDBRANCH  33  34
ENDBRANCH   1  33
TORSDOF 17
ENDMDL
MODEL 3
REMARK VINA RESULT:     -11.1      3.731      8.248
REMARK SMILES Cc1ccc2cc(C[N@H+]3CC[NH2+][C@H](C(=O)OCCOCCOC(=O)c4ccc(-c5c6nc(c(-c7ccccc7)c7ccc([nH]7)c(-c7ccccc7)c7nc(c(-c8ccccc8)c8ccc5[nH]8)C=C7)C=C6)cc4)C3)c(N3CCOCC3)nc2c1
REMARK SMILES IDX 18 1 17 2 16 3 14 4 15 5 13 6 9 7 10 8 73 9 11 11 12 12 8 15
REMARK SMILES IDX 7 16 1 17 2 18 3 19 83 20 4 21 82 22 5 23 81 24 6 25 74 26
REMARK SMILES IDX 75 27 76 28 80 29 77 30 79 31 78 32 19 33 20 34 21 35 22 36
REMARK SMILES IDX 23 37 24 38 25 39 26 40 72 41 27 42 71 43 28 44 29 45 30 46
REMARK SMILES IDX 65 47 31 48 70 49 64 50 66 51 32 52 69 53 63 54 62 55 33 57
REMARK SMILES IDX 55 58 40 59 54 60 41 61 44 62 53 63 67 64 42 65 43 66 52 68
REMARK SMILES IDX 68 69 45 70 34 71 35 72 39 73 36 74 38 75 37 76 56 77 57 78
REMARK SMILES IDX 61 79 58 80 60 81 59 82 46 83 47 84 51 85 48 86 50 87 49 88
REMARK H PARENT 9 10 12 13 12 14 66 56 44 67
REMARK Flexibility Score: inf
ROOT
ATOM      1  C   UNL A   1      31.568  30.028  25.037  1.00  0.00     0.202 C 
ENDROOT
BRANCH   1   2
ATOM      2  C   UNL A   1      31.629  28.555  24.640  1.00  0.00     0.261 C 
BRANCH   2   3
ATOM      3  O   UNL A   1      32.995  28.147  24.481  1.00  0.00    -0.459 OA
BRANCH   3   4
ATOM      4  C   UNL A   1      33.412  27.210  25.367  1.00  0.00     0.371 C 
ATOM      5  O   UNL A   1      33.455  27.378  26.583  1.00  0.00    -0.245 OA
BRANCH   4   6
ATOM      6  C   UNL A   1      33.668  25.850  24.735  1.00  0.00     0.348 C 
ATOM      7  N   UNL A   1      35.272  23.933  24.924  1.00  0.00    -0.321 N 
ATOM      8  C   UNL A   1      35.074  23.712  23.481  1.00  0.00     0.324 C 
ATOM      9  C   UNL A   1      35.009  25.330  25.271  1.00  0.00     0.341 C 
ATOM     10  H   UNL A   1      36.262  23.736  25.071  1.00  0.00     0.348 HD
ATOM     11  C   UNL A   1      33.819  24.378  22.845  1.00  0.00     0.323 C 
ATOM     12  N   UNL A   1      33.601  25.788  23.249  1.00  0.00    -0.325 N 
ATOM     13  H   UNL A   1      32.684  26.103  22.930  1.00  0.00     0.347 HD
ATOM     14  H   UNL A   1      34.309  26.393  22.833  1.00  0.00     0.347 HD
BRANCH   7  15
ATOM     15  C   UNL A   1      34.682  22.956  25.864  1.00  0.00     0.303 C 
BRANCH  15  16
ATOM     16  C   UNL A   1      34.050  21.696  25.305  1.00  0.00     0.049 A 
ATOM     17  C   UNL A   1      32.754  15.386  25.174  1.00  0.00     0.044 C 
ATOM     18  C   UNL A   1      33.270  16.772  24.915  1.00  0.00    -0.049 A 
ATOM     19  C   UNL A   1      34.607  16.959  24.569  1.00  0.00     0.004 A 
ATOM     20  C   UNL A   1      32.451  17.899  25.104  1.00  0.00     0.032 A 
ATOM     21  C   UNL A   1      35.126  18.248  24.477  1.00  0.00     0.010 A 
ATOM     22  C   UNL A   1      32.942  19.201  25.021  1.00  0.00     0.073 A 
ATOM     23  C   UNL A   1      34.312  19.358  24.754  1.00  0.00     0.001 A 
ATOM     24  N   UNL A   1      32.131  20.258  25.241  1.00  0.00    -0.230 NA
ATOM     25  C   UNL A   1      34.855  20.637  24.875  1.00  0.00     0.023 A 
ATOM     26  C   UNL A   1      32.663  21.499  25.321  1.00  0.00     0.138 A 
BRANCH  26  27
ATOM     27  N   UNL A   1      31.822  22.581  25.471  1.00  0.00    -0.352 N 
ATOM     28  C   UNL A   1      30.897  22.912  24.378  1.00  0.00     0.146 C 
ATOM     29  C   UNL A   1      31.323  22.964  26.788  1.00  0.00     0.146 C 
ATOM     30  C   UNL A   1      30.647  24.429  24.411  1.00  0.00     0.181 C 
ATOM     31  C   UNL A   1      31.033  24.481  26.749  1.00  0.00     0.181 C 
ATOM     32  O   UNL A   1      30.123  24.837  25.688  1.00  0.00    -0.378 OA
ENDBRANCH  26  27
ENDBRANCH  15  16
ENDBRANCH   7  15
ENDBRANCH   4   6
ENDBRANCH   3   4
ENDBRANCH   2   3
ENDBRANCH   1   2
BRANCH   1  33
ATOM     33  O   UNL A   1      31.517  30.342  26.427  1.00  0.00    -0.374 OA
BRANCH  33  34
ATOM     34  C   UNL A   1      32.740  30.404  27.156  1.00  0.00     0.202 C 
BRANCH  34  35
ATOM     35  C   UNL A   1      33.462  31.756  27.282  1.00  0.00     0.261 C 
BRANCH  35  36
ATOM     36  O   UNL A   1      32.598  32.829  27.667  1.00  0.00    -0.460 OA
BRANCH  36  37
ATOM     37  C   UNL A   1      33.210  33.875  28.271  1.00  0.00     0.338 C 
ATOM     38  O   UNL A   1      32.754  34.981  28.505  1.00  0.00    -0.246 OA
BRANCH  37  39
ATOM     39  C   UNL A   1      34.480  33.380  28.829  1.00  0.00     0.060 A 
ATOM     40  C   UNL A   1      34.514  32.684  30.039  1.00  0.00     0.016 A 
ATOM     41  C   UNL A   1      35.659  33.679  28.135  1.00  0.00     0.016 A 
ATOM     42  C   UNL A   1      35.744  32.273  30.550  1.00  0.00     0.010 A 
ATOM     43  C   UNL A   1      36.887  33.294  28.660  1.00  0.00     0.010 A 
ATOM     44  C   UNL A   1      36.932  32.571  29.860  1.00  0.00    -0.014 A 
BRANCH  44  45
ATOM     45  C   UNL A   1      38.214  31.974  30.286  1.00  0.00     0.031 A 
ATOM     46  C   UNL A   1      38.674  30.650  29.768  1.00  0.00     0.074 A 
ATOM     47  C   UNL A   1      38.928  32.649  31.204  1.00  0.00     0.049 A 
ATOM     48  N   UNL A   1      39.781  30.010  30.041  1.00  0.00    -0.248 NA
ATOM     49  C   UNL A   1      37.786  29.951  28.828  1.00  0.00     0.031 C 
ATOM     50  C   UNL A   1      38.539  33.940  31.777  1.00  0.00     0.029 A 
ATOM     51  N   UNL A   1      40.115  32.352  31.816  1.00  0.00    -0.354 N 
ATOM     52  C   UNL A   1      39.736  28.841  29.295  1.00  0.00     0.074 A 
ATOM     53  C   UNL A   1      38.472  28.840  28.588  1.00  0.00     0.031 C 
ATOM     54  C   UNL A   1      39.482  34.333  32.646  1.00  0.00     0.029 A 
ATOM     55  C   UNL A   1      40.518  33.308  32.716  1.00  0.00     0.049 A 
ATOM     56  H   UNL A   1      40.630  31.534  31.631  1.00  0.00     0.167 HD
ATOM     57  C   UNL A   1      40.676  27.871  29.208  1.00  0.00     0.031 A 
ATOM     58  C   UNL A   1      41.602  33.356  33.512  1.00  0.00     0.031 A 
ATOM     59  C   UNL A   1      41.913  27.884  29.950  1.00  0.00     0.049 A 
ATOM     60  C   UNL A   1      42.597  32.235  33.442  1.00  0.00     0.074 A 
ATOM     61  C   UNL A   1      42.949  26.968  29.903  1.00  0.00     0.029 A 
ATOM     62  N   UNL A   1      42.271  28.848  30.882  1.00  0.00    -0.354 N 
ATOM     63  N   UNL A   1      42.581  31.172  32.674  1.00  0.00    -0.248 NA
ATOM     64  C   UNL A   1      43.760  32.318  34.335  1.00  0.00     0.031 C 
ATOM     65  C   UNL A   1      43.898  27.337  30.859  1.00  0.00     0.029 A 
ATOM     66  C   UNL A   1      43.493  28.525  31.446  1.00  0.00     0.049 A 
ATOM     67  H   UNL A   1      41.735  29.643  31.107  1.00  0.00     0.167 HD
ATOM     68  C   UNL A   1      43.738  30.469  32.974  1.00  0.00     0.074 A 
ATOM     69  C   UNL A   1      44.442  31.234  33.984  1.00  0.00     0.031 C 
ATOM     70  C   UNL A   1      44.175  29.295  32.458  1.00  0.00     0.031 A 
BRANCH  57  71
ATOM     71  C   UNL A   1      40.427  26.712  28.283  1.00  0.00    -0.014 A 
ATOM     72  C   UNL A   1      40.869  26.768  26.951  1.00  0.00     0.009 A 
ATOM     73  C   UNL A   1      39.647  25.618  28.691  1.00  0.00     0.009 A 
ATOM     74  C   UNL A   1      40.523  25.764  26.044  1.00  0.00     0.001 A 
ATOM     75  C   UNL A   1      39.325  24.601  27.789  1.00  0.00     0.001 A 
ATOM     76  C   UNL A   1      39.753  24.681  26.464  1.00  0.00     0.000 A 
ENDBRANCH  57  71
BRANCH  58  77
ATOM     77  C   UNL A   1      41.794  34.530  34.401  1.00  0.00    -0.014 A 
ATOM     78  C   UNL A   1      41.226  34.557  35.686  1.00  0.00     0.009 A 
ATOM     79  C   UNL A   1      42.471  35.667  33.936  1.00  0.00     0.009 A 
ATOM     80  C   UNL A   1      41.302  35.709  36.473  1.00  0.00     0.001 A 
ATOM     81  C   UNL A   1      42.573  36.806  34.739  1.00  0.00     0.001 A 
ATOM     82  C   UNL A   1      41.978  36.831  36.000  1.00  0.00     0.000 A 
ENDBRANCH  58  77
BRANCH  70  83
ATOM     83  C   UNL A   1      45.477  28.746  32.969  1.00  0.00    -0.014 A 
ATOM     84  C   UNL A   1      46.674  29.051  32.300  1.00  0.00     0.009 A 
ATOM     85  C   UNL A   1      45.506  27.827  34.029  1.00  0.00     0.009 A 
ATOM     86  C   UNL A   1      47.868  28.427  32.662  1.00  0.00     0.001 A 
ATOM     87  C   UNL A   1      46.708  27.228  34.410  1.00  0.00     0.001 A 
ATOM     88  C   UNL A   1      47.884  27.517  33.718  1.00  0.00     0.000 A 
ENDBRANCH  70  83
ENDBRANCH  44  45
ENDBRANCH  37  39
ENDBRANCH  36  37
ENDBRANCH  35  36
ENDBRANCH  34  35
ENDBRANCH  33  34
ENDBRANCH   1  33
TORSDOF 17
ENDMDL
