MODEL 1
REMARK VINA RESULT:     -10.9      0.000      0.000
REMARK SMILES O=C(OCCOCCOC(=O)[C@H]1Cc2[nH]cnc2CN1C(=O)c1ccncc1Cl)c1ccc(-c2c3nc(c(-c4ccccc4)c4ccc([nH]4)c(-c4ccccc4)c4nc(c(-c5ccccc5)c5ccc2[nH]5)C=C4)C=C3)cc1
REMARK SMILES IDX 6 1 5 2 4 3 3 4 2 5 1 6 30 7 31 8 77 9 32 10 76 11 33 12
REMARK SMILES IDX 34 13 35 14 70 15 36 16 75 17 69 18 71 19 37 20 74 21 68 22
REMARK SMILES IDX 67 23 38 25 60 26 45 27 59 28 46 29 49 30 58 31 72 32 47 33
REMARK SMILES IDX 48 34 57 36 73 37 50 38 39 39 40 40 44 41 41 42 43 43 42 44
REMARK SMILES IDX 61 45 62 46 66 47 63 48 65 49 64 50 51 51 52 52 56 53 53 54
REMARK SMILES IDX 55 55 54 56 7 57 8 58 9 59 10 60 11 61 12 62 13 63 20 64
REMARK SMILES IDX 14 65 19 66 15 67 18 68 16 69 17 71 21 72 22 73 23 74 24 75
REMARK SMILES IDX 28 76 25 77 27 78 29 79 26 80
REMARK H PARENT 71 24 49 35 15 70
REMARK Flexibility Score: inf
ROOT
ATOM      1  O   UNL A   1      33.324  30.812  27.207  1.00  0.00    -0.374 OA
ENDROOT
BRANCH   1   2
ATOM      2  C   UNL A   1      32.136  31.353  26.644  1.00  0.00     0.202 C 
BRANCH   2   3
ATOM      3  C   UNL A   1      31.787  32.848  26.777  1.00  0.00     0.261 C 
BRANCH   3   4
ATOM      4  O   UNL A   1      32.050  33.371  28.088  1.00  0.00    -0.460 OA
BRANCH   4   5
ATOM      5  C   UNL A   1      32.905  34.336  28.483  1.00  0.00     0.338 C 
ATOM      6  O   UNL A   1      32.485  35.483  28.629  1.00  0.00    -0.246 OA
BRANCH   5   7
ATOM      7  C   UNL A   1      34.332  34.059  28.790  1.00  0.00     0.060 A 
ATOM      8  C   UNL A   1      35.388  34.182  27.878  1.00  0.00     0.016 A 
ATOM      9  C   UNL A   1      34.619  33.684  30.111  1.00  0.00     0.016 A 
ATOM     10  C   UNL A   1      36.627  33.681  28.163  1.00  0.00     0.010 A 
ATOM     11  C   UNL A   1      35.888  33.264  30.443  1.00  0.00     0.010 A 
ATOM     12  C   UNL A   1      36.830  33.157  29.424  1.00  0.00    -0.014 A 
BRANCH  12  13
ATOM     13  C   UNL A   1      38.076  32.464  29.618  1.00  0.00     0.031 A 
ATOM     14  C   UNL A   1      38.015  31.011  29.299  1.00  0.00     0.074 A 
ATOM     15  C   UNL A   1      39.124  33.196  30.036  1.00  0.00     0.049 A 
ATOM     16  N   UNL A   1      38.338  30.008  30.047  1.00  0.00    -0.248 NA
ATOM     17  C   UNL A   1      37.351  30.627  28.037  1.00  0.00     0.031 C 
ATOM     18  C   UNL A   1      39.213  34.658  30.166  1.00  0.00     0.029 A 
ATOM     19  N   UNL A   1      40.391  32.805  30.281  1.00  0.00    -0.354 N 
ATOM     20  C   UNL A   1      38.102  28.872  29.273  1.00  0.00     0.074 A 
ATOM     21  C   UNL A   1      37.342  29.299  28.129  1.00  0.00     0.031 C 
ATOM     22  C   UNL A   1      40.511  35.023  30.128  1.00  0.00     0.029 A 
ATOM     23  C   UNL A   1      41.322  33.820  30.117  1.00  0.00     0.049 A 
ATOM     24  H   UNL A   1      40.632  31.889  30.547  1.00  0.00     0.167 HD
ATOM     25  C   UNL A   1      38.792  27.718  29.475  1.00  0.00     0.031 A 
ATOM     26  C   UNL A   1      42.638  33.650  29.844  1.00  0.00     0.031 A 
ATOM     27  C   UNL A   1      39.321  27.638  30.808  1.00  0.00     0.049 A 
ATOM     28  C   UNL A   1      42.969  32.235  30.170  1.00  0.00     0.074 A 
ATOM     29  C   UNL A   1      38.756  27.579  32.066  1.00  0.00     0.029 A 
ATOM     30  N   UNL A   1      40.628  28.021  30.996  1.00  0.00    -0.354 N 
ATOM     31  N   UNL A   1      42.908  31.755  31.382  1.00  0.00    -0.248 NA
ATOM     32  C   UNL A   1      42.842  31.248  29.105  1.00  0.00     0.031 C 
ATOM     33  C   UNL A   1      39.593  28.398  32.879  1.00  0.00     0.029 A 
ATOM     34  C   UNL A   1      40.660  28.842  32.094  1.00  0.00     0.049 A 
ATOM     35  H   UNL A   1      41.398  27.754  30.444  1.00  0.00     0.167 HD
ATOM     36  C   UNL A   1      42.326  30.501  31.246  1.00  0.00     0.074 A 
ATOM     37  C   UNL A   1      42.380  30.210  29.812  1.00  0.00     0.031 C 
ATOM     38  C   UNL A   1      41.578  29.949  32.249  1.00  0.00     0.031 A 
BRANCH  25  39
ATOM     39  C   UNL A   1      39.364  26.923  28.325  1.00  0.00    -0.014 A 
ATOM     40  C   UNL A   1      39.325  25.521  28.384  1.00  0.00     0.009 A 
ATOM     41  C   UNL A   1      40.203  27.492  27.345  1.00  0.00     0.009 A 
ATOM     42  C   UNL A   1      40.149  24.737  27.565  1.00  0.00     0.001 A 
ATOM     43  C   UNL A   1      40.998  26.715  26.502  1.00  0.00     0.001 A 
ATOM     44  C   UNL A   1      40.994  25.336  26.635  1.00  0.00     0.000 A 
ENDBRANCH  25  39
BRANCH  26  45
ATOM     45  C   UNL A   1      43.445  34.496  28.933  1.00  0.00    -0.014 A 
ATOM     46  C   UNL A   1      43.126  34.611  27.574  1.00  0.00     0.009 A 
ATOM     47  C   UNL A   1      44.415  35.378  29.451  1.00  0.00     0.009 A 
ATOM     48  C   UNL A   1      43.749  35.580  26.770  1.00  0.00     0.001 A 
ATOM     49  C   UNL A   1      45.039  36.341  28.651  1.00  0.00     0.001 A 
ATOM     50  C   UNL A   1      44.696  36.448  27.309  1.00  0.00     0.000 A 
ENDBRANCH  26  45
BRANCH  38  51
ATOM     51  C   UNL A   1      41.500  30.693  33.564  1.00  0.00    -0.014 A 
ATOM     52  C   UNL A   1      40.566  31.720  33.808  1.00  0.00     0.009 A 
ATOM     53  C   UNL A   1      42.254  30.218  34.644  1.00  0.00     0.009 A 
ATOM     54  C   UNL A   1      40.414  32.268  35.087  1.00  0.00     0.001 A 
ATOM     55  C   UNL A   1      42.089  30.752  35.924  1.00  0.00     0.001 A 
ATOM     56  C   UNL A   1      41.173  31.779  36.146  1.00  0.00     0.000 A 
ENDBRANCH  38  51
ENDBRANCH  12  13
ENDBRANCH   5   7
ENDBRANCH   4   5
ENDBRANCH   3   4
ENDBRANCH   2   3
ENDBRANCH   1   2
BRANCH   1  57
ATOM     57  C   UNL A   1      33.543  29.425  27.417  1.00  0.00     0.202 C 
BRANCH  57  58
ATOM     58  C   UNL A   1      32.547  28.345  27.010  1.00  0.00     0.261 C 
BRANCH  58  59
ATOM     59  O   UNL A   1      33.058  27.331  26.149  1.00  0.00    -0.462 OA
BRANCH  59  60
ATOM     60  C   UNL A   1      33.298  27.729  24.868  1.00  0.00     0.329 C 
ATOM     61  O   UNL A   1      34.404  27.905  24.395  1.00  0.00    -0.250 OA
BRANCH  60  62
ATOM     62  C   UNL A   1      31.993  28.003  24.128  1.00  0.00     0.201 C 
ATOM     63  C   UNL A   1      32.144  28.927  22.888  1.00  0.00     0.093 C 
ATOM     64  N   UNL A   1      31.023  26.888  23.892  1.00  0.00    -0.318 N 
ATOM     65  C   UNL A   1      30.782  29.240  22.396  1.00  0.00     0.042 A 
ATOM     66  C   UNL A   1      29.628  27.333  23.628  1.00  0.00     0.179 C 
ATOM     67  N   UNL A   1      30.372  30.270  21.602  1.00  0.00    -0.348 N 
ATOM     68  C   UNL A   1      29.649  28.527  22.718  1.00  0.00     0.081 A 
ATOM     69  C   UNL A   1      29.012  30.151  21.484  1.00  0.00     0.197 A 
ATOM     70  H   UNL A   1      30.941  30.963  21.194  1.00  0.00     0.167 HD
ATOM     71  N   UNL A   1      28.548  29.115  22.152  1.00  0.00    -0.240 NA
BRANCH  64  72
ATOM     72  C   UNL A   1      31.303  25.549  23.622  1.00  0.00     0.256 C 
ATOM     73  O   UNL A   1      31.288  25.068  22.490  1.00  0.00    -0.269 OA
BRANCH  72  74
ATOM     74  C   UNL A   1      31.628  24.590  24.687  1.00  0.00     0.061 A 
ATOM     75  C   UNL A   1      30.654  24.346  25.660  1.00  0.00     0.035 A 
ATOM     76  C   UNL A   1      32.916  24.081  24.847  1.00  0.00     0.072 A 
ATOM     77  C   UNL A   1      30.991  23.537  26.731  1.00  0.00     0.112 A 
ATOM     78  C   UNL A   1      33.144  23.262  25.945  1.00  0.00     0.132 A 
ATOM     79  Cl  UNL A   1      34.214  24.421  23.771  1.00  0.00    -0.082 Cl
ATOM     80  N   UNL A   1      32.208  22.965  26.881  1.00  0.00    -0.263 NA
ENDBRANCH  72  74
ENDBRANCH  64  72
ENDBRANCH  60  62
ENDBRANCH  59  60
ENDBRANCH  58  59
ENDBRANCH  57  58
ENDBRANCH   1  57
TORSDOF 16
ENDMDL
MODEL 2
REMARK VINA RESULT:     -10.6      2.596      6.129
REMARK SMILES O=C(OCCOCCOC(=O)[C@H]1Cc2[nH]cnc2CN1C(=O)c1ccncc1Cl)c1ccc(-c2c3nc(c(-c4ccccc4)c4ccc([nH]4)c(-c4ccccc4)c4nc(c(-c5ccccc5)c5ccc2[nH]5)C=C4)C=C3)cc1
REMARK SMILES IDX 6 1 5 2 4 3 3 4 2 5 1 6 30 7 31 8 77 9 32 10 76 11 33 12
REMARK SMILES IDX 34 13 35 14 70 15 36 16 75 17 69 18 71 19 37 20 74 21 68 22
REMARK SMILES IDX 67 23 38 25 60 26 45 27 59 28 46 29 49 30 58 31 72 32 47 33
REMARK SMILES IDX 48 34 57 36 73 37 50 38 39 39 40 40 44 41 41 42 43 43 42 44
REMARK SMILES IDX 61 45 62 46 66 47 63 48 65 49 64 50 51 51 52 52 56 53 53 54
REMARK SMILES IDX 55 55 54 56 7 57 8 58 9 59 10 60 11 61 12 62 13 63 20 64
REMARK SMILES IDX 14 65 19 66 15 67 18 68 16 69 17 71 21 72 22 73 23 74 24 75
REMARK SMILES IDX 28 76 25 77 27 78 29 79 26 80
REMARK H PARENT 71 24 49 35 15 70
REMARK Flexibility Score: inf
ROOT
ATOM      1  O   UNL A   1      32.205  29.261  24.258  1.00  0.00    -0.374 OA
ENDROOT
BRANCH   1   2
ATOM      2  C   UNL A   1      32.253  29.303  25.679  1.00  0.00     0.202 C 
BRANCH   2   3
ATOM      3  C   UNL A   1      32.621  30.593  26.437  1.00  0.00     0.261 C 
BRANCH   3   4
ATOM      4  O   UNL A   1      33.738  30.424  27.323  1.00  0.00    -0.460 OA
BRANCH   4   5
ATOM      5  C   UNL A   1      34.742  31.272  27.627  1.00  0.00     0.338 C 
ATOM      6  O   UNL A   1      34.617  32.466  27.360  1.00  0.00    -0.246 OA
BRANCH   5   7
ATOM      7  C   UNL A   1      35.982  30.825  28.313  1.00  0.00     0.060 A 
ATOM      8  C   UNL A   1      36.952  31.677  28.855  1.00  0.00     0.016 A 
ATOM      9  C   UNL A   1      36.149  29.438  28.445  1.00  0.00     0.016 A 
ATOM     10  C   UNL A   1      38.169  31.198  29.249  1.00  0.00     0.010 A 
ATOM     11  C   UNL A   1      37.336  28.935  28.931  1.00  0.00     0.010 A 
ATOM     12  C   UNL A   1      38.364  29.831  29.204  1.00  0.00    -0.014 A 
BRANCH  12  13
ATOM     13  C   UNL A   1      39.713  29.386  29.435  1.00  0.00     0.031 A 
ATOM     14  C   UNL A   1      40.095  29.336  30.873  1.00  0.00     0.074 A 
ATOM     15  C   UNL A   1      40.442  29.061  28.353  1.00  0.00     0.049 A 
ATOM     16  N   UNL A   1      41.100  29.897  31.459  1.00  0.00    -0.248 NA
ATOM     17  C   UNL A   1      39.133  28.711  31.802  1.00  0.00     0.031 C 
ATOM     18  C   UNL A   1      39.990  28.939  26.959  1.00  0.00     0.029 A 
ATOM     19  N   UNL A   1      41.712  28.610  28.287  1.00  0.00    -0.354 N 
ATOM     20  C   UNL A   1      41.005  29.530  32.801  1.00  0.00     0.074 A 
ATOM     21  C   UNL A   1      39.699  28.955  32.982  1.00  0.00     0.031 C 
ATOM     22  C   UNL A   1      40.849  28.145  26.287  1.00  0.00     0.029 A 
ATOM     23  C   UNL A   1      41.963  27.836  27.164  1.00  0.00     0.049 A 
ATOM     24  H   UNL A   1      42.392  28.809  28.969  1.00  0.00     0.167 HD
ATOM     25  C   UNL A   1      42.105  29.456  33.598  1.00  0.00     0.031 A 
ATOM     26  C   UNL A   1      42.939  26.903  27.049  1.00  0.00     0.031 A 
ATOM     27  C   UNL A   1      43.178  30.273  33.104  1.00  0.00     0.049 A 
ATOM     28  C   UNL A   1      43.917  27.163  28.140  1.00  0.00     0.074 A 
ATOM     29  C   UNL A   1      43.347  31.629  32.911  1.00  0.00     0.029 A 
ATOM     30  N   UNL A   1      44.143  29.657  32.342  1.00  0.00    -0.354 N 
ATOM     31  N   UNL A   1      44.630  28.254  28.208  1.00  0.00    -0.248 NA
ATOM     32  C   UNL A   1      43.712  26.477  29.410  1.00  0.00     0.031 C 
ATOM     33  C   UNL A   1      44.061  31.734  31.681  1.00  0.00     0.029 A 
ATOM     34  C   UNL A   1      44.356  30.443  31.238  1.00  0.00     0.049 A 
ATOM     35  H   UNL A   1      44.597  28.809  32.551  1.00  0.00     0.167 HD
ATOM     36  C   UNL A   1      44.609  28.619  29.549  1.00  0.00     0.074 A 
ATOM     37  C   UNL A   1      44.094  27.443  30.254  1.00  0.00     0.031 C 
ATOM     38  C   UNL A   1      44.710  29.927  29.934  1.00  0.00     0.031 A 
BRANCH  25  39
ATOM     39  C   UNL A   1      42.332  28.291  34.531  1.00  0.00    -0.014 A 
ATOM     40  C   UNL A   1      42.696  27.048  33.987  1.00  0.00     0.009 A 
ATOM     41  C   UNL A   1      41.907  28.293  35.875  1.00  0.00     0.009 A 
ATOM     42  C   UNL A   1      42.556  25.865  34.724  1.00  0.00     0.001 A 
ATOM     43  C   UNL A   1      41.801  27.121  36.625  1.00  0.00     0.001 A 
ATOM     44  C   UNL A   1      42.096  25.901  36.037  1.00  0.00     0.000 A 
ENDBRANCH  25  39
BRANCH  26  45
ATOM     45  C   UNL A   1      42.809  25.602  26.351  1.00  0.00    -0.014 A 
ATOM     46  C   UNL A   1      43.748  25.191  25.397  1.00  0.00     0.009 A 
ATOM     47  C   UNL A   1      41.864  24.651  26.786  1.00  0.00     0.009 A 
ATOM     48  C   UNL A   1      43.746  23.874  24.908  1.00  0.00     0.001 A 
ATOM     49  C   UNL A   1      41.858  23.341  26.298  1.00  0.00     0.001 A 
ATOM     50  C   UNL A   1      42.808  22.949  25.364  1.00  0.00     0.000 A 
ENDBRANCH  26  45
BRANCH  38  51
ATOM     51  C   UNL A   1      44.968  30.962  28.862  1.00  0.00    -0.014 A 
ATOM     52  C   UNL A   1      43.941  31.529  28.082  1.00  0.00     0.009 A 
ATOM     53  C   UNL A   1      46.250  31.518  28.768  1.00  0.00     0.009 A 
ATOM     54  C   UNL A   1      44.198  32.600  27.219  1.00  0.00     0.001 A 
ATOM     55  C   UNL A   1      46.502  32.599  27.920  1.00  0.00     0.001 A 
ATOM     56  C   UNL A   1      45.479  33.138  27.143  1.00  0.00     0.000 A 
ENDBRANCH  38  51
ENDBRANCH  12  13
ENDBRANCH   5   7
ENDBRANCH   4   5
ENDBRANCH   3   4
ENDBRANCH   2   3
ENDBRANCH   1   2
BRANCH   1  57
ATOM     57  C   UNL A   1      33.353  29.191  23.426  1.00  0.00     0.202 C 
BRANCH  57  58
ATOM     58  C   UNL A   1      34.028  27.881  23.033  1.00  0.00     0.261 C 
BRANCH  58  59
ATOM     59  O   UNL A   1      33.661  27.360  21.758  1.00  0.00    -0.462 OA
BRANCH  59  60
ATOM     60  C   UNL A   1      33.268  26.056  21.760  1.00  0.00     0.329 C 
ATOM     61  O   UNL A   1      33.275  25.331  20.784  1.00  0.00    -0.250 OA
BRANCH  60  62
ATOM     62  C   UNL A   1      32.741  25.646  23.131  1.00  0.00     0.201 C 
ATOM     63  C   UNL A   1      31.213  25.358  23.167  1.00  0.00     0.093 C 
ATOM     64  N   UNL A   1      33.522  24.686  23.972  1.00  0.00    -0.318 N 
ATOM     65  C   UNL A   1      30.832  25.155  24.584  1.00  0.00     0.042 A 
ATOM     66  C   UNL A   1      33.201  24.739  25.424  1.00  0.00     0.179 C 
ATOM     67  N   UNL A   1      29.601  25.248  25.163  1.00  0.00    -0.348 N 
ATOM     68  C   UNL A   1      31.715  24.872  25.602  1.00  0.00     0.081 A 
ATOM     69  C   UNL A   1      29.785  25.030  26.503  1.00  0.00     0.197 A 
ATOM     70  H   UNL A   1      28.747  25.434  24.708  1.00  0.00     0.167 HD
ATOM     71  N   UNL A   1      31.050  24.809  26.798  1.00  0.00    -0.240 NA
BRANCH  64  72
ATOM     72  C   UNL A   1      34.280  23.595  23.549  1.00  0.00     0.256 C 
ATOM     73  O   UNL A   1      35.386  23.702  23.021  1.00  0.00    -0.269 OA
BRANCH  72  74
ATOM     74  C   UNL A   1      33.803  22.213  23.687  1.00  0.00     0.061 A 
ATOM     75  C   UNL A   1      32.682  21.835  22.942  1.00  0.00     0.035 A 
ATOM     76  C   UNL A   1      34.314  21.354  24.660  1.00  0.00     0.072 A 
ATOM     77  C   UNL A   1      32.154  20.573  23.153  1.00  0.00     0.112 A 
ATOM     78  C   UNL A   1      33.725  20.103  24.776  1.00  0.00     0.132 A 
ATOM     79  Cl  UNL A   1      35.612  21.771  25.708  1.00  0.00    -0.082 Cl
ATOM     80  N   UNL A   1      32.668  19.686  24.035  1.00  0.00    -0.263 NA
ENDBRANCH  72  74
ENDBRANCH  64  72
ENDBRANCH  60  62
ENDBRANCH  59  60
ENDBRANCH  58  59
ENDBRANCH  57  58
ENDBRANCH   1  57
TORSDOF 16
ENDMDL
MODEL 3
REMARK VINA RESULT:     -10.6      4.115      9.172
REMARK SMILES O=C(OCCOCCOC(=O)[C@H]1Cc2[nH]cnc2CN1C(=O)c1ccncc1Cl)c1ccc(-c2c3nc(c(-c4ccccc4)c4ccc([nH]4)c(-c4ccccc4)c4nc(c(-c5ccccc5)c5ccc2[nH]5)C=C4)C=C3)cc1
REMARK SMILES IDX 6 1 5 2 4 3 3 4 2 5 1 6 30 7 31 8 77 9 32 10 76 11 33 12
REMARK SMILES IDX 34 13 35 14 70 15 36 16 75 17 69 18 71 19 37 20 74 21 68 22
REMARK SMILES IDX 67 23 38 25 60 26 45 27 59 28 46 29 49 30 58 31 72 32 47 33
REMARK SMILES IDX 48 34 57 36 73 37 50 38 39 39 40 40 44 41 41 42 43 43 42 44
REMARK SMILES IDX 61 45 62 46 66 47 63 48 65 49 64 50 51 51 52 52 56 53 53 54
REMARK SMILES IDX 55 55 54 56 7 57 8 58 9 59 10 60 11 61 12 62 13 63 20 64
REMARK SMILES IDX 14 65 19 66 15 67 18 68 16 69 17 71 21 72 22 73 23 74 24 75
REMARK SMILES IDX 28 76 25 77 27 78 29 79 26 80
REMARK H PARENT 71 24 49 35 15 70
REMARK Flexibility Score: inf
ROOT
ATOM      1  O   UNL A   1      37.598  21.541  25.012  1.00  0.00    -0.374 OA
ENDROOT
BRANCH   1   2
ATOM      2  C   UNL A   1      38.284  20.296  24.996  1.00  0.00     0.202 C 
BRANCH   2   3
ATOM      3  C   UNL A   1      39.292  19.914  26.097  1.00  0.00     0.261 C 
BRANCH   3   4
ATOM      4  O   UNL A   1      40.496  19.330  25.577  1.00  0.00    -0.460 OA
BRANCH   4   5
ATOM      5  C   UNL A   1      41.783  19.695  25.748  1.00  0.00     0.338 C 
ATOM      6  O   UNL A   1      42.663  19.082  25.147  1.00  0.00    -0.246 OA
BRANCH   5   7
ATOM      7  C   UNL A   1      42.178  20.841  26.608  1.00  0.00     0.060 A 
ATOM      8  C   UNL A   1      41.921  20.941  27.981  1.00  0.00     0.016 A 
ATOM      9  C   UNL A   1      42.894  21.870  25.977  1.00  0.00     0.016 A 
ATOM     10  C   UNL A   1      42.098  22.121  28.647  1.00  0.00     0.010 A 
ATOM     11  C   UNL A   1      43.167  23.033  26.662  1.00  0.00     0.010 A 
ATOM     12  C   UNL A   1      42.650  23.175  27.945  1.00  0.00    -0.014 A 
BRANCH  12  13
ATOM     13  C   UNL A   1      42.635  24.447  28.618  1.00  0.00     0.031 A 
ATOM     14  C   UNL A   1      41.533  25.347  28.183  1.00  0.00     0.074 A 
ATOM     15  C   UNL A   1      43.585  24.657  29.547  1.00  0.00     0.049 A 
ATOM     16  N   UNL A   1      41.609  26.559  27.740  1.00  0.00    -0.248 NA
ATOM     17  C   UNL A   1      40.184  24.755  28.075  1.00  0.00     0.031 C 
ATOM     18  C   UNL A   1      44.547  23.690  30.094  1.00  0.00     0.029 A 
ATOM     19  N   UNL A   1      43.789  25.741  30.324  1.00  0.00    -0.354 N 
ATOM     20  C   UNL A   1      40.295  26.949  27.485  1.00  0.00     0.074 A 
ATOM     21  C   UNL A   1      39.490  25.758  27.542  1.00  0.00     0.031 C 
ATOM     22  C   UNL A   1      44.968  24.124  31.299  1.00  0.00     0.029 A 
ATOM     23  C   UNL A   1      44.417  25.447  31.525  1.00  0.00     0.049 A 
ATOM     24  H   UNL A   1      43.518  26.651  30.064  1.00  0.00     0.167 HD
ATOM     25  C   UNL A   1      39.918  28.255  27.534  1.00  0.00     0.031 A 
ATOM     26  C   UNL A   1      44.346  26.188  32.657  1.00  0.00     0.031 A 
ATOM     27  C   UNL A   1      41.032  29.139  27.329  1.00  0.00     0.049 A 
ATOM     28  C   UNL A   1      43.851  27.535  32.262  1.00  0.00     0.074 A 
ATOM     29  C   UNL A   1      41.894  29.376  26.278  1.00  0.00     0.029 A 
ATOM     30  N   UNL A   1      41.644  29.656  28.447  1.00  0.00    -0.354 N 
ATOM     31  N   UNL A   1      44.527  28.339  31.487  1.00  0.00    -0.248 NA
ATOM     32  C   UNL A   1      42.410  27.760  32.282  1.00  0.00     0.031 C 
ATOM     33  C   UNL A   1      43.168  29.564  26.889  1.00  0.00     0.029 A 
ATOM     34  C   UNL A   1      42.997  29.514  28.274  1.00  0.00     0.049 A 
ATOM     35  H   UNL A   1      41.194  30.055  29.226  1.00  0.00     0.167 HD
ATOM     36  C   UNL A   1      43.588  28.881  30.618  1.00  0.00     0.074 A 
ATOM     37  C   UNL A   1      42.289  28.548  31.207  1.00  0.00     0.031 C 
ATOM     38  C   UNL A   1      43.929  29.274  29.354  1.00  0.00     0.031 A 
BRANCH  25  39
ATOM     39  C   UNL A   1      38.651  28.690  28.230  1.00  0.00    -0.014 A 
ATOM     40  C   UNL A   1      37.845  29.667  27.624  1.00  0.00     0.009 A 
ATOM     41  C   UNL A   1      38.387  28.403  29.586  1.00  0.00     0.009 A 
ATOM     42  C   UNL A   1      36.888  30.377  28.362  1.00  0.00     0.001 A 
ATOM     43  C   UNL A   1      37.410  29.082  30.315  1.00  0.00     0.001 A 
ATOM     44  C   UNL A   1      36.681  30.093  29.708  1.00  0.00     0.000 A 
ENDBRANCH  25  39
BRANCH  26  45
ATOM     45  C   UNL A   1      44.258  25.649  34.035  1.00  0.00    -0.014 A 
ATOM     46  C   UNL A   1      44.995  26.211  35.084  1.00  0.00     0.009 A 
ATOM     47  C   UNL A   1      43.267  24.702  34.368  1.00  0.00     0.009 A 
ATOM     48  C   UNL A   1      44.740  25.846  36.417  1.00  0.00     0.001 A 
ATOM     49  C   UNL A   1      43.014  24.336  35.694  1.00  0.00     0.001 A 
ATOM     50  C   UNL A   1      43.747  24.917  36.721  1.00  0.00     0.000 A 
ENDBRANCH  26  45
BRANCH  38  51
ATOM     51  C   UNL A   1      45.390  29.213  28.965  1.00  0.00    -0.014 A 
ATOM     52  C   UNL A   1      46.285  30.280  29.180  1.00  0.00     0.009 A 
ATOM     53  C   UNL A   1      45.918  27.984  28.550  1.00  0.00     0.009 A 
ATOM     54  C   UNL A   1      47.658  30.126  28.961  1.00  0.00     0.001 A 
ATOM     55  C   UNL A   1      47.291  27.825  28.350  1.00  0.00     0.001 A 
ATOM     56  C   UNL A   1      48.161  28.895  28.551  1.00  0.00     0.000 A 
ENDBRANCH  38  51
ENDBRANCH  12  13
ENDBRANCH   5   7
ENDBRANCH   4   5
ENDBRANCH   3   4
ENDBRANCH   2   3
ENDBRANCH   1   2
BRANCH   1  57
ATOM     57  C   UNL A   1      37.071  22.174  23.855  1.00  0.00     0.202 C 
BRANCH  57  58
ATOM     58  C   UNL A   1      35.713  22.865  23.819  1.00  0.00     0.261 C 
BRANCH  58  59
ATOM     59  O   UNL A   1      35.431  23.722  24.922  1.00  0.00    -0.462 OA
BRANCH  59  60
ATOM     60  C   UNL A   1      34.717  23.149  25.930  1.00  0.00     0.329 C 
ATOM     61  O   UNL A   1      34.737  23.519  27.088  1.00  0.00    -0.250 OA
BRANCH  60  62
ATOM     62  C   UNL A   1      33.947  21.930  25.431  1.00  0.00     0.201 C 
ATOM     63  C   UNL A   1      33.619  20.886  26.535  1.00  0.00     0.093 C 
ATOM     64  N   UNL A   1      32.822  22.107  24.460  1.00  0.00    -0.318 N 
ATOM     65  C   UNL A   1      33.043  19.697  25.866  1.00  0.00     0.042 A 
ATOM     66  C   UNL A   1      32.484  20.884  23.682  1.00  0.00     0.179 C 
ATOM     67  N   UNL A   1      32.947  18.416  26.325  1.00  0.00    -0.348 N 
ATOM     68  C   UNL A   1      32.526  19.688  24.589  1.00  0.00     0.081 A 
ATOM     69  C   UNL A   1      32.391  17.681  25.311  1.00  0.00     0.197 A 
ATOM     70  H   UNL A   1      33.223  18.085  27.210  1.00  0.00     0.167 HD
ATOM     71  N   UNL A   1      32.135  18.419  24.250  1.00  0.00    -0.240 NA
BRANCH  64  72
ATOM     72  C   UNL A   1      31.901  23.151  24.395  1.00  0.00     0.256 C 
ATOM     73  O   UNL A   1      30.772  23.091  24.881  1.00  0.00    -0.269 OA
BRANCH  72  74
ATOM     74  C   UNL A   1      32.206  24.418  23.717  1.00  0.00     0.061 A 
ATOM     75  C   UNL A   1      32.479  24.372  22.347  1.00  0.00     0.035 A 
ATOM     76  C   UNL A   1      32.409  25.600  24.429  1.00  0.00     0.072 A 
ATOM     77  C   UNL A   1      32.882  25.540  21.723  1.00  0.00     0.112 A 
ATOM     78  C   UNL A   1      32.793  26.720  23.704  1.00  0.00     0.132 A 
ATOM     79  Cl  UNL A   1      32.216  25.729  26.133  1.00  0.00    -0.082 Cl
ATOM     80  N   UNL A   1      33.019  26.722  22.366  1.00  0.00    -0.263 NA
ENDBRANCH  72  74
ENDBRANCH  64  72
ENDBRANCH  60  62
ENDBRANCH  59  60
ENDBRANCH  58  59
ENDBRANCH  57  58
ENDBRANCH   1  57
TORSDOF 16
ENDMDL
