MODEL 1
REMARK VINA RESULT:      -9.6      0.000      0.000
REMARK SMILES CCN(C(=O)N[C@@H]1CCOC1)[C@H]1COC[C@H]1C(=O)OCCOCCOC(=O)c1ccc(-c2c3nc(c(-c4ccccc4)c4ccc([nH]4)c(-c4ccccc4)c4nc(c(-c5ccccc5)c5ccc2[nH]5)C=C4)C=C3)cc1
REMARK SMILES IDX 21 1 20 2 19 3 17 4 18 5 16 6 12 7 13 8 14 9 15 10 3 11 2 12
REMARK SMILES IDX 1 13 4 14 5 15 6 16 7 18 8 19 11 20 9 21 10 22 22 23 23 24
REMARK SMILES IDX 24 25 25 26 26 27 27 28 28 29 29 30 75 31 30 32 74 33 31 34
REMARK SMILES IDX 32 35 33 36 68 37 34 38 73 39 67 40 69 41 35 42 72 43 66 44
REMARK SMILES IDX 65 45 36 47 58 48 43 49 57 50 44 51 47 52 56 53 70 54 45 55
REMARK SMILES IDX 46 56 55 58 71 59 48 60 37 61 38 62 42 63 39 64 41 65 40 66
REMARK SMILES IDX 59 67 60 68 64 69 61 70 63 71 62 72 49 73 50 74 54 75 51 76
REMARK SMILES IDX 53 77 52 78
REMARK H PARENT 6 17 69 46 47 57
REMARK Flexibility Score: inf
ROOT
ATOM      1  C   UNL A   1      37.948  22.266  25.679  1.00  0.00     0.202 C 
ENDROOT
BRANCH   1   2
ATOM      2  C   UNL A   1      37.318  23.655  25.561  1.00  0.00     0.261 C 
BRANCH   2   3
ATOM      3  O   UNL A   1      35.979  23.681  26.079  1.00  0.00    -0.463 OA
BRANCH   3   4
ATOM      4  C   UNL A   1      35.101  24.402  25.349  1.00  0.00     0.313 C 
ATOM      5  O   UNL A   1      34.711  25.529  25.646  1.00  0.00    -0.252 OA
BRANCH   4   6
ATOM      6  C   UNL A   1      34.651  23.750  24.076  1.00  0.00     0.150 C 
ATOM      7  C   UNL A   1      33.953  22.402  23.973  1.00  0.00     0.129 C 
ATOM      8  C   UNL A   1      33.219  22.530  22.635  1.00  0.00     0.186 C 
ATOM      9  O   UNL A   1      32.950  23.921  22.414  1.00  0.00    -0.378 OA
ATOM     10  C   UNL A   1      33.787  24.700  23.278  1.00  0.00     0.177 C 
BRANCH   7  11
ATOM     11  N   UNL A   1      33.129  21.840  25.085  1.00  0.00    -0.319 N 
BRANCH  11  12
ATOM     12  C   UNL A   1      31.680  21.925  25.089  1.00  0.00     0.118 C 
ATOM     13  C   UNL A   1      30.938  23.181  25.479  1.00  0.00     0.027 C 
ENDBRANCH  11  12
BRANCH  11  14
ATOM     14  C   UNL A   1      33.773  20.907  25.868  1.00  0.00     0.318 C 
ATOM     15  O   UNL A   1      34.104  21.151  27.036  1.00  0.00    -0.249 OA
ATOM     16  N   UNL A   1      34.148  19.685  25.471  1.00  0.00    -0.333 N 
ATOM     17  H   UNL A   1      34.717  19.301  26.178  1.00  0.00     0.165 HD
BRANCH  16  18
ATOM     18  C   UNL A   1      34.041  18.683  24.384  1.00  0.00     0.112 C 
ATOM     19  C   UNL A   1      32.596  18.171  24.382  1.00  0.00     0.056 C 
ATOM     20  C   UNL A   1      34.711  17.313  24.528  1.00  0.00     0.185 C 
ATOM     21  C   UNL A   1      32.627  17.148  25.502  1.00  0.00     0.162 C 
ATOM     22  O   UNL A   1      33.921  16.543  25.446  1.00  0.00    -0.379 OA
ENDBRANCH  16  18
ENDBRANCH  11  14
ENDBRANCH   7  11
ENDBRANCH   4   6
ENDBRANCH   3   4
ENDBRANCH   2   3
ENDBRANCH   1   2
BRANCH   1  23
ATOM     23  O   UNL A   1      37.154  21.159  25.269  1.00  0.00    -0.374 OA
BRANCH  23  24
ATOM     24  C   UNL A   1      37.849  19.979  24.849  1.00  0.00     0.202 C 
BRANCH  24  25
ATOM     25  C   UNL A   1      39.018  19.511  25.731  1.00  0.00     0.261 C 
BRANCH  25  26
ATOM     26  O   UNL A   1      40.303  19.734  25.118  1.00  0.00    -0.460 OA
BRANCH  26  27
ATOM     27  C   UNL A   1      41.384  19.524  25.902  1.00  0.00     0.338 C 
ATOM     28  O   UNL A   1      42.021  18.491  26.042  1.00  0.00    -0.246 OA
BRANCH  27  29
ATOM     29  C   UNL A   1      41.811  20.816  26.470  1.00  0.00     0.060 A 
ATOM     30  C   UNL A   1      41.727  21.024  27.851  1.00  0.00     0.016 A 
ATOM     31  C   UNL A   1      42.256  21.836  25.638  1.00  0.00     0.016 A 
ATOM     32  C   UNL A   1      42.071  22.265  28.398  1.00  0.00     0.010 A 
ATOM     33  C   UNL A   1      42.627  23.064  26.193  1.00  0.00     0.010 A 
ATOM     34  C   UNL A   1      42.512  23.310  27.573  1.00  0.00    -0.014 A 
BRANCH  34  35
ATOM     35  C   UNL A   1      42.731  24.689  28.107  1.00  0.00     0.031 A 
ATOM     36  C   UNL A   1      44.125  25.116  28.509  1.00  0.00     0.074 A 
ATOM     37  C   UNL A   1      41.713  25.562  28.257  1.00  0.00     0.049 A 
ATOM     38  N   UNL A   1      44.527  26.237  29.057  1.00  0.00    -0.248 NA
ATOM     39  C   UNL A   1      45.204  24.137  28.301  1.00  0.00     0.031 C 
ATOM     40  C   UNL A   1      40.310  25.301  27.937  1.00  0.00     0.029 A 
ATOM     41  N   UNL A   1      41.710  26.858  28.723  1.00  0.00    -0.354 N 
ATOM     42  C   UNL A   1      45.889  26.077  29.291  1.00  0.00     0.074 A 
ATOM     43  C   UNL A   1      46.229  24.730  28.893  1.00  0.00     0.031 C 
ATOM     44  C   UNL A   1      39.589  26.411  28.181  1.00  0.00     0.029 A 
ATOM     45  C   UNL A   1      40.469  27.450  28.714  1.00  0.00     0.049 A 
ATOM     46  H   UNL A   1      42.523  27.319  29.033  1.00  0.00     0.167 HD
ATOM     47  C   UNL A   1      46.792  26.971  29.759  1.00  0.00     0.031 A 
ATOM     48  C   UNL A   1      40.079  28.685  29.093  1.00  0.00     0.031 A 
ATOM     49  C   UNL A   1      46.482  28.330  30.111  1.00  0.00     0.049 A 
ATOM     50  C   UNL A   1      41.098  29.662  29.624  1.00  0.00     0.074 A 
ATOM     51  C   UNL A   1      47.346  29.328  30.525  1.00  0.00     0.029 A 
ATOM     52  N   UNL A   1      45.213  28.882  30.084  1.00  0.00    -0.354 N 
ATOM     53  N   UNL A   1      42.391  29.510  29.775  1.00  0.00    -0.248 NA
ATOM     54  C   UNL A   1      40.600  30.987  30.026  1.00  0.00     0.031 C 
ATOM     55  C   UNL A   1      46.590  30.470  30.805  1.00  0.00     0.029 A 
ATOM     56  C   UNL A   1      45.267  30.201  30.502  1.00  0.00     0.049 A 
ATOM     57  H   UNL A   1      44.395  28.407  29.809  1.00  0.00     0.167 HD
ATOM     58  C   UNL A   1      42.863  30.727  30.257  1.00  0.00     0.074 A 
ATOM     59  C   UNL A   1      41.722  31.611  30.357  1.00  0.00     0.031 C 
ATOM     60  C   UNL A   1      44.129  31.079  30.589  1.00  0.00     0.031 A 
BRANCH  47  61
ATOM     61  C   UNL A   1      48.215  26.503  29.915  1.00  0.00    -0.014 A 
ATOM     62  C   UNL A   1      49.158  26.673  28.889  1.00  0.00     0.009 A 
ATOM     63  C   UNL A   1      48.624  25.907  31.119  1.00  0.00     0.009 A 
ATOM     64  C   UNL A   1      50.467  26.211  29.045  1.00  0.00     0.001 A 
ATOM     65  C   UNL A   1      49.943  25.482  31.287  1.00  0.00     0.001 A 
ATOM     66  C   UNL A   1      50.859  25.621  30.246  1.00  0.00     0.000 A 
ENDBRANCH  47  61
BRANCH  48  67
ATOM     67  C   UNL A   1      38.650  29.089  28.982  1.00  0.00    -0.014 A 
ATOM     68  C   UNL A   1      38.152  29.628  27.784  1.00  0.00     0.009 A 
ATOM     69  C   UNL A   1      37.785  28.975  30.081  1.00  0.00     0.009 A 
ATOM     70  C   UNL A   1      36.829  30.074  27.701  1.00  0.00     0.001 A 
ATOM     71  C   UNL A   1      36.454  29.390  29.985  1.00  0.00     0.001 A 
ATOM     72  C   UNL A   1      35.982  29.951  28.800  1.00  0.00     0.000 A 
ENDBRANCH  48  67
BRANCH  60  73
ATOM     73  C   UNL A   1      44.368  32.491  31.051  1.00  0.00    -0.014 A 
ATOM     74  C   UNL A   1      44.673  33.517  30.143  1.00  0.00     0.009 A 
ATOM     75  C   UNL A   1      44.220  32.811  32.411  1.00  0.00     0.009 A 
ATOM     76  C   UNL A   1      44.853  34.827  30.592  1.00  0.00     0.001 A 
ATOM     77  C   UNL A   1      44.368  34.127  32.851  1.00  0.00     0.001 A 
ATOM     78  C   UNL A   1      44.693  35.132  31.944  1.00  0.00     0.000 A 
ENDBRANCH  60  73
ENDBRANCH  34  35
ENDBRANCH  27  29
ENDBRANCH  26  27
ENDBRANCH  25  26
ENDBRANCH  24  25
ENDBRANCH  23  24
ENDBRANCH   1  23
TORSDOF 18
ENDMDL
MODEL 2
REMARK VINA RESULT:      -9.4      0.361      5.975
REMARK SMILES CCN(C(=O)N[C@@H]1CCOC1)[C@H]1COC[C@H]1C(=O)OCCOCCOC(=O)c1ccc(-c2c3nc(c(-c4ccccc4)c4ccc([nH]4)c(-c4ccccc4)c4nc(c(-c5ccccc5)c5ccc2[nH]5)C=C4)C=C3)cc1
REMARK SMILES IDX 21 1 20 2 19 3 17 4 18 5 16 6 12 7 13 8 14 9 15 10 3 11 2 12
REMARK SMILES IDX 1 13 4 14 5 15 6 16 7 18 8 19 11 20 9 21 10 22 22 23 23 24
REMARK SMILES IDX 24 25 25 26 26 27 27 28 28 29 29 30 75 31 30 32 74 33 31 34
REMARK SMILES IDX 32 35 33 36 68 37 34 38 73 39 67 40 69 41 35 42 72 43 66 44
REMARK SMILES IDX 65 45 36 47 58 48 43 49 57 50 44 51 47 52 56 53 70 54 45 55
REMARK SMILES IDX 46 56 55 58 71 59 48 60 37 61 38 62 42 63 39 64 41 65 40 66
REMARK SMILES IDX 59 67 60 68 64 69 61 70 63 71 62 72 49 73 50 74 54 75 51 76
REMARK SMILES IDX 53 77 52 78
REMARK H PARENT 6 17 69 46 47 57
REMARK Flexibility Score: inf
ROOT
ATOM      1  C   UNL A   1      37.807  22.429  25.712  1.00  0.00     0.202 C 
ENDROOT
BRANCH   1   2
ATOM      2  C   UNL A   1      37.101  23.704  25.250  1.00  0.00     0.261 C 
BRANCH   2   3
ATOM      3  O   UNL A   1      35.841  23.889  25.911  1.00  0.00    -0.463 OA
BRANCH   3   4
ATOM      4  C   UNL A   1      34.922  24.579  25.200  1.00  0.00     0.313 C 
ATOM      5  O   UNL A   1      34.535  25.710  25.480  1.00  0.00    -0.252 OA
BRANCH   4   6
ATOM      6  C   UNL A   1      34.419  23.881  23.973  1.00  0.00     0.150 C 
ATOM      7  C   UNL A   1      33.778  22.502  23.939  1.00  0.00     0.129 C 
ATOM      8  C   UNL A   1      32.951  22.570  22.652  1.00  0.00     0.186 C 
ATOM      9  O   UNL A   1      32.606  23.944  22.425  1.00  0.00    -0.378 OA
ATOM     10  C   UNL A   1      33.461  24.776  23.217  1.00  0.00     0.177 C 
BRANCH   7  11
ATOM     11  N   UNL A   1      33.055  21.927  25.113  1.00  0.00    -0.319 N 
BRANCH  11  12
ATOM     12  C   UNL A   1      31.609  21.972  25.226  1.00  0.00     0.118 C 
ATOM     13  C   UNL A   1      30.865  23.196  25.703  1.00  0.00     0.027 C 
ENDBRANCH  11  12
BRANCH  11  14
ATOM     14  C   UNL A   1      33.782  21.019  25.852  1.00  0.00     0.318 C 
ATOM     15  O   UNL A   1      34.191  21.281  26.990  1.00  0.00    -0.249 OA
ATOM     16  N   UNL A   1      34.160  19.805  25.436  1.00  0.00    -0.333 N 
ATOM     17  H   UNL A   1      34.791  19.442  26.101  1.00  0.00     0.165 HD
BRANCH  16  18
ATOM     18  C   UNL A   1      34.001  18.791  24.365  1.00  0.00     0.112 C 
ATOM     19  C   UNL A   1      32.586  18.217  24.495  1.00  0.00     0.056 C 
ATOM     20  C   UNL A   1      34.741  17.453  24.454  1.00  0.00     0.185 C 
ATOM     21  C   UNL A   1      32.762  17.203  25.611  1.00  0.00     0.162 C 
ATOM     22  O   UNL A   1      34.072  16.655  25.442  1.00  0.00    -0.379 OA
ENDBRANCH  16  18
ENDBRANCH  11  14
ENDBRANCH   7  11
ENDBRANCH   4   6
ENDBRANCH   3   4
ENDBRANCH   2   3
ENDBRANCH   1   2
BRANCH   1  23
ATOM     23  O   UNL A   1      37.196  21.190  25.366  1.00  0.00    -0.374 OA
BRANCH  23  24
ATOM     24  C   UNL A   1      38.049  20.169  24.839  1.00  0.00     0.202 C 
BRANCH  24  25
ATOM     25  C   UNL A   1      39.091  19.569  25.797  1.00  0.00     0.261 C 
BRANCH  25  26
ATOM     26  O   UNL A   1      40.392  19.431  25.191  1.00  0.00    -0.460 OA
BRANCH  26  27
ATOM     27  C   UNL A   1      41.445  19.406  26.037  1.00  0.00     0.338 C 
ATOM     28  O   UNL A   1      42.207  18.477  26.261  1.00  0.00    -0.246 OA
BRANCH  27  29
ATOM     29  C   UNL A   1      41.664  20.768  26.557  1.00  0.00     0.060 A 
ATOM     30  C   UNL A   1      41.943  21.809  25.665  1.00  0.00     0.016 A 
ATOM     31  C   UNL A   1      41.633  21.012  27.924  1.00  0.00     0.016 A 
ATOM     32  C   UNL A   1      42.213  23.095  26.147  1.00  0.00     0.010 A 
ATOM     33  C   UNL A   1      41.874  22.305  28.398  1.00  0.00     0.010 A 
ATOM     34  C   UNL A   1      42.198  23.358  27.524  1.00  0.00    -0.014 A 
BRANCH  34  35
ATOM     35  C   UNL A   1      42.638  24.676  28.074  1.00  0.00     0.031 A 
ATOM     36  C   UNL A   1      41.610  25.759  28.319  1.00  0.00     0.074 A 
ATOM     37  C   UNL A   1      43.935  24.936  28.343  1.00  0.00     0.049 A 
ATOM     38  N   UNL A   1      41.782  26.994  28.724  1.00  0.00    -0.248 NA
ATOM     39  C   UNL A   1      40.207  25.417  28.034  1.00  0.00     0.031 C 
ATOM     40  C   UNL A   1      45.050  24.011  28.145  1.00  0.00     0.029 A 
ATOM     41  N   UNL A   1      44.532  26.069  28.847  1.00  0.00    -0.354 N 
ATOM     42  C   UNL A   1      40.520  27.577  28.703  1.00  0.00     0.074 A 
ATOM     43  C   UNL A   1      39.607  26.588  28.179  1.00  0.00     0.031 C 
ATOM     44  C   UNL A   1      46.188  24.599  28.557  1.00  0.00     0.029 A 
ATOM     45  C   UNL A   1      45.893  25.957  29.008  1.00  0.00     0.049 A 
ATOM     46  H   UNL A   1      44.030  26.886  29.073  1.00  0.00     0.167 HD
ATOM     47  C   UNL A   1      40.135  28.810  29.112  1.00  0.00     0.031 A 
ATOM     48  C   UNL A   1      46.802  26.844  29.464  1.00  0.00     0.031 A 
ATOM     49  C   UNL A   1      41.020  29.789  29.683  1.00  0.00     0.049 A 
ATOM     50  C   UNL A   1      46.356  28.216  29.903  1.00  0.00     0.074 A 
ATOM     51  C   UNL A   1      40.706  31.036  30.193  1.00  0.00     0.029 A 
ATOM     52  N   UNL A   1      42.387  29.628  29.827  1.00  0.00    -0.354 N 
ATOM     53  N   UNL A   1      45.148  28.724  29.935  1.00  0.00    -0.248 NA
ATOM     54  C   UNL A   1      47.403  29.133  30.381  1.00  0.00     0.031 C 
ATOM     55  C   UNL A   1      41.894  31.655  30.591  1.00  0.00     0.029 A 
ATOM     56  C   UNL A   1      42.936  30.767  30.391  1.00  0.00     0.049 A 
ATOM     57  H   UNL A   1      42.893  28.825  29.565  1.00  0.00     0.167 HD
ATOM     58  C   UNL A   1      45.287  30.003  30.464  1.00  0.00     0.074 A 
ATOM     59  C   UNL A   1      46.692  30.188  30.755  1.00  0.00     0.031 C 
ATOM     60  C   UNL A   1      44.335  30.941  30.687  1.00  0.00     0.031 A 
BRANCH  47  61
ATOM     61  C   UNL A   1      38.681  29.170  28.959  1.00  0.00    -0.014 A 
ATOM     62  C   UNL A   1      37.775  29.029  30.022  1.00  0.00     0.009 A 
ATOM     63  C   UNL A   1      38.216  29.684  27.738  1.00  0.00     0.009 A 
ATOM     64  C   UNL A   1      36.426  29.346  29.852  1.00  0.00     0.001 A 
ATOM     65  C   UNL A   1      36.875  30.039  27.582  1.00  0.00     0.001 A 
ATOM     66  C   UNL A   1      35.979  29.856  28.634  1.00  0.00     0.000 A 
ENDBRANCH  47  61
BRANCH  48  67
ATOM     67  C   UNL A   1      48.242  26.471  29.542  1.00  0.00    -0.014 A 
ATOM     68  C   UNL A   1      48.759  25.857  30.695  1.00  0.00     0.009 A 
ATOM     69  C   UNL A   1      49.116  26.761  28.483  1.00  0.00     0.009 A 
ATOM     70  C   UNL A   1      50.123  25.571  30.797  1.00  0.00     0.001 A 
ATOM     71  C   UNL A   1      50.474  26.443  28.575  1.00  0.00     0.001 A 
ATOM     72  C   UNL A   1      50.978  25.861  29.736  1.00  0.00     0.000 A 
ENDBRANCH  48  67
BRANCH  60  73
ATOM     73  C   UNL A   1      44.760  32.240  31.315  1.00  0.00    -0.014 A 
ATOM     74  C   UNL A   1      44.801  32.401  32.709  1.00  0.00     0.009 A 
ATOM     75  C   UNL A   1      45.191  33.298  30.497  1.00  0.00     0.009 A 
ATOM     76  C   UNL A   1      45.237  33.605  33.269  1.00  0.00     0.001 A 
ATOM     77  C   UNL A   1      45.657  34.487  31.060  1.00  0.00     0.001 A 
ATOM     78  C   UNL A   1      45.672  34.643  32.444  1.00  0.00     0.000 A 
ENDBRANCH  60  73
ENDBRANCH  34  35
ENDBRANCH  27  29
ENDBRANCH  26  27
ENDBRANCH  25  26
ENDBRANCH  24  25
ENDBRANCH  23  24
ENDBRANCH   1  23
TORSDOF 18
ENDMDL
MODEL 3
REMARK VINA RESULT:      -9.0      2.880      4.722
REMARK SMILES CCN(C(=O)N[C@@H]1CCOC1)[C@H]1COC[C@H]1C(=O)OCCOCCOC(=O)c1ccc(-c2c3nc(c(-c4ccccc4)c4ccc([nH]4)c(-c4ccccc4)c4nc(c(-c5ccccc5)c5ccc2[nH]5)C=C4)C=C3)cc1
REMARK SMILES IDX 21 1 20 2 19 3 17 4 18 5 16 6 12 7 13 8 14 9 15 10 3 11 2 12
REMARK SMILES IDX 1 13 4 14 5 15 6 16 7 18 8 19 11 20 9 21 10 22 22 23 23 24
REMARK SMILES IDX 24 25 25 26 26 27 27 28 28 29 29 30 75 31 30 32 74 33 31 34
REMARK SMILES IDX 32 35 33 36 68 37 34 38 73 39 67 40 69 41 35 42 72 43 66 44
REMARK SMILES IDX 65 45 36 47 58 48 43 49 57 50 44 51 47 52 56 53 70 54 45 55
REMARK SMILES IDX 46 56 55 58 71 59 48 60 37 61 38 62 42 63 39 64 41 65 40 66
REMARK SMILES IDX 59 67 60 68 64 69 61 70 63 71 62 72 49 73 50 74 54 75 51 76
REMARK SMILES IDX 53 77 52 78
REMARK H PARENT 6 17 69 46 47 57
REMARK Flexibility Score: inf
ROOT
ATOM      1  C   UNL A   1      34.782  22.901  26.468  1.00  0.00     0.202 C 
ENDROOT
BRANCH   1   2
ATOM      2  C   UNL A   1      33.450  23.629  26.276  1.00  0.00     0.261 C 
BRANCH   2   3
ATOM      3  O   UNL A   1      33.316  24.159  24.949  1.00  0.00    -0.463 OA
BRANCH   3   4
ATOM      4  C   UNL A   1      32.050  24.195  24.477  1.00  0.00     0.313 C 
ATOM      5  O   UNL A   1      31.046  24.083  25.176  1.00  0.00    -0.252 OA
BRANCH   4   6
ATOM      6  C   UNL A   1      31.932  24.443  23.004  1.00  0.00     0.150 C 
ATOM      7  C   UNL A   1      31.697  25.796  22.350  1.00  0.00     0.129 C 
ATOM      8  C   UNL A   1      32.261  25.569  20.945  1.00  0.00     0.186 C 
ATOM      9  O   UNL A   1      33.275  24.559  21.037  1.00  0.00    -0.378 OA
ATOM     10  C   UNL A   1      33.124  23.859  22.278  1.00  0.00     0.177 C 
BRANCH   7  11
ATOM     11  N   UNL A   1      32.119  27.078  22.990  1.00  0.00    -0.319 N 
BRANCH  11  12
ATOM     12  C   UNL A   1      33.256  27.842  22.510  1.00  0.00     0.118 C 
ATOM     13  C   UNL A   1      34.023  28.802  23.387  1.00  0.00     0.027 C 
ENDBRANCH  11  12
BRANCH  11  14
ATOM     14  C   UNL A   1      31.155  27.680  23.768  1.00  0.00     0.318 C 
ATOM     15  O   UNL A   1      30.185  28.267  23.269  1.00  0.00    -0.249 OA
ATOM     16  N   UNL A   1      31.163  27.745  25.105  1.00  0.00    -0.333 N 
ATOM     17  H   UNL A   1      30.444  28.360  25.380  1.00  0.00     0.165 HD
BRANCH  16  18
ATOM     18  C   UNL A   1      31.831  27.253  26.334  1.00  0.00     0.112 C 
ATOM     19  C   UNL A   1      31.454  28.212  27.467  1.00  0.00     0.056 C 
ATOM     20  C   UNL A   1      33.349  27.385  26.491  1.00  0.00     0.185 C 
ATOM     21  C   UNL A   1      32.422  29.358  27.241  1.00  0.00     0.162 C 
ATOM     22  O   UNL A   1      33.635  28.762  26.773  1.00  0.00    -0.379 OA
ENDBRANCH  16  18
ENDBRANCH  11  14
ENDBRANCH   7  11
ENDBRANCH   4   6
ENDBRANCH   3   4
ENDBRANCH   2   3
ENDBRANCH   1   2
BRANCH   1  23
ATOM     23  O   UNL A   1      34.818  21.520  26.129  1.00  0.00    -0.374 OA
BRANCH  23  24
ATOM     24  C   UNL A   1      35.462  21.168  24.900  1.00  0.00     0.202 C 
BRANCH  24  25
ATOM     25  C   UNL A   1      36.845  20.503  25.004  1.00  0.00     0.261 C 
BRANCH  25  26
ATOM     26  O   UNL A   1      37.921  21.460  25.051  1.00  0.00    -0.460 OA
BRANCH  26  27
ATOM     27  C   UNL A   1      38.896  21.219  25.956  1.00  0.00     0.338 C 
ATOM     28  O   UNL A   1      39.418  20.150  26.230  1.00  0.00    -0.246 OA
BRANCH  27  29
ATOM     29  C   UNL A   1      39.382  22.509  26.478  1.00  0.00     0.060 A 
ATOM     30  C   UNL A   1      38.725  23.691  26.118  1.00  0.00     0.016 A 
ATOM     31  C   UNL A   1      40.510  22.559  27.288  1.00  0.00     0.016 A 
ATOM     32  C   UNL A   1      39.211  24.928  26.555  1.00  0.00     0.010 A 
ATOM     33  C   UNL A   1      40.974  23.796  27.746  1.00  0.00     0.010 A 
ATOM     34  C   UNL A   1      40.354  24.999  27.364  1.00  0.00    -0.014 A 
BRANCH  34  35
ATOM     35  C   UNL A   1      40.987  26.308  27.711  1.00  0.00     0.031 A 
ATOM     36  C   UNL A   1      42.344  26.651  27.138  1.00  0.00     0.074 A 
ATOM     37  C   UNL A   1      40.387  27.189  28.538  1.00  0.00     0.049 A 
ATOM     38  N   UNL A   1      43.102  27.697  27.361  1.00  0.00    -0.248 NA
ATOM     39  C   UNL A   1      42.944  25.668  26.220  1.00  0.00     0.031 C 
ATOM     40  C   UNL A   1      39.091  27.004  29.189  1.00  0.00     0.029 A 
ATOM     41  N   UNL A   1      40.800  28.429  28.972  1.00  0.00    -0.354 N 
ATOM     42  C   UNL A   1      44.274  27.475  26.645  1.00  0.00     0.074 A 
ATOM     43  C   UNL A   1      44.157  26.168  26.041  1.00  0.00     0.031 C 
ATOM     44  C   UNL A   1      38.798  28.102  29.909  1.00  0.00     0.029 A 
ATOM     45  C   UNL A   1      39.903  29.054  29.806  1.00  0.00     0.049 A 
ATOM     46  H   UNL A   1      41.659  28.832  28.709  1.00  0.00     0.167 HD
ATOM     47  C   UNL A   1      45.341  28.289  26.469  1.00  0.00     0.031 A 
ATOM     48  C   UNL A   1      39.960  30.254  30.421  1.00  0.00     0.031 A 
ATOM     49  C   UNL A   1      45.453  29.612  27.020  1.00  0.00     0.049 A 
ATOM     50  C   UNL A   1      41.163  31.141  30.223  1.00  0.00     0.074 A 
ATOM     51  C   UNL A   1      46.466  30.537  26.834  1.00  0.00     0.029 A 
ATOM     52  N   UNL A   1      44.519  30.200  27.856  1.00  0.00    -0.354 N 
ATOM     53  N   UNL A   1      42.231  30.937  29.490  1.00  0.00    -0.248 NA
ATOM     54  C   UNL A   1      41.161  32.431  30.931  1.00  0.00     0.031 C 
ATOM     55  C   UNL A   1      46.173  31.664  27.606  1.00  0.00     0.029 A 
ATOM     56  C   UNL A   1      44.947  31.467  28.218  1.00  0.00     0.049 A 
ATOM     57  H   UNL A   1      43.679  29.780  28.149  1.00  0.00     0.167 HD
ATOM     58  C   UNL A   1      43.008  32.084  29.624  1.00  0.00     0.074 A 
ATOM     59  C   UNL A   1      42.284  32.985  30.493  1.00  0.00     0.031 C 
ATOM     60  C   UNL A   1      44.216  32.363  29.076  1.00  0.00     0.031 A 
BRANCH  47  61
ATOM     61  C   UNL A   1      46.483  27.767  25.636  1.00  0.00    -0.014 A 
ATOM     62  C   UNL A   1      46.556  28.017  24.256  1.00  0.00     0.009 A 
ATOM     63  C   UNL A   1      47.514  27.037  26.248  1.00  0.00     0.009 A 
ATOM     64  C   UNL A   1      47.610  27.504  23.498  1.00  0.00     0.001 A 
ATOM     65  C   UNL A   1      48.588  26.560  25.494  1.00  0.00     0.001 A 
ATOM     66  C   UNL A   1      48.627  26.781  24.119  1.00  0.00     0.000 A 
ENDBRANCH  47  61
BRANCH  48  67
ATOM     67  C   UNL A   1      38.838  30.708  31.289  1.00  0.00    -0.014 A 
ATOM     68  C   UNL A   1      37.767  31.437  30.746  1.00  0.00     0.009 A 
ATOM     69  C   UNL A   1      38.848  30.450  32.668  1.00  0.00     0.009 A 
ATOM     70  C   UNL A   1      36.749  31.925  31.571  1.00  0.00     0.001 A 
ATOM     71  C   UNL A   1      37.811  30.910  33.485  1.00  0.00     0.001 A 
ATOM     72  C   UNL A   1      36.770  31.658  32.938  1.00  0.00     0.000 A 
ENDBRANCH  48  67
BRANCH  60  73
ATOM     73  C   UNL A   1      44.821  33.711  29.357  1.00  0.00    -0.014 A 
ATOM     74  C   UNL A   1      45.720  33.905  30.417  1.00  0.00     0.009 A 
ATOM     75  C   UNL A   1      44.536  34.791  28.504  1.00  0.00     0.009 A 
ATOM     76  C   UNL A   1      46.298  35.158  30.634  1.00  0.00     0.001 A 
ATOM     77  C   UNL A   1      45.141  36.033  28.703  1.00  0.00     0.001 A 
ATOM     78  C   UNL A   1      46.014  36.218  29.773  1.00  0.00     0.000 A 
ENDBRANCH  60  73
ENDBRANCH  34  35
ENDBRANCH  27  29
ENDBRANCH  26  27
ENDBRANCH  25  26
ENDBRANCH  24  25
ENDBRANCH  23  24
ENDBRANCH   1  23
TORSDOF 18
ENDMDL
