MODEL 1
REMARK VINA RESULT:     -11.3      0.000      0.000
REMARK SMILES Cc1c(CC(=O)OCCOCCOC(=O)c2ccc(-c3c4nc(c(-c5ccccc5)c5ccc([nH]5)c(-c5ccccc5)c5nc(c(-c6ccccc6)c6ccc3[nH]6)C=C5)C=C4)cc2)c2ccccc2n1C(=O)c1ccc(Cl)cc1
REMARK SMILES IDX 9 1 8 2 7 3 5 4 6 5 4 6 3 7 1 8 2 9 70 10 64 11 69 12 65 13
REMARK SMILES IDX 68 14 66 15 67 16 71 17 72 18 73 19 74 20 79 21 75 22 78 23
REMARK SMILES IDX 76 24 77 25 10 26 11 27 12 28 13 29 14 30 15 31 16 32 17 33
REMARK SMILES IDX 63 34 18 35 62 36 19 37 20 38 21 39 56 40 22 41 61 42 55 43
REMARK SMILES IDX 57 44 23 45 60 46 54 47 53 48 24 50 46 51 31 52 45 53 32 54
REMARK SMILES IDX 35 55 44 56 58 57 33 58 34 59 43 61 59 62 36 63 25 64 26 65
REMARK SMILES IDX 30 66 27 67 29 68 28 69 47 70 48 71 52 72 49 73 51 74 50 75
REMARK SMILES IDX 37 76 38 77 42 78 39 79 41 80 40 81
REMARK H PARENT 57 49 35 60
REMARK Flexibility Score: inf
ROOT
ATOM      1  C   UNL A   1      40.545  19.656  26.183  1.00  0.00     0.202 C 
ENDROOT
BRANCH   1   2
ATOM      2  C   UNL A   1      40.492  21.189  26.175  1.00  0.00     0.261 C 
BRANCH   2   3
ATOM      3  O   UNL A   1      39.391  21.726  26.928  1.00  0.00    -0.463 OA
BRANCH   3   4
ATOM      4  C   UNL A   1      38.487  22.429  26.198  1.00  0.00     0.310 C 
ATOM      5  O   UNL A   1      38.589  23.630  25.949  1.00  0.00    -0.252 OA
BRANCH   4   6
ATOM      6  C   UNL A   1      37.310  21.640  25.672  1.00  0.00     0.160 C 
BRANCH   6   7
ATOM      7  C   UNL A   1      36.048  22.362  25.283  1.00  0.00    -0.008 A 
ATOM      8  C   UNL A   1      36.688  23.102  22.885  1.00  0.00     0.065 C 
ATOM      9  C   UNL A   1      35.775  22.966  24.064  1.00  0.00     0.028 A 
ATOM     10  N   UNL A   1      34.435  23.387  24.042  1.00  0.00    -0.280 N 
ATOM     11  C   UNL A   1      34.852  22.442  26.059  1.00  0.00     0.004 A 
ATOM     12  C   UNL A   1      33.896  23.151  25.320  1.00  0.00     0.056 A 
ATOM     13  C   UNL A   1      34.505  21.961  27.345  1.00  0.00     0.010 A 
ATOM     14  C   UNL A   1      32.640  23.438  25.899  1.00  0.00     0.027 A 
ATOM     15  C   UNL A   1      33.274  22.282  27.919  1.00  0.00     0.001 A 
ATOM     16  C   UNL A   1      32.358  23.028  27.204  1.00  0.00     0.002 A 
BRANCH  10  17
ATOM     17  C   UNL A   1      33.745  23.891  22.899  1.00  0.00     0.262 C 
ATOM     18  O   UNL A   1      33.579  23.154  21.928  1.00  0.00    -0.268 OA
BRANCH  17  19
ATOM     19  C   UNL A   1      33.143  25.228  22.785  1.00  0.00     0.040 A 
ATOM     20  C   UNL A   1      33.694  26.310  23.482  1.00  0.00     0.015 A 
ATOM     21  C   UNL A   1      32.016  25.396  21.972  1.00  0.00     0.015 A 
ATOM     22  C   UNL A   1      33.052  27.549  23.435  1.00  0.00     0.021 A 
ATOM     23  C   UNL A   1      31.389  26.642  21.919  1.00  0.00     0.021 A 
ATOM     24  C   UNL A   1      31.897  27.706  22.665  1.00  0.00     0.041 A 
ATOM     25  Cl  UNL A   1      31.083  29.222  22.651  1.00  0.00    -0.084 Cl
ENDBRANCH  17  19
ENDBRANCH  10  17
ENDBRANCH   6   7
ENDBRANCH   4   6
ENDBRANCH   3   4
ENDBRANCH   2   3
ENDBRANCH   1   2
BRANCH   1  26
ATOM     26  O   UNL A   1      41.606  18.985  25.523  1.00  0.00    -0.374 OA
BRANCH  26  27
ATOM     27  C   UNL A   1      42.926  19.316  25.950  1.00  0.00     0.202 C 
BRANCH  27  28
ATOM     28  C   UNL A   1      44.112  18.600  25.277  1.00  0.00     0.261 C 
BRANCH  28  29
ATOM     29  O   UNL A   1      45.203  19.495  25.027  1.00  0.00    -0.460 OA
BRANCH  29  30
ATOM     30  C   UNL A   1      45.018  20.315  23.947  1.00  0.00     0.338 C 
ATOM     31  O   UNL A   1      44.532  20.043  22.886  1.00  0.00    -0.246 OA
BRANCH  30  32
ATOM     32  C   UNL A   1      45.114  21.674  24.524  1.00  0.00     0.060 A 
ATOM     33  C   UNL A   1      45.882  21.903  25.670  1.00  0.00     0.016 A 
ATOM     34  C   UNL A   1      44.104  22.564  24.126  1.00  0.00     0.016 A 
ATOM     35  C   UNL A   1      45.553  22.977  26.486  1.00  0.00     0.010 A 
ATOM     36  C   UNL A   1      43.755  23.612  24.967  1.00  0.00     0.010 A 
ATOM     37  C   UNL A   1      44.449  23.787  26.167  1.00  0.00    -0.014 A 
BRANCH  37  38
ATOM     38  C   UNL A   1      44.186  24.947  27.018  1.00  0.00     0.031 A 
ATOM     39  C   UNL A   1      45.260  25.969  26.921  1.00  0.00     0.074 A 
ATOM     40  C   UNL A   1      43.056  25.196  27.708  1.00  0.00     0.049 A 
ATOM     41  N   UNL A   1      46.032  26.417  27.856  1.00  0.00    -0.248 NA
ATOM     42  C   UNL A   1      45.600  26.445  25.568  1.00  0.00     0.031 C 
ATOM     43  C   UNL A   1      41.789  24.473  27.657  1.00  0.00     0.029 A 
ATOM     44  N   UNL A   1      42.770  26.243  28.536  1.00  0.00    -0.354 N 
ATOM     45  C   UNL A   1      46.868  27.340  27.235  1.00  0.00     0.074 A 
ATOM     46  C   UNL A   1      46.673  27.189  25.818  1.00  0.00     0.031 C 
ATOM     47  C   UNL A   1      40.815  25.209  28.236  1.00  0.00     0.029 A 
ATOM     48  C   UNL A   1      41.414  26.404  28.799  1.00  0.00     0.049 A 
ATOM     49  H   UNL A   1      43.461  26.834  28.913  1.00  0.00     0.167 HD
ATOM     50  C   UNL A   1      47.511  28.321  27.922  1.00  0.00     0.031 A 
ATOM     51  C   UNL A   1      40.811  27.479  29.361  1.00  0.00     0.031 A 
ATOM     52  C   UNL A   1      47.566  28.045  29.331  1.00  0.00     0.049 A 
ATOM     53  C   UNL A   1      41.850  28.260  30.063  1.00  0.00     0.074 A 
ATOM     54  C   UNL A   1      48.167  27.081  30.113  1.00  0.00     0.029 A 
ATOM     55  N   UNL A   1      46.625  28.652  30.123  1.00  0.00    -0.354 N 
ATOM     56  N   UNL A   1      42.472  27.850  31.129  1.00  0.00    -0.248 NA
ATOM     57  C   UNL A   1      42.485  29.354  29.347  1.00  0.00     0.031 C 
ATOM     58  C   UNL A   1      47.267  26.864  31.194  1.00  0.00     0.029 A 
ATOM     59  C   UNL A   1      46.184  27.732  31.036  1.00  0.00     0.049 A 
ATOM     60  H   UNL A   1      46.320  29.586  30.049  1.00  0.00     0.167 HD
ATOM     61  C   UNL A   1      43.766  28.327  30.986  1.00  0.00     0.074 A 
ATOM     62  C   UNL A   1      43.681  29.341  29.939  1.00  0.00     0.031 C 
ATOM     63  C   UNL A   1      44.824  27.661  31.530  1.00  0.00     0.031 A 
BRANCH  50  64
ATOM     64  C   UNL A   1      47.758  29.695  27.353  1.00  0.00    -0.014 A 
ATOM     65  C   UNL A   1      46.731  30.610  27.050  1.00  0.00     0.009 A 
ATOM     66  C   UNL A   1      49.068  30.203  27.351  1.00  0.00     0.009 A 
ATOM     67  C   UNL A   1      46.985  31.952  26.759  1.00  0.00     0.001 A 
ATOM     68  C   UNL A   1      49.325  31.559  27.107  1.00  0.00     0.001 A 
ATOM     69  C   UNL A   1      48.283  32.432  26.813  1.00  0.00     0.000 A 
ENDBRANCH  50  64
BRANCH  51  70
ATOM     70  C   UNL A   1      39.495  28.065  29.018  1.00  0.00    -0.014 A 
ATOM     71  C   UNL A   1      39.326  28.759  27.805  1.00  0.00     0.009 A 
ATOM     72  C   UNL A   1      38.498  28.206  29.996  1.00  0.00     0.009 A 
ATOM     73  C   UNL A   1      38.229  29.601  27.596  1.00  0.00     0.001 A 
ATOM     74  C   UNL A   1      37.401  29.053  29.789  1.00  0.00     0.001 A 
ATOM     75  C   UNL A   1      37.277  29.764  28.596  1.00  0.00     0.000 A 
ENDBRANCH  51  70
BRANCH  63  76
ATOM     76  C   UNL A   1      44.542  26.558  32.524  1.00  0.00    -0.014 A 
ATOM     77  C   UNL A   1      44.580  26.877  33.891  1.00  0.00     0.009 A 
ATOM     78  C   UNL A   1      44.445  25.203  32.160  1.00  0.00     0.009 A 
ATOM     79  C   UNL A   1      44.550  25.876  34.864  1.00  0.00     0.001 A 
ATOM     80  C   UNL A   1      44.389  24.202  33.135  1.00  0.00     0.001 A 
ATOM     81  C   UNL A   1      44.457  24.538  34.487  1.00  0.00     0.000 A 
ENDBRANCH  63  76
ENDBRANCH  37  38
ENDBRANCH  30  32
ENDBRANCH  29  30
ENDBRANCH  28  29
ENDBRANCH  27  28
ENDBRANCH  26  27
ENDBRANCH   1  26
TORSDOF 17
ENDMDL
MODEL 2
REMARK VINA RESULT:     -11.3      3.662      8.503
REMARK SMILES Cc1c(CC(=O)OCCOCCOC(=O)c2ccc(-c3c4nc(c(-c5ccccc5)c5ccc([nH]5)c(-c5ccccc5)c5nc(c(-c6ccccc6)c6ccc3[nH]6)C=C5)C=C4)cc2)c2ccccc2n1C(=O)c1ccc(Cl)cc1
REMARK SMILES IDX 9 1 8 2 7 3 5 4 6 5 4 6 3 7 1 8 2 9 70 10 64 11 69 12 65 13
REMARK SMILES IDX 68 14 66 15 67 16 71 17 72 18 73 19 74 20 79 21 75 22 78 23
REMARK SMILES IDX 76 24 77 25 10 26 11 27 12 28 13 29 14 30 15 31 16 32 17 33
REMARK SMILES IDX 63 34 18 35 62 36 19 37 20 38 21 39 56 40 22 41 61 42 55 43
REMARK SMILES IDX 57 44 23 45 60 46 54 47 53 48 24 50 46 51 31 52 45 53 32 54
REMARK SMILES IDX 35 55 44 56 58 57 33 58 34 59 43 61 59 62 36 63 25 64 26 65
REMARK SMILES IDX 30 66 27 67 29 68 28 69 47 70 48 71 52 72 49 73 51 74 50 75
REMARK SMILES IDX 37 76 38 77 42 78 39 79 41 80 40 81
REMARK H PARENT 57 49 35 60
REMARK Flexibility Score: inf
ROOT
ATOM      1  C   UNL A   1      32.804  29.757  25.502  1.00  0.00     0.202 C 
ENDROOT
BRANCH   1   2
ATOM      2  C   UNL A   1      33.592  28.452  25.668  1.00  0.00     0.261 C 
BRANCH   2   3
ATOM      3  O   UNL A   1      33.784  27.739  24.434  1.00  0.00    -0.463 OA
BRANCH   3   4
ATOM      4  C   UNL A   1      32.996  26.644  24.277  1.00  0.00     0.310 C 
ATOM      5  O   UNL A   1      32.265  26.458  23.305  1.00  0.00    -0.252 OA
BRANCH   4   6
ATOM      6  C   UNL A   1      33.067  25.617  25.384  1.00  0.00     0.160 C 
BRANCH   6   7
ATOM      7  C   UNL A   1      33.393  24.186  25.048  1.00  0.00    -0.008 A 
ATOM      8  C   UNL A   1      31.038  23.350  24.367  1.00  0.00     0.065 C 
ATOM      9  C   UNL A   1      32.515  23.220  24.579  1.00  0.00     0.028 A 
ATOM     10  N   UNL A   1      33.235  22.064  24.234  1.00  0.00    -0.280 N 
ATOM     11  C   UNL A   1      34.696  23.603  25.029  1.00  0.00     0.004 A 
ATOM     12  C   UNL A   1      34.574  22.272  24.610  1.00  0.00     0.056 A 
ATOM     13  C   UNL A   1      35.982  24.110  25.337  1.00  0.00     0.010 A 
ATOM     14  C   UNL A   1      35.718  21.443  24.579  1.00  0.00     0.027 A 
ATOM     15  C   UNL A   1      37.098  23.271  25.336  1.00  0.00     0.001 A 
ATOM     16  C   UNL A   1      36.960  21.945  24.975  1.00  0.00     0.002 A 
BRANCH  10  17
ATOM     17  C   UNL A   1      32.699  20.927  23.558  1.00  0.00     0.262 C 
ATOM     18  O   UNL A   1      32.184  21.078  22.450  1.00  0.00    -0.268 OA
BRANCH  17  19
ATOM     19  C   UNL A   1      32.753  19.540  24.043  1.00  0.00     0.040 A 
ATOM     20  C   UNL A   1      32.780  18.477  23.133  1.00  0.00     0.015 A 
ATOM     21  C   UNL A   1      32.776  19.305  25.422  1.00  0.00     0.015 A 
ATOM     22  C   UNL A   1      32.736  17.167  23.614  1.00  0.00     0.021 A 
ATOM     23  C   UNL A   1      32.747  17.993  25.895  1.00  0.00     0.021 A 
ATOM     24  C   UNL A   1      32.707  16.931  24.990  1.00  0.00     0.041 A 
ATOM     25  Cl  UNL A   1      32.601  15.316  25.576  1.00  0.00    -0.084 Cl
ENDBRANCH  17  19
ENDBRANCH  10  17
ENDBRANCH   6   7
ENDBRANCH   4   6
ENDBRANCH   3   4
ENDBRANCH   2   3
ENDBRANCH   1   2
BRANCH   1  26
ATOM     26  O   UNL A   1      32.554  30.578  26.631  1.00  0.00    -0.374 OA
BRANCH  26  27
ATOM     27  C   UNL A   1      33.595  30.648  27.603  1.00  0.00     0.202 C 
BRANCH  27  28
ATOM     28  C   UNL A   1      34.145  32.036  27.985  1.00  0.00     0.261 C 
BRANCH  28  29
ATOM     29  O   UNL A   1      35.116  31.955  29.035  1.00  0.00    -0.460 OA
BRANCH  29  30
ATOM     30  C   UNL A   1      36.359  32.407  28.684  1.00  0.00     0.338 C 
ATOM     31  O   UNL A   1      36.671  33.504  28.316  1.00  0.00    -0.246 OA
BRANCH  30  32
ATOM     32  C   UNL A   1      37.273  31.412  29.289  1.00  0.00     0.060 A 
ATOM     33  C   UNL A   1      38.570  31.778  29.662  1.00  0.00     0.016 A 
ATOM     34  C   UNL A   1      36.920  30.071  29.075  1.00  0.00     0.016 A 
ATOM     35  C   UNL A   1      39.549  30.795  29.706  1.00  0.00     0.010 A 
ATOM     36  C   UNL A   1      37.912  29.100  29.082  1.00  0.00     0.010 A 
ATOM     37  C   UNL A   1      39.232  29.472  29.351  1.00  0.00    -0.014 A 
BRANCH  37  38
ATOM     38  C   UNL A   1      40.280  28.460  29.482  1.00  0.00     0.031 A 
ATOM     39  C   UNL A   1      40.719  28.286  30.891  1.00  0.00     0.074 A 
ATOM     40  C   UNL A   1      40.727  27.639  28.512  1.00  0.00     0.049 A 
ATOM     41  N   UNL A   1      41.893  28.470  31.397  1.00  0.00    -0.248 NA
ATOM     42  C   UNL A   1      39.665  28.002  31.881  1.00  0.00     0.031 C 
ATOM     43  C   UNL A   1      40.187  27.448  27.170  1.00  0.00     0.029 A 
ATOM     44  N   UNL A   1      41.717  26.701  28.572  1.00  0.00    -0.354 N 
ATOM     45  C   UNL A   1      41.760  28.189  32.753  1.00  0.00     0.074 A 
ATOM     46  C   UNL A   1      40.351  28.076  33.017  1.00  0.00     0.031 C 
ATOM     47  C   UNL A   1      40.700  26.324  26.623  1.00  0.00     0.029 A 
ATOM     48  C   UNL A   1      41.690  25.780  27.531  1.00  0.00     0.049 A 
ATOM     49  H   UNL A   1      42.392  26.678  29.289  1.00  0.00     0.167 HD
ATOM     50  C   UNL A   1      42.819  27.851  33.536  1.00  0.00     0.031 A 
ATOM     51  C   UNL A   1      42.366  24.608  27.458  1.00  0.00     0.031 A 
ATOM     52  C   UNL A   1      44.071  28.217  32.936  1.00  0.00     0.049 A 
ATOM     53  C   UNL A   1      43.477  24.668  28.430  1.00  0.00     0.074 A 
ATOM     54  C   UNL A   1      44.680  29.408  32.600  1.00  0.00     0.029 A 
ATOM     55  N   UNL A   1      44.756  27.232  32.270  1.00  0.00    -0.354 N 
ATOM     56  N   UNL A   1      44.505  25.455  28.311  1.00  0.00    -0.248 NA
ATOM     57  C   UNL A   1      43.254  24.123  29.759  1.00  0.00     0.031 C 
ATOM     58  C   UNL A   1      45.420  29.127  31.416  1.00  0.00     0.029 A 
ATOM     59  C   UNL A   1      45.256  27.773  31.115  1.00  0.00     0.049 A 
ATOM     60  H   UNL A   1      44.869  26.301  32.569  1.00  0.00     0.167 HD
ATOM     61  C   UNL A   1      44.804  25.842  29.607  1.00  0.00     0.074 A 
ATOM     62  C   UNL A   1      44.083  24.900  30.459  1.00  0.00     0.031 C 
ATOM     63  C   UNL A   1      45.379  27.052  29.864  1.00  0.00     0.031 A 
BRANCH  50  64
ATOM     64  C   UNL A   1      42.719  26.862  34.669  1.00  0.00    -0.014 A 
ATOM     65  C   UNL A   1      42.195  27.180  35.938  1.00  0.00     0.009 A 
ATOM     66  C   UNL A   1      42.918  25.497  34.400  1.00  0.00     0.009 A 
ATOM     67  C   UNL A   1      41.885  26.203  36.886  1.00  0.00     0.001 A 
ATOM     68  C   UNL A   1      42.564  24.510  35.329  1.00  0.00     0.001 A 
ATOM     69  C   UNL A   1      42.047  24.864  36.571  1.00  0.00     0.000 A 
ENDBRANCH  50  64
BRANCH  51  70
ATOM     70  C   UNL A   1      41.896  23.323  26.890  1.00  0.00    -0.014 A 
ATOM     71  C   UNL A   1      40.583  22.881  27.135  1.00  0.00     0.009 A 
ATOM     72  C   UNL A   1      42.812  22.395  26.367  1.00  0.00     0.009 A 
ATOM     73  C   UNL A   1      40.210  21.551  26.915  1.00  0.00     0.001 A 
ATOM     74  C   UNL A   1      42.440  21.062  26.151  1.00  0.00     0.001 A 
ATOM     75  C   UNL A   1      41.144  20.637  26.442  1.00  0.00     0.000 A 
ENDBRANCH  51  70
BRANCH  63  76
ATOM     76  C   UNL A   1      45.941  27.839  28.704  1.00  0.00    -0.014 A 
ATOM     77  C   UNL A   1      45.036  28.465  27.832  1.00  0.00     0.009 A 
ATOM     78  C   UNL A   1      47.300  27.810  28.343  1.00  0.00     0.009 A 
ATOM     79  C   UNL A   1      45.465  29.019  26.625  1.00  0.00     0.001 A 
ATOM     80  C   UNL A   1      47.735  28.387  27.145  1.00  0.00     0.001 A 
ATOM     81  C   UNL A   1      46.815  28.978  26.280  1.00  0.00     0.000 A 
ENDBRANCH  63  76
ENDBRANCH  37  38
ENDBRANCH  30  32
ENDBRANCH  29  30
ENDBRANCH  28  29
ENDBRANCH  27  28
ENDBRANCH  26  27
ENDBRANCH   1  26
TORSDOF 17
ENDMDL
MODEL 3
REMARK VINA RESULT:     -11.1      2.976      8.501
REMARK SMILES Cc1c(CC(=O)OCCOCCOC(=O)c2ccc(-c3c4nc(c(-c5ccccc5)c5ccc([nH]5)c(-c5ccccc5)c5nc(c(-c6ccccc6)c6ccc3[nH]6)C=C5)C=C4)cc2)c2ccccc2n1C(=O)c1ccc(Cl)cc1
REMARK SMILES IDX 9 1 8 2 7 3 5 4 6 5 4 6 3 7 1 8 2 9 70 10 64 11 69 12 65 13
REMARK SMILES IDX 68 14 66 15 67 16 71 17 72 18 73 19 74 20 79 21 75 22 78 23
REMARK SMILES IDX 76 24 77 25 10 26 11 27 12 28 13 29 14 30 15 31 16 32 17 33
REMARK SMILES IDX 63 34 18 35 62 36 19 37 20 38 21 39 56 40 22 41 61 42 55 43
REMARK SMILES IDX 57 44 23 45 60 46 54 47 53 48 24 50 46 51 31 52 45 53 32 54
REMARK SMILES IDX 35 55 44 56 58 57 33 58 34 59 43 61 59 62 36 63 25 64 26 65
REMARK SMILES IDX 30 66 27 67 29 68 28 69 47 70 48 71 52 72 49 73 51 74 50 75
REMARK SMILES IDX 37 76 38 77 42 78 39 79 41 80 40 81
REMARK H PARENT 57 49 35 60
REMARK Flexibility Score: inf
ROOT
ATOM      1  C   UNL A   1      31.135  28.779  23.739  1.00  0.00     0.202 C 
ENDROOT
BRANCH   1   2
ATOM      2  C   UNL A   1      32.357  28.186  23.025  1.00  0.00     0.261 C 
BRANCH   2   3
ATOM      3  O   UNL A   1      32.324  26.751  22.935  1.00  0.00    -0.463 OA
BRANCH   3   4
ATOM      4  C   UNL A   1      33.381  26.118  23.508  1.00  0.00     0.310 C 
ATOM      5  O   UNL A   1      34.178  26.664  24.269  1.00  0.00    -0.252 OA
BRANCH   4   6
ATOM      6  C   UNL A   1      33.535  24.654  23.166  1.00  0.00     0.160 C 
BRANCH   6   7
ATOM      7  C   UNL A   1      34.242  23.738  24.129  1.00  0.00    -0.008 A 
ATOM      8  C   UNL A   1      36.452  23.363  22.831  1.00  0.00     0.065 C 
ATOM      9  C   UNL A   1      35.518  23.208  23.991  1.00  0.00     0.028 A 
ATOM     10  N   UNL A   1      35.874  22.537  25.172  1.00  0.00    -0.280 N 
ATOM     11  C   UNL A   1      33.775  23.354  25.422  1.00  0.00     0.004 A 
ATOM     12  C   UNL A   1      34.750  22.544  26.018  1.00  0.00     0.056 A 
ATOM     13  C   UNL A   1      32.587  23.638  26.139  1.00  0.00     0.010 A 
ATOM     14  C   UNL A   1      34.498  21.965  27.281  1.00  0.00     0.027 A 
ATOM     15  C   UNL A   1      32.335  23.031  27.370  1.00  0.00     0.001 A 
ATOM     16  C   UNL A   1      33.279  22.190  27.926  1.00  0.00     0.002 A 
BRANCH  10  17
ATOM     17  C   UNL A   1      37.169  22.016  25.469  1.00  0.00     0.262 C 
ATOM     18  O   UNL A   1      37.455  20.878  25.096  1.00  0.00    -0.268 OA
BRANCH  17  19
ATOM     19  C   UNL A   1      38.250  22.747  26.146  1.00  0.00     0.040 A 
ATOM     20  C   UNL A   1      39.433  22.087  26.498  1.00  0.00     0.015 A 
ATOM     21  C   UNL A   1      38.073  24.106  26.431  1.00  0.00     0.015 A 
ATOM     22  C   UNL A   1      40.408  22.775  27.224  1.00  0.00     0.021 A 
ATOM     23  C   UNL A   1      39.059  24.790  27.144  1.00  0.00     0.021 A 
ATOM     24  C   UNL A   1      40.211  24.118  27.554  1.00  0.00     0.041 A 
ATOM     25  Cl  UNL A   1      41.392  24.945  28.493  1.00  0.00    -0.084 Cl
ENDBRANCH  17  19
ENDBRANCH  10  17
ENDBRANCH   6   7
ENDBRANCH   4   6
ENDBRANCH   3   4
ENDBRANCH   2   3
ENDBRANCH   1   2
BRANCH   1  26
ATOM     26  O   UNL A   1      31.276  29.322  25.041  1.00  0.00    -0.374 OA
BRANCH  26  27
ATOM     27  C   UNL A   1      32.583  29.269  25.610  1.00  0.00     0.202 C 
BRANCH  27  28
ATOM     28  C   UNL A   1      32.999  30.385  26.588  1.00  0.00     0.261 C 
BRANCH  28  29
ATOM     29  O   UNL A   1      34.377  30.275  26.965  1.00  0.00    -0.460 OA
BRANCH  29  30
ATOM     30  C   UNL A   1      34.828  31.307  27.744  1.00  0.00     0.338 C 
ATOM     31  O   UNL A   1      34.225  32.275  28.111  1.00  0.00    -0.246 OA
BRANCH  30  32
ATOM     32  C   UNL A   1      36.032  30.745  28.398  1.00  0.00     0.060 A 
ATOM     33  C   UNL A   1      37.015  31.593  28.915  1.00  0.00     0.016 A 
ATOM     34  C   UNL A   1      36.304  29.403  28.092  1.00  0.00     0.016 A 
ATOM     35  C   UNL A   1      38.315  31.116  29.018  1.00  0.00     0.010 A 
ATOM     36  C   UNL A   1      37.613  28.945  28.159  1.00  0.00     0.010 A 
ATOM     37  C   UNL A   1      38.622  29.817  28.577  1.00  0.00    -0.014 A 
BRANCH  37  38
ATOM     38  C   UNL A   1      39.990  29.337  28.772  1.00  0.00     0.031 A 
ATOM     39  C   UNL A   1      40.282  29.036  30.197  1.00  0.00     0.074 A 
ATOM     40  C   UNL A   1      40.878  29.030  27.805  1.00  0.00     0.049 A 
ATOM     41  N   UNL A   1      41.173  29.569  30.966  1.00  0.00    -0.248 NA
ATOM     42  C   UNL A   1      39.357  28.114  30.881  1.00  0.00     0.031 C 
ATOM     43  C   UNL A   1      40.654  28.952  26.365  1.00  0.00     0.029 A 
ATOM     44  N   UNL A   1      42.169  28.607  27.930  1.00  0.00    -0.354 N 
ATOM     45  C   UNL A   1      41.015  28.949  32.202  1.00  0.00     0.074 A 
ATOM     46  C   UNL A   1      39.788  28.199  32.136  1.00  0.00     0.031 C 
ATOM     47  C   UNL A   1      41.683  28.308  25.773  1.00  0.00     0.029 A 
ATOM     48  C   UNL A   1      42.692  28.031  26.777  1.00  0.00     0.049 A 
ATOM     49  H   UNL A   1      42.686  28.700  28.763  1.00  0.00     0.167 HD
ATOM     50  C   UNL A   1      42.005  28.911  33.132  1.00  0.00     0.031 A 
ATOM     51  C   UNL A   1      43.829  27.302  26.670  1.00  0.00     0.031 A 
ATOM     52  C   UNL A   1      43.019  29.896  32.880  1.00  0.00     0.049 A 
ATOM     53  C   UNL A   1      44.661  27.591  27.855  1.00  0.00     0.074 A 
ATOM     54  C   UNL A   1      43.058  31.275  32.872  1.00  0.00     0.029 A 
ATOM     55  N   UNL A   1      44.152  29.475  32.232  1.00  0.00    -0.354 N 
ATOM     56  N   UNL A   1      45.227  28.739  28.084  1.00  0.00    -0.248 NA
ATOM     57  C   UNL A   1      44.548  26.707  29.004  1.00  0.00     0.031 C 
ATOM     58  C   UNL A   1      43.985  31.615  31.846  1.00  0.00     0.029 A 
ATOM     59  C   UNL A   1      44.491  30.429  31.310  1.00  0.00     0.049 A 
ATOM     60  H   UNL A   1      44.637  28.634  32.400  1.00  0.00     0.167 HD
ATOM     61  C   UNL A   1      45.155  28.899  29.459  1.00  0.00     0.074 A 
ATOM     62  C   UNL A   1      44.840  27.572  29.978  1.00  0.00     0.031 C 
ATOM     63  C   UNL A   1      45.082  30.141  30.019  1.00  0.00     0.031 A 
BRANCH  50  64
ATOM     64  C   UNL A   1      42.225  27.735  34.049  1.00  0.00    -0.014 A 
ATOM     65  C   UNL A   1      43.004  26.612  33.704  1.00  0.00     0.009 A 
ATOM     66  C   UNL A   1      41.858  27.849  35.400  1.00  0.00     0.009 A 
ATOM     67  C   UNL A   1      43.396  25.656  34.644  1.00  0.00     0.001 A 
ATOM     68  C   UNL A   1      42.289  26.919  36.355  1.00  0.00     0.001 A 
ATOM     69  C   UNL A   1      43.059  25.824  35.976  1.00  0.00     0.000 A 
ENDBRANCH  50  64
BRANCH  51  70
ATOM     70  C   UNL A   1      44.067  26.112  25.822  1.00  0.00    -0.014 A 
ATOM     71  C   UNL A   1      42.996  25.272  25.467  1.00  0.00     0.009 A 
ATOM     72  C   UNL A   1      45.370  25.634  25.611  1.00  0.00     0.009 A 
ATOM     73  C   UNL A   1      43.215  23.984  24.968  1.00  0.00     0.001 A 
ATOM     74  C   UNL A   1      45.591  24.341  25.116  1.00  0.00     0.001 A 
ATOM     75  C   UNL A   1      44.513  23.511  24.812  1.00  0.00     0.000 A 
ENDBRANCH  51  70
BRANCH  63  76
ATOM     76  C   UNL A   1      45.365  31.340  29.143  1.00  0.00    -0.014 A 
ATOM     77  C   UNL A   1      46.652  31.898  29.186  1.00  0.00     0.009 A 
ATOM     78  C   UNL A   1      44.360  32.037  28.449  1.00  0.00     0.009 A 
ATOM     79  C   UNL A   1      46.924  33.127  28.582  1.00  0.00     0.001 A 
ATOM     80  C   UNL A   1      44.638  33.256  27.821  1.00  0.00     0.001 A 
ATOM     81  C   UNL A   1      45.916  33.807  27.900  1.00  0.00     0.000 A 
ENDBRANCH  63  76
ENDBRANCH  37  38
ENDBRANCH  30  32
ENDBRANCH  29  30
ENDBRANCH  28  29
ENDBRANCH  27  28
ENDBRANCH  26  27
ENDBRANCH   1  26
TORSDOF 17
ENDMDL
