MODEL 1
REMARK VINA RESULT:     -12.0      0.000      0.000
REMARK SMILES CN1C(=O)C[C@@H](C(=O)OCCOCCOC(=O)c2ccc(-c3c4nc(c(-c5ccccc5)c5ccc([nH]5)c(-c5ccccc5)c5nc(c(-c6ccccc6)c6ccc3[nH]6)C=C5)C=C4)cc2)C12CCN(C(=O)c1cccc3ccccc13)CC2
REMARK SMILES IDX 13 1 12 2 11 3 10 4 9 5 7 6 8 7 6 8 1 9 2 10 3 11 66 12 4 13
REMARK SMILES IDX 5 14 67 15 83 16 68 17 82 18 69 19 70 20 71 21 72 22 73 23
REMARK SMILES IDX 81 24 74 25 76 26 80 27 75 28 77 29 79 30 78 31 14 32 15 33
REMARK SMILES IDX 16 34 17 35 18 36 19 37 65 38 20 39 64 40 21 41 22 42 23 43
REMARK SMILES IDX 58 44 24 45 63 46 57 47 59 48 25 49 62 50 56 51 55 52 26 54
REMARK SMILES IDX 48 55 33 56 47 57 34 58 37 59 46 60 60 61 35 62 36 63 45 65
REMARK SMILES IDX 61 66 38 67 27 68 28 69 32 70 29 71 31 72 30 73 49 74 50 75
REMARK SMILES IDX 54 76 51 77 53 78 52 79 39 80 40 81 44 82 41 83 43 84 42 85
REMARK H PARENT 59 53 37 64
REMARK Flexibility Score: inf
ROOT
ATOM      1  C   UNL A   1      40.254  21.562  26.632  1.00  0.00     0.202 C 
ENDROOT
BRANCH   1   2
ATOM      2  O   UNL A   1      39.062  22.006  25.990  1.00  0.00    -0.374 OA
BRANCH   2   3
ATOM      3  C   UNL A   1      38.508  23.255  26.397  1.00  0.00     0.202 C 
BRANCH   3   4
ATOM      4  C   UNL A   1      37.235  23.732  25.684  1.00  0.00     0.261 C 
BRANCH   4   5
ATOM      5  O   UNL A   1      36.008  23.087  26.095  1.00  0.00    -0.463 OA
BRANCH   5   6
ATOM      6  C   UNL A   1      35.411  22.325  25.149  1.00  0.00     0.311 C 
ATOM      7  O   UNL A   1      35.860  22.161  24.018  1.00  0.00    -0.252 OA
BRANCH   6   8
ATOM      8  C   UNL A   1      34.058  21.743  25.521  1.00  0.00     0.134 C 
ATOM      9  C   UNL A   1      31.907  20.510  22.697  1.00  0.00     0.147 C 
ATOM     10  N   UNL A   1      32.792  20.724  23.829  1.00  0.00    -0.339 N 
ATOM     11  C   UNL A   1      33.621  19.726  24.315  1.00  0.00     0.223 C 
ATOM     12  C   UNL A   1      32.770  21.924  24.677  1.00  0.00     0.060 C 
ATOM     13  O   UNL A   1      33.783  18.614  23.842  1.00  0.00    -0.275 OA
ATOM     14  C   UNL A   1      34.262  20.221  25.582  1.00  0.00     0.118 C 
ATOM     15  C   UNL A   1      32.650  23.223  23.858  1.00  0.00     0.051 C 
ATOM     16  C   UNL A   1      31.521  21.853  25.615  1.00  0.00     0.051 C 
ATOM     17  C   UNL A   1      32.516  24.452  24.748  1.00  0.00     0.122 C 
ATOM     18  C   UNL A   1      31.271  23.133  26.414  1.00  0.00     0.122 C 
ATOM     19  N   UNL A   1      31.333  24.337  25.587  1.00  0.00    -0.338 N 
ATOM     20  C   UNL A   1      30.390  25.343  25.823  1.00  0.00     0.254 C 
ATOM     21  O   UNL A   1      29.455  25.192  26.611  1.00  0.00    -0.269 OA
BRANCH  20  22
ATOM     22  C   UNL A   1      30.514  26.696  25.217  1.00  0.00     0.047 A 
ATOM     23  C   UNL A   1      29.940  26.813  23.937  1.00  0.00     0.014 A 
ATOM     24  C   UNL A   1      31.283  27.760  25.765  1.00  0.00    -0.006 A 
ATOM     25  C   UNL A   1      30.112  27.969  23.186  1.00  0.00     0.001 A 
ATOM     26  C   UNL A   1      31.441  28.935  24.981  1.00  0.00    -0.018 A 
ATOM     27  C   UNL A   1      31.919  27.735  27.030  1.00  0.00     0.009 A 
ATOM     28  C   UNL A   1      30.864  29.019  23.703  1.00  0.00     0.009 A 
ATOM     29  C   UNL A   1      32.188  30.017  25.470  1.00  0.00     0.009 A 
ATOM     30  C   UNL A   1      32.626  28.838  27.519  1.00  0.00     0.001 A 
ATOM     31  C   UNL A   1      32.764  29.977  26.737  1.00  0.00     0.001 A 
ENDBRANCH  20  22
ENDBRANCH   6   8
ENDBRANCH   5   6
ENDBRANCH   4   5
ENDBRANCH   3   4
ENDBRANCH   2   3
ENDBRANCH   1   2
BRANCH   1  32
ATOM     32  C   UNL A   1      41.562  22.152  26.095  1.00  0.00     0.261 C 
BRANCH  32  33
ATOM     33  O   UNL A   1      42.042  23.212  26.941  1.00  0.00    -0.460 OA
BRANCH  33  34
ATOM     34  C   UNL A   1      42.237  24.381  26.283  1.00  0.00     0.338 C 
ATOM     35  O   UNL A   1      42.624  24.524  25.137  1.00  0.00    -0.246 OA
BRANCH  34  36
ATOM     36  C   UNL A   1      41.709  25.503  27.078  1.00  0.00     0.060 A 
ATOM     37  C   UNL A   1      42.372  26.733  26.976  1.00  0.00     0.016 A 
ATOM     38  C   UNL A   1      40.692  25.319  28.015  1.00  0.00     0.016 A 
ATOM     39  C   UNL A   1      42.059  27.767  27.857  1.00  0.00     0.010 A 
ATOM     40  C   UNL A   1      40.381  26.359  28.900  1.00  0.00     0.010 A 
ATOM     41  C   UNL A   1      41.095  27.572  28.857  1.00  0.00    -0.014 A 
BRANCH  41  42
ATOM     42  C   UNL A   1      40.962  28.585  29.935  1.00  0.00     0.031 A 
ATOM     43  C   UNL A   1      39.848  29.597  29.859  1.00  0.00     0.074 A 
ATOM     44  C   UNL A   1      41.776  28.567  31.004  1.00  0.00     0.049 A 
ATOM     45  N   UNL A   1      39.500  30.516  30.725  1.00  0.00    -0.248 NA
ATOM     46  C   UNL A   1      39.011  29.563  28.648  1.00  0.00     0.031 C 
ATOM     47  C   UNL A   1      42.869  27.621  31.218  1.00  0.00     0.029 A 
ATOM     48  N   UNL A   1      41.797  29.366  32.121  1.00  0.00    -0.354 N 
ATOM     49  C   UNL A   1      38.405  31.164  30.168  1.00  0.00     0.074 A 
ATOM     50  C   UNL A   1      38.168  30.560  28.875  1.00  0.00     0.031 C 
ATOM     51  C   UNL A   1      43.451  27.888  32.401  1.00  0.00     0.029 A 
ATOM     52  C   UNL A   1      42.785  29.033  33.016  1.00  0.00     0.049 A 
ATOM     53  H   UNL A   1      41.165  30.106  32.267  1.00  0.00     0.167 HD
ATOM     54  C   UNL A   1      37.654  32.166  30.688  1.00  0.00     0.031 A 
ATOM     55  C   UNL A   1      43.116  29.591  34.197  1.00  0.00     0.031 A 
ATOM     56  C   UNL A   1      37.896  32.784  31.965  1.00  0.00     0.049 A 
ATOM     57  C   UNL A   1      42.313  30.752  34.722  1.00  0.00     0.074 A 
ATOM     58  C   UNL A   1      37.182  33.797  32.583  1.00  0.00     0.029 A 
ATOM     59  N   UNL A   1      38.941  32.455  32.813  1.00  0.00    -0.354 N 
ATOM     60  N   UNL A   1      41.255  31.326  34.203  1.00  0.00    -0.248 NA
ATOM     61  C   UNL A   1      42.745  31.330  36.002  1.00  0.00     0.031 C 
ATOM     62  C   UNL A   1      37.829  34.116  33.783  1.00  0.00     0.029 A 
ATOM     63  C   UNL A   1      38.911  33.265  33.937  1.00  0.00     0.049 A 
ATOM     64  H   UNL A   1      39.607  31.750  32.644  1.00  0.00     0.167 HD
ATOM     65  C   UNL A   1      40.881  32.316  35.103  1.00  0.00     0.074 A 
ATOM     66  C   UNL A   1      41.816  32.254  36.207  1.00  0.00     0.031 C 
ATOM     67  C   UNL A   1      39.852  33.197  35.024  1.00  0.00     0.031 A 
BRANCH  54  68
ATOM     68  C   UNL A   1      36.512  32.675  29.853  1.00  0.00    -0.014 A 
ATOM     69  C   UNL A   1      36.665  33.787  29.010  1.00  0.00     0.009 A 
ATOM     70  C   UNL A   1      35.271  32.021  29.895  1.00  0.00     0.009 A 
ATOM     71  C   UNL A   1      35.587  34.257  28.256  1.00  0.00     0.001 A 
ATOM     72  C   UNL A   1      34.203  32.476  29.120  1.00  0.00     0.001 A 
ATOM     73  C   UNL A   1      34.358  33.599  28.309  1.00  0.00     0.000 A 
ENDBRANCH  54  68
BRANCH  55  74
ATOM     74  C   UNL A   1      44.268  29.060  34.970  1.00  0.00    -0.014 A 
ATOM     75  C   UNL A   1      44.071  28.151  36.022  1.00  0.00     0.009 A 
ATOM     76  C   UNL A   1      45.577  29.468  34.664  1.00  0.00     0.009 A 
ATOM     77  C   UNL A   1      45.158  27.679  36.761  1.00  0.00     0.001 A 
ATOM     78  C   UNL A   1      46.663  28.973  35.388  1.00  0.00     0.001 A 
ATOM     79  C   UNL A   1      46.453  28.085  36.441  1.00  0.00     0.000 A 
ENDBRANCH  55  74
BRANCH  67  80
ATOM     80  C   UNL A   1      39.670  34.148  36.172  1.00  0.00    -0.014 A 
ATOM     81  C   UNL A   1      38.949  33.778  37.317  1.00  0.00     0.009 A 
ATOM     82  C   UNL A   1      40.267  35.418  36.125  1.00  0.00     0.009 A 
ATOM     83  C   UNL A   1      38.800  34.674  38.379  1.00  0.00     0.001 A 
ATOM     84  C   UNL A   1      40.140  36.301  37.199  1.00  0.00     0.001 A 
ATOM     85  C   UNL A   1      39.401  35.932  38.321  1.00  0.00     0.000 A 
ENDBRANCH  67  80
ENDBRANCH  41  42
ENDBRANCH  34  36
ENDBRANCH  33  34
ENDBRANCH  32  33
ENDBRANCH   1  32
TORSDOF 15
ENDMDL
MODEL 2
REMARK VINA RESULT:     -11.8      4.139      9.575
REMARK SMILES CN1C(=O)C[C@@H](C(=O)OCCOCCOC(=O)c2ccc(-c3c4nc(c(-c5ccccc5)c5ccc([nH]5)c(-c5ccccc5)c5nc(c(-c6ccccc6)c6ccc3[nH]6)C=C5)C=C4)cc2)C12CCN(C(=O)c1cccc3ccccc13)CC2
REMARK SMILES IDX 13 1 12 2 11 3 10 4 9 5 7 6 8 7 6 8 1 9 2 10 3 11 66 12 4 13
REMARK SMILES IDX 5 14 67 15 83 16 68 17 82 18 69 19 70 20 71 21 72 22 73 23
REMARK SMILES IDX 81 24 74 25 76 26 80 27 75 28 77 29 79 30 78 31 14 32 15 33
REMARK SMILES IDX 16 34 17 35 18 36 19 37 65 38 20 39 64 40 21 41 22 42 23 43
REMARK SMILES IDX 58 44 24 45 63 46 57 47 59 48 25 49 62 50 56 51 55 52 26 54
REMARK SMILES IDX 48 55 33 56 47 57 34 58 37 59 46 60 60 61 35 62 36 63 45 65
REMARK SMILES IDX 61 66 38 67 27 68 28 69 32 70 29 71 31 72 30 73 49 74 50 75
REMARK SMILES IDX 54 76 51 77 53 78 52 79 39 80 40 81 44 82 41 83 43 84 42 85
REMARK H PARENT 59 53 37 64
REMARK Flexibility Score: inf
ROOT
ATOM      1  C   UNL A   1      34.271  32.900  28.606  1.00  0.00     0.202 C 
ENDROOT
BRANCH   1   2
ATOM      2  O   UNL A   1      34.010  31.522  28.356  1.00  0.00    -0.374 OA
BRANCH   2   3
ATOM      3  C   UNL A   1      33.165  31.190  27.257  1.00  0.00     0.202 C 
BRANCH   3   4
ATOM      4  C   UNL A   1      32.541  29.788  27.240  1.00  0.00     0.261 C 
BRANCH   4   5
ATOM      5  O   UNL A   1      31.943  29.383  25.987  1.00  0.00    -0.463 OA
BRANCH   5   6
ATOM      6  C   UNL A   1      32.711  28.585  25.210  1.00  0.00     0.311 C 
ATOM      7  O   UNL A   1      33.818  28.167  25.542  1.00  0.00    -0.252 OA
BRANCH   6   8
ATOM      8  C   UNL A   1      32.179  28.301  23.817  1.00  0.00     0.134 C 
ATOM      9  C   UNL A   1      28.640  27.064  23.571  1.00  0.00     0.147 C 
ATOM     10  N   UNL A   1      29.903  27.780  23.589  1.00  0.00    -0.339 N 
ATOM     11  C   UNL A   1      29.967  29.163  23.541  1.00  0.00     0.223 C 
ATOM     12  C   UNL A   1      31.218  27.134  23.472  1.00  0.00     0.060 C 
ATOM     13  O   UNL A   1      29.027  29.940  23.561  1.00  0.00    -0.275 OA
ATOM     14  C   UNL A   1      31.408  29.564  23.399  1.00  0.00     0.118 C 
ATOM     15  C   UNL A   1      31.330  25.862  24.333  1.00  0.00     0.051 C 
ATOM     16  C   UNL A   1      31.436  26.705  21.985  1.00  0.00     0.051 C 
ATOM     17  C   UNL A   1      32.654  25.139  24.121  1.00  0.00     0.122 C 
ATOM     18  C   UNL A   1      32.683  25.847  21.762  1.00  0.00     0.122 C 
ATOM     19  N   UNL A   1      32.796  24.754  22.725  1.00  0.00    -0.338 N 
ATOM     20  C   UNL A   1      33.230  23.509  22.256  1.00  0.00     0.254 C 
ATOM     21  O   UNL A   1      33.399  23.285  21.056  1.00  0.00    -0.269 OA
BRANCH  20  22
ATOM     22  C   UNL A   1      33.613  22.408  23.180  1.00  0.00     0.047 A 
ATOM     23  C   UNL A   1      32.568  21.518  23.488  1.00  0.00     0.014 A 
ATOM     24  C   UNL A   1      34.863  22.318  23.855  1.00  0.00    -0.006 A 
ATOM     25  C   UNL A   1      32.735  20.535  24.454  1.00  0.00     0.001 A 
ATOM     26  C   UNL A   1      35.013  21.301  24.836  1.00  0.00    -0.018 A 
ATOM     27  C   UNL A   1      35.967  23.176  23.637  1.00  0.00     0.009 A 
ATOM     28  C   UNL A   1      33.948  20.433  25.128  1.00  0.00     0.009 A 
ATOM     29  C   UNL A   1      36.222  21.164  25.534  1.00  0.00     0.009 A 
ATOM     30  C   UNL A   1      37.179  23.000  24.312  1.00  0.00     0.001 A 
ATOM     31  C   UNL A   1      37.305  21.997  25.264  1.00  0.00     0.001 A 
ENDBRANCH  20  22
ENDBRANCH   6   8
ENDBRANCH   5   6
ENDBRANCH   4   5
ENDBRANCH   3   4
ENDBRANCH   2   3
ENDBRANCH   1   2
BRANCH   1  32
ATOM     32  C   UNL A   1      34.510  33.279  30.070  1.00  0.00     0.261 C 
BRANCH  32  33
ATOM     33  O   UNL A   1      35.879  33.054  30.451  1.00  0.00    -0.460 OA
BRANCH  33  34
ATOM     34  C   UNL A   1      36.042  31.991  31.275  1.00  0.00     0.338 C 
ATOM     35  O   UNL A   1      35.354  31.691  32.234  1.00  0.00    -0.246 OA
BRANCH  34  36
ATOM     36  C   UNL A   1      37.070  31.084  30.734  1.00  0.00     0.060 A 
ATOM     37  C   UNL A   1      37.920  30.453  31.651  1.00  0.00     0.016 A 
ATOM     38  C   UNL A   1      37.297  30.975  29.361  1.00  0.00     0.016 A 
ATOM     39  C   UNL A   1      39.040  29.759  31.198  1.00  0.00     0.010 A 
ATOM     40  C   UNL A   1      38.425  30.278  28.909  1.00  0.00     0.010 A 
ATOM     41  C   UNL A   1      39.328  29.707  29.826  1.00  0.00    -0.014 A 
BRANCH  41  42
ATOM     42  C   UNL A   1      40.649  29.188  29.388  1.00  0.00     0.031 A 
ATOM     43  C   UNL A   1      41.854  30.090  29.461  1.00  0.00     0.074 A 
ATOM     44  C   UNL A   1      40.793  27.910  28.995  1.00  0.00     0.049 A 
ATOM     45  N   UNL A   1      43.110  29.819  29.207  1.00  0.00    -0.248 NA
ATOM     46  C   UNL A   1      41.611  31.478  29.884  1.00  0.00     0.031 C 
ATOM     47  C   UNL A   1      39.717  26.925  28.913  1.00  0.00     0.029 A 
ATOM     48  N   UNL A   1      41.915  27.220  28.603  1.00  0.00    -0.354 N 
ATOM     49  C   UNL A   1      43.805  30.999  29.443  1.00  0.00     0.074 A 
ATOM     50  C   UNL A   1      42.829  31.996  29.824  1.00  0.00     0.031 C 
ATOM     51  C   UNL A   1      40.232  25.751  28.505  1.00  0.00     0.029 A 
ATOM     52  C   UNL A   1      41.667  25.908  28.278  1.00  0.00     0.049 A 
ATOM     53  H   UNL A   1      42.810  27.626  28.560  1.00  0.00     0.167 HD
ATOM     54  C   UNL A   1      45.138  31.232  29.361  1.00  0.00     0.031 A 
ATOM     55  C   UNL A   1      42.503  24.945  27.845  1.00  0.00     0.031 A 
ATOM     56  C   UNL A   1      46.112  30.250  28.963  1.00  0.00     0.049 A 
ATOM     57  C   UNL A   1      43.969  25.247  27.691  1.00  0.00     0.074 A 
ATOM     58  C   UNL A   1      47.486  30.388  28.863  1.00  0.00     0.029 A 
ATOM     59  N   UNL A   1      45.811  28.950  28.588  1.00  0.00    -0.354 N 
ATOM     60  N   UNL A   1      44.617  26.355  27.958  1.00  0.00    -0.248 NA
ATOM     61  C   UNL A   1      44.820  24.159  27.187  1.00  0.00     0.031 C 
ATOM     62  C   UNL A   1      48.010  29.185  28.376  1.00  0.00     0.029 A 
ATOM     63  C   UNL A   1      46.970  28.283  28.226  1.00  0.00     0.049 A 
ATOM     64  H   UNL A   1      44.908  28.558  28.580  1.00  0.00     0.167 HD
ATOM     65  C   UNL A   1      45.952  26.091  27.678  1.00  0.00     0.074 A 
ATOM     66  C   UNL A   1      46.023  24.714  27.235  1.00  0.00     0.031 C 
ATOM     67  C   UNL A   1      47.024  26.915  27.781  1.00  0.00     0.031 A 
BRANCH  54  68
ATOM     68  C   UNL A   1      45.615  32.621  29.682  1.00  0.00    -0.014 A 
ATOM     69  C   UNL A   1      45.651  33.624  28.700  1.00  0.00     0.009 A 
ATOM     70  C   UNL A   1      46.014  32.937  30.990  1.00  0.00     0.009 A 
ATOM     71  C   UNL A   1      46.114  34.904  29.014  1.00  0.00     0.001 A 
ATOM     72  C   UNL A   1      46.452  34.224  31.306  1.00  0.00     0.001 A 
ATOM     73  C   UNL A   1      46.511  35.204  30.317  1.00  0.00     0.000 A 
ENDBRANCH  54  68
BRANCH  55  74
ATOM     74  C   UNL A   1      41.972  23.594  27.522  1.00  0.00    -0.014 A 
ATOM     75  C   UNL A   1      41.587  23.268  26.212  1.00  0.00     0.009 A 
ATOM     76  C   UNL A   1      41.841  22.624  28.529  1.00  0.00     0.009 A 
ATOM     77  C   UNL A   1      41.063  22.005  25.923  1.00  0.00     0.001 A 
ATOM     78  C   UNL A   1      41.343  21.354  28.231  1.00  0.00     0.001 A 
ATOM     79  C   UNL A   1      40.947  21.048  26.930  1.00  0.00     0.000 A 
ENDBRANCH  55  74
BRANCH  67  80
ATOM     80  C   UNL A   1      48.369  26.342  27.431  1.00  0.00    -0.014 A 
ATOM     81  C   UNL A   1      49.098  25.579  28.356  1.00  0.00     0.009 A 
ATOM     82  C   UNL A   1      48.894  26.535  26.143  1.00  0.00     0.009 A 
ATOM     83  C   UNL A   1      50.341  25.045  28.007  1.00  0.00     0.001 A 
ATOM     84  C   UNL A   1      50.124  25.978  25.790  1.00  0.00     0.001 A 
ATOM     85  C   UNL A   1      50.850  25.241  26.724  1.00  0.00     0.000 A 
ENDBRANCH  67  80
ENDBRANCH  41  42
ENDBRANCH  34  36
ENDBRANCH  33  34
ENDBRANCH  32  33
ENDBRANCH   1  32
TORSDOF 15
ENDMDL
MODEL 3
REMARK VINA RESULT:     -11.8      0.813      5.762
REMARK SMILES CN1C(=O)C[C@@H](C(=O)OCCOCCOC(=O)c2ccc(-c3c4nc(c(-c5ccccc5)c5ccc([nH]5)c(-c5ccccc5)c5nc(c(-c6ccccc6)c6ccc3[nH]6)C=C5)C=C4)cc2)C12CCN(C(=O)c1cccc3ccccc13)CC2
REMARK SMILES IDX 13 1 12 2 11 3 10 4 9 5 7 6 8 7 6 8 1 9 2 10 3 11 66 12 4 13
REMARK SMILES IDX 5 14 67 15 83 16 68 17 82 18 69 19 70 20 71 21 72 22 73 23
REMARK SMILES IDX 81 24 74 25 76 26 80 27 75 28 77 29 79 30 78 31 14 32 15 33
REMARK SMILES IDX 16 34 17 35 18 36 19 37 65 38 20 39 64 40 21 41 22 42 23 43
REMARK SMILES IDX 58 44 24 45 63 46 57 47 59 48 25 49 62 50 56 51 55 52 26 54
REMARK SMILES IDX 48 55 33 56 47 57 34 58 37 59 46 60 60 61 35 62 36 63 45 65
REMARK SMILES IDX 61 66 38 67 27 68 28 69 32 70 29 71 31 72 30 73 49 74 50 75
REMARK SMILES IDX 54 76 51 77 53 78 52 79 39 80 40 81 44 82 41 83 43 84 42 85
REMARK H PARENT 59 53 37 64
REMARK Flexibility Score: inf
ROOT
ATOM      1  C   UNL A   1      40.414  21.341  26.552  1.00  0.00     0.202 C 
ENDROOT
BRANCH   1   2
ATOM      2  O   UNL A   1      39.330  21.780  25.740  1.00  0.00    -0.374 OA
BRANCH   2   3
ATOM      3  C   UNL A   1      38.296  20.845  25.441  1.00  0.00     0.202 C 
BRANCH   3   4
ATOM      4  C   UNL A   1      37.026  21.382  24.767  1.00  0.00     0.261 C 
BRANCH   4   5
ATOM      5  O   UNL A   1      35.785  20.777  25.197  1.00  0.00    -0.463 OA
BRANCH   5   6
ATOM      6  C   UNL A   1      34.975  21.577  25.929  1.00  0.00     0.311 C 
ATOM      7  O   UNL A   1      35.382  22.465  26.674  1.00  0.00    -0.252 OA
BRANCH   6   8
ATOM      8  C   UNL A   1      33.492  21.253  25.872  1.00  0.00     0.134 C 
ATOM      9  C   UNL A   1      31.924  21.073  22.463  1.00  0.00     0.147 C 
ATOM     10  N   UNL A   1      32.524  20.872  23.770  1.00  0.00    -0.339 N 
ATOM     11  C   UNL A   1      33.021  19.643  24.171  1.00  0.00     0.223 C 
ATOM     12  C   UNL A   1      32.504  21.870  24.848  1.00  0.00     0.060 C 
ATOM     13  O   UNL A   1      33.098  18.629  23.497  1.00  0.00    -0.275 OA
ATOM     14  C   UNL A   1      33.406  19.740  25.621  1.00  0.00     0.118 C 
ATOM     15  C   UNL A   1      32.819  23.291  24.345  1.00  0.00     0.051 C 
ATOM     16  C   UNL A   1      31.070  21.907  25.470  1.00  0.00     0.051 C 
ATOM     17  C   UNL A   1      32.686  24.333  25.447  1.00  0.00     0.122 C 
ATOM     18  C   UNL A   1      30.858  23.041  26.475  1.00  0.00     0.122 C 
ATOM     19  N   UNL A   1      31.331  24.332  25.978  1.00  0.00    -0.338 N 
ATOM     20  C   UNL A   1      30.551  25.463  26.242  1.00  0.00     0.254 C 
ATOM     21  O   UNL A   1      29.438  25.381  26.766  1.00  0.00    -0.269 OA
BRANCH  20  22
ATOM     22  C   UNL A   1      31.055  26.841  26.003  1.00  0.00     0.047 A 
ATOM     23  C   UNL A   1      31.567  27.478  27.148  1.00  0.00     0.014 A 
ATOM     24  C   UNL A   1      30.899  27.559  24.784  1.00  0.00    -0.006 A 
ATOM     25  C   UNL A   1      31.931  28.819  27.111  1.00  0.00     0.001 A 
ATOM     26  C   UNL A   1      31.282  28.927  24.768  1.00  0.00    -0.018 A 
ATOM     27  C   UNL A   1      30.374  27.019  23.585  1.00  0.00     0.009 A 
ATOM     28  C   UNL A   1      31.782  29.538  25.930  1.00  0.00     0.009 A 
ATOM     29  C   UNL A   1      31.151  29.686  23.595  1.00  0.00     0.009 A 
ATOM     30  C   UNL A   1      30.288  27.777  22.414  1.00  0.00     0.001 A 
ATOM     31  C   UNL A   1      30.672  29.112  22.420  1.00  0.00     0.001 A 
ENDBRANCH  20  22
ENDBRANCH   6   8
ENDBRANCH   5   6
ENDBRANCH   4   5
ENDBRANCH   3   4
ENDBRANCH   2   3
ENDBRANCH   1   2
BRANCH   1  32
ATOM     32  C   UNL A   1      41.815  21.705  26.051  1.00  0.00     0.261 C 
BRANCH  32  33
ATOM     33  O   UNL A   1      42.390  22.767  26.834  1.00  0.00    -0.460 OA
BRANCH  33  34
ATOM     34  C   UNL A   1      42.557  23.919  26.139  1.00  0.00     0.338 C 
ATOM     35  O   UNL A   1      42.974  24.038  25.001  1.00  0.00    -0.246 OA
BRANCH  34  36
ATOM     36  C   UNL A   1      41.960  25.045  26.877  1.00  0.00     0.060 A 
ATOM     37  C   UNL A   1      42.623  26.277  26.821  1.00  0.00     0.016 A 
ATOM     38  C   UNL A   1      40.867  24.864  27.727  1.00  0.00     0.016 A 
ATOM     39  C   UNL A   1      42.234  27.317  27.664  1.00  0.00     0.010 A 
ATOM     40  C   UNL A   1      40.479  25.911  28.573  1.00  0.00     0.010 A 
ATOM     41  C   UNL A   1      41.189  27.126  28.580  1.00  0.00    -0.014 A 
BRANCH  41  42
ATOM     42  C   UNL A   1      40.961  28.148  29.633  1.00  0.00     0.031 A 
ATOM     43  C   UNL A   1      41.910  28.223  30.802  1.00  0.00     0.074 A 
ATOM     44  C   UNL A   1      39.966  29.045  29.521  1.00  0.00     0.049 A 
ATOM     45  N   UNL A   1      41.945  29.084  31.788  1.00  0.00    -0.248 NA
ATOM     46  C   UNL A   1      42.962  27.196  30.862  1.00  0.00     0.031 C 
ATOM     47  C   UNL A   1      39.002  29.105  28.425  1.00  0.00     0.029 A 
ATOM     48  N   UNL A   1      39.612  30.090  30.340  1.00  0.00    -0.354 N 
ATOM     49  C   UNL A   1      43.021  28.706  32.581  1.00  0.00     0.074 A 
ATOM     50  C   UNL A   1      43.590  27.518  31.983  1.00  0.00     0.031 C 
ATOM     51  C   UNL A   1      38.169  30.140  28.634  1.00  0.00     0.029 A 
ATOM     52  C   UNL A   1      38.528  30.802  29.886  1.00  0.00     0.049 A 
ATOM     53  H   UNL A   1      40.090  30.308  31.173  1.00  0.00     0.167 HD
ATOM     54  C   UNL A   1      43.503  29.298  33.701  1.00  0.00     0.031 A 
ATOM     55  C   UNL A   1      37.897  31.864  30.421  1.00  0.00     0.031 A 
ATOM     56  C   UNL A   1      42.930  30.468  34.312  1.00  0.00     0.049 A 
ATOM     57  C   UNL A   1      38.405  32.462  31.706  1.00  0.00     0.074 A 
ATOM     58  C   UNL A   1      43.355  31.149  35.441  1.00  0.00     0.029 A 
ATOM     59  N   UNL A   1      41.799  31.123  33.851  1.00  0.00    -0.354 N 
ATOM     60  N   UNL A   1      39.449  32.118  32.421  1.00  0.00    -0.248 NA
ATOM     61  C   UNL A   1      37.653  33.602  32.249  1.00  0.00     0.031 C 
ATOM     62  C   UNL A   1      42.448  32.186  35.692  1.00  0.00     0.029 A 
ATOM     63  C   UNL A   1      41.493  32.183  34.689  1.00  0.00     0.049 A 
ATOM     64  H   UNL A   1      41.289  30.873  33.047  1.00  0.00     0.167 HD
ATOM     65  C   UNL A   1      39.493  33.013  33.483  1.00  0.00     0.074 A 
ATOM     66  C   UNL A   1      38.380  33.923  33.310  1.00  0.00     0.031 C 
ATOM     67  C   UNL A   1      40.378  33.076  34.509  1.00  0.00     0.031 A 
BRANCH  54  68
ATOM     68  C   UNL A   1      44.699  28.664  34.355  1.00  0.00    -0.014 A 
ATOM     69  C   UNL A   1      46.006  29.049  34.014  1.00  0.00     0.009 A 
ATOM     70  C   UNL A   1      44.517  27.683  35.341  1.00  0.00     0.009 A 
ATOM     71  C   UNL A   1      47.105  28.435  34.620  1.00  0.00     0.001 A 
ATOM     72  C   UNL A   1      45.616  27.090  35.964  1.00  0.00     0.001 A 
ATOM     73  C   UNL A   1      46.909  27.459  35.597  1.00  0.00     0.000 A 
ENDBRANCH  54  68
BRANCH  55  74
ATOM     74  C   UNL A   1      36.706  32.437  29.742  1.00  0.00    -0.014 A 
ATOM     75  C   UNL A   1      35.411  32.017  30.084  1.00  0.00     0.009 A 
ATOM     76  C   UNL A   1      36.860  33.407  28.737  1.00  0.00     0.009 A 
ATOM     77  C   UNL A   1      34.299  32.541  29.420  1.00  0.00     0.001 A 
ATOM     78  C   UNL A   1      35.745  33.948  28.095  1.00  0.00     0.001 A 
ATOM     79  C   UNL A   1      34.465  33.509  28.431  1.00  0.00     0.000 A 
ENDBRANCH  55  74
BRANCH  67  80
ATOM     80  C   UNL A   1      40.193  34.181  35.510  1.00  0.00    -0.014 A 
ATOM     81  C   UNL A   1      39.347  34.024  36.619  1.00  0.00     0.009 A 
ATOM     82  C   UNL A   1      40.908  35.380  35.364  1.00  0.00     0.009 A 
ATOM     83  C   UNL A   1      39.198  35.059  37.546  1.00  0.00     0.001 A 
ATOM     84  C   UNL A   1      40.777  36.402  36.306  1.00  0.00     0.001 A 
ATOM     85  C   UNL A   1      39.916  36.244  37.391  1.00  0.00     0.000 A 
ENDBRANCH  67  80
ENDBRANCH  41  42
ENDBRANCH  34  36
ENDBRANCH  33  34
ENDBRANCH  32  33
ENDBRANCH   1  32
TORSDOF 15
ENDMDL
