MODEL 1
REMARK VINA RESULT:     -10.3      0.000      0.000
REMARK SMILES O=C(N[C@@H]1C=C[C@@H](C(=O)OCCOCCOC(=O)c2ccc(-c3c4nc(c(-c5ccccc5)c5ccc([nH]5)c(-c5ccccc5)c5nc(c(-c6ccccc6)c6ccc3[nH]6)C=C5)C=C4)cc2)C1)Oc1ccccc1
REMARK SMILES IDX 12 1 11 2 10 3 8 4 9 5 7 6 4 7 5 8 67 9 6 10 3 11 1 12 2 13
REMARK SMILES IDX 68 15 69 16 70 17 74 18 71 19 73 20 72 21 13 22 14 23 15 24
REMARK SMILES IDX 16 25 17 26 18 27 19 28 20 29 66 30 21 31 65 32 22 33 23 34
REMARK SMILES IDX 24 35 59 36 25 37 64 38 58 39 60 40 26 41 63 42 57 43 56 44
REMARK SMILES IDX 27 46 49 47 34 48 48 49 35 50 38 51 47 52 61 53 36 54 37 55
REMARK SMILES IDX 46 57 62 58 39 59 28 60 29 61 33 62 30 63 32 64 31 65 50 66
REMARK SMILES IDX 51 67 55 68 52 69 54 70 53 71 40 72 41 73 45 74 42 75 44 76
REMARK SMILES IDX 43 77
REMARK H PARENT 3 14 60 45 38 56
REMARK Flexibility Score: inf
ROOT
ATOM      1  C   UNL A   1      33.683  37.083  32.329  1.00  0.00     0.202 C 
ENDROOT
BRANCH   1   2
ATOM      2  C   UNL A   1      33.157  37.068  30.889  1.00  0.00     0.261 C 
BRANCH   2   3
ATOM      3  O   UNL A   1      33.004  35.720  30.424  1.00  0.00    -0.463 OA
BRANCH   3   4
ATOM      4  C   UNL A   1      33.790  35.373  29.368  1.00  0.00     0.312 C 
ATOM      5  O   UNL A   1      33.894  36.031  28.338  1.00  0.00    -0.252 OA
BRANCH   4   6
ATOM      6  C   UNL A   1      34.679  34.173  29.706  1.00  0.00     0.124 C 
ATOM      7  C   UNL A   1      34.773  32.396  28.026  1.00  0.00     0.109 C 
ATOM      8  C   UNL A   1      36.001  33.247  28.010  1.00  0.00    -0.006 C 
ATOM      9  C   UNL A   1      34.137  32.771  29.370  1.00  0.00     0.049 C 
ATOM     10  C   UNL A   1      35.947  34.225  28.917  1.00  0.00    -0.014 C 
BRANCH   7  11
ATOM     11  N   UNL A   1      35.177  31.017  27.924  1.00  0.00    -0.315 N 
ATOM     12  O   UNL A   1      35.157  28.881  27.272  1.00  0.00    -0.224 OA
ATOM     13  C   UNL A   1      34.507  29.908  27.471  1.00  0.00     0.413 C 
ATOM     14  H   UNL A   1      36.093  30.838  28.235  1.00  0.00     0.167 HD
BRANCH  13  15
ATOM     15  O   UNL A   1      33.124  29.925  27.188  1.00  0.00    -0.410 OA
BRANCH  15  16
ATOM     16  C   UNL A   1      32.374  28.989  26.445  1.00  0.00     0.132 A 
ATOM     17  C   UNL A   1      31.943  27.820  27.065  1.00  0.00     0.047 A 
ATOM     18  C   UNL A   1      32.096  29.253  25.107  1.00  0.00     0.047 A 
ATOM     19  C   UNL A   1      31.121  26.948  26.350  1.00  0.00     0.004 A 
ATOM     20  C   UNL A   1      31.226  28.409  24.420  1.00  0.00     0.004 A 
ATOM     21  C   UNL A   1      30.733  27.263  25.044  1.00  0.00     0.000 A 
ENDBRANCH  15  16
ENDBRANCH  13  15
ENDBRANCH   7  11
ENDBRANCH   4   6
ENDBRANCH   3   4
ENDBRANCH   2   3
ENDBRANCH   1   2
BRANCH   1  22
ATOM     22  O   UNL A   1      33.520  35.892  33.097  1.00  0.00    -0.374 OA
BRANCH  22  23
ATOM     23  C   UNL A   1      34.646  35.030  33.259  1.00  0.00     0.202 C 
BRANCH  23  24
ATOM     24  C   UNL A   1      34.399  33.570  33.660  1.00  0.00     0.261 C 
BRANCH  24  25
ATOM     25  O   UNL A   1      35.209  32.644  32.919  1.00  0.00    -0.460 OA
BRANCH  25  26
ATOM     26  C   UNL A   1      36.374  32.317  33.531  1.00  0.00     0.338 C 
ATOM     27  O   UNL A   1      36.667  32.478  34.702  1.00  0.00    -0.246 OA
BRANCH  26  28
ATOM     28  C   UNL A   1      37.226  31.538  32.614  1.00  0.00     0.060 A 
ATOM     29  C   UNL A   1      38.267  30.795  33.187  1.00  0.00     0.016 A 
ATOM     30  C   UNL A   1      37.075  31.607  31.229  1.00  0.00     0.016 A 
ATOM     31  C   UNL A   1      39.200  30.164  32.374  1.00  0.00     0.010 A 
ATOM     32  C   UNL A   1      38.020  30.979  30.412  1.00  0.00     0.010 A 
ATOM     33  C   UNL A   1      39.109  30.293  30.982  1.00  0.00    -0.014 A 
BRANCH  33  34
ATOM     34  C   UNL A   1      40.242  29.844  30.142  1.00  0.00     0.031 A 
ATOM     35  C   UNL A   1      41.376  30.794  29.876  1.00  0.00     0.074 A 
ATOM     36  C   UNL A   1      40.279  28.594  29.652  1.00  0.00     0.049 A 
ATOM     37  N   UNL A   1      42.461  30.613  29.167  1.00  0.00    -0.248 NA
ATOM     38  C   UNL A   1      41.269  32.127  30.488  1.00  0.00     0.031 C 
ATOM     39  C   UNL A   1      39.259  27.570  29.871  1.00  0.00     0.029 A 
ATOM     40  N   UNL A   1      41.215  27.978  28.861  1.00  0.00    -0.354 N 
ATOM     41  C   UNL A   1      43.157  31.813  29.236  1.00  0.00     0.074 A 
ATOM     42  C   UNL A   1      42.358  32.723  30.029  1.00  0.00     0.031 C 
ATOM     43  C   UNL A   1      39.617  26.454  29.216  1.00  0.00     0.029 A 
ATOM     44  C   UNL A   1      40.874  26.697  28.508  1.00  0.00     0.049 A 
ATOM     45  H   UNL A   1      42.049  28.413  28.574  1.00  0.00     0.167 HD
ATOM     46  C   UNL A   1      44.356  32.129  28.690  1.00  0.00     0.031 A 
ATOM     47  C   UNL A   1      41.491  25.827  27.688  1.00  0.00     0.031 A 
ATOM     48  C   UNL A   1      45.139  31.229  27.886  1.00  0.00     0.049 A 
ATOM     49  C   UNL A   1      42.791  26.217  27.040  1.00  0.00     0.074 A 
ATOM     50  C   UNL A   1      46.382  31.440  27.315  1.00  0.00     0.029 A 
ATOM     51  N   UNL A   1      44.747  29.948  27.527  1.00  0.00    -0.354 N 
ATOM     52  N   UNL A   1      43.463  27.337  27.147  1.00  0.00    -0.248 NA
ATOM     53  C   UNL A   1      43.423  25.214  26.171  1.00  0.00     0.031 C 
ATOM     54  C   UNL A   1      46.709  30.312  26.554  1.00  0.00     0.029 A 
ATOM     55  C   UNL A   1      45.704  29.371  26.708  1.00  0.00     0.049 A 
ATOM     56  H   UNL A   1      43.911  29.513  27.813  1.00  0.00     0.167 HD
ATOM     57  C   UNL A   1      44.606  27.171  26.374  1.00  0.00     0.074 A 
ATOM     58  C   UNL A   1      44.543  25.834  25.819  1.00  0.00     0.031 C 
ATOM     59  C   UNL A   1      45.618  28.045  26.147  1.00  0.00     0.031 A 
BRANCH  46  60
ATOM     60  C   UNL A   1      44.857  33.532  28.902  1.00  0.00    -0.014 A 
ATOM     61  C   UNL A   1      44.632  34.547  27.958  1.00  0.00     0.009 A 
ATOM     62  C   UNL A   1      45.573  33.841  30.070  1.00  0.00     0.009 A 
ATOM     63  C   UNL A   1      45.159  35.826  28.154  1.00  0.00     0.001 A 
ATOM     64  C   UNL A   1      46.070  35.129  30.279  1.00  0.00     0.001 A 
ATOM     65  C   UNL A   1      45.875  36.116  29.315  1.00  0.00     0.000 A 
ENDBRANCH  46  60
BRANCH  47  66
ATOM     66  C   UNL A   1      40.860  24.510  27.417  1.00  0.00    -0.014 A 
ATOM     67  C   UNL A   1      39.751  24.402  26.566  1.00  0.00     0.009 A 
ATOM     68  C   UNL A   1      41.394  23.344  27.989  1.00  0.00     0.009 A 
ATOM     69  C   UNL A   1      39.182  23.153  26.303  1.00  0.00     0.001 A 
ATOM     70  C   UNL A   1      40.841  22.094  27.703  1.00  0.00     0.001 A 
ATOM     71  C   UNL A   1      39.732  22.001  26.864  1.00  0.00     0.000 A 
ENDBRANCH  47  66
BRANCH  59  72
ATOM     72  C   UNL A   1      46.752  27.577  25.277  1.00  0.00    -0.014 A 
ATOM     73  C   UNL A   1      47.756  26.733  25.775  1.00  0.00     0.009 A 
ATOM     74  C   UNL A   1      46.791  27.953  23.924  1.00  0.00     0.009 A 
ATOM     75  C   UNL A   1      48.793  26.302  24.945  1.00  0.00     0.001 A 
ATOM     76  C   UNL A   1      47.811  27.497  23.089  1.00  0.00     0.001 A 
ATOM     77  C   UNL A   1      48.818  26.680  23.603  1.00  0.00     0.000 A 
ENDBRANCH  59  72
ENDBRANCH  33  34
ENDBRANCH  26  28
ENDBRANCH  25  26
ENDBRANCH  24  25
ENDBRANCH  23  24
ENDBRANCH  22  23
ENDBRANCH   1  22
TORSDOF 17
ENDMDL
MODEL 2
REMARK VINA RESULT:     -10.2      0.462      5.964
REMARK SMILES O=C(N[C@@H]1C=C[C@@H](C(=O)OCCOCCOC(=O)c2ccc(-c3c4nc(c(-c5ccccc5)c5ccc([nH]5)c(-c5ccccc5)c5nc(c(-c6ccccc6)c6ccc3[nH]6)C=C5)C=C4)cc2)C1)Oc1ccccc1
REMARK SMILES IDX 12 1 11 2 10 3 8 4 9 5 7 6 4 7 5 8 67 9 6 10 3 11 1 12 2 13
REMARK SMILES IDX 68 15 69 16 70 17 74 18 71 19 73 20 72 21 13 22 14 23 15 24
REMARK SMILES IDX 16 25 17 26 18 27 19 28 20 29 66 30 21 31 65 32 22 33 23 34
REMARK SMILES IDX 24 35 59 36 25 37 64 38 58 39 60 40 26 41 63 42 57 43 56 44
REMARK SMILES IDX 27 46 49 47 34 48 48 49 35 50 38 51 47 52 61 53 36 54 37 55
REMARK SMILES IDX 46 57 62 58 39 59 28 60 29 61 33 62 30 63 32 64 31 65 50 66
REMARK SMILES IDX 51 67 55 68 52 69 54 70 53 71 40 72 41 73 45 74 42 75 44 76
REMARK SMILES IDX 43 77
REMARK H PARENT 3 14 60 45 38 56
REMARK Flexibility Score: inf
ROOT
ATOM      1  C   UNL A   1      33.836  36.925  32.567  1.00  0.00     0.202 C 
ENDROOT
BRANCH   1   2
ATOM      2  C   UNL A   1      33.324  37.063  31.129  1.00  0.00     0.261 C 
BRANCH   2   3
ATOM      3  O   UNL A   1      32.908  35.788  30.620  1.00  0.00    -0.463 OA
BRANCH   3   4
ATOM      4  C   UNL A   1      33.548  35.371  29.493  1.00  0.00     0.312 C 
ATOM      5  O   UNL A   1      33.478  35.939  28.408  1.00  0.00    -0.252 OA
BRANCH   4   6
ATOM      6  C   UNL A   1      34.524  34.231  29.797  1.00  0.00     0.124 C 
ATOM      7  C   UNL A   1      34.716  32.493  28.084  1.00  0.00     0.109 C 
ATOM      8  C   UNL A   1      35.881  33.428  28.066  1.00  0.00    -0.006 C 
ATOM      9  C   UNL A   1      34.076  32.800  29.443  1.00  0.00     0.049 C 
ATOM     10  C   UNL A   1      35.774  34.384  28.992  1.00  0.00    -0.014 C 
BRANCH   7  11
ATOM     11  N   UNL A   1      35.212  31.148  27.952  1.00  0.00    -0.315 N 
ATOM     12  O   UNL A   1      35.291  29.006  27.323  1.00  0.00    -0.224 OA
ATOM     13  C   UNL A   1      34.587  29.983  27.581  1.00  0.00     0.413 C 
ATOM     14  H   UNL A   1      36.167  31.045  28.166  1.00  0.00     0.167 HD
BRANCH  13  15
ATOM     15  O   UNL A   1      33.185  29.890  27.445  1.00  0.00    -0.410 OA
BRANCH  15  16
ATOM     16  C   UNL A   1      32.447  29.098  26.540  1.00  0.00     0.132 A 
ATOM     17  C   UNL A   1      31.922  27.884  26.973  1.00  0.00     0.047 A 
ATOM     18  C   UNL A   1      32.274  29.545  25.233  1.00  0.00     0.047 A 
ATOM     19  C   UNL A   1      31.114  27.155  26.100  1.00  0.00     0.004 A 
ATOM     20  C   UNL A   1      31.416  28.844  24.389  1.00  0.00     0.004 A 
ATOM     21  C   UNL A   1      30.831  27.655  24.825  1.00  0.00     0.000 A 
ENDBRANCH  15  16
ENDBRANCH  13  15
ENDBRANCH   7  11
ENDBRANCH   4   6
ENDBRANCH   3   4
ENDBRANCH   2   3
ENDBRANCH   1   2
BRANCH   1  22
ATOM     22  O   UNL A   1      33.656  35.663  33.208  1.00  0.00    -0.374 OA
BRANCH  22  23
ATOM     23  C   UNL A   1      34.815  34.901  33.546  1.00  0.00     0.202 C 
BRANCH  23  24
ATOM     24  C   UNL A   1      34.647  33.407  33.848  1.00  0.00     0.261 C 
BRANCH  24  25
ATOM     25  O   UNL A   1      35.468  32.574  33.014  1.00  0.00    -0.460 OA
BRANCH  25  26
ATOM     26  C   UNL A   1      36.633  32.191  33.593  1.00  0.00     0.338 C 
ATOM     27  O   UNL A   1      36.930  32.252  34.773  1.00  0.00    -0.246 OA
BRANCH  26  28
ATOM     28  C   UNL A   1      37.479  31.489  32.611  1.00  0.00     0.060 A 
ATOM     29  C   UNL A   1      38.546  30.734  33.114  1.00  0.00     0.016 A 
ATOM     30  C   UNL A   1      37.296  31.641  31.236  1.00  0.00     0.016 A 
ATOM     31  C   UNL A   1      39.474  30.174  32.243  1.00  0.00     0.010 A 
ATOM     32  C   UNL A   1      38.235  31.086  30.362  1.00  0.00     0.010 A 
ATOM     33  C   UNL A   1      39.349  30.388  30.865  1.00  0.00    -0.014 A 
BRANCH  33  34
ATOM     34  C   UNL A   1      40.472  30.016  29.974  1.00  0.00     0.031 A 
ATOM     35  C   UNL A   1      40.432  28.692  29.264  1.00  0.00     0.074 A 
ATOM     36  C   UNL A   1      41.495  30.862  29.770  1.00  0.00     0.049 A 
ATOM     37  N   UNL A   1      41.305  28.163  28.445  1.00  0.00    -0.248 NA
ATOM     38  C   UNL A   1      39.252  27.850  29.515  1.00  0.00     0.031 C 
ATOM     39  C   UNL A   1      41.628  32.187  30.371  1.00  0.00     0.029 A 
ATOM     40  N   UNL A   1      42.622  30.722  29.001  1.00  0.00    -0.354 N 
ATOM     41  C   UNL A   1      40.787  26.922  28.096  1.00  0.00     0.074 A 
ATOM     42  C   UNL A   1      39.541  26.765  28.815  1.00  0.00     0.031 C 
ATOM     43  C   UNL A   1      42.783  32.735  29.959  1.00  0.00     0.029 A 
ATOM     44  C   UNL A   1      43.481  31.787  29.093  1.00  0.00     0.049 A 
ATOM     45  H   UNL A   1      42.797  29.933  28.439  1.00  0.00     0.167 HD
ATOM     46  C   UNL A   1      41.301  25.997  27.251  1.00  0.00     0.031 A 
ATOM     47  C   UNL A   1      44.703  31.968  28.559  1.00  0.00     0.031 A 
ATOM     48  C   UNL A   1      42.550  26.148  26.552  1.00  0.00     0.049 A 
ATOM     49  C   UNL A   1      45.286  30.903  27.671  1.00  0.00     0.074 A 
ATOM     50  C   UNL A   1      43.143  25.285  25.647  1.00  0.00     0.029 A 
ATOM     51  N   UNL A   1      43.406  27.230  26.692  1.00  0.00    -0.354 N 
ATOM     52  N   UNL A   1      44.770  29.753  27.312  1.00  0.00    -0.248 NA
ATOM     53  C   UNL A   1      46.616  31.170  27.105  1.00  0.00     0.031 C 
ATOM     54  C   UNL A   1      44.390  25.814  25.294  1.00  0.00     0.029 A 
ATOM     55  C   UNL A   1      44.542  27.039  25.923  1.00  0.00     0.049 A 
ATOM     56  H   UNL A   1      43.232  28.019  27.256  1.00  0.00     0.167 HD
ATOM     57  C   UNL A   1      45.700  29.165  26.464  1.00  0.00     0.074 A 
ATOM     58  C   UNL A   1      46.806  30.096  26.350  1.00  0.00     0.031 C 
ATOM     59  C   UNL A   1      45.643  27.965  25.834  1.00  0.00     0.031 A 
BRANCH  46  60
ATOM     60  C   UNL A   1      40.532  24.714  27.088  1.00  0.00    -0.014 A 
ATOM     61  C   UNL A   1      41.014  23.495  27.590  1.00  0.00     0.009 A 
ATOM     62  C   UNL A   1      39.300  24.728  26.413  1.00  0.00     0.009 A 
ATOM     63  C   UNL A   1      40.306  22.310  27.374  1.00  0.00     0.001 A 
ATOM     64  C   UNL A   1      38.579  23.548  26.228  1.00  0.00     0.001 A 
ATOM     65  C   UNL A   1      39.088  22.338  26.695  1.00  0.00     0.000 A 
ENDBRANCH  46  60
BRANCH  47  66
ATOM     66  C   UNL A   1      45.462  33.203  28.881  1.00  0.00    -0.014 A 
ATOM     67  C   UNL A   1      45.274  34.380  28.143  1.00  0.00     0.009 A 
ATOM     68  C   UNL A   1      46.362  33.214  29.959  1.00  0.00     0.009 A 
ATOM     69  C   UNL A   1      45.979  35.540  28.471  1.00  0.00     0.001 A 
ATOM     70  C   UNL A   1      47.045  34.382  30.303  1.00  0.00     0.001 A 
ATOM     71  C   UNL A   1      46.857  35.543  29.555  1.00  0.00     0.000 A 
ENDBRANCH  47  66
BRANCH  59  72
ATOM     72  C   UNL A   1      46.801  27.597  24.947  1.00  0.00    -0.014 A 
ATOM     73  C   UNL A   1      46.890  28.067  23.628  1.00  0.00     0.009 A 
ATOM     74  C   UNL A   1      47.840  26.801  25.455  1.00  0.00     0.009 A 
ATOM     75  C   UNL A   1      47.979  27.720  22.826  1.00  0.00     0.001 A 
ATOM     76  C   UNL A   1      48.942  26.481  24.662  1.00  0.00     0.001 A 
ATOM     77  C   UNL A   1      49.007  26.932  23.344  1.00  0.00     0.000 A 
ENDBRANCH  59  72
ENDBRANCH  33  34
ENDBRANCH  26  28
ENDBRANCH  25  26
ENDBRANCH  24  25
ENDBRANCH  23  24
ENDBRANCH  22  23
ENDBRANCH   1  22
TORSDOF 17
ENDMDL
MODEL 3
REMARK VINA RESULT:     -10.0      4.435      7.412
REMARK SMILES O=C(N[C@@H]1C=C[C@@H](C(=O)OCCOCCOC(=O)c2ccc(-c3c4nc(c(-c5ccccc5)c5ccc([nH]5)c(-c5ccccc5)c5nc(c(-c6ccccc6)c6ccc3[nH]6)C=C5)C=C4)cc2)C1)Oc1ccccc1
REMARK SMILES IDX 12 1 11 2 10 3 8 4 9 5 7 6 4 7 5 8 67 9 6 10 3 11 1 12 2 13
REMARK SMILES IDX 68 15 69 16 70 17 74 18 71 19 73 20 72 21 13 22 14 23 15 24
REMARK SMILES IDX 16 25 17 26 18 27 19 28 20 29 66 30 21 31 65 32 22 33 23 34
REMARK SMILES IDX 24 35 59 36 25 37 64 38 58 39 60 40 26 41 63 42 57 43 56 44
REMARK SMILES IDX 27 46 49 47 34 48 48 49 35 50 38 51 47 52 61 53 36 54 37 55
REMARK SMILES IDX 46 57 62 58 39 59 28 60 29 61 33 62 30 63 32 64 31 65 50 66
REMARK SMILES IDX 51 67 55 68 52 69 54 70 53 71 40 72 41 73 45 74 42 75 44 76
REMARK SMILES IDX 43 77
REMARK H PARENT 3 14 60 45 38 56
REMARK Flexibility Score: inf
ROOT
ATOM      1  C   UNL A   1      34.980  33.241  28.325  1.00  0.00     0.202 C 
ENDROOT
BRANCH   1   2
ATOM      2  C   UNL A   1      34.819  31.742  28.605  1.00  0.00     0.261 C 
BRANCH   2   3
ATOM      3  O   UNL A   1      34.524  31.033  27.394  1.00  0.00    -0.463 OA
BRANCH   3   4
ATOM      4  C   UNL A   1      33.234  30.620  27.258  1.00  0.00     0.312 C 
ATOM      5  O   UNL A   1      32.286  31.370  27.049  1.00  0.00    -0.252 OA
BRANCH   4   6
ATOM      6  C   UNL A   1      33.142  29.093  27.193  1.00  0.00     0.124 C 
ATOM      7  C   UNL A   1      31.772  28.173  25.385  1.00  0.00     0.109 C 
ATOM      8  C   UNL A   1      33.234  28.054  25.097  1.00  0.00    -0.006 C 
ATOM      9  C   UNL A   1      31.763  28.477  26.888  1.00  0.00     0.049 C 
ATOM     10  C   UNL A   1      33.983  28.566  26.076  1.00  0.00    -0.014 C 
BRANCH   7  11
ATOM     11  N   UNL A   1      31.137  26.930  25.028  1.00  0.00    -0.315 N 
ATOM     12  O   UNL A   1      30.308  25.309  23.736  1.00  0.00    -0.224 OA
ATOM     13  C   UNL A   1      30.578  26.505  23.849  1.00  0.00     0.413 C 
ATOM     14  H   UNL A   1      31.096  26.271  25.757  1.00  0.00     0.167 HD
BRANCH  13  15
ATOM     15  O   UNL A   1      30.352  27.377  22.763  1.00  0.00    -0.410 OA
BRANCH  15  16
ATOM     16  C   UNL A   1      29.471  28.477  22.696  1.00  0.00     0.132 A 
ATOM     17  C   UNL A   1      28.140  28.303  23.063  1.00  0.00     0.047 A 
ATOM     18  C   UNL A   1      29.952  29.706  22.253  1.00  0.00     0.047 A 
ATOM     19  C   UNL A   1      27.300  29.417  23.087  1.00  0.00     0.004 A 
ATOM     20  C   UNL A   1      29.126  30.824  22.338  1.00  0.00     0.004 A 
ATOM     21  C   UNL A   1      27.804  30.680  22.762  1.00  0.00     0.000 A 
ENDBRANCH  15  16
ENDBRANCH  13  15
ENDBRANCH   7  11
ENDBRANCH   4   6
ENDBRANCH   3   4
ENDBRANCH   2   3
ENDBRANCH   1   2
BRANCH   1  22
ATOM     22  O   UNL A   1      33.799  34.042  28.357  1.00  0.00    -0.374 OA
BRANCH  22  23
ATOM     23  C   UNL A   1      33.933  35.435  28.637  1.00  0.00     0.202 C 
BRANCH  23  24
ATOM     24  C   UNL A   1      32.990  36.069  29.668  1.00  0.00     0.261 C 
BRANCH  24  25
ATOM     25  O   UNL A   1      32.614  35.158  30.713  1.00  0.00    -0.460 OA
BRANCH  25  26
ATOM     26  C   UNL A   1      32.811  35.642  31.964  1.00  0.00     0.338 C 
ATOM     27  O   UNL A   1      32.093  36.405  32.586  1.00  0.00    -0.246 OA
BRANCH  26  28
ATOM     28  C   UNL A   1      33.960  34.967  32.593  1.00  0.00     0.060 A 
ATOM     29  C   UNL A   1      35.209  35.592  32.480  1.00  0.00     0.016 A 
ATOM     30  C   UNL A   1      33.841  33.712  33.192  1.00  0.00     0.016 A 
ATOM     31  C   UNL A   1      36.356  34.937  32.912  1.00  0.00     0.010 A 
ATOM     32  C   UNL A   1      34.997  33.051  33.617  1.00  0.00     0.010 A 
ATOM     33  C   UNL A   1      36.261  33.644  33.439  1.00  0.00    -0.014 A 
BRANCH  33  34
ATOM     34  C   UNL A   1      37.499  32.860  33.651  1.00  0.00     0.031 A 
ATOM     35  C   UNL A   1      38.294  33.076  34.908  1.00  0.00     0.074 A 
ATOM     36  C   UNL A   1      37.891  31.941  32.753  1.00  0.00     0.049 A 
ATOM     37  N   UNL A   1      39.406  32.505  35.295  1.00  0.00    -0.248 NA
ATOM     38  C   UNL A   1      37.765  34.073  35.852  1.00  0.00     0.031 C 
ATOM     39  C   UNL A   1      37.185  31.614  31.516  1.00  0.00     0.029 A 
ATOM     40  N   UNL A   1      38.988  31.117  32.748  1.00  0.00    -0.354 N 
ATOM     41  C   UNL A   1      39.718  33.084  36.519  1.00  0.00     0.074 A 
ATOM     42  C   UNL A   1      38.695  34.070  36.795  1.00  0.00     0.031 C 
ATOM     43  C   UNL A   1      37.877  30.667  30.860  1.00  0.00     0.029 A 
ATOM     44  C   UNL A   1      39.085  30.346  31.617  1.00  0.00     0.049 A 
ATOM     45  H   UNL A   1      39.641  31.084  33.483  1.00  0.00     0.167 HD
ATOM     46  C   UNL A   1      40.760  32.816  37.341  1.00  0.00     0.031 A 
ATOM     47  C   UNL A   1      40.052  29.497  31.225  1.00  0.00     0.031 A 
ATOM     48  C   UNL A   1      41.786  31.848  37.056  1.00  0.00     0.049 A 
ATOM     49  C   UNL A   1      41.235  29.257  32.123  1.00  0.00     0.074 A 
ATOM     50  C   UNL A   1      42.865  31.478  37.838  1.00  0.00     0.029 A 
ATOM     51  N   UNL A   1      41.866  31.107  35.887  1.00  0.00    -0.354 N 
ATOM     52  N   UNL A   1      41.498  29.775  33.297  1.00  0.00    -0.248 NA
ATOM     53  C   UNL A   1      42.246  28.303  31.644  1.00  0.00     0.031 C 
ATOM     54  C   UNL A   1      43.636  30.563  37.111  1.00  0.00     0.029 A 
ATOM     55  C   UNL A   1      42.999  30.310  35.907  1.00  0.00     0.049 A 
ATOM     56  H   UNL A   1      41.213  31.141  35.150  1.00  0.00     0.167 HD
ATOM     57  C   UNL A   1      42.694  29.200  33.709  1.00  0.00     0.074 A 
ATOM     58  C   UNL A   1      43.094  28.279  32.664  1.00  0.00     0.031 C 
ATOM     59  C   UNL A   1      43.395  29.412  34.851  1.00  0.00     0.031 A 
BRANCH  46  60
ATOM     60  C   UNL A   1      40.866  33.632  38.601  1.00  0.00    -0.014 A 
ATOM     61  C   UNL A   1      41.568  34.848  38.637  1.00  0.00     0.009 A 
ATOM     62  C   UNL A   1      40.254  33.169  39.778  1.00  0.00     0.009 A 
ATOM     63  C   UNL A   1      41.698  35.555  39.835  1.00  0.00     0.001 A 
ATOM     64  C   UNL A   1      40.358  33.894  40.965  1.00  0.00     0.001 A 
ATOM     65  C   UNL A   1      41.092  35.078  40.997  1.00  0.00     0.000 A 
ENDBRANCH  46  60
BRANCH  47  66
ATOM     66  C   UNL A   1      39.945  28.834  29.900  1.00  0.00    -0.014 A 
ATOM     67  C   UNL A   1      40.373  29.482  28.732  1.00  0.00     0.009 A 
ATOM     68  C   UNL A   1      39.439  27.527  29.806  1.00  0.00     0.009 A 
ATOM     69  C   UNL A   1      40.286  28.837  27.495  1.00  0.00     0.001 A 
ATOM     70  C   UNL A   1      39.380  26.875  28.573  1.00  0.00     0.001 A 
ATOM     71  C   UNL A   1      39.798  27.533  27.418  1.00  0.00     0.000 A 
ENDBRANCH  47  66
BRANCH  59  72
ATOM     72  C   UNL A   1      44.659  28.619  35.041  1.00  0.00    -0.014 A 
ATOM     73  C   UNL A   1      45.907  29.127  34.647  1.00  0.00     0.009 A 
ATOM     74  C   UNL A   1      44.604  27.362  35.664  1.00  0.00     0.009 A 
ATOM     75  C   UNL A   1      47.069  28.377  34.842  1.00  0.00     0.001 A 
ATOM     76  C   UNL A   1      45.770  26.628  35.886  1.00  0.00     0.001 A 
ATOM     77  C   UNL A   1      47.000  27.131  35.466  1.00  0.00     0.000 A 
ENDBRANCH  59  72
ENDBRANCH  33  34
ENDBRANCH  26  28
ENDBRANCH  25  26
ENDBRANCH  24  25
ENDBRANCH  23  24
ENDBRANCH  22  23
ENDBRANCH   1  22
TORSDOF 17
ENDMDL
