MODEL 1
REMARK VINA RESULT:     -10.1      0.000      0.000
REMARK SMILES O=CN[C@H](C(=O)OCCOCCOC(=O)c1ccc(-c2c3nc(c(-c4ccccc4)c4ccc([nH]4)c(-c4ccccc4)c4nc(c(-c5ccccc5)c5ccc2[nH]5)C=C4)C=C3)cc1)[C@@H]1CCO[C@@]2(CCOC2)C1
REMARK SMILES IDX 11 1 10 2 9 3 8 4 7 5 5 6 6 7 4 8 3 9 1 10 2 11 64 13 65 14
REMARK SMILES IDX 73 15 66 16 68 17 67 18 69 19 72 20 70 21 71 22 12 23 13 24
REMARK SMILES IDX 14 25 15 26 16 27 17 28 63 29 18 30 62 31 19 32 20 33 21 34
REMARK SMILES IDX 56 35 22 36 61 37 55 38 57 39 23 40 60 41 54 42 53 43 24 45
REMARK SMILES IDX 46 46 31 47 45 48 32 49 35 50 44 51 58 52 33 53 34 54 43 56
REMARK SMILES IDX 59 57 36 58 25 59 26 60 30 61 27 62 29 63 28 64 47 65 48 66
REMARK SMILES IDX 52 67 49 68 51 69 50 70 37 71 38 72 42 73 39 74 41 75 40 76
REMARK H PARENT 3 12 57 44 35 55
REMARK Flexibility Score: inf
ROOT
ATOM      1  C   UNL A   1      35.999  20.308  24.993  1.00  0.00     0.202 C 
ENDROOT
BRANCH   1   2
ATOM      2  O   UNL A   1      35.246  21.449  24.591  1.00  0.00    -0.374 OA
BRANCH   2   3
ATOM      3  C   UNL A   1      33.903  21.230  24.150  1.00  0.00     0.202 C 
BRANCH   3   4
ATOM      4  C   UNL A   1      33.003  22.473  24.120  1.00  0.00     0.261 C 
BRANCH   4   5
ATOM      5  O   UNL A   1      33.730  23.585  24.674  1.00  0.00    -0.462 OA
BRANCH   5   6
ATOM      6  C   UNL A   1      33.437  23.969  25.955  1.00  0.00     0.329 C 
ATOM      7  O   UNL A   1      34.018  23.573  26.954  1.00  0.00    -0.250 OA
BRANCH   6   8
ATOM      8  C   UNL A   1      32.430  25.161  25.910  1.00  0.00     0.195 C 
BRANCH   8   9
ATOM      9  N   UNL A   1      31.227  24.755  26.659  1.00  0.00    -0.345 N 
ATOM     10  O   UNL A   1      29.805  23.229  27.538  1.00  0.00    -0.279 OA
ATOM     11  C   UNL A   1      30.534  23.588  26.625  1.00  0.00     0.337 C 
ATOM     12  H   UNL A   1      30.873  25.432  27.279  1.00  0.00     0.164 HD
ENDBRANCH   8   9
BRANCH   8  13
ATOM     13  C   UNL A   1      33.117  26.508  26.248  1.00  0.00     0.028 C 
ATOM     14  C   UNL A   1      32.270  27.529  26.981  1.00  0.00     0.035 C 
ATOM     15  C   UNL A   1      33.759  27.211  25.034  1.00  0.00     0.044 C 
ATOM     16  C   UNL A   1      31.305  28.286  26.084  1.00  0.00     0.161 C 
ATOM     17  C   UNL A   1      32.750  27.877  24.087  1.00  0.00     0.094 C 
ATOM     18  O   UNL A   1      31.700  28.573  24.750  1.00  0.00    -0.372 OA
ATOM     19  C   UNL A   1      33.430  28.919  23.191  1.00  0.00     0.066 C 
ATOM     20  C   UNL A   1      32.277  26.939  22.961  1.00  0.00     0.195 C 
ATOM     21  C   UNL A   1      34.042  28.122  22.060  1.00  0.00     0.163 C 
ATOM     22  O   UNL A   1      33.318  26.892  21.976  1.00  0.00    -0.378 OA
ENDBRANCH   8  13
ENDBRANCH   6   8
ENDBRANCH   5   6
ENDBRANCH   4   5
ENDBRANCH   3   4
ENDBRANCH   2   3
ENDBRANCH   1   2
BRANCH   1  23
ATOM     23  C   UNL A   1      37.524  20.421  24.893  1.00  0.00     0.261 C 
BRANCH  23  24
ATOM     24  O   UNL A   1      38.024  21.555  25.623  1.00  0.00    -0.460 OA
BRANCH  24  25
ATOM     25  C   UNL A   1      39.251  21.373  26.171  1.00  0.00     0.338 C 
ATOM     26  O   UNL A   1      39.971  20.395  26.066  1.00  0.00    -0.246 OA
BRANCH  25  27
ATOM     27  C   UNL A   1      39.721  22.623  26.791  1.00  0.00     0.060 A 
ATOM     28  C   UNL A   1      39.130  23.813  26.350  1.00  0.00     0.016 A 
ATOM     29  C   UNL A   1      40.773  22.648  27.706  1.00  0.00     0.016 A 
ATOM     30  C   UNL A   1      39.617  25.038  26.794  1.00  0.00     0.010 A 
ATOM     31  C   UNL A   1      41.268  23.883  28.145  1.00  0.00     0.010 A 
ATOM     32  C   UNL A   1      40.713  25.082  27.666  1.00  0.00    -0.014 A 
BRANCH  32  33
ATOM     33  C   UNL A   1      41.330  26.394  27.975  1.00  0.00     0.031 A 
ATOM     34  C   UNL A   1      42.665  26.743  27.380  1.00  0.00     0.074 A 
ATOM     35  C   UNL A   1      40.673  27.292  28.729  1.00  0.00     0.049 A 
ATOM     36  N   UNL A   1      43.348  27.858  27.473  1.00  0.00    -0.248 NA
ATOM     37  C   UNL A   1      43.317  25.702  26.568  1.00  0.00     0.031 C 
ATOM     38  C   UNL A   1      39.359  27.085  29.334  1.00  0.00     0.029 A 
ATOM     39  N   UNL A   1      41.022  28.565  29.104  1.00  0.00    -0.354 N 
ATOM     40  C   UNL A   1      44.507  27.651  26.737  1.00  0.00     0.074 A 
ATOM     41  C   UNL A   1      44.451  26.297  26.228  1.00  0.00     0.031 C 
ATOM     42  C   UNL A   1      39.009  28.197  30.004  1.00  0.00     0.029 A 
ATOM     43  C   UNL A   1      40.085  29.179  29.897  1.00  0.00     0.049 A 
ATOM     44  H   UNL A   1      41.864  28.996  28.831  1.00  0.00     0.167 HD
ATOM     45  C   UNL A   1      45.526  28.513  26.500  1.00  0.00     0.031 A 
ATOM     46  C   UNL A   1      40.099  30.392  30.481  1.00  0.00     0.031 A 
ATOM     47  C   UNL A   1      45.593  29.853  27.023  1.00  0.00     0.049 A 
ATOM     48  C   UNL A   1      41.273  31.306  30.260  1.00  0.00     0.074 A 
ATOM     49  C   UNL A   1      46.573  30.810  26.820  1.00  0.00     0.029 A 
ATOM     50  N   UNL A   1      44.649  30.420  27.864  1.00  0.00    -0.354 N 
ATOM     51  N   UNL A   1      42.344  31.116  29.526  1.00  0.00    -0.248 NA
ATOM     52  C   UNL A   1      41.232  32.609  30.939  1.00  0.00     0.031 C 
ATOM     53  C   UNL A   1      46.252  31.934  27.589  1.00  0.00     0.029 A 
ATOM     54  C   UNL A   1      45.040  31.702  28.218  1.00  0.00     0.049 A 
ATOM     55  H   UNL A   1      43.823  29.978  28.166  1.00  0.00     0.167 HD
ATOM     56  C   UNL A   1      43.092  32.280  29.638  1.00  0.00     0.074 A 
ATOM     57  C   UNL A   1      42.343  33.179  30.492  1.00  0.00     0.031 C 
ATOM     58  C   UNL A   1      44.293  32.580  29.081  1.00  0.00     0.031 A 
BRANCH  45  59
ATOM     59  C   UNL A   1      46.675  28.012  25.668  1.00  0.00    -0.014 A 
ATOM     60  C   UNL A   1      47.822  27.458  26.260  1.00  0.00     0.009 A 
ATOM     61  C   UNL A   1      46.597  28.073  24.269  1.00  0.00     0.009 A 
ATOM     62  C   UNL A   1      48.880  27.009  25.467  1.00  0.00     0.001 A 
ATOM     63  C   UNL A   1      47.644  27.596  23.477  1.00  0.00     0.001 A 
ATOM     64  C   UNL A   1      48.788  27.074  24.077  1.00  0.00     0.000 A 
ENDBRANCH  45  59
BRANCH  46  65
ATOM     65  C   UNL A   1      38.966  30.808  31.348  1.00  0.00    -0.014 A 
ATOM     66  C   UNL A   1      37.916  31.586  30.836  1.00  0.00     0.009 A 
ATOM     67  C   UNL A   1      38.933  30.429  32.699  1.00  0.00     0.009 A 
ATOM     68  C   UNL A   1      36.869  31.993  31.666  1.00  0.00     0.001 A 
ATOM     69  C   UNL A   1      37.871  30.813  33.519  1.00  0.00     0.001 A 
ATOM     70  C   UNL A   1      36.845  31.601  33.004  1.00  0.00     0.000 A 
ENDBRANCH  46  65
BRANCH  58  71
ATOM     71  C   UNL A   1      44.856  33.947  29.362  1.00  0.00    -0.014 A 
ATOM     72  C   UNL A   1      44.543  35.048  28.550  1.00  0.00     0.009 A 
ATOM     73  C   UNL A   1      45.695  34.138  30.472  1.00  0.00     0.009 A 
ATOM     74  C   UNL A   1      45.093  36.304  28.819  1.00  0.00     0.001 A 
ATOM     75  C   UNL A   1      46.217  35.402  30.757  1.00  0.00     0.001 A 
ATOM     76  C   UNL A   1      45.926  36.480  29.924  1.00  0.00     0.000 A 
ENDBRANCH  58  71
ENDBRANCH  32  33
ENDBRANCH  25  27
ENDBRANCH  24  25
ENDBRANCH  23  24
ENDBRANCH   1  23
TORSDOF 16
ENDMDL
MODEL 2
REMARK VINA RESULT:     -10.0      2.615      3.693
REMARK SMILES O=CN[C@H](C(=O)OCCOCCOC(=O)c1ccc(-c2c3nc(c(-c4ccccc4)c4ccc([nH]4)c(-c4ccccc4)c4nc(c(-c5ccccc5)c5ccc2[nH]5)C=C4)C=C3)cc1)[C@@H]1CCO[C@@]2(CCOC2)C1
REMARK SMILES IDX 11 1 10 2 9 3 8 4 7 5 5 6 6 7 4 8 3 9 1 10 2 11 64 13 65 14
REMARK SMILES IDX 73 15 66 16 68 17 67 18 69 19 72 20 70 21 71 22 12 23 13 24
REMARK SMILES IDX 14 25 15 26 16 27 17 28 63 29 18 30 62 31 19 32 20 33 21 34
REMARK SMILES IDX 56 35 22 36 61 37 55 38 57 39 23 40 60 41 54 42 53 43 24 45
REMARK SMILES IDX 46 46 31 47 45 48 32 49 35 50 44 51 58 52 33 53 34 54 43 56
REMARK SMILES IDX 59 57 36 58 25 59 26 60 30 61 27 62 29 63 28 64 47 65 48 66
REMARK SMILES IDX 52 67 49 68 51 69 50 70 37 71 38 72 42 73 39 74 41 75 40 76
REMARK H PARENT 3 12 57 44 35 55
REMARK Flexibility Score: inf
ROOT
ATOM      1  C   UNL A   1      35.638  22.229  24.445  1.00  0.00     0.202 C 
ENDROOT
BRANCH   1   2
ATOM      2  O   UNL A   1      34.312  21.722  24.562  1.00  0.00    -0.374 OA
BRANCH   2   3
ATOM      3  C   UNL A   1      33.895  21.256  25.848  1.00  0.00     0.202 C 
BRANCH   3   4
ATOM      4  C   UNL A   1      32.861  22.131  26.569  1.00  0.00     0.261 C 
BRANCH   4   5
ATOM      5  O   UNL A   1      33.052  23.500  26.167  1.00  0.00    -0.462 OA
BRANCH   5   6
ATOM      6  C   UNL A   1      32.028  24.382  26.390  1.00  0.00     0.329 C 
ATOM      7  O   UNL A   1      31.181  24.263  27.262  1.00  0.00    -0.250 OA
BRANCH   6   8
ATOM      8  C   UNL A   1      32.267  25.665  25.532  1.00  0.00     0.195 C 
BRANCH   8   9
ATOM      9  N   UNL A   1      32.601  25.227  24.165  1.00  0.00    -0.345 N 
ATOM     10  O   UNL A   1      34.035  24.783  22.471  1.00  0.00    -0.279 OA
ATOM     11  C   UNL A   1      33.700  25.488  23.412  1.00  0.00     0.337 C 
ATOM     12  H   UNL A   1      31.924  24.660  23.731  1.00  0.00     0.164 HD
ENDBRANCH   8   9
BRANCH   8  13
ATOM     13  C   UNL A   1      31.148  26.715  25.743  1.00  0.00     0.028 C 
ATOM     14  C   UNL A   1      30.401  27.160  24.501  1.00  0.00     0.035 C 
ATOM     15  C   UNL A   1      31.604  27.980  26.498  1.00  0.00     0.044 C 
ATOM     16  C   UNL A   1      31.154  28.180  23.663  1.00  0.00     0.161 C 
ATOM     17  C   UNL A   1      32.454  28.944  25.656  1.00  0.00     0.094 C 
ATOM     18  O   UNL A   1      31.982  29.126  24.325  1.00  0.00    -0.372 OA
ATOM     19  C   UNL A   1      32.485  30.346  26.275  1.00  0.00     0.066 C 
ATOM     20  C   UNL A   1      33.963  28.657  25.760  1.00  0.00     0.195 C 
ATOM     21  C   UNL A   1      33.545  30.274  27.353  1.00  0.00     0.163 C 
ATOM     22  O   UNL A   1      34.417  29.195  27.009  1.00  0.00    -0.378 OA
ENDBRANCH   8  13
ENDBRANCH   6   8
ENDBRANCH   5   6
ENDBRANCH   4   5
ENDBRANCH   3   4
ENDBRANCH   2   3
ENDBRANCH   1   2
BRANCH   1  23
ATOM     23  C   UNL A   1      36.461  22.305  25.736  1.00  0.00     0.261 C 
BRANCH  23  24
ATOM     24  O   UNL A   1      37.421  23.376  25.693  1.00  0.00    -0.460 OA
BRANCH  24  25
ATOM     25  C   UNL A   1      38.666  23.028  26.102  1.00  0.00     0.338 C 
ATOM     26  O   UNL A   1      39.262  21.992  25.863  1.00  0.00    -0.246 OA
BRANCH  25  27
ATOM     27  C   UNL A   1      39.325  24.174  26.752  1.00  0.00     0.060 A 
ATOM     28  C   UNL A   1      39.073  24.363  28.116  1.00  0.00     0.016 A 
ATOM     29  C   UNL A   1      40.091  25.093  26.035  1.00  0.00     0.016 A 
ATOM     30  C   UNL A   1      39.555  25.498  28.761  1.00  0.00     0.010 A 
ATOM     31  C   UNL A   1      40.567  26.239  26.684  1.00  0.00     0.010 A 
ATOM     32  C   UNL A   1      40.274  26.462  28.041  1.00  0.00    -0.014 A 
BRANCH  32  33
ATOM     33  C   UNL A   1      40.612  27.744  28.702  1.00  0.00     0.031 A 
ATOM     34  C   UNL A   1      42.007  27.969  29.213  1.00  0.00     0.074 A 
ATOM     35  C   UNL A   1      39.697  28.725  28.788  1.00  0.00     0.049 A 
ATOM     36  N   UNL A   1      42.526  29.039  29.764  1.00  0.00    -0.248 NA
ATOM     37  C   UNL A   1      42.946  26.843  29.080  1.00  0.00     0.031 C 
ATOM     38  C   UNL A   1      38.322  28.641  28.301  1.00  0.00     0.029 A 
ATOM     39  N   UNL A   1      39.796  29.991  29.309  1.00  0.00    -0.354 N 
ATOM     40  C   UNL A   1      43.846  28.714  30.047  1.00  0.00     0.074 A 
ATOM     41  C   UNL A   1      44.042  27.340  29.634  1.00  0.00     0.031 C 
ATOM     42  C   UNL A   1      37.703  29.810  28.542  1.00  0.00     0.029 A 
ATOM     43  C   UNL A   1      38.629  30.710  29.225  1.00  0.00     0.049 A 
ATOM     44  H   UNL A   1      40.623  30.349  29.705  1.00  0.00     0.167 HD
ATOM     45  C   UNL A   1      44.812  29.491  30.596  1.00  0.00     0.031 A 
ATOM     46  C   UNL A   1      38.338  31.950  29.661  1.00  0.00     0.031 A 
ATOM     47  C   UNL A   1      44.612  30.850  31.025  1.00  0.00     0.049 A 
ATOM     48  C   UNL A   1      39.408  32.769  30.330  1.00  0.00     0.074 A 
ATOM     49  C   UNL A   1      45.535  31.726  31.572  1.00  0.00     0.029 A 
ATOM     50  N   UNL A   1      43.403  31.526  30.971  1.00  0.00    -0.354 N 
ATOM     51  N   UNL A   1      40.664  32.467  30.552  1.00  0.00    -0.248 NA
ATOM     52  C   UNL A   1      39.019  34.108  30.796  1.00  0.00     0.031 C 
ATOM     53  C   UNL A   1      44.868  32.911  31.905  1.00  0.00     0.029 A 
ATOM     54  C   UNL A   1      43.546  32.797  31.506  1.00  0.00     0.049 A 
ATOM     55  H   UNL A   1      42.566  31.158  30.606  1.00  0.00     0.167 HD
ATOM     56  C   UNL A   1      41.221  33.583  31.163  1.00  0.00     0.074 A 
ATOM     57  C   UNL A   1      40.171  34.577  31.256  1.00  0.00     0.031 C 
ATOM     58  C   UNL A   1      42.489  33.770  31.607  1.00  0.00     0.031 A 
BRANCH  45  59
ATOM     59  C   UNL A   1      46.165  28.868  30.801  1.00  0.00    -0.014 A 
ATOM     60  C   UNL A   1      47.162  28.937  29.813  1.00  0.00     0.009 A 
ATOM     61  C   UNL A   1      46.457  28.224  32.013  1.00  0.00     0.009 A 
ATOM     62  C   UNL A   1      48.408  28.343  30.023  1.00  0.00     0.001 A 
ATOM     63  C   UNL A   1      47.713  27.656  32.232  1.00  0.00     0.001 A 
ATOM     64  C   UNL A   1      48.684  27.706  31.233  1.00  0.00     0.000 A 
ENDBRANCH  45  59
BRANCH  46  65
ATOM     65  C   UNL A   1      36.964  32.489  29.491  1.00  0.00    -0.014 A 
ATOM     66  C   UNL A   1      35.989  32.301  30.483  1.00  0.00     0.009 A 
ATOM     67  C   UNL A   1      36.620  33.195  28.327  1.00  0.00     0.009 A 
ATOM     68  C   UNL A   1      34.693  32.790  30.301  1.00  0.00     0.001 A 
ATOM     69  C   UNL A   1      35.332  33.707  28.161  1.00  0.00     0.001 A 
ATOM     70  C   UNL A   1      34.368  33.497  29.144  1.00  0.00     0.000 A 
ENDBRANCH  46  65
BRANCH  58  71
ATOM     71  C   UNL A   1      42.814  35.110  32.211  1.00  0.00    -0.014 A 
ATOM     72  C   UNL A   1      42.503  35.404  33.547  1.00  0.00     0.009 A 
ATOM     73  C   UNL A   1      43.462  36.084  31.434  1.00  0.00     0.009 A 
ATOM     74  C   UNL A   1      42.795  36.662  34.081  1.00  0.00     0.001 A 
ATOM     75  C   UNL A   1      43.783  37.328  31.979  1.00  0.00     0.001 A 
ATOM     76  C   UNL A   1      43.439  37.620  33.298  1.00  0.00     0.000 A 
ENDBRANCH  58  71
ENDBRANCH  32  33
ENDBRANCH  25  27
ENDBRANCH  24  25
ENDBRANCH  23  24
ENDBRANCH   1  23
TORSDOF 16
ENDMDL
MODEL 3
REMARK VINA RESULT:     -10.0      1.020      1.867
REMARK SMILES O=CN[C@H](C(=O)OCCOCCOC(=O)c1ccc(-c2c3nc(c(-c4ccccc4)c4ccc([nH]4)c(-c4ccccc4)c4nc(c(-c5ccccc5)c5ccc2[nH]5)C=C4)C=C3)cc1)[C@@H]1CCO[C@@]2(CCOC2)C1
REMARK SMILES IDX 11 1 10 2 9 3 8 4 7 5 5 6 6 7 4 8 3 9 1 10 2 11 64 13 65 14
REMARK SMILES IDX 73 15 66 16 68 17 67 18 69 19 72 20 70 21 71 22 12 23 13 24
REMARK SMILES IDX 14 25 15 26 16 27 17 28 63 29 18 30 62 31 19 32 20 33 21 34
REMARK SMILES IDX 56 35 22 36 61 37 55 38 57 39 23 40 60 41 54 42 53 43 24 45
REMARK SMILES IDX 46 46 31 47 45 48 32 49 35 50 44 51 58 52 33 53 34 54 43 56
REMARK SMILES IDX 59 57 36 58 25 59 26 60 30 61 27 62 29 63 28 64 47 65 48 66
REMARK SMILES IDX 52 67 49 68 51 69 50 70 37 71 38 72 42 73 39 74 41 75 40 76
REMARK H PARENT 3 12 57 44 35 55
REMARK Flexibility Score: inf
ROOT
ATOM      1  C   UNL A   1      35.695  20.312  24.997  1.00  0.00     0.202 C 
ENDROOT
BRANCH   1   2
ATOM      2  O   UNL A   1      35.177  21.547  25.483  1.00  0.00    -0.374 OA
BRANCH   2   3
ATOM      3  C   UNL A   1      34.810  21.611  26.864  1.00  0.00     0.202 C 
BRANCH   3   4
ATOM      4  C   UNL A   1      33.423  22.202  27.156  1.00  0.00     0.261 C 
BRANCH   4   5
ATOM      5  O   UNL A   1      33.390  23.560  26.682  1.00  0.00    -0.462 OA
BRANCH   5   6
ATOM      6  C   UNL A   1      32.165  24.135  26.468  1.00  0.00     0.329 C 
ATOM      7  O   UNL A   1      31.226  24.089  27.249  1.00  0.00    -0.250 OA
BRANCH   6   8
ATOM      8  C   UNL A   1      32.247  25.052  25.208  1.00  0.00     0.195 C 
BRANCH   8   9
ATOM      9  N   UNL A   1      32.805  24.246  24.108  1.00  0.00    -0.345 N 
ATOM     10  O   UNL A   1      34.466  23.580  22.721  1.00  0.00    -0.279 OA
ATOM     11  C   UNL A   1      33.891  24.474  23.326  1.00  0.00     0.337 C 
ATOM     12  H   UNL A   1      32.316  23.414  23.910  1.00  0.00     0.164 HD
ENDBRANCH   8   9
BRANCH   8  13
ATOM     13  C   UNL A   1      30.932  25.840  24.982  1.00  0.00     0.028 C 
ATOM     14  C   UNL A   1      30.417  25.894  23.557  1.00  0.00     0.035 C 
ATOM     15  C   UNL A   1      30.958  27.281  25.530  1.00  0.00     0.044 C 
ATOM     16  C   UNL A   1      31.135  26.908  22.682  1.00  0.00     0.161 C 
ATOM     17  C   UNL A   1      31.780  28.263  24.681  1.00  0.00     0.094 C 
ATOM     18  O   UNL A   1      31.597  28.113  23.277  1.00  0.00    -0.372 OA
ATOM     19  C   UNL A   1      31.405  29.717  24.990  1.00  0.00     0.066 C 
ATOM     20  C   UNL A   1      33.252  28.348  25.123  1.00  0.00     0.195 C 
ATOM     21  C   UNL A   1      32.186  30.065  26.238  1.00  0.00     0.163 C 
ATOM     22  O   UNL A   1      33.301  29.172  26.296  1.00  0.00    -0.378 OA
ENDBRANCH   8  13
ENDBRANCH   6   8
ENDBRANCH   5   6
ENDBRANCH   4   5
ENDBRANCH   3   4
ENDBRANCH   2   3
ENDBRANCH   1   2
BRANCH   1  23
ATOM     23  C   UNL A   1      37.221  20.183  24.937  1.00  0.00     0.261 C 
BRANCH  23  24
ATOM     24  O   UNL A   1      37.876  21.379  25.394  1.00  0.00    -0.460 OA
BRANCH  24  25
ATOM     25  C   UNL A   1      39.061  21.166  26.017  1.00  0.00     0.338 C 
ATOM     26  O   UNL A   1      39.746  20.158  25.980  1.00  0.00    -0.246 OA
BRANCH  25  27
ATOM     27  C   UNL A   1      39.544  22.414  26.630  1.00  0.00     0.060 A 
ATOM     28  C   UNL A   1      38.985  23.610  26.164  1.00  0.00     0.016 A 
ATOM     29  C   UNL A   1      40.579  22.430  27.565  1.00  0.00     0.016 A 
ATOM     30  C   UNL A   1      39.488  24.831  26.602  1.00  0.00     0.010 A 
ATOM     31  C   UNL A   1      41.091  23.660  27.998  1.00  0.00     0.010 A 
ATOM     32  C   UNL A   1      40.569  24.864  27.494  1.00  0.00    -0.014 A 
BRANCH  32  33
ATOM     33  C   UNL A   1      41.206  26.167  27.798  1.00  0.00     0.031 A 
ATOM     34  C   UNL A   1      42.554  26.487  27.216  1.00  0.00     0.074 A 
ATOM     35  C   UNL A   1      40.556  27.084  28.536  1.00  0.00     0.049 A 
ATOM     36  N   UNL A   1      43.255  27.590  27.306  1.00  0.00    -0.248 NA
ATOM     37  C   UNL A   1      43.195  25.427  26.421  1.00  0.00     0.031 C 
ATOM     38  C   UNL A   1      39.232  26.907  29.128  1.00  0.00     0.029 A 
ATOM     39  N   UNL A   1      40.924  28.354  28.903  1.00  0.00    -0.354 N 
ATOM     40  C   UNL A   1      44.419  27.356  26.586  1.00  0.00     0.074 A 
ATOM     41  C   UNL A   1      44.344  25.998  26.089  1.00  0.00     0.031 C 
ATOM     42  C   UNL A   1      38.894  28.031  29.783  1.00  0.00     0.029 A 
ATOM     43  C   UNL A   1      39.989  28.992  29.680  1.00  0.00     0.049 A 
ATOM     44  H   UNL A   1      41.777  28.767  28.637  1.00  0.00     0.167 HD
ATOM     45  C   UNL A   1      45.457  28.197  26.354  1.00  0.00     0.031 A 
ATOM     46  C   UNL A   1      40.019  30.210  30.253  1.00  0.00     0.031 A 
ATOM     47  C   UNL A   1      45.541  29.540  26.865  1.00  0.00     0.049 A 
ATOM     48  C   UNL A   1      41.212  31.100  30.038  1.00  0.00     0.074 A 
ATOM     49  C   UNL A   1      46.541  30.477  26.665  1.00  0.00     0.029 A 
ATOM     50  N   UNL A   1      44.598  30.131  27.690  1.00  0.00    -0.354 N 
ATOM     51  N   UNL A   1      42.287  30.884  29.318  1.00  0.00    -0.248 NA
ATOM     52  C   UNL A   1      41.186  32.410  30.704  1.00  0.00     0.031 C 
ATOM     53  C   UNL A   1      46.231  31.614  27.420  1.00  0.00     0.029 A 
ATOM     54  C   UNL A   1      45.008  31.410  28.037  1.00  0.00     0.049 A 
ATOM     55  H   UNL A   1      43.761  29.708  27.986  1.00  0.00     0.167 HD
ATOM     56  C   UNL A   1      43.055  32.036  29.428  1.00  0.00     0.074 A 
ATOM     57  C   UNL A   1      42.312  32.956  30.265  1.00  0.00     0.031 C 
ATOM     58  C   UNL A   1      44.267  32.309  28.883  1.00  0.00     0.031 A 
BRANCH  45  59
ATOM     59  C   UNL A   1      46.606  27.668  25.540  1.00  0.00    -0.014 A 
ATOM     60  C   UNL A   1      47.608  26.870  26.118  1.00  0.00     0.009 A 
ATOM     61  C   UNL A   1      46.673  27.950  24.167  1.00  0.00     0.009 A 
ATOM     62  C   UNL A   1      48.670  26.399  25.344  1.00  0.00     0.001 A 
ATOM     63  C   UNL A   1      47.720  27.453  23.389  1.00  0.00     0.001 A 
ATOM     64  C   UNL A   1      48.723  26.687  23.980  1.00  0.00     0.000 A 
ENDBRANCH  45  59
BRANCH  46  65
ATOM     65  C   UNL A   1      38.883  30.654  31.103  1.00  0.00    -0.014 A 
ATOM     66  C   UNL A   1      38.861  30.377  32.478  1.00  0.00     0.009 A 
ATOM     67  C   UNL A   1      37.810  31.359  30.535  1.00  0.00     0.009 A 
ATOM     68  C   UNL A   1      37.776  30.777  33.262  1.00  0.00     0.001 A 
ATOM     69  C   UNL A   1      36.740  31.782  31.326  1.00  0.00     0.001 A 
ATOM     70  C   UNL A   1      36.721  31.484  32.687  1.00  0.00     0.000 A 
ENDBRANCH  46  65
BRANCH  58  71
ATOM     71  C   UNL A   1      44.851  33.668  29.158  1.00  0.00    -0.014 A 
ATOM     72  C   UNL A   1      44.568  34.767  28.333  1.00  0.00     0.009 A 
ATOM     73  C   UNL A   1      45.682  33.854  30.276  1.00  0.00     0.009 A 
ATOM     74  C   UNL A   1      45.137  36.015  28.597  1.00  0.00     0.001 A 
ATOM     75  C   UNL A   1      46.224  35.111  30.555  1.00  0.00     0.001 A 
ATOM     76  C   UNL A   1      45.961  36.186  29.709  1.00  0.00     0.000 A 
ENDBRANCH  58  71
ENDBRANCH  32  33
ENDBRANCH  25  27
ENDBRANCH  24  25
ENDBRANCH  23  24
ENDBRANCH   1  23
TORSDOF 16
ENDMDL
