MODEL 1
REMARK VINA RESULT:     -11.0      0.000      0.000
REMARK SMILES O=C(CNC(=O)N1CC(OCCOCCOC(=O)c2ccc(-c3c4nc(c(-c5ccccc5)c5ccc([nH]5)c(-c5ccccc5)c5nc(c(-c6ccccc6)c6ccc3[nH]6)C=C5)C=C4)cc2)=Nc2ccccc21)N[C@H](C(=O)[O-])c1ccccc1
REMARK SMILES IDX 12 1 11 2 10 3 9 4 7 5 8 6 73 7 68 8 72 9 67 10 69 11 71 12
REMARK SMILES IDX 70 13 5 14 4 15 6 17 3 18 2 19 1 20 74 21 75 23 79 24 80 25
REMARK SMILES IDX 84 26 81 27 83 28 82 29 76 30 77 31 78 32 13 33 14 34 15 35
REMARK SMILES IDX 16 36 17 37 18 38 19 39 20 40 66 41 21 42 65 43 22 44 23 45
REMARK SMILES IDX 24 46 59 47 25 48 64 49 58 50 60 51 26 52 63 53 57 54 56 55
REMARK SMILES IDX 27 57 49 58 34 59 48 60 35 61 38 62 47 63 61 64 36 65 37 66
REMARK SMILES IDX 46 68 62 69 39 70 28 71 29 72 33 73 30 74 32 75 31 76 50 77
REMARK SMILES IDX 51 78 55 79 52 80 54 81 53 82 40 83 41 84 45 85 42 86 44 87
REMARK SMILES IDX 43 88
REMARK H PARENT 4 16 74 22 60 56 38 67
REMARK Flexibility Score: inf
ROOT
ATOM      1  C   UNL A   1      33.979  30.338  26.872  1.00  0.00     0.202 C 
ENDROOT
BRANCH   1   2
ATOM      2  C   UNL A   1      34.115  28.835  26.580  1.00  0.00     0.259 C 
BRANCH   2   3
ATOM      3  O   UNL A   1      33.754  28.519  25.211  1.00  0.00    -0.477 OA
BRANCH   3   4
ATOM      4  C   UNL A   1      32.432  28.469  24.917  1.00  0.00     0.209 C 
ATOM      5  N   UNL A   1      30.551  26.865  24.932  1.00  0.00    -0.283 N 
ATOM      6  C   UNL A   1      31.695  27.393  25.681  1.00  0.00     0.224 C 
ATOM      7  C   UNL A   1      29.898  27.785  24.047  1.00  0.00     0.072 A 
ATOM      8  C   UNL A   1      30.587  28.949  23.642  1.00  0.00     0.091 A 
ATOM      9  C   UNL A   1      28.593  27.588  23.580  1.00  0.00     0.029 A 
ATOM     10  N   UNL A   1      31.901  29.242  24.030  1.00  0.00    -0.214 NA
ATOM     11  C   UNL A   1      30.007  29.820  22.714  1.00  0.00     0.030 A 
ATOM     12  C   UNL A   1      28.026  28.463  22.648  1.00  0.00     0.002 A 
ATOM     13  C   UNL A   1      28.738  29.572  22.203  1.00  0.00     0.002 A 
BRANCH   5  14
ATOM     14  C   UNL A   1      30.096  25.625  25.321  1.00  0.00     0.322 C 
ATOM     15  N   UNL A   1      30.193  24.565  24.482  1.00  0.00    -0.329 N 
ATOM     16  H   UNL A   1      29.547  23.839  24.635  1.00  0.00     0.165 HD
ATOM     17  O   UNL A   1      29.660  25.422  26.457  1.00  0.00    -0.248 OA
BRANCH  15  18
ATOM     18  C   UNL A   1      31.127  24.356  23.383  1.00  0.00     0.218 C 
BRANCH  18  19
ATOM     19  C   UNL A   1      32.038  23.168  23.710  1.00  0.00     0.240 C 
ATOM     20  O   UNL A   1      32.343  22.338  22.857  1.00  0.00    -0.273 OA
ATOM     21  N   UNL A   1      32.467  23.156  25.006  1.00  0.00    -0.342 N 
ATOM     22  H   UNL A   1      32.169  23.898  25.579  1.00  0.00     0.164 HD
BRANCH  21  23
ATOM     23  C   UNL A   1      33.334  22.138  25.628  1.00  0.00     0.158 C 
BRANCH  23  24
ATOM     24  C   UNL A   1      34.804  22.409  25.321  1.00  0.00    -0.020 A 
ATOM     25  C   UNL A   1      35.365  23.648  25.660  1.00  0.00     0.006 A 
ATOM     26  C   UNL A   1      35.627  21.456  24.696  1.00  0.00     0.006 A 
ATOM     27  C   UNL A   1      36.715  23.912  25.409  1.00  0.00     0.000 A 
ATOM     28  C   UNL A   1      36.976  21.713  24.457  1.00  0.00     0.000 A 
ATOM     29  C   UNL A   1      37.521  22.940  24.818  1.00  0.00     0.000 A 
ENDBRANCH  23  24
BRANCH  23  30
ATOM     30  C   UNL A   1      33.092  22.117  27.184  1.00  0.00     0.068 C 
ATOM     31  O   UNL A   1      33.889  21.376  27.837  1.00  0.00    -0.548 OA
ATOM     32  O   UNL A   1      32.247  22.954  27.622  1.00  0.00    -0.548 OA
ENDBRANCH  23  30
ENDBRANCH  21  23
ENDBRANCH  18  19
ENDBRANCH  15  18
ENDBRANCH   5  14
ENDBRANCH   3   4
ENDBRANCH   2   3
ENDBRANCH   1   2
BRANCH   1  33
ATOM     33  O   UNL A   1      32.767  30.706  27.539  1.00  0.00    -0.374 OA
BRANCH  33  34
ATOM     34  C   UNL A   1      31.888  31.556  26.807  1.00  0.00     0.202 C 
BRANCH  34  35
ATOM     35  C   UNL A   1      32.075  33.063  26.952  1.00  0.00     0.261 C 
BRANCH  35  36
ATOM     36  O   UNL A   1      32.086  33.498  28.301  1.00  0.00    -0.460 OA
BRANCH  36  37
ATOM     37  C   UNL A   1      33.004  34.462  28.536  1.00  0.00     0.338 C 
ATOM     38  O   UNL A   1      32.829  35.656  28.699  1.00  0.00    -0.246 OA
BRANCH  37  39
ATOM     39  C   UNL A   1      34.275  33.787  28.834  1.00  0.00     0.060 A 
ATOM     40  C   UNL A   1      34.264  32.872  29.890  1.00  0.00     0.016 A 
ATOM     41  C   UNL A   1      35.437  34.021  28.090  1.00  0.00     0.016 A 
ATOM     42  C   UNL A   1      35.431  32.208  30.232  1.00  0.00     0.010 A 
ATOM     43  C   UNL A   1      36.606  33.342  28.424  1.00  0.00     0.010 A 
ATOM     44  C   UNL A   1      36.609  32.457  29.515  1.00  0.00    -0.014 A 
BRANCH  44  45
ATOM     45  C   UNL A   1      37.867  31.872  30.012  1.00  0.00     0.031 A 
ATOM     46  C   UNL A   1      38.542  32.508  31.190  1.00  0.00     0.074 A 
ATOM     47  C   UNL A   1      38.342  30.741  29.465  1.00  0.00     0.049 A 
ATOM     48  N   UNL A   1      39.595  32.102  31.853  1.00  0.00    -0.248 NA
ATOM     49  C   UNL A   1      37.952  33.758  31.694  1.00  0.00     0.031 C 
ATOM     50  C   UNL A   1      37.742  30.030  28.335  1.00  0.00     0.029 A 
ATOM     51  N   UNL A   1      39.433  29.984  29.801  1.00  0.00    -0.354 N 
ATOM     52  C   UNL A   1      39.787  33.045  32.854  1.00  0.00     0.074 A 
ATOM     53  C   UNL A   1      38.769  34.058  32.692  1.00  0.00     0.031 C 
ATOM     54  C   UNL A   1      38.467  28.928  28.081  1.00  0.00     0.029 A 
ATOM     55  C   UNL A   1      39.589  28.870  29.015  1.00  0.00     0.049 A 
ATOM     56  H   UNL A   1      40.045  30.215  30.536  1.00  0.00     0.167 HD
ATOM     57  C   UNL A   1      40.725  33.057  33.828  1.00  0.00     0.031 A 
ATOM     58  C   UNL A   1      40.535  27.915  29.048  1.00  0.00     0.031 A 
ATOM     59  C   UNL A   1      41.747  32.056  33.971  1.00  0.00     0.049 A 
ATOM     60  C   UNL A   1      41.605  27.987  30.101  1.00  0.00     0.074 A 
ATOM     61  C   UNL A   1      42.743  31.969  34.927  1.00  0.00     0.029 A 
ATOM     62  N   UNL A   1      41.906  30.973  33.121  1.00  0.00    -0.354 N 
ATOM     63  N   UNL A   1      41.757  28.859  31.068  1.00  0.00    -0.248 NA
ATOM     64  C   UNL A   1      42.631  26.935  30.073  1.00  0.00     0.031 C 
ATOM     65  C   UNL A   1      43.533  30.854  34.628  1.00  0.00     0.029 A 
ATOM     66  C   UNL A   1      43.001  30.223  33.514  1.00  0.00     0.049 A 
ATOM     67  H   UNL A   1      41.326  30.768  32.352  1.00  0.00     0.167 HD
ATOM     68  C   UNL A   1      42.880  28.455  31.774  1.00  0.00     0.074 A 
ATOM     69  C   UNL A   1      43.364  27.248  31.134  1.00  0.00     0.031 C 
ATOM     70  C   UNL A   1      43.461  29.028  32.857  1.00  0.00     0.031 A 
BRANCH  57  71
ATOM     71  C   UNL A   1      40.696  34.207  34.791  1.00  0.00    -0.014 A 
ATOM     72  C   UNL A   1      40.083  34.086  36.048  1.00  0.00     0.009 A 
ATOM     73  C   UNL A   1      41.294  35.426  34.437  1.00  0.00     0.009 A 
ATOM     74  C   UNL A   1      40.042  35.176  36.921  1.00  0.00     0.001 A 
ATOM     75  C   UNL A   1      41.270  36.506  35.321  1.00  0.00     0.001 A 
ATOM     76  C   UNL A   1      40.639  36.383  36.557  1.00  0.00     0.000 A 
ENDBRANCH  57  71
BRANCH  58  77
ATOM     77  C   UNL A   1      40.515  26.815  28.052  1.00  0.00    -0.014 A 
ATOM     78  C   UNL A   1      39.856  25.609  28.328  1.00  0.00     0.009 A 
ATOM     79  C   UNL A   1      41.164  26.969  26.817  1.00  0.00     0.009 A 
ATOM     80  C   UNL A   1      39.865  24.569  27.393  1.00  0.00     0.001 A 
ATOM     81  C   UNL A   1      41.151  25.939  25.875  1.00  0.00     0.001 A 
ATOM     82  C   UNL A   1      40.509  24.737  26.168  1.00  0.00     0.000 A 
ENDBRANCH  58  77
BRANCH  70  83
ATOM     83  C   UNL A   1      44.668  28.341  33.425  1.00  0.00    -0.014 A 
ATOM     84  C   UNL A   1      44.537  27.328  34.387  1.00  0.00     0.009 A 
ATOM     85  C   UNL A   1      45.946  28.682  32.957  1.00  0.00     0.009 A 
ATOM     86  C   UNL A   1      45.670  26.687  34.890  1.00  0.00     0.001 A 
ATOM     87  C   UNL A   1      47.074  28.022  33.446  1.00  0.00     0.001 A 
ATOM     88  C   UNL A   1      46.936  27.031  34.416  1.00  0.00     0.000 A 
ENDBRANCH  70  83
ENDBRANCH  44  45
ENDBRANCH  37  39
ENDBRANCH  36  37
ENDBRANCH  35  36
ENDBRANCH  34  35
ENDBRANCH  33  34
ENDBRANCH   1  33
TORSDOF 19
ENDMDL
MODEL 2
REMARK VINA RESULT:     -10.7      3.224      9.205
REMARK SMILES O=C(CNC(=O)N1CC(OCCOCCOC(=O)c2ccc(-c3c4nc(c(-c5ccccc5)c5ccc([nH]5)c(-c5ccccc5)c5nc(c(-c6ccccc6)c6ccc3[nH]6)C=C5)C=C4)cc2)=Nc2ccccc21)N[C@H](C(=O)[O-])c1ccccc1
REMARK SMILES IDX 12 1 11 2 10 3 9 4 7 5 8 6 73 7 68 8 72 9 67 10 69 11 71 12
REMARK SMILES IDX 70 13 5 14 4 15 6 17 3 18 2 19 1 20 74 21 75 23 79 24 80 25
REMARK SMILES IDX 84 26 81 27 83 28 82 29 76 30 77 31 78 32 13 33 14 34 15 35
REMARK SMILES IDX 16 36 17 37 18 38 19 39 20 40 66 41 21 42 65 43 22 44 23 45
REMARK SMILES IDX 24 46 59 47 25 48 64 49 58 50 60 51 26 52 63 53 57 54 56 55
REMARK SMILES IDX 27 57 49 58 34 59 48 60 35 61 38 62 47 63 61 64 36 65 37 66
REMARK SMILES IDX 46 68 62 69 39 70 28 71 29 72 33 73 30 74 32 75 31 76 50 77
REMARK SMILES IDX 51 78 55 79 52 80 54 81 53 82 40 83 41 84 45 85 42 86 44 87
REMARK SMILES IDX 43 88
REMARK H PARENT 4 16 74 22 60 56 38 67
REMARK Flexibility Score: inf
ROOT
ATOM      1  C   UNL A   1      38.148  22.743  26.135  1.00  0.00     0.202 C 
ENDROOT
BRANCH   1   2
ATOM      2  C   UNL A   1      37.245  23.938  25.790  1.00  0.00     0.259 C 
BRANCH   2   3
ATOM      3  O   UNL A   1      35.859  23.678  26.126  1.00  0.00    -0.477 OA
BRANCH   3   4
ATOM      4  C   UNL A   1      35.195  22.782  25.356  1.00  0.00     0.209 C 
ATOM      5  N   UNL A   1      33.704  22.720  23.385  1.00  0.00    -0.283 N 
ATOM      6  C   UNL A   1      34.931  23.283  23.955  1.00  0.00     0.224 C 
ATOM      7  C   UNL A   1      33.354  21.401  23.824  1.00  0.00     0.072 A 
ATOM      8  C   UNL A   1      33.925  20.902  25.015  1.00  0.00     0.091 A 
ATOM      9  C   UNL A   1      32.479  20.573  23.108  1.00  0.00     0.029 A 
ATOM     10  N   UNL A   1      34.796  21.645  25.822  1.00  0.00    -0.214 NA
ATOM     11  C   UNL A   1      33.536  19.653  25.510  1.00  0.00     0.030 A 
ATOM     12  C   UNL A   1      32.094  19.329  23.616  1.00  0.00     0.002 A 
ATOM     13  C   UNL A   1      32.610  18.874  24.825  1.00  0.00     0.002 A 
BRANCH   5  14
ATOM     14  C   UNL A   1      33.150  23.419  22.336  1.00  0.00     0.322 C 
ATOM     15  N   UNL A   1      32.087  24.235  22.541  1.00  0.00    -0.329 N 
ATOM     16  H   UNL A   1      31.517  24.398  21.756  1.00  0.00     0.165 HD
ATOM     17  O   UNL A   1      33.641  23.385  21.204  1.00  0.00    -0.248 OA
BRANCH  15  18
ATOM     18  C   UNL A   1      31.676  24.904  23.769  1.00  0.00     0.218 C 
BRANCH  18  19
ATOM     19  C   UNL A   1      32.166  26.355  23.745  1.00  0.00     0.240 C 
ATOM     20  O   UNL A   1      33.351  26.632  23.575  1.00  0.00    -0.273 OA
ATOM     21  N   UNL A   1      31.164  27.267  23.909  1.00  0.00    -0.342 N 
ATOM     22  H   UNL A   1      30.251  26.911  24.008  1.00  0.00     0.164 HD
BRANCH  21  23
ATOM     23  C   UNL A   1      31.316  28.733  23.952  1.00  0.00     0.158 C 
BRANCH  23  24
ATOM     24  C   UNL A   1      30.001  29.431  23.617  1.00  0.00    -0.020 A 
ATOM     25  C   UNL A   1      28.977  28.712  22.984  1.00  0.00     0.006 A 
ATOM     26  C   UNL A   1      29.775  30.787  23.916  1.00  0.00     0.006 A 
ATOM     27  C   UNL A   1      27.756  29.325  22.688  1.00  0.00     0.000 A 
ATOM     28  C   UNL A   1      28.553  31.394  23.632  1.00  0.00     0.000 A 
ATOM     29  C   UNL A   1      27.540  30.660  23.022  1.00  0.00     0.000 A 
ENDBRANCH  23  24
BRANCH  23  30
ATOM     30  C   UNL A   1      31.823  29.171  25.378  1.00  0.00     0.068 C 
ATOM     31  O   UNL A   1      31.350  28.494  26.341  1.00  0.00    -0.548 OA
ATOM     32  O   UNL A   1      32.755  30.029  25.392  1.00  0.00    -0.548 OA
ENDBRANCH  23  30
ENDBRANCH  21  23
ENDBRANCH  18  19
ENDBRANCH  15  18
ENDBRANCH   5  14
ENDBRANCH   3   4
ENDBRANCH   2   3
ENDBRANCH   1   2
BRANCH   1  33
ATOM     33  O   UNL A   1      38.419  21.867  25.036  1.00  0.00    -0.374 OA
BRANCH  33  34
ATOM     34  C   UNL A   1      38.061  20.500  25.228  1.00  0.00     0.202 C 
BRANCH  34  35
ATOM     35  C   UNL A   1      39.189  19.475  25.298  1.00  0.00     0.261 C 
BRANCH  35  36
ATOM     36  O   UNL A   1      40.047  19.662  26.410  1.00  0.00    -0.460 OA
BRANCH  36  37
ATOM     37  C   UNL A   1      41.342  19.817  26.055  1.00  0.00     0.338 C 
ATOM     38  O   UNL A   1      42.007  19.145  25.287  1.00  0.00    -0.246 OA
BRANCH  37  39
ATOM     39  C   UNL A   1      41.776  21.127  26.560  1.00  0.00     0.060 A 
ATOM     40  C   UNL A   1      41.674  21.331  27.938  1.00  0.00     0.016 A 
ATOM     41  C   UNL A   1      42.293  22.119  25.718  1.00  0.00     0.016 A 
ATOM     42  C   UNL A   1      42.056  22.547  28.481  1.00  0.00     0.010 A 
ATOM     43  C   UNL A   1      42.691  23.336  26.265  1.00  0.00     0.010 A 
ATOM     44  C   UNL A   1      42.545  23.559  27.644  1.00  0.00    -0.014 A 
BRANCH  44  45
ATOM     45  C   UNL A   1      42.775  24.895  28.223  1.00  0.00     0.031 A 
ATOM     46  C   UNL A   1      44.175  25.297  28.578  1.00  0.00     0.074 A 
ATOM     47  C   UNL A   1      41.752  25.757  28.344  1.00  0.00     0.049 A 
ATOM     48  N   UNL A   1      44.618  26.453  29.000  1.00  0.00    -0.248 NA
ATOM     49  C   UNL A   1      45.215  24.266  28.431  1.00  0.00     0.031 C 
ATOM     50  C   UNL A   1      40.359  25.472  27.999  1.00  0.00     0.029 A 
ATOM     51  N   UNL A   1      41.734  27.056  28.777  1.00  0.00    -0.354 N 
ATOM     52  C   UNL A   1      45.986  26.289  29.163  1.00  0.00     0.074 A 
ATOM     53  C   UNL A   1      46.297  24.917  28.829  1.00  0.00     0.031 C 
ATOM     54  C   UNL A   1      39.622  26.573  28.220  1.00  0.00     0.029 A 
ATOM     55  C   UNL A   1      40.487  27.628  28.741  1.00  0.00     0.049 A 
ATOM     56  H   UNL A   1      42.538  27.534  29.084  1.00  0.00     0.167 HD
ATOM     57  C   UNL A   1      46.903  27.206  29.547  1.00  0.00     0.031 A 
ATOM     58  C   UNL A   1      40.094  28.866  29.091  1.00  0.00     0.031 A 
ATOM     59  C   UNL A   1      46.584  28.563  29.897  1.00  0.00     0.049 A 
ATOM     60  C   UNL A   1      41.124  29.846  29.577  1.00  0.00     0.074 A 
ATOM     61  C   UNL A   1      47.437  29.576  30.293  1.00  0.00     0.029 A 
ATOM     62  N   UNL A   1      45.301  29.089  29.901  1.00  0.00    -0.354 N 
ATOM     63  N   UNL A   1      42.422  29.695  29.690  1.00  0.00    -0.248 NA
ATOM     64  C   UNL A   1      40.636  31.174  29.976  1.00  0.00     0.031 C 
ATOM     65  C   UNL A   1      46.664  30.706  30.580  1.00  0.00     0.029 A 
ATOM     66  C   UNL A   1      45.335  30.408  30.318  1.00  0.00     0.049 A 
ATOM     67  H   UNL A   1      44.487  28.597  29.645  1.00  0.00     0.167 HD
ATOM     68  C   UNL A   1      42.908  30.909  30.154  1.00  0.00     0.074 A 
ATOM     69  C   UNL A   1      41.767  31.792  30.287  1.00  0.00     0.031 C 
ATOM     70  C   UNL A   1      44.184  31.263  30.444  1.00  0.00     0.031 A 
BRANCH  57  71
ATOM     71  C   UNL A   1      48.330  26.751  29.633  1.00  0.00    -0.014 A 
ATOM     72  C   UNL A   1      48.843  26.193  30.814  1.00  0.00     0.009 A 
ATOM     73  C   UNL A   1      49.170  26.879  28.517  1.00  0.00     0.009 A 
ATOM     74  C   UNL A   1      50.182  25.800  30.885  1.00  0.00     0.001 A 
ATOM     75  C   UNL A   1      50.502  26.465  28.584  1.00  0.00     0.001 A 
ATOM     76  C   UNL A   1      51.008  25.933  29.769  1.00  0.00     0.000 A 
ENDBRANCH  57  71
BRANCH  58  77
ATOM     77  C   UNL A   1      38.662  29.243  29.000  1.00  0.00    -0.014 A 
ATOM     78  C   UNL A   1      37.805  29.079  30.098  1.00  0.00     0.009 A 
ATOM     79  C   UNL A   1      38.144  29.768  27.806  1.00  0.00     0.009 A 
ATOM     80  C   UNL A   1      36.452  29.413  29.994  1.00  0.00     0.001 A 
ATOM     81  C   UNL A   1      36.798  30.125  27.713  1.00  0.00     0.001 A 
ATOM     82  C   UNL A   1      35.952  29.939  28.803  1.00  0.00     0.000 A 
ENDBRANCH  58  77
BRANCH  70  83
ATOM     83  C   UNL A   1      44.411  32.671  30.909  1.00  0.00    -0.014 A 
ATOM     84  C   UNL A   1      44.499  32.975  32.276  1.00  0.00     0.009 A 
ATOM     85  C   UNL A   1      44.584  33.696  29.966  1.00  0.00     0.009 A 
ATOM     86  C   UNL A   1      44.729  34.288  32.690  1.00  0.00     0.001 A 
ATOM     87  C   UNL A   1      44.837  35.002  30.384  1.00  0.00     0.001 A 
ATOM     88  C   UNL A   1      44.902  35.299  31.745  1.00  0.00     0.000 A 
ENDBRANCH  70  83
ENDBRANCH  44  45
ENDBRANCH  37  39
ENDBRANCH  36  37
ENDBRANCH  35  36
ENDBRANCH  34  35
ENDBRANCH  33  34
ENDBRANCH   1  33
TORSDOF 19
ENDMDL
MODEL 3
REMARK VINA RESULT:     -10.6      1.329      2.019
REMARK SMILES O=C(CNC(=O)N1CC(OCCOCCOC(=O)c2ccc(-c3c4nc(c(-c5ccccc5)c5ccc([nH]5)c(-c5ccccc5)c5nc(c(-c6ccccc6)c6ccc3[nH]6)C=C5)C=C4)cc2)=Nc2ccccc21)N[C@H](C(=O)[O-])c1ccccc1
REMARK SMILES IDX 12 1 11 2 10 3 9 4 7 5 8 6 73 7 68 8 72 9 67 10 69 11 71 12
REMARK SMILES IDX 70 13 5 14 4 15 6 17 3 18 2 19 1 20 74 21 75 23 79 24 80 25
REMARK SMILES IDX 84 26 81 27 83 28 82 29 76 30 77 31 78 32 13 33 14 34 15 35
REMARK SMILES IDX 16 36 17 37 18 38 19 39 20 40 66 41 21 42 65 43 22 44 23 45
REMARK SMILES IDX 24 46 59 47 25 48 64 49 58 50 60 51 26 52 63 53 57 54 56 55
REMARK SMILES IDX 27 57 49 58 34 59 48 60 35 61 38 62 47 63 61 64 36 65 37 66
REMARK SMILES IDX 46 68 62 69 39 70 28 71 29 72 33 73 30 74 32 75 31 76 50 77
REMARK SMILES IDX 51 78 55 79 52 80 54 81 53 82 40 83 41 84 45 85 42 86 44 87
REMARK SMILES IDX 43 88
REMARK H PARENT 4 16 74 22 60 56 38 67
REMARK Flexibility Score: inf
ROOT
ATOM      1  C   UNL A   1      34.492  29.941  27.098  1.00  0.00     0.202 C 
ENDROOT
BRANCH   1   2
ATOM      2  C   UNL A   1      34.265  28.448  26.810  1.00  0.00     0.259 C 
BRANCH   2   3
ATOM      3  O   UNL A   1      33.900  28.219  25.426  1.00  0.00    -0.477 OA
BRANCH   3   4
ATOM      4  C   UNL A   1      32.577  28.201  25.131  1.00  0.00     0.209 C 
ATOM      5  N   UNL A   1      30.641  26.666  25.218  1.00  0.00    -0.283 N 
ATOM      6  C   UNL A   1      31.801  27.190  25.944  1.00  0.00     0.224 C 
ATOM      7  C   UNL A   1      30.021  27.565  24.289  1.00  0.00     0.072 A 
ATOM      8  C   UNL A   1      30.750  28.684  23.830  1.00  0.00     0.091 A 
ATOM      9  C   UNL A   1      28.710  27.392  23.828  1.00  0.00     0.029 A 
ATOM     10  N   UNL A   1      32.074  28.949  24.206  1.00  0.00    -0.214 NA
ATOM     11  C   UNL A   1      30.202  29.529  22.860  1.00  0.00     0.030 A 
ATOM     12  C   UNL A   1      28.175  28.240  22.854  1.00  0.00     0.002 A 
ATOM     13  C   UNL A   1      28.925  29.301  22.358  1.00  0.00     0.002 A 
BRANCH   5  14
ATOM     14  C   UNL A   1      30.142  25.463  25.665  1.00  0.00     0.322 C 
ATOM     15  N   UNL A   1      30.450  24.311  25.020  1.00  0.00    -0.329 N 
ATOM     16  H   UNL A   1      29.804  23.576  25.127  1.00  0.00     0.165 HD
ATOM     17  O   UNL A   1      29.469  25.384  26.696  1.00  0.00    -0.248 OA
BRANCH  15  18
ATOM     18  C   UNL A   1      31.610  24.015  24.189  1.00  0.00     0.218 C 
BRANCH  18  19
ATOM     19  C   UNL A   1      32.649  23.255  25.021  1.00  0.00     0.240 C 
ATOM     20  O   UNL A   1      33.198  23.771  25.992  1.00  0.00    -0.273 OA
ATOM     21  N   UNL A   1      32.868  21.982  24.580  1.00  0.00    -0.342 N 
ATOM     22  H   UNL A   1      32.341  21.683  23.805  1.00  0.00     0.164 HD
BRANCH  21  23
ATOM     23  C   UNL A   1      33.818  21.012  25.155  1.00  0.00     0.158 C 
BRANCH  23  24
ATOM     24  C   UNL A   1      33.693  19.653  24.473  1.00  0.00    -0.020 A 
ATOM     25  C   UNL A   1      32.586  19.388  23.653  1.00  0.00     0.006 A 
ATOM     26  C   UNL A   1      34.651  18.637  24.643  1.00  0.00     0.006 A 
ATOM     27  C   UNL A   1      32.461  18.158  23.001  1.00  0.00     0.000 A 
ATOM     28  C   UNL A   1      34.533  17.416  23.982  1.00  0.00     0.000 A 
ATOM     29  C   UNL A   1      33.440  17.178  23.156  1.00  0.00     0.000 A 
ENDBRANCH  23  24
BRANCH  23  30
ATOM     30  C   UNL A   1      35.287  21.563  25.014  1.00  0.00     0.068 C 
ATOM     31  O   UNL A   1      35.584  21.998  23.860  1.00  0.00    -0.548 OA
ATOM     32  O   UNL A   1      35.945  21.659  26.093  1.00  0.00    -0.548 OA
ENDBRANCH  23  30
ENDBRANCH  21  23
ENDBRANCH  18  19
ENDBRANCH  15  18
ENDBRANCH   5  14
ENDBRANCH   3   4
ENDBRANCH   2   3
ENDBRANCH   1   2
BRANCH   1  33
ATOM     33  O   UNL A   1      33.452  30.563  27.861  1.00  0.00    -0.374 OA
BRANCH  33  34
ATOM     34  C   UNL A   1      32.510  31.330  27.116  1.00  0.00     0.202 C 
BRANCH  34  35
ATOM     35  C   UNL A   1      32.676  32.847  27.111  1.00  0.00     0.261 C 
BRANCH  35  36
ATOM     36  O   UNL A   1      32.325  33.452  28.344  1.00  0.00    -0.460 OA
BRANCH  36  37
ATOM     37  C   UNL A   1      33.111  34.506  28.655  1.00  0.00     0.338 C 
ATOM     38  O   UNL A   1      32.824  35.689  28.678  1.00  0.00    -0.246 OA
BRANCH  37  39
ATOM     39  C   UNL A   1      34.349  33.968  29.236  1.00  0.00     0.060 A 
ATOM     40  C   UNL A   1      35.535  34.262  28.560  1.00  0.00     0.016 A 
ATOM     41  C   UNL A   1      34.356  33.220  30.419  1.00  0.00     0.016 A 
ATOM     42  C   UNL A   1      36.739  33.778  29.046  1.00  0.00     0.010 A 
ATOM     43  C   UNL A   1      35.568  32.746  30.916  1.00  0.00     0.010 A 
ATOM     44  C   UNL A   1      36.756  33.001  30.213  1.00  0.00    -0.014 A 
BRANCH  44  45
ATOM     45  C   UNL A   1      38.022  32.355  30.605  1.00  0.00     0.031 A 
ATOM     46  C   UNL A   1      38.807  32.937  31.742  1.00  0.00     0.074 A 
ATOM     47  C   UNL A   1      38.408  31.219  30.001  1.00  0.00     0.049 A 
ATOM     48  N   UNL A   1      39.887  32.474  32.318  1.00  0.00    -0.248 NA
ATOM     49  C   UNL A   1      38.307  34.198  32.313  1.00  0.00     0.031 C 
ATOM     50  C   UNL A   1      37.699  30.559  28.905  1.00  0.00     0.029 A 
ATOM     51  N   UNL A   1      39.488  30.412  30.241  1.00  0.00    -0.354 N 
ATOM     52  C   UNL A   1      40.190  33.385  33.320  1.00  0.00     0.074 A 
ATOM     53  C   UNL A   1      39.206  34.442  33.254  1.00  0.00     0.031 C 
ATOM     54  C   UNL A   1      38.356  29.435  28.577  1.00  0.00     0.029 A 
ATOM     55  C   UNL A   1      39.540  29.311  29.423  1.00  0.00     0.049 A 
ATOM     56  H   UNL A   1      40.161  30.602  30.933  1.00  0.00     0.167 HD
ATOM     57  C   UNL A   1      41.197  33.337  34.223  1.00  0.00     0.031 A 
ATOM     58  C   UNL A   1      40.445  28.318  29.368  1.00  0.00     0.031 A 
ATOM     59  C   UNL A   1      42.184  32.294  34.270  1.00  0.00     0.049 A 
ATOM     60  C   UNL A   1      41.591  28.323  30.341  1.00  0.00     0.074 A 
ATOM     61  C   UNL A   1      43.242  32.145  35.148  1.00  0.00     0.029 A 
ATOM     62  N   UNL A   1      42.236  31.224  33.388  1.00  0.00    -0.354 N 
ATOM     63  N   UNL A   1      41.849  29.166  31.311  1.00  0.00    -0.248 NA
ATOM     64  C   UNL A   1      42.568  27.232  30.216  1.00  0.00     0.031 C 
ATOM     65  C   UNL A   1      43.961  31.006  34.769  1.00  0.00     0.029 A 
ATOM     66  C   UNL A   1      43.324  30.423  33.685  1.00  0.00     0.049 A 
ATOM     67  H   UNL A   1      41.593  31.060  32.660  1.00  0.00     0.167 HD
ATOM     68  C   UNL A   1      43.003  28.701  31.924  1.00  0.00     0.074 A 
ATOM     69  C   UNL A   1      43.388  27.491  31.226  1.00  0.00     0.031 C 
ATOM     70  C   UNL A   1      43.685  29.226  32.972  1.00  0.00     0.031 A 
BRANCH  57  71
ATOM     71  C   UNL A   1      41.286  34.465  35.207  1.00  0.00    -0.014 A 
ATOM     72  C   UNL A   1      40.561  34.438  36.409  1.00  0.00     0.009 A 
ATOM     73  C   UNL A   1      42.109  35.567  34.931  1.00  0.00     0.009 A 
ATOM     74  C   UNL A   1      40.635  35.510  37.302  1.00  0.00     0.001 A 
ATOM     75  C   UNL A   1      42.198  36.626  35.836  1.00  0.00     0.001 A 
ATOM     76  C   UNL A   1      41.456  36.601  37.015  1.00  0.00     0.000 A 
ENDBRANCH  57  71
BRANCH  58  77
ATOM     77  C   UNL A   1      40.307  27.243  28.355  1.00  0.00    -0.014 A 
ATOM     78  C   UNL A   1      40.896  27.370  27.088  1.00  0.00     0.009 A 
ATOM     79  C   UNL A   1      39.578  26.081  28.652  1.00  0.00     0.009 A 
ATOM     80  C   UNL A   1      40.738  26.363  26.132  1.00  0.00     0.001 A 
ATOM     81  C   UNL A   1      39.443  25.066  27.703  1.00  0.00     0.001 A 
ATOM     82  C   UNL A   1      40.016  25.212  26.442  1.00  0.00     0.000 A 
ENDBRANCH  58  77
BRANCH  70  83
ATOM     83  C   UNL A   1      44.900  28.478  33.436  1.00  0.00    -0.014 A 
ATOM     84  C   UNL A   1      46.168  28.760  32.905  1.00  0.00     0.009 A 
ATOM     85  C   UNL A   1      44.779  27.515  34.449  1.00  0.00     0.009 A 
ATOM     86  C   UNL A   1      47.290  28.068  33.364  1.00  0.00     0.001 A 
ATOM     87  C   UNL A   1      45.906  26.843  34.920  1.00  0.00     0.001 A 
ATOM     88  C   UNL A   1      47.159  27.114  34.373  1.00  0.00     0.000 A 
ENDBRANCH  70  83
ENDBRANCH  44  45
ENDBRANCH  37  39
ENDBRANCH  36  37
ENDBRANCH  35  36
ENDBRANCH  34  35
ENDBRANCH  33  34
ENDBRANCH   1  33
TORSDOF 19
ENDMDL
