MODEL 1
REMARK VINA RESULT:     -11.5      0.000      0.000
REMARK SMILES O=C(OCCOCCOC(=O)c1cc(-c2cccc(F)c2)nc2c(F)cccc12)c1ccc(-c2c3nc(c(-c4ccccc4)c4ccc([nH]4)c(-c4ccccc4)c4nc(c(-c5ccccc5)c5ccc2[nH]5)C=C4)C=C3)cc1
REMARK SMILES IDX 5 1 4 2 3 3 2 4 1 5 30 6 31 7 77 8 32 9 76 10 33 11 34 12
REMARK SMILES IDX 35 13 70 14 36 15 75 16 69 17 71 18 37 19 74 20 68 21 67 22
REMARK SMILES IDX 38 24 60 25 45 26 59 27 46 28 49 29 58 30 72 31 47 32 48 33
REMARK SMILES IDX 57 35 73 36 50 37 39 38 40 39 44 40 41 41 43 42 42 43 61 44
REMARK SMILES IDX 62 45 66 46 63 47 65 48 64 49 51 50 52 51 56 52 53 53 55 54
REMARK SMILES IDX 54 55 6 56 7 57 8 58 9 59 10 60 11 61 12 62 13 63 29 64
REMARK SMILES IDX 14 65 23 66 28 67 22 68 24 69 27 70 25 71 26 72 15 73 16 74
REMARK SMILES IDX 21 75 17 76 19 77 18 78 20 79
REMARK H PARENT 71 23 49 34
REMARK Flexibility Score: inf
ROOT
ATOM      1  C   UNL A   1      32.339  31.236  26.611  1.00  0.00     0.202 C 
ENDROOT
BRANCH   1   2
ATOM      2  C   UNL A   1      31.482  32.350  27.217  1.00  0.00     0.261 C 
BRANCH   2   3
ATOM      3  O   UNL A   1      32.208  33.590  27.225  1.00  0.00    -0.460 OA
BRANCH   3   4
ATOM      4  C   UNL A   1      32.946  34.134  28.218  1.00  0.00     0.338 C 
ATOM      5  O   UNL A   1      32.575  35.202  28.703  1.00  0.00    -0.246 OA
BRANCH   4   6
ATOM      6  C   UNL A   1      34.202  33.529  28.761  1.00  0.00     0.060 A 
ATOM      7  C   UNL A   1      34.273  32.670  29.857  1.00  0.00     0.016 A 
ATOM      8  C   UNL A   1      35.386  33.768  28.039  1.00  0.00     0.016 A 
ATOM      9  C   UNL A   1      35.468  32.088  30.254  1.00  0.00     0.010 A 
ATOM     10  C   UNL A   1      36.593  33.169  28.414  1.00  0.00     0.010 A 
ATOM     11  C   UNL A   1      36.631  32.332  29.531  1.00  0.00    -0.014 A 
BRANCH  11  12
ATOM     12  C   UNL A   1      37.882  31.766  30.057  1.00  0.00     0.031 A 
ATOM     13  C   UNL A   1      38.472  32.380  31.286  1.00  0.00     0.074 A 
ATOM     14  C   UNL A   1      38.363  30.628  29.529  1.00  0.00     0.049 A 
ATOM     15  N   UNL A   1      39.549  32.043  31.941  1.00  0.00    -0.248 NA
ATOM     16  C   UNL A   1      37.734  33.513  31.872  1.00  0.00     0.031 C 
ATOM     17  C   UNL A   1      37.755  29.889  28.419  1.00  0.00     0.029 A 
ATOM     18  N   UNL A   1      39.445  29.869  29.883  1.00  0.00    -0.354 N 
ATOM     19  C   UNL A   1      39.626  32.929  33.007  1.00  0.00     0.074 A 
ATOM     20  C   UNL A   1      38.495  33.821  32.911  1.00  0.00     0.031 C 
ATOM     21  C   UNL A   1      38.461  28.766  28.203  1.00  0.00     0.029 A 
ATOM     22  C   UNL A   1      39.600  28.743  29.111  1.00  0.00     0.049 A 
ATOM     23  H   UNL A   1      40.054  30.108  30.619  1.00  0.00     0.167 HD
ATOM     24  C   UNL A   1      40.570  32.990  33.973  1.00  0.00     0.031 A 
ATOM     25  C   UNL A   1      40.577  27.818  29.129  1.00  0.00     0.031 A 
ATOM     26  C   UNL A   1      41.703  32.109  34.022  1.00  0.00     0.049 A 
ATOM     27  C   UNL A   1      41.684  27.988  30.134  1.00  0.00     0.074 A 
ATOM     28  C   UNL A   1      42.785  32.131  34.881  1.00  0.00     0.029 A 
ATOM     29  N   UNL A   1      41.892  31.038  33.158  1.00  0.00    -0.354 N 
ATOM     30  N   UNL A   1      41.802  28.881  31.090  1.00  0.00    -0.248 NA
ATOM     31  C   UNL A   1      42.799  27.037  30.055  1.00  0.00     0.031 C 
ATOM     32  C   UNL A   1      43.651  31.096  34.507  1.00  0.00     0.029 A 
ATOM     33  C   UNL A   1      43.081  30.399  33.452  1.00  0.00     0.049 A 
ATOM     34  H   UNL A   1      41.270  30.773  32.442  1.00  0.00     0.167 HD
ATOM     35  C   UNL A   1      42.997  28.594  31.733  1.00  0.00     0.074 A 
ATOM     36  C   UNL A   1      43.552  27.427  31.074  1.00  0.00     0.031 C 
ATOM     37  C   UNL A   1      43.592  29.239  32.767  1.00  0.00     0.031 A 
BRANCH  24  38
ATOM     38  C   UNL A   1      40.438  34.098  34.975  1.00  0.00    -0.014 A 
ATOM     39  C   UNL A   1      39.705  33.931  36.163  1.00  0.00     0.009 A 
ATOM     40  C   UNL A   1      41.008  35.351  34.700  1.00  0.00     0.009 A 
ATOM     41  C   UNL A   1      39.514  35.008  37.032  1.00  0.00     0.001 A 
ATOM     42  C   UNL A   1      40.834  36.418  35.582  1.00  0.00     0.001 A 
ATOM     43  C   UNL A   1      40.078  36.249  36.741  1.00  0.00     0.000 A 
ENDBRANCH  24  38
BRANCH  25  44
ATOM     44  C   UNL A   1      40.591  26.709  28.138  1.00  0.00    -0.014 A 
ATOM     45  C   UNL A   1      41.191  26.867  26.879  1.00  0.00     0.009 A 
ATOM     46  C   UNL A   1      39.978  25.481  28.442  1.00  0.00     0.009 A 
ATOM     47  C   UNL A   1      41.152  25.831  25.941  1.00  0.00     0.001 A 
ATOM     48  C   UNL A   1      39.969  24.437  27.514  1.00  0.00     0.001 A 
ATOM     49  C   UNL A   1      40.546  24.616  26.260  1.00  0.00     0.000 A 
ENDBRANCH  25  44
BRANCH  37  50
ATOM     50  C   UNL A   1      44.889  28.668  33.256  1.00  0.00    -0.014 A 
ATOM     51  C   UNL A   1      44.916  27.673  34.244  1.00  0.00     0.009 A 
ATOM     52  C   UNL A   1      46.095  29.102  32.684  1.00  0.00     0.009 A 
ATOM     53  C   UNL A   1      46.133  27.144  34.673  1.00  0.00     0.001 A 
ATOM     54  C   UNL A   1      47.307  28.551  33.095  1.00  0.00     0.001 A 
ATOM     55  C   UNL A   1      47.326  27.578  34.094  1.00  0.00     0.000 A 
ENDBRANCH  37  50
ENDBRANCH  11  12
ENDBRANCH   4   6
ENDBRANCH   3   4
ENDBRANCH   2   3
ENDBRANCH   1   2
BRANCH   1  56
ATOM     56  O   UNL A   1      32.924  30.357  27.572  1.00  0.00    -0.374 OA
BRANCH  56  57
ATOM     57  C   UNL A   1      34.168  29.759  27.188  1.00  0.00     0.202 C 
BRANCH  57  58
ATOM     58  C   UNL A   1      33.948  28.939  25.918  1.00  0.00     0.261 C 
BRANCH  58  59
ATOM     59  O   UNL A   1      33.621  27.603  26.323  1.00  0.00    -0.460 OA
BRANCH  59  60
ATOM     60  C   UNL A   1      32.299  27.313  26.415  1.00  0.00     0.338 C 
ATOM     61  O   UNL A   1      31.621  27.241  27.425  1.00  0.00    -0.246 OA
BRANCH  60  62
ATOM     62  C   UNL A   1      31.742  27.343  25.045  1.00  0.00     0.071 A 
ATOM     63  C   UNL A   1      30.887  28.413  24.767  1.00  0.00     0.045 A 
ATOM     64  C   UNL A   1      32.127  26.432  24.037  1.00  0.00     0.018 A 
ATOM     65  C   UNL A   1      30.478  28.597  23.463  1.00  0.00     0.072 A 
ATOM     66  C   UNL A   1      31.644  26.697  22.743  1.00  0.00     0.107 A 
ATOM     67  C   UNL A   1      32.951  25.293  24.250  1.00  0.00     0.011 A 
ATOM     68  N   UNL A   1      30.846  27.756  22.473  1.00  0.00    -0.245 NA
ATOM     69  C   UNL A   1      32.027  25.831  21.718  1.00  0.00     0.149 A 
ATOM     70  C   UNL A   1      33.321  24.455  23.203  1.00  0.00     0.004 A 
ATOM     71  F   UNL A   1      31.597  26.052  20.465  1.00  0.00    -0.205 F 
ATOM     72  C   UNL A   1      32.856  24.729  21.928  1.00  0.00     0.041 A 
BRANCH  65  73
ATOM     73  C   UNL A   1      29.668  29.744  23.048  1.00  0.00     0.003 A 
ATOM     74  C   UNL A   1      29.495  30.844  23.904  1.00  0.00     0.010 A 
ATOM     75  C   UNL A   1      29.021  29.760  21.803  1.00  0.00     0.049 A 
ATOM     76  C   UNL A   1      28.705  31.936  23.525  1.00  0.00     0.004 A 
ATOM     77  C   UNL A   1      28.234  30.848  21.436  1.00  0.00     0.123 A 
ATOM     78  C   UNL A   1      28.071  31.937  22.284  1.00  0.00     0.039 A 
ATOM     79  F   UNL A   1      27.619  30.844  20.245  1.00  0.00    -0.207 F 
ENDBRANCH  65  73
ENDBRANCH  60  62
ENDBRANCH  59  60
ENDBRANCH  58  59
ENDBRANCH  57  58
ENDBRANCH  56  57
ENDBRANCH   1  56
TORSDOF 15
ENDMDL
MODEL 2
REMARK VINA RESULT:     -11.5      3.125      5.516
REMARK SMILES O=C(OCCOCCOC(=O)c1cc(-c2cccc(F)c2)nc2c(F)cccc12)c1ccc(-c2c3nc(c(-c4ccccc4)c4ccc([nH]4)c(-c4ccccc4)c4nc(c(-c5ccccc5)c5ccc2[nH]5)C=C4)C=C3)cc1
REMARK SMILES IDX 5 1 4 2 3 3 2 4 1 5 30 6 31 7 77 8 32 9 76 10 33 11 34 12
REMARK SMILES IDX 35 13 70 14 36 15 75 16 69 17 71 18 37 19 74 20 68 21 67 22
REMARK SMILES IDX 38 24 60 25 45 26 59 27 46 28 49 29 58 30 72 31 47 32 48 33
REMARK SMILES IDX 57 35 73 36 50 37 39 38 40 39 44 40 41 41 43 42 42 43 61 44
REMARK SMILES IDX 62 45 66 46 63 47 65 48 64 49 51 50 52 51 56 52 53 53 55 54
REMARK SMILES IDX 54 55 6 56 7 57 8 58 9 59 10 60 11 61 12 62 13 63 29 64
REMARK SMILES IDX 14 65 23 66 28 67 22 68 24 69 27 70 25 71 26 72 15 73 16 74
REMARK SMILES IDX 21 75 17 76 19 77 18 78 20 79
REMARK H PARENT 71 23 49 34
REMARK Flexibility Score: inf
ROOT
ATOM      1  C   UNL A   1      32.783  28.346  25.713  1.00  0.00     0.202 C 
ENDROOT
BRANCH   1   2
ATOM      2  C   UNL A   1      33.489  28.604  27.046  1.00  0.00     0.261 C 
BRANCH   2   3
ATOM      3  O   UNL A   1      33.490  30.009  27.347  1.00  0.00    -0.460 OA
BRANCH   3   4
ATOM      4  C   UNL A   1      34.423  30.734  28.003  1.00  0.00     0.338 C 
ATOM      5  O   UNL A   1      34.143  31.888  28.326  1.00  0.00    -0.246 OA
BRANCH   4   6
ATOM      6  C   UNL A   1      35.788  30.232  28.351  1.00  0.00     0.060 A 
ATOM      7  C   UNL A   1      36.135  29.607  29.550  1.00  0.00     0.016 A 
ATOM      8  C   UNL A   1      36.769  30.306  27.346  1.00  0.00     0.016 A 
ATOM      9  C   UNL A   1      37.406  29.098  29.768  1.00  0.00     0.010 A 
ATOM     10  C   UNL A   1      38.048  29.777  27.544  1.00  0.00     0.010 A 
ATOM     11  C   UNL A   1      38.366  29.177  28.765  1.00  0.00    -0.014 A 
BRANCH  11  12
ATOM     12  C   UNL A   1      39.721  28.710  29.090  1.00  0.00     0.031 A 
ATOM     13  C   UNL A   1      40.559  29.551  30.000  1.00  0.00     0.074 A 
ATOM     14  C   UNL A   1      40.104  27.480  28.707  1.00  0.00     0.049 A 
ATOM     15  N   UNL A   1      41.767  29.337  30.442  1.00  0.00    -0.248 NA
ATOM     16  C   UNL A   1      39.939  30.793  30.498  1.00  0.00     0.031 C 
ATOM     17  C   UNL A   1      39.280  26.541  27.940  1.00  0.00     0.029 A 
ATOM     18  N   UNL A   1      41.261  26.792  28.947  1.00  0.00    -0.354 N 
ATOM     19  C   UNL A   1      42.059  30.420  31.260  1.00  0.00     0.074 A 
ATOM     20  C   UNL A   1      40.908  31.293  31.250  1.00  0.00     0.031 C 
ATOM     21  C   UNL A   1      39.952  25.386  27.798  1.00  0.00     0.029 A 
ATOM     22  C   UNL A   1      41.270  25.529  28.404  1.00  0.00     0.049 A 
ATOM     23  H   UNL A   1      42.015  27.165  29.458  1.00  0.00     0.167 HD
ATOM     24  C   UNL A   1      43.197  30.661  31.949  1.00  0.00     0.031 A 
ATOM     25  C   UNL A   1      42.253  24.611  28.383  1.00  0.00     0.031 A 
ATOM     26  C   UNL A   1      44.338  29.790  31.912  1.00  0.00     0.049 A 
ATOM     27  C   UNL A   1      43.556  24.964  29.049  1.00  0.00     0.074 A 
ATOM     28  C   UNL A   1      45.587  29.969  32.475  1.00  0.00     0.029 A 
ATOM     29  N   UNL A   1      44.356  28.562  31.262  1.00  0.00    -0.354 N 
ATOM     30  N   UNL A   1      43.861  26.031  29.751  1.00  0.00    -0.248 NA
ATOM     31  C   UNL A   1      44.651  23.998  28.908  1.00  0.00     0.031 C 
ATOM     32  C   UNL A   1      46.375  28.865  32.128  1.00  0.00     0.029 A 
ATOM     33  C   UNL A   1      45.600  27.977  31.397  1.00  0.00     0.049 A 
ATOM     34  H   UNL A   1      43.596  28.168  30.778  1.00  0.00     0.167 HD
ATOM     35  C   UNL A   1      45.180  25.861  30.145  1.00  0.00     0.074 A 
ATOM     36  C   UNL A   1      45.606  24.575  29.625  1.00  0.00     0.031 C 
ATOM     37  C   UNL A   1      45.976  26.693  30.861  1.00  0.00     0.031 A 
BRANCH  24  38
ATOM     38  C   UNL A   1      43.263  31.953  32.709  1.00  0.00    -0.014 A 
ATOM     39  C   UNL A   1      43.731  33.134  32.110  1.00  0.00     0.009 A 
ATOM     40  C   UNL A   1      42.906  31.975  34.067  1.00  0.00     0.009 A 
ATOM     41  C   UNL A   1      43.877  34.300  32.867  1.00  0.00     0.001 A 
ATOM     42  C   UNL A   1      43.030  33.147  34.813  1.00  0.00     0.001 A 
ATOM     43  C   UNL A   1      43.527  34.305  34.217  1.00  0.00     0.000 A 
ENDBRANCH  24  38
BRANCH  25  44
ATOM     44  C   UNL A   1      42.074  23.323  27.660  1.00  0.00    -0.014 A 
ATOM     45  C   UNL A   1      42.552  23.151  26.352  1.00  0.00     0.009 A 
ATOM     46  C   UNL A   1      41.396  22.256  28.275  1.00  0.00     0.009 A 
ATOM     47  C   UNL A   1      42.332  21.951  25.669  1.00  0.00     0.001 A 
ATOM     48  C   UNL A   1      41.206  21.047  27.601  1.00  0.00     0.001 A 
ATOM     49  C   UNL A   1      41.664  20.899  26.295  1.00  0.00     0.000 A 
ENDBRANCH  25  44
BRANCH  37  50
ATOM     50  C   UNL A   1      47.369  26.212  31.142  1.00  0.00    -0.014 A 
ATOM     51  C   UNL A   1      48.382  26.324  30.179  1.00  0.00     0.009 A 
ATOM     52  C   UNL A   1      47.675  25.682  32.404  1.00  0.00     0.009 A 
ATOM     53  C   UNL A   1      49.674  25.885  30.466  1.00  0.00     0.001 A 
ATOM     54  C   UNL A   1      48.975  25.270  32.697  1.00  0.00     0.001 A 
ATOM     55  C   UNL A   1      49.970  25.364  31.726  1.00  0.00     0.000 A 
ENDBRANCH  37  50
ENDBRANCH  11  12
ENDBRANCH   4   6
ENDBRANCH   3   4
ENDBRANCH   2   3
ENDBRANCH   1   2
BRANCH   1  56
ATOM     56  O   UNL A   1      33.230  29.177  24.642  1.00  0.00    -0.374 OA
BRANCH  56  57
ATOM     57  C   UNL A   1      34.160  28.573  23.734  1.00  0.00     0.202 C 
BRANCH  57  58
ATOM     58  C   UNL A   1      33.421  28.197  22.452  1.00  0.00     0.261 C 
BRANCH  58  59
ATOM     59  O   UNL A   1      34.070  27.040  21.906  1.00  0.00    -0.460 OA
BRANCH  59  60
ATOM     60  C   UNL A   1      33.279  25.962  21.681  1.00  0.00     0.338 C 
ATOM     61  O   UNL A   1      32.832  25.576  20.615  1.00  0.00    -0.246 OA
BRANCH  60  62
ATOM     62  C   UNL A   1      33.246  25.167  22.928  1.00  0.00     0.071 A 
ATOM     63  C   UNL A   1      34.399  24.425  23.199  1.00  0.00     0.045 A 
ATOM     64  C   UNL A   1      32.182  25.233  23.855  1.00  0.00     0.018 A 
ATOM     65  C   UNL A   1      34.502  23.808  24.427  1.00  0.00     0.072 A 
ATOM     66  C   UNL A   1      32.378  24.555  25.072  1.00  0.00     0.107 A 
ATOM     67  C   UNL A   1      30.959  25.924  23.634  1.00  0.00     0.011 A 
ATOM     68  N   UNL A   1      33.512  23.869  25.344  1.00  0.00    -0.245 NA
ATOM     69  C   UNL A   1      31.358  24.622  26.022  1.00  0.00     0.149 A 
ATOM     70  C   UNL A   1      29.967  25.976  24.607  1.00  0.00     0.004 A 
ATOM     71  F   UNL A   1      31.506  23.998  27.203  1.00  0.00    -0.205 F 
ATOM     72  C   UNL A   1      30.170  25.322  25.810  1.00  0.00     0.041 A 
BRANCH  65  73
ATOM     73  C   UNL A   1      35.708  23.094  24.849  1.00  0.00     0.003 A 
ATOM     74  C   UNL A   1      36.780  23.787  25.439  1.00  0.00     0.010 A 
ATOM     75  C   UNL A   1      35.839  21.712  24.648  1.00  0.00     0.049 A 
ATOM     76  C   UNL A   1      37.946  23.116  25.826  1.00  0.00     0.004 A 
ATOM     77  C   UNL A   1      37.005  21.055  25.032  1.00  0.00     0.123 A 
ATOM     78  C   UNL A   1      38.059  21.743  25.621  1.00  0.00     0.039 A 
ATOM     79  F   UNL A   1      37.114  19.735  24.826  1.00  0.00    -0.207 F 
ENDBRANCH  65  73
ENDBRANCH  60  62
ENDBRANCH  59  60
ENDBRANCH  58  59
ENDBRANCH  57  58
ENDBRANCH  56  57
ENDBRANCH   1  56
TORSDOF 15
ENDMDL
MODEL 3
REMARK VINA RESULT:     -11.4      4.904      9.952
REMARK SMILES O=C(OCCOCCOC(=O)c1cc(-c2cccc(F)c2)nc2c(F)cccc12)c1ccc(-c2c3nc(c(-c4ccccc4)c4ccc([nH]4)c(-c4ccccc4)c4nc(c(-c5ccccc5)c5ccc2[nH]5)C=C4)C=C3)cc1
REMARK SMILES IDX 5 1 4 2 3 3 2 4 1 5 30 6 31 7 77 8 32 9 76 10 33 11 34 12
REMARK SMILES IDX 35 13 70 14 36 15 75 16 69 17 71 18 37 19 74 20 68 21 67 22
REMARK SMILES IDX 38 24 60 25 45 26 59 27 46 28 49 29 58 30 72 31 47 32 48 33
REMARK SMILES IDX 57 35 73 36 50 37 39 38 40 39 44 40 41 41 43 42 42 43 61 44
REMARK SMILES IDX 62 45 66 46 63 47 65 48 64 49 51 50 52 51 56 52 53 53 55 54
REMARK SMILES IDX 54 55 6 56 7 57 8 58 9 59 10 60 11 61 12 62 13 63 29 64
REMARK SMILES IDX 14 65 23 66 28 67 22 68 24 69 27 70 25 71 26 72 15 73 16 74
REMARK SMILES IDX 21 75 17 76 19 77 18 78 20 79
REMARK H PARENT 71 23 49 34
REMARK Flexibility Score: inf
ROOT
ATOM      1  C   UNL A   1      38.398  19.755  25.000  1.00  0.00     0.202 C 
ENDROOT
BRANCH   1   2
ATOM      2  C   UNL A   1      39.374  19.505  26.152  1.00  0.00     0.261 C 
BRANCH   2   3
ATOM      3  O   UNL A   1      40.638  19.048  25.646  1.00  0.00    -0.460 OA
BRANCH   3   4
ATOM      4  C   UNL A   1      41.873  19.547  25.875  1.00  0.00     0.338 C 
ATOM      5  O   UNL A   1      42.846  18.846  25.600  1.00  0.00    -0.246 OA
BRANCH   4   6
ATOM      6  C   UNL A   1      42.140  20.899  26.459  1.00  0.00     0.060 A 
ATOM      7  C   UNL A   1      42.191  21.191  27.822  1.00  0.00     0.016 A 
ATOM      8  C   UNL A   1      42.466  21.928  25.557  1.00  0.00     0.016 A 
ATOM      9  C   UNL A   1      42.520  22.455  28.287  1.00  0.00     0.010 A 
ATOM     10  C   UNL A   1      42.823  23.200  26.013  1.00  0.00     0.010 A 
ATOM     11  C   UNL A   1      42.841  23.463  27.384  1.00  0.00    -0.014 A 
BRANCH  11  12
ATOM     12  C   UNL A   1      43.086  24.805  27.932  1.00  0.00     0.031 A 
ATOM     13  C   UNL A   1      44.503  25.247  28.112  1.00  0.00     0.074 A 
ATOM     14  C   UNL A   1      42.052  25.649  28.095  1.00  0.00     0.049 A 
ATOM     15  N   UNL A   1      44.963  26.385  28.555  1.00  0.00    -0.248 NA
ATOM     16  C   UNL A   1      45.545  24.283  27.716  1.00  0.00     0.031 C 
ATOM     17  C   UNL A   1      40.652  25.335  27.798  1.00  0.00     0.029 A 
ATOM     18  N   UNL A   1      42.023  26.954  28.504  1.00  0.00    -0.354 N 
ATOM     19  C   UNL A   1      46.345  26.270  28.503  1.00  0.00     0.074 A 
ATOM     20  C   UNL A   1      46.652  24.954  27.994  1.00  0.00     0.031 C 
ATOM     21  C   UNL A   1      39.904  26.431  28.010  1.00  0.00     0.029 A 
ATOM     22  C   UNL A   1      40.760  27.495  28.517  1.00  0.00     0.049 A 
ATOM     23  H   UNL A   1      42.829  27.455  28.766  1.00  0.00     0.167 HD
ATOM     24  C   UNL A   1      47.271  27.187  28.862  1.00  0.00     0.031 A 
ATOM     25  C   UNL A   1      40.352  28.711  28.923  1.00  0.00     0.031 A 
ATOM     26  C   UNL A   1      46.936  28.476  29.398  1.00  0.00     0.049 A 
ATOM     27  C   UNL A   1      41.396  29.664  29.440  1.00  0.00     0.074 A 
ATOM     28  C   UNL A   1      47.772  29.455  29.898  1.00  0.00     0.029 A 
ATOM     29  N   UNL A   1      45.637  28.960  29.500  1.00  0.00    -0.354 N 
ATOM     30  N   UNL A   1      42.701  29.521  29.472  1.00  0.00    -0.248 NA
ATOM     31  C   UNL A   1      40.913  30.937  29.988  1.00  0.00     0.031 C 
ATOM     32  C   UNL A   1      46.973  30.516  30.343  1.00  0.00     0.029 A 
ATOM     33  C   UNL A   1      45.646  30.218  30.070  1.00  0.00     0.049 A 
ATOM     34  H   UNL A   1      44.830  28.478  29.209  1.00  0.00     0.167 HD
ATOM     35  C   UNL A   1      43.197  30.688  30.035  1.00  0.00     0.074 A 
ATOM     36  C   UNL A   1      42.053  31.538  30.303  1.00  0.00     0.031 C 
ATOM     37  C   UNL A   1      44.480  31.027  30.316  1.00  0.00     0.031 A 
BRANCH  24  38
ATOM     38  C   UNL A   1      48.709  26.769  28.759  1.00  0.00    -0.014 A 
ATOM     39  C   UNL A   1      49.453  26.983  27.586  1.00  0.00     0.009 A 
ATOM     40  C   UNL A   1      49.312  26.099  29.834  1.00  0.00     0.009 A 
ATOM     41  C   UNL A   1      50.759  26.496  27.481  1.00  0.00     0.001 A 
ATOM     42  C   UNL A   1      50.624  25.635  29.734  1.00  0.00     0.001 A 
ATOM     43  C   UNL A   1      51.342  25.823  28.554  1.00  0.00     0.000 A 
ENDBRANCH  24  38
BRANCH  25  44
ATOM     44  C   UNL A   1      38.907  29.066  28.925  1.00  0.00    -0.014 A 
ATOM     45  C   UNL A   1      38.294  29.625  27.794  1.00  0.00     0.009 A 
ATOM     46  C   UNL A   1      38.133  28.867  30.081  1.00  0.00     0.009 A 
ATOM     47  C   UNL A   1      36.947  29.998  27.829  1.00  0.00     0.001 A 
ATOM     48  C   UNL A   1      36.779  29.212  30.103  1.00  0.00     0.001 A 
ATOM     49  C   UNL A   1      36.190  29.787  28.981  1.00  0.00     0.000 A 
ENDBRANCH  25  44
BRANCH  37  50
ATOM     50  C   UNL A   1      44.698  32.384  30.915  1.00  0.00    -0.014 A 
ATOM     51  C   UNL A   1      44.729  32.566  32.305  1.00  0.00     0.009 A 
ATOM     52  C   UNL A   1      44.920  33.484  30.073  1.00  0.00     0.009 A 
ATOM     53  C   UNL A   1      44.949  33.834  32.842  1.00  0.00     0.001 A 
ATOM     54  C   UNL A   1      45.168  34.745  30.613  1.00  0.00     0.001 A 
ATOM     55  C   UNL A   1      45.174  34.921  31.996  1.00  0.00     0.000 A 
ENDBRANCH  37  50
ENDBRANCH  11  12
ENDBRANCH   4   6
ENDBRANCH   3   4
ENDBRANCH   2   3
ENDBRANCH   1   2
BRANCH   1  56
ATOM     56  O   UNL A   1      37.708  21.003  25.076  1.00  0.00    -0.374 OA
BRANCH  56  57
ATOM     57  C   UNL A   1      38.413  22.063  25.734  1.00  0.00     0.202 C 
BRANCH  57  58
ATOM     58  C   UNL A   1      37.538  23.314  25.725  1.00  0.00     0.261 C 
BRANCH  58  59
ATOM     59  O   UNL A   1      36.172  22.883  25.798  1.00  0.00    -0.460 OA
BRANCH  59  60
ATOM     60  C   UNL A   1      35.403  23.148  24.713  1.00  0.00     0.338 C 
ATOM     61  O   UNL A   1      35.733  23.718  23.689  1.00  0.00    -0.246 OA
BRANCH  60  62
ATOM     62  C   UNL A   1      34.137  22.399  24.873  1.00  0.00     0.071 A 
ATOM     63  C   UNL A   1      34.216  21.026  24.627  1.00  0.00     0.045 A 
ATOM     64  C   UNL A   1      32.948  22.991  25.355  1.00  0.00     0.018 A 
ATOM     65  C   UNL A   1      33.120  20.247  24.931  1.00  0.00     0.072 A 
ATOM     66  C   UNL A   1      31.881  22.112  25.617  1.00  0.00     0.107 A 
ATOM     67  C   UNL A   1      32.773  24.384  25.581  1.00  0.00     0.011 A 
ATOM     68  N   UNL A   1      31.976  20.778  25.412  1.00  0.00    -0.245 NA
ATOM     69  C   UNL A   1      30.700  22.661  26.119  1.00  0.00     0.149 A 
ATOM     70  C   UNL A   1      31.584  24.894  26.091  1.00  0.00     0.004 A 
ATOM     71  F   UNL A   1      29.658  21.858  26.393  1.00  0.00    -0.205 F 
ATOM     72  C   UNL A   1      30.542  24.025  26.363  1.00  0.00     0.041 A 
BRANCH  65  73
ATOM     73  C   UNL A   1      33.135  18.788  24.809  1.00  0.00     0.003 A 
ATOM     74  C   UNL A   1      32.540  17.982  25.795  1.00  0.00     0.010 A 
ATOM     75  C   UNL A   1      33.768  18.159  23.727  1.00  0.00     0.049 A 
ATOM     76  C   UNL A   1      32.568  16.586  25.698  1.00  0.00     0.004 A 
ATOM     77  C   UNL A   1      33.795  16.769  23.642  1.00  0.00     0.123 A 
ATOM     78  C   UNL A   1      33.199  15.977  24.615  1.00  0.00     0.039 A 
ATOM     79  F   UNL A   1      34.409  16.186  22.603  1.00  0.00    -0.207 F 
ENDBRANCH  65  73
ENDBRANCH  60  62
ENDBRANCH  59  60
ENDBRANCH  58  59
ENDBRANCH  57  58
ENDBRANCH  56  57
ENDBRANCH   1  56
TORSDOF 15
ENDMDL
