MODEL 1
REMARK VINA RESULT:     -11.8      0.000      0.000
REMARK SMILES Cc1ccc(C)c(NS(=O)(=O)c2cc(C(=O)OCCOCCOC(=O)c3ccc(-c4c5nc(c(-c6ccccc6)c6ccc([nH]6)c(-c6ccccc6)c6nc(c(-c7ccccc7)c7ccc4[nH]7)C=C6)C=C5)cc3)ccc2Cl)c1
REMARK SMILES IDX 19 1 18 2 17 3 15 4 16 5 14 6 12 7 13 8 76 9 75 10 77 11
REMARK SMILES IDX 74 12 9 13 10 14 11 15 8 16 7 18 1 19 2 20 3 21 78 22 4 23
REMARK SMILES IDX 5 24 6 25 20 26 21 27 22 28 23 29 24 30 25 31 26 32 27 33
REMARK SMILES IDX 73 34 28 35 72 36 29 37 30 38 31 39 66 40 32 41 71 42 65 43
REMARK SMILES IDX 67 44 33 45 70 46 64 47 63 48 34 50 56 51 41 52 55 53 42 54
REMARK SMILES IDX 45 55 54 56 68 57 43 58 44 59 53 61 69 62 46 63 35 64 36 65
REMARK SMILES IDX 40 66 37 67 39 68 38 69 57 70 58 71 62 72 59 73 61 74 60 75
REMARK SMILES IDX 47 76 48 77 52 78 49 79 51 80 50 81
REMARK H PARENT 8 17 67 49 45 60
REMARK Flexibility Score: inf
ROOT
ATOM      1  C   UNL A   1      35.768  21.410  26.107  1.00  0.00     0.202 C 
ENDROOT
BRANCH   1   2
ATOM      2  C   UNL A   1      35.009  20.827  24.902  1.00  0.00     0.261 C 
BRANCH   2   3
ATOM      3  O   UNL A   1      34.438  21.949  24.202  1.00  0.00    -0.460 OA
BRANCH   3   4
ATOM      4  C   UNL A   1      33.164  21.680  23.832  1.00  0.00     0.338 C 
ATOM      5  O   UNL A   1      32.740  20.554  23.649  1.00  0.00    -0.246 OA
BRANCH   4   6
ATOM      6  C   UNL A   1      32.298  22.883  23.871  1.00  0.00     0.061 A 
ATOM      7  C   UNL A   1      31.703  25.101  23.045  1.00  0.00     0.107 A 
ATOM      8  C   UNL A   1      32.433  23.902  22.911  1.00  0.00     0.039 A 
ATOM      9  C   UNL A   1      30.672  25.176  23.975  1.00  0.00     0.061 A 
ATOM     10  C   UNL A   1      30.507  24.132  24.894  1.00  0.00     0.023 A 
ATOM     11  Cl  UNL A   1      29.568  26.493  24.087  1.00  0.00    -0.083 Cl
ATOM     12  C   UNL A   1      31.342  23.018  24.873  1.00  0.00     0.017 A 
BRANCH   7  13
ATOM     13  S   UNL A   1      32.261  26.527  22.148  1.00  0.00     0.263 S 
ATOM     14  O   UNL A   1      31.088  27.266  21.730  1.00  0.00    -0.201 OA
ATOM     15  O   UNL A   1      33.193  26.077  21.135  1.00  0.00    -0.201 OA
BRANCH  13  16
ATOM     16  N   UNL A   1      33.149  27.568  23.168  1.00  0.00    -0.279 N 
ATOM     17  H   UNL A   1      33.984  27.947  22.810  1.00  0.00     0.180 HD
BRANCH  16  18
ATOM     18  C   UNL A   1      32.777  27.940  24.515  1.00  0.00     0.052 A 
ATOM     19  C   UNL A   1      31.513  31.145  26.181  1.00  0.00     0.044 C 
ATOM     20  C   UNL A   1      31.906  29.717  25.960  1.00  0.00    -0.049 A 
ATOM     21  C   UNL A   1      31.900  28.838  27.040  1.00  0.00     0.004 A 
ATOM     22  C   UNL A   1      32.295  29.246  24.694  1.00  0.00     0.030 A 
ATOM     23  C   UNL A   1      32.468  27.583  26.900  1.00  0.00     0.006 A 
ATOM     24  C   UNL A   1      33.016  27.185  25.670  1.00  0.00    -0.027 A 
ATOM     25  C   UNL A   1      33.957  26.034  25.732  1.00  0.00     0.046 C 
ENDBRANCH  16  18
ENDBRANCH  13  16
ENDBRANCH   7  13
ENDBRANCH   4   6
ENDBRANCH   3   4
ENDBRANCH   2   3
ENDBRANCH   1   2
BRANCH   1  26
ATOM     26  O   UNL A   1      37.014  21.903  25.629  1.00  0.00    -0.374 OA
BRANCH  26  27
ATOM     27  C   UNL A   1      38.090  21.010  25.433  1.00  0.00     0.202 C 
BRANCH  27  28
ATOM     28  C   UNL A   1      39.415  21.524  25.990  1.00  0.00     0.261 C 
BRANCH  28  29
ATOM     29  O   UNL A   1      39.326  22.641  26.911  1.00  0.00    -0.460 OA
BRANCH  29  30
ATOM     30  C   UNL A   1      40.464  23.035  27.551  1.00  0.00     0.338 C 
ATOM     31  O   UNL A   1      41.258  22.272  28.073  1.00  0.00    -0.246 OA
BRANCH  30  32
ATOM     32  C   UNL A   1      40.546  24.526  27.594  1.00  0.00     0.060 A 
ATOM     33  C   UNL A   1      41.468  25.138  28.449  1.00  0.00     0.016 A 
ATOM     34  C   UNL A   1      39.499  25.276  27.046  1.00  0.00     0.016 A 
ATOM     35  C   UNL A   1      41.215  26.443  28.900  1.00  0.00     0.010 A 
ATOM     36  C   UNL A   1      39.208  26.535  27.563  1.00  0.00     0.010 A 
ATOM     37  C   UNL A   1      40.025  27.116  28.543  1.00  0.00    -0.014 A 
BRANCH  37  38
ATOM     38  C   UNL A   1      39.846  28.573  28.775  1.00  0.00     0.031 A 
ATOM     39  C   UNL A   1      41.073  29.213  28.295  1.00  0.00     0.074 A 
ATOM     40  C   UNL A   1      38.887  29.377  29.312  1.00  0.00     0.049 A 
ATOM     41  N   UNL A   1      42.022  29.538  29.108  1.00  0.00    -0.248 NA
ATOM     42  C   UNL A   1      41.446  29.208  26.876  1.00  0.00     0.031 C 
ATOM     43  C   UNL A   1      37.738  29.050  30.136  1.00  0.00     0.029 A 
ATOM     44  N   UNL A   1      38.730  30.758  29.200  1.00  0.00    -0.354 N 
ATOM     45  C   UNL A   1      42.993  30.072  28.301  1.00  0.00     0.074 A 
ATOM     46  C   UNL A   1      42.720  29.600  26.964  1.00  0.00     0.031 C 
ATOM     47  C   UNL A   1      36.880  30.084  30.214  1.00  0.00     0.029 A 
ATOM     48  C   UNL A   1      37.439  31.213  29.513  1.00  0.00     0.049 A 
ATOM     49  H   UNL A   1      39.459  31.359  28.926  1.00  0.00     0.167 HD
ATOM     50  C   UNL A   1      43.627  31.191  28.731  1.00  0.00     0.031 A 
ATOM     51  C   UNL A   1      36.925  32.443  29.774  1.00  0.00     0.031 A 
ATOM     52  C   UNL A   1      43.433  31.413  30.147  1.00  0.00     0.049 A 
ATOM     53  C   UNL A   1      37.994  33.230  30.381  1.00  0.00     0.074 A 
ATOM     54  C   UNL A   1      43.855  30.814  31.316  1.00  0.00     0.029 A 
ATOM     55  N   UNL A   1      42.301  32.128  30.449  1.00  0.00    -0.354 N 
ATOM     56  N   UNL A   1      38.406  33.040  31.599  1.00  0.00    -0.248 NA
ATOM     57  C   UNL A   1      38.889  33.958  29.500  1.00  0.00     0.031 C 
ATOM     58  C   UNL A   1      42.883  31.127  32.311  1.00  0.00     0.029 A 
ATOM     59  C   UNL A   1      41.913  31.953  31.753  1.00  0.00     0.049 A 
ATOM     60  H   UNL A   1      41.823  32.700  29.806  1.00  0.00     0.167 HD
ATOM     61  C   UNL A   1      39.775  33.167  31.484  1.00  0.00     0.074 A 
ATOM     62  C   UNL A   1      39.997  33.896  30.239  1.00  0.00     0.031 C 
ATOM     63  C   UNL A   1      40.610  32.379  32.216  1.00  0.00     0.031 A 
BRANCH  50  64
ATOM     64  C   UNL A   1      43.891  32.323  27.783  1.00  0.00    -0.014 A 
ATOM     65  C   UNL A   1      43.534  33.619  28.165  1.00  0.00     0.009 A 
ATOM     66  C   UNL A   1      44.235  32.120  26.429  1.00  0.00     0.009 A 
ATOM     67  C   UNL A   1      43.534  34.663  27.234  1.00  0.00     0.001 A 
ATOM     68  C   UNL A   1      44.278  33.163  25.508  1.00  0.00     0.001 A 
ATOM     69  C   UNL A   1      43.913  34.436  25.911  1.00  0.00     0.000 A 
ENDBRANCH  50  64
BRANCH  51  70
ATOM     70  C   UNL A   1      35.579  32.996  29.485  1.00  0.00    -0.014 A 
ATOM     71  C   UNL A   1      35.012  33.989  30.306  1.00  0.00     0.009 A 
ATOM     72  C   UNL A   1      34.964  32.754  28.244  1.00  0.00     0.009 A 
ATOM     73  C   UNL A   1      33.938  34.775  29.862  1.00  0.00     0.001 A 
ATOM     74  C   UNL A   1      33.892  33.542  27.799  1.00  0.00     0.001 A 
ATOM     75  C   UNL A   1      33.397  34.570  28.597  1.00  0.00     0.000 A 
ENDBRANCH  51  70
BRANCH  63  76
ATOM     76  C   UNL A   1      40.094  31.838  33.520  1.00  0.00    -0.014 A 
ATOM     77  C   UNL A   1      40.292  32.449  34.768  1.00  0.00     0.009 A 
ATOM     78  C   UNL A   1      39.315  30.672  33.463  1.00  0.00     0.009 A 
ATOM     79  C   UNL A   1      39.732  31.895  35.928  1.00  0.00     0.001 A 
ATOM     80  C   UNL A   1      38.744  30.130  34.614  1.00  0.00     0.001 A 
ATOM     81  C   UNL A   1      38.954  30.740  35.848  1.00  0.00     0.000 A 
ENDBRANCH  63  76
ENDBRANCH  37  38
ENDBRANCH  30  32
ENDBRANCH  29  30
ENDBRANCH  28  29
ENDBRANCH  27  28
ENDBRANCH  26  27
ENDBRANCH   1  26
TORSDOF 17
ENDMDL
MODEL 2
REMARK VINA RESULT:     -11.5      2.412      3.591
REMARK SMILES Cc1ccc(C)c(NS(=O)(=O)c2cc(C(=O)OCCOCCOC(=O)c3ccc(-c4c5nc(c(-c6ccccc6)c6ccc([nH]6)c(-c6ccccc6)c6nc(c(-c7ccccc7)c7ccc4[nH]7)C=C6)C=C5)cc3)ccc2Cl)c1
REMARK SMILES IDX 19 1 18 2 17 3 15 4 16 5 14 6 12 7 13 8 76 9 75 10 77 11
REMARK SMILES IDX 74 12 9 13 10 14 11 15 8 16 7 18 1 19 2 20 3 21 78 22 4 23
REMARK SMILES IDX 5 24 6 25 20 26 21 27 22 28 23 29 24 30 25 31 26 32 27 33
REMARK SMILES IDX 73 34 28 35 72 36 29 37 30 38 31 39 66 40 32 41 71 42 65 43
REMARK SMILES IDX 67 44 33 45 70 46 64 47 63 48 34 50 56 51 41 52 55 53 42 54
REMARK SMILES IDX 45 55 54 56 68 57 43 58 44 59 53 61 69 62 46 63 35 64 36 65
REMARK SMILES IDX 40 66 37 67 39 68 38 69 57 70 58 71 62 72 59 73 61 74 60 75
REMARK SMILES IDX 47 76 48 77 52 78 49 79 51 80 50 81
REMARK H PARENT 8 17 67 49 45 60
REMARK Flexibility Score: inf
ROOT
ATOM      1  C   UNL A   1      33.904  20.842  24.723  1.00  0.00     0.202 C 
ENDROOT
BRANCH   1   2
ATOM      2  C   UNL A   1      33.208  21.506  25.925  1.00  0.00     0.261 C 
BRANCH   2   3
ATOM      3  O   UNL A   1      32.340  22.519  25.381  1.00  0.00    -0.460 OA
BRANCH   3   4
ATOM      4  C   UNL A   1      32.243  23.568  26.230  1.00  0.00     0.338 C 
ATOM      5  O   UNL A   1      31.930  23.458  27.402  1.00  0.00    -0.246 OA
BRANCH   4   6
ATOM      6  C   UNL A   1      32.751  24.827  25.634  1.00  0.00     0.061 A 
ATOM      7  C   UNL A   1      33.245  27.211  25.804  1.00  0.00     0.107 A 
ATOM      8  C   UNL A   1      32.899  25.988  26.415  1.00  0.00     0.039 A 
ATOM      9  C   UNL A   1      33.682  27.219  24.484  1.00  0.00     0.061 A 
ATOM     10  C   UNL A   1      33.584  26.045  23.727  1.00  0.00     0.023 A 
ATOM     11  Cl  UNL A   1      34.340  28.601  23.695  1.00  0.00    -0.083 Cl
ATOM     12  C   UNL A   1      33.078  24.872  24.283  1.00  0.00     0.017 A 
BRANCH   7  13
ATOM     13  S   UNL A   1      32.924  28.712  26.694  1.00  0.00     0.263 S 
ATOM     14  O   UNL A   1      31.739  28.498  27.499  1.00  0.00    -0.201 OA
ATOM     15  O   UNL A   1      32.924  29.802  25.739  1.00  0.00    -0.201 OA
BRANCH  13  16
ATOM     16  N   UNL A   1      34.194  29.047  27.783  1.00  0.00    -0.279 N 
ATOM     17  H   UNL A   1      34.483  28.317  28.378  1.00  0.00     0.180 HD
BRANCH  16  18
ATOM     18  C   UNL A   1      34.882  30.313  27.907  1.00  0.00     0.052 A 
ATOM     19  C   UNL A   1      33.809  33.986  27.881  1.00  0.00     0.044 C 
ATOM     20  C   UNL A   1      34.643  32.748  28.014  1.00  0.00    -0.049 A 
ATOM     21  C   UNL A   1      36.011  32.875  28.239  1.00  0.00     0.004 A 
ATOM     22  C   UNL A   1      34.081  31.465  27.902  1.00  0.00     0.030 A 
ATOM     23  C   UNL A   1      36.823  31.757  28.142  1.00  0.00     0.006 A 
ATOM     24  C   UNL A   1      36.270  30.500  27.853  1.00  0.00    -0.027 A 
ATOM     25  C   UNL A   1      37.230  29.477  27.357  1.00  0.00     0.046 C 
ENDBRANCH  16  18
ENDBRANCH  13  16
ENDBRANCH   7  13
ENDBRANCH   4   6
ENDBRANCH   3   4
ENDBRANCH   2   3
ENDBRANCH   1   2
BRANCH   1  26
ATOM     26  O   UNL A   1      35.186  21.442  24.587  1.00  0.00    -0.374 OA
BRANCH  26  27
ATOM     27  C   UNL A   1      36.083  21.430  25.677  1.00  0.00     0.202 C 
BRANCH  27  28
ATOM     28  C   UNL A   1      37.507  21.043  25.288  1.00  0.00     0.261 C 
BRANCH  28  29
ATOM     29  O   UNL A   1      38.485  22.113  25.312  1.00  0.00    -0.460 OA
BRANCH  29  30
ATOM     30  C   UNL A   1      39.500  22.033  26.219  1.00  0.00     0.338 C 
ATOM     31  O   UNL A   1      40.232  21.066  26.348  1.00  0.00    -0.246 OA
BRANCH  30  32
ATOM     32  C   UNL A   1      39.525  23.252  27.081  1.00  0.00     0.060 A 
ATOM     33  C   UNL A   1      38.576  24.259  26.874  1.00  0.00     0.016 A 
ATOM     34  C   UNL A   1      40.669  23.520  27.841  1.00  0.00     0.016 A 
ATOM     35  C   UNL A   1      38.882  25.573  27.262  1.00  0.00     0.010 A 
ATOM     36  C   UNL A   1      41.005  24.836  28.144  1.00  0.00     0.010 A 
ATOM     37  C   UNL A   1      40.147  25.892  27.807  1.00  0.00    -0.014 A 
BRANCH  37  38
ATOM     38  C   UNL A   1      40.410  27.197  28.467  1.00  0.00     0.031 A 
ATOM     39  C   UNL A   1      41.591  27.755  27.804  1.00  0.00     0.074 A 
ATOM     40  C   UNL A   1      39.860  27.919  29.482  1.00  0.00     0.049 A 
ATOM     41  N   UNL A   1      42.769  27.634  28.320  1.00  0.00    -0.248 NA
ATOM     42  C   UNL A   1      41.570  28.163  26.395  1.00  0.00     0.031 C 
ATOM     43  C   UNL A   1      38.920  27.524  30.516  1.00  0.00     0.029 A 
ATOM     44  N   UNL A   1      40.035  29.264  29.803  1.00  0.00    -0.354 N 
ATOM     45  C   UNL A   1      43.600  28.244  27.416  1.00  0.00     0.074 A 
ATOM     46  C   UNL A   1      42.879  28.294  26.166  1.00  0.00     0.031 C 
ATOM     47  C   UNL A   1      38.403  28.597  31.143  1.00  0.00     0.029 A 
ATOM     48  C   UNL A   1      39.028  29.789  30.629  1.00  0.00     0.049 A 
ATOM     49  H   UNL A   1      40.796  29.797  29.479  1.00  0.00     0.167 HD
ATOM     50  C   UNL A   1      44.586  29.038  27.899  1.00  0.00     0.031 A 
ATOM     51  C   UNL A   1      38.929  30.928  31.364  1.00  0.00     0.031 A 
ATOM     52  C   UNL A   1      44.829  28.803  29.306  1.00  0.00     0.049 A 
ATOM     53  C   UNL A   1      40.282  31.285  31.778  1.00  0.00     0.074 A 
ATOM     54  C   UNL A   1      45.373  27.791  30.067  1.00  0.00     0.029 A 
ATOM     55  N   UNL A   1      44.034  29.549  30.141  1.00  0.00    -0.354 N 
ATOM     56  N   UNL A   1      40.934  30.637  32.697  1.00  0.00    -0.248 NA
ATOM     57  C   UNL A   1      41.073  32.112  30.884  1.00  0.00     0.031 C 
ATOM     58  C   UNL A   1      44.806  27.904  31.370  1.00  0.00     0.029 A 
ATOM     59  C   UNL A   1      43.967  29.014  31.402  1.00  0.00     0.049 A 
ATOM     60  H   UNL A   1      43.567  30.371  29.868  1.00  0.00     0.167 HD
ATOM     61  C   UNL A   1      42.212  30.574  32.181  1.00  0.00     0.074 A 
ATOM     62  C   UNL A   1      42.281  31.631  31.176  1.00  0.00     0.031 C 
ATOM     63  C   UNL A   1      42.980  29.464  32.361  1.00  0.00     0.031 A 
BRANCH  50  64
ATOM     64  C   UNL A   1      44.873  30.364  27.259  1.00  0.00    -0.014 A 
ATOM     65  C   UNL A   1      46.195  30.690  26.946  1.00  0.00     0.009 A 
ATOM     66  C   UNL A   1      43.919  31.403  27.196  1.00  0.00     0.009 A 
ATOM     67  C   UNL A   1      46.540  31.995  26.577  1.00  0.00     0.001 A 
ATOM     68  C   UNL A   1      44.249  32.692  26.789  1.00  0.00     0.001 A 
ATOM     69  C   UNL A   1      45.568  32.990  26.491  1.00  0.00     0.000 A 
ENDBRANCH  50  64
BRANCH  51  70
ATOM     70  C   UNL A   1      37.740  31.754  31.689  1.00  0.00    -0.014 A 
ATOM     71  C   UNL A   1      37.771  33.155  31.552  1.00  0.00     0.009 A 
ATOM     72  C   UNL A   1      36.484  31.149  31.867  1.00  0.00     0.009 A 
ATOM     73  C   UNL A   1      36.588  33.907  31.493  1.00  0.00     0.001 A 
ATOM     74  C   UNL A   1      35.301  31.900  31.806  1.00  0.00     0.001 A 
ATOM     75  C   UNL A   1      35.352  33.275  31.592  1.00  0.00     0.000 A 
ENDBRANCH  51  70
BRANCH  63  76
ATOM     76  C   UNL A   1      42.700  28.609  33.565  1.00  0.00    -0.014 A 
ATOM     77  C   UNL A   1      41.738  27.589  33.608  1.00  0.00     0.009 A 
ATOM     78  C   UNL A   1      43.502  28.819  34.697  1.00  0.00     0.009 A 
ATOM     79  C   UNL A   1      41.579  26.809  34.763  1.00  0.00     0.001 A 
ATOM     80  C   UNL A   1      43.357  28.033  35.839  1.00  0.00     0.001 A 
ATOM     81  C   UNL A   1      42.393  27.029  35.874  1.00  0.00     0.000 A 
ENDBRANCH  63  76
ENDBRANCH  37  38
ENDBRANCH  30  32
ENDBRANCH  29  30
ENDBRANCH  28  29
ENDBRANCH  27  28
ENDBRANCH  26  27
ENDBRANCH   1  26
TORSDOF 17
ENDMDL
MODEL 3
REMARK VINA RESULT:     -11.2      2.682      7.967
REMARK SMILES Cc1ccc(C)c(NS(=O)(=O)c2cc(C(=O)OCCOCCOC(=O)c3ccc(-c4c5nc(c(-c6ccccc6)c6ccc([nH]6)c(-c6ccccc6)c6nc(c(-c7ccccc7)c7ccc4[nH]7)C=C6)C=C5)cc3)ccc2Cl)c1
REMARK SMILES IDX 19 1 18 2 17 3 15 4 16 5 14 6 12 7 13 8 76 9 75 10 77 11
REMARK SMILES IDX 74 12 9 13 10 14 11 15 8 16 7 18 1 19 2 20 3 21 78 22 4 23
REMARK SMILES IDX 5 24 6 25 20 26 21 27 22 28 23 29 24 30 25 31 26 32 27 33
REMARK SMILES IDX 73 34 28 35 72 36 29 37 30 38 31 39 66 40 32 41 71 42 65 43
REMARK SMILES IDX 67 44 33 45 70 46 64 47 63 48 34 50 56 51 41 52 55 53 42 54
REMARK SMILES IDX 45 55 54 56 68 57 43 58 44 59 53 61 69 62 46 63 35 64 36 65
REMARK SMILES IDX 40 66 37 67 39 68 38 69 57 70 58 71 62 72 59 73 61 74 60 75
REMARK SMILES IDX 47 76 48 77 52 78 49 79 51 80 50 81
REMARK H PARENT 8 17 67 49 45 60
REMARK Flexibility Score: inf
ROOT
ATOM      1  C   UNL A   1      33.433  28.238  24.055  1.00  0.00     0.202 C 
ENDROOT
BRANCH   1   2
ATOM      2  C   UNL A   1      33.422  28.138  22.519  1.00  0.00     0.261 C 
BRANCH   2   3
ATOM      3  O   UNL A   1      32.787  26.885  22.201  1.00  0.00    -0.460 OA
BRANCH   3   4
ATOM      4  C   UNL A   1      31.484  26.905  22.567  1.00  0.00     0.338 C 
ATOM      5  O   UNL A   1      30.620  27.495  21.945  1.00  0.00    -0.246 OA
BRANCH   4   6
ATOM      6  C   UNL A   1      31.196  25.973  23.684  1.00  0.00     0.061 A 
ATOM      7  C   UNL A   1      31.545  23.839  24.814  1.00  0.00     0.107 A 
ATOM      8  C   UNL A   1      31.925  24.780  23.835  1.00  0.00     0.039 A 
ATOM      9  C   UNL A   1      30.617  24.197  25.786  1.00  0.00     0.061 A 
ATOM     10  C   UNL A   1      29.935  25.413  25.661  1.00  0.00     0.023 A 
ATOM     11  Cl  UNL A   1      30.234  23.228  27.157  1.00  0.00    -0.083 Cl
ATOM     12  C   UNL A   1      30.186  26.272  24.593  1.00  0.00     0.017 A 
BRANCH   7  13
ATOM     13  S   UNL A   1      32.128  22.172  24.645  1.00  0.00     0.263 S 
ATOM     14  O   UNL A   1      32.605  22.012  23.287  1.00  0.00    -0.201 OA
ATOM     15  O   UNL A   1      31.084  21.286  25.120  1.00  0.00    -0.201 OA
BRANCH  13  16
ATOM     16  N   UNL A   1      33.469  21.899  25.664  1.00  0.00    -0.279 N 
ATOM     17  H   UNL A   1      33.284  21.601  26.584  1.00  0.00     0.180 HD
BRANCH  16  18
ATOM     18  C   UNL A   1      34.856  22.070  25.290  1.00  0.00     0.052 A 
ATOM     19  C   UNL A   1      37.868  19.735  24.940  1.00  0.00     0.044 C 
ATOM     20  C   UNL A   1      36.997  20.953  24.881  1.00  0.00    -0.049 A 
ATOM     21  C   UNL A   1      37.555  22.165  24.481  1.00  0.00     0.004 A 
ATOM     22  C   UNL A   1      35.637  20.906  25.231  1.00  0.00     0.030 A 
ATOM     23  C   UNL A   1      36.826  23.333  24.633  1.00  0.00     0.006 A 
ATOM     24  C   UNL A   1      35.523  23.294  25.154  1.00  0.00    -0.027 A 
ATOM     25  C   UNL A   1      35.001  24.589  25.668  1.00  0.00     0.046 C 
ENDBRANCH  16  18
ENDBRANCH  13  16
ENDBRANCH   7  13
ENDBRANCH   4   6
ENDBRANCH   3   4
ENDBRANCH   2   3
ENDBRANCH   1   2
BRANCH   1  26
ATOM     26  O   UNL A   1      32.840  29.483  24.407  1.00  0.00    -0.374 OA
BRANCH  26  27
ATOM     27  C   UNL A   1      31.899  29.535  25.458  1.00  0.00     0.202 C 
BRANCH  27  28
ATOM     28  C   UNL A   1      32.318  30.455  26.602  1.00  0.00     0.261 C 
BRANCH  28  29
ATOM     29  O   UNL A   1      33.725  30.805  26.653  1.00  0.00    -0.460 OA
BRANCH  29  30
ATOM     30  C   UNL A   1      34.154  31.578  27.691  1.00  0.00     0.338 C 
ATOM     31  O   UNL A   1      33.661  32.649  28.000  1.00  0.00    -0.246 OA
BRANCH  30  32
ATOM     32  C   UNL A   1      35.360  30.969  28.329  1.00  0.00     0.060 A 
ATOM     33  C   UNL A   1      36.391  31.800  28.780  1.00  0.00     0.016 A 
ATOM     34  C   UNL A   1      35.590  29.598  28.167  1.00  0.00     0.016 A 
ATOM     35  C   UNL A   1      37.692  31.280  28.874  1.00  0.00     0.010 A 
ATOM     36  C   UNL A   1      36.894  29.111  28.177  1.00  0.00     0.010 A 
ATOM     37  C   UNL A   1      37.974  29.954  28.471  1.00  0.00    -0.014 A 
BRANCH  37  38
ATOM     38  C   UNL A   1      39.262  29.291  28.800  1.00  0.00     0.031 A 
ATOM     39  C   UNL A   1      39.378  29.334  30.259  1.00  0.00     0.074 A 
ATOM     40  C   UNL A   1      40.285  28.721  28.106  1.00  0.00     0.049 A 
ATOM     41  N   UNL A   1      40.079  30.244  30.849  1.00  0.00    -0.248 NA
ATOM     42  C   UNL A   1      38.460  28.594  31.133  1.00  0.00     0.031 C 
ATOM     43  C   UNL A   1      40.623  28.797  26.695  1.00  0.00     0.029 A 
ATOM     44  N   UNL A   1      41.297  27.877  28.560  1.00  0.00    -0.354 N 
ATOM     45  C   UNL A   1      39.925  29.979  32.186  1.00  0.00     0.074 A 
ATOM     46  C   UNL A   1      38.738  29.166  32.308  1.00  0.00     0.031 C 
ATOM     47  C   UNL A   1      41.530  27.862  26.358  1.00  0.00     0.029 A 
ATOM     48  C   UNL A   1      41.930  27.145  27.542  1.00  0.00     0.049 A 
ATOM     49  H   UNL A   1      41.545  27.801  29.509  1.00  0.00     0.167 HD
ATOM     50  C   UNL A   1      41.021  30.066  32.978  1.00  0.00     0.031 A 
ATOM     51  C   UNL A   1      43.082  26.426  27.493  1.00  0.00     0.031 A 
ATOM     52  C   UNL A   1      42.094  30.796  32.339  1.00  0.00     0.049 A 
ATOM     53  C   UNL A   1      44.004  27.037  28.445  1.00  0.00     0.074 A 
ATOM     54  C   UNL A   1      42.335  32.108  31.989  1.00  0.00     0.029 A 
ATOM     55  N   UNL A   1      42.913  30.017  31.560  1.00  0.00    -0.354 N 
ATOM     56  N   UNL A   1      44.594  28.175  28.227  1.00  0.00    -0.248 NA
ATOM     57  C   UNL A   1      43.960  26.584  29.824  1.00  0.00     0.031 C 
ATOM     58  C   UNL A   1      43.265  32.081  30.908  1.00  0.00     0.029 A 
ATOM     59  C   UNL A   1      43.619  30.761  30.650  1.00  0.00     0.049 A 
ATOM     60  H   UNL A   1      42.984  29.039  31.643  1.00  0.00     0.167 HD
ATOM     61  C   UNL A   1      44.532  28.794  29.458  1.00  0.00     0.074 A 
ATOM     62  C   UNL A   1      44.302  27.724  30.424  1.00  0.00     0.031 C 
ATOM     63  C   UNL A   1      44.325  30.137  29.551  1.00  0.00     0.031 A 
BRANCH  50  64
ATOM     64  C   UNL A   1      41.289  29.018  34.017  1.00  0.00    -0.014 A 
ATOM     65  C   UNL A   1      41.491  29.417  35.341  1.00  0.00     0.009 A 
ATOM     66  C   UNL A   1      41.608  27.682  33.689  1.00  0.00     0.009 A 
ATOM     67  C   UNL A   1      41.979  28.514  36.292  1.00  0.00     0.001 A 
ATOM     68  C   UNL A   1      42.053  26.769  34.640  1.00  0.00     0.001 A 
ATOM     69  C   UNL A   1      42.251  27.192  35.943  1.00  0.00     0.000 A 
ENDBRANCH  50  64
BRANCH  51  70
ATOM     70  C   UNL A   1      43.417  25.213  26.708  1.00  0.00    -0.014 A 
ATOM     71  C   UNL A   1      42.481  24.173  26.545  1.00  0.00     0.009 A 
ATOM     72  C   UNL A   1      44.555  25.194  25.884  1.00  0.00     0.009 A 
ATOM     73  C   UNL A   1      42.628  23.214  25.531  1.00  0.00     0.001 A 
ATOM     74  C   UNL A   1      44.701  24.237  24.869  1.00  0.00     0.001 A 
ATOM     75  C   UNL A   1      43.724  23.263  24.675  1.00  0.00     0.000 A 
ENDBRANCH  51  70
BRANCH  63  76
ATOM     76  C   UNL A   1      44.755  30.991  28.391  1.00  0.00    -0.014 A 
ATOM     77  C   UNL A   1      43.915  31.381  27.337  1.00  0.00     0.009 A 
ATOM     78  C   UNL A   1      46.073  31.470  28.407  1.00  0.00     0.009 A 
ATOM     79  C   UNL A   1      44.392  32.220  26.320  1.00  0.00     0.001 A 
ATOM     80  C   UNL A   1      46.544  32.319  27.405  1.00  0.00     0.001 A 
ATOM     81  C   UNL A   1      45.704  32.692  26.359  1.00  0.00     0.000 A 
ENDBRANCH  63  76
ENDBRANCH  37  38
ENDBRANCH  30  32
ENDBRANCH  29  30
ENDBRANCH  28  29
ENDBRANCH  27  28
ENDBRANCH  26  27
ENDBRANCH   1  26
TORSDOF 17
ENDMDL
