MODEL 1
REMARK VINA RESULT:     -10.5      0.000      0.000
REMARK SMILES O=C(OCCOCCOC(=O)c1ccc(C(F)(F)F)cc1NC(=O)c1ccon1)c1ccc(-c2c3nc(c(-c4ccccc4)c4ccc([nH]4)c(-c4ccccc4)c4nc(c(-c5ccccc5)c5ccc2[nH]5)C=C4)C=C3)cc1
REMARK SMILES IDX 6 1 5 2 4 3 3 4 2 5 1 6 30 7 31 8 77 9 32 10 76 11 33 12
REMARK SMILES IDX 34 13 35 14 70 15 36 16 75 17 69 18 71 19 37 20 74 21 68 22
REMARK SMILES IDX 67 23 38 25 60 26 45 27 59 28 46 29 49 30 58 31 72 32 47 33
REMARK SMILES IDX 48 34 57 36 73 37 50 38 39 39 40 40 44 41 41 42 43 43 42 44
REMARK SMILES IDX 61 45 62 46 66 47 63 48 65 49 64 50 51 51 52 52 56 53 53 54
REMARK SMILES IDX 55 55 54 56 7 57 8 58 9 59 10 60 11 61 12 62 13 63 21 64
REMARK SMILES IDX 14 65 20 66 15 67 22 68 23 69 24 71 25 72 26 73 29 74 27 75
REMARK SMILES IDX 28 76 16 77 17 78 18 79 19 80
REMARK H PARENT 71 24 49 35 22 70
REMARK Flexibility Score: inf
ROOT
ATOM      1  O   UNL A   1      38.606  22.159  25.765  1.00  0.00    -0.374 OA
ENDROOT
BRANCH   1   2
ATOM      2  C   UNL A   1      38.167  20.803  25.782  1.00  0.00     0.202 C 
BRANCH   2   3
ATOM      3  C   UNL A   1      39.029  19.855  24.946  1.00  0.00     0.261 C 
BRANCH   3   4
ATOM      4  O   UNL A   1      39.964  19.165  25.785  1.00  0.00    -0.460 OA
BRANCH   4   5
ATOM      5  C   UNL A   1      41.272  19.450  25.973  1.00  0.00     0.338 C 
ATOM      6  O   UNL A   1      42.101  18.560  25.791  1.00  0.00    -0.246 OA
BRANCH   5   7
ATOM      7  C   UNL A   1      41.781  20.792  26.385  1.00  0.00     0.060 A 
ATOM      8  C   UNL A   1      42.071  21.848  25.516  1.00  0.00     0.016 A 
ATOM      9  C   UNL A   1      41.855  21.037  27.765  1.00  0.00     0.016 A 
ATOM     10  C   UNL A   1      42.413  23.104  25.977  1.00  0.00     0.010 A 
ATOM     11  C   UNL A   1      42.199  22.300  28.246  1.00  0.00     0.010 A 
ATOM     12  C   UNL A   1      42.475  23.332  27.343  1.00  0.00    -0.014 A 
BRANCH  12  13
ATOM     13  C   UNL A   1      42.977  24.633  27.785  1.00  0.00     0.031 A 
ATOM     14  C   UNL A   1      41.975  25.633  28.249  1.00  0.00     0.074 A 
ATOM     15  C   UNL A   1      44.300  24.838  27.867  1.00  0.00     0.049 A 
ATOM     16  N   UNL A   1      42.146  26.882  28.576  1.00  0.00    -0.248 NA
ATOM     17  C   UNL A   1      40.586  25.154  28.366  1.00  0.00     0.031 C 
ATOM     18  C   UNL A   1      45.331  23.836  27.584  1.00  0.00     0.029 A 
ATOM     19  N   UNL A   1      45.003  25.955  28.223  1.00  0.00    -0.354 N 
ATOM     20  C   UNL A   1      40.879  27.354  28.886  1.00  0.00     0.074 A 
ATOM     21  C   UNL A   1      39.952  26.258  28.721  1.00  0.00     0.031 C 
ATOM     22  C   UNL A   1      46.539  24.392  27.763  1.00  0.00     0.029 A 
ATOM     23  C   UNL A   1      46.360  25.800  28.095  1.00  0.00     0.049 A 
ATOM     24  H   UNL A   1      44.578  26.784  28.541  1.00  0.00     0.167 HD
ATOM     25  C   UNL A   1      40.535  28.608  29.249  1.00  0.00     0.031 A 
ATOM     26  C   UNL A   1      47.334  26.724  28.173  1.00  0.00     0.031 A 
ATOM     27  C   UNL A   1      41.497  29.667  29.366  1.00  0.00     0.049 A 
ATOM     28  C   UNL A   1      46.922  28.140  28.468  1.00  0.00     0.074 A 
ATOM     29  C   UNL A   1      41.293  30.998  29.666  1.00  0.00     0.029 A 
ATOM     30  N   UNL A   1      42.866  29.498  29.172  1.00  0.00    -0.354 N 
ATOM     31  N   UNL A   1      45.717  28.615  28.696  1.00  0.00    -0.248 NA
ATOM     32  C   UNL A   1      47.986  29.147  28.504  1.00  0.00     0.031 C 
ATOM     33  C   UNL A   1      42.532  31.647  29.589  1.00  0.00     0.029 A 
ATOM     34  C   UNL A   1      43.517  30.706  29.317  1.00  0.00     0.049 A 
ATOM     35  H   UNL A   1      43.304  28.642  28.962  1.00  0.00     0.167 HD
ATOM     36  C   UNL A   1      45.877  29.972  28.923  1.00  0.00     0.074 A 
ATOM     37  C   UNL A   1      47.301  30.241  28.815  1.00  0.00     0.031 C 
ATOM     38  C   UNL A   1      44.941  30.913  29.201  1.00  0.00     0.031 A 
BRANCH  25  39
ATOM     39  C   UNL A   1      39.067  28.886  29.399  1.00  0.00    -0.014 A 
ATOM     40  C   UNL A   1      38.279  29.342  28.329  1.00  0.00     0.009 A 
ATOM     41  C   UNL A   1      38.481  28.776  30.670  1.00  0.00     0.009 A 
ATOM     42  C   UNL A   1      36.957  29.743  28.545  1.00  0.00     0.001 A 
ATOM     43  C   UNL A   1      37.151  29.146  30.876  1.00  0.00     0.001 A 
ATOM     44  C   UNL A   1      36.396  29.646  29.817  1.00  0.00     0.000 A 
ENDBRANCH  25  39
BRANCH  26  45
ATOM     45  C   UNL A   1      48.741  26.342  27.887  1.00  0.00    -0.014 A 
ATOM     46  C   UNL A   1      49.602  25.915  28.907  1.00  0.00     0.009 A 
ATOM     47  C   UNL A   1      49.221  26.357  26.565  1.00  0.00     0.009 A 
ATOM     48  C   UNL A   1      50.912  25.521  28.612  1.00  0.00     0.001 A 
ATOM     49  C   UNL A   1      50.519  25.935  26.268  1.00  0.00     0.001 A 
ATOM     50  C   UNL A   1      51.365  25.524  27.293  1.00  0.00     0.000 A 
ENDBRANCH  26  45
BRANCH  38  51
ATOM     51  C   UNL A   1      45.433  32.309  29.452  1.00  0.00    -0.014 A 
ATOM     52  C   UNL A   1      45.461  33.267  28.430  1.00  0.00     0.009 A 
ATOM     53  C   UNL A   1      45.770  32.687  30.762  1.00  0.00     0.009 A 
ATOM     54  C   UNL A   1      45.831  34.582  28.715  1.00  0.00     0.001 A 
ATOM     55  C   UNL A   1      46.108  34.007  31.048  1.00  0.00     0.001 A 
ATOM     56  C   UNL A   1      46.143  34.952  30.024  1.00  0.00     0.000 A 
ENDBRANCH  38  51
ENDBRANCH  12  13
ENDBRANCH   5   7
ENDBRANCH   4   5
ENDBRANCH   3   4
ENDBRANCH   2   3
ENDBRANCH   1   2
BRANCH   1  57
ATOM     57  C   UNL A   1      37.767  23.107  25.098  1.00  0.00     0.202 C 
BRANCH  57  58
ATOM     58  C   UNL A   1      36.778  23.678  26.113  1.00  0.00     0.261 C 
BRANCH  58  59
ATOM     59  O   UNL A   1      35.455  23.376  25.645  1.00  0.00    -0.460 OA
BRANCH  59  60
ATOM     60  C   UNL A   1      34.671  22.698  26.520  1.00  0.00     0.340 C 
ATOM     61  O   UNL A   1      34.383  23.031  27.659  1.00  0.00    -0.246 OA
BRANCH  60  62
ATOM     62  C   UNL A   1      34.054  21.541  25.824  1.00  0.00     0.083 A 
ATOM     63  C   UNL A   1      34.957  20.620  25.257  1.00  0.00     0.018 A 
ATOM     64  C   UNL A   1      32.662  21.336  25.726  1.00  0.00     0.056 A 
ATOM     65  C   UNL A   1      34.492  19.503  24.569  1.00  0.00     0.014 A 
ATOM     66  C   UNL A   1      32.232  20.291  24.904  1.00  0.00     0.040 A 
ATOM     67  C   UNL A   1      33.124  19.352  24.349  1.00  0.00     0.058 A 
BRANCH  64  68
ATOM     68  N   UNL A   1      31.790  22.138  26.500  1.00  0.00    -0.320 N 
ATOM     69  C   UNL A   1      31.088  23.306  26.305  1.00  0.00     0.277 C 
ATOM     70  H   UNL A   1      31.652  21.769  27.403  1.00  0.00     0.170 HD
ATOM     71  O   UNL A   1      30.268  23.637  27.164  1.00  0.00    -0.267 OA
BRANCH  69  72
ATOM     72  C   UNL A   1      31.306  24.104  25.117  1.00  0.00     0.171 A 
ATOM     73  C   UNL A   1      30.661  24.003  23.855  1.00  0.00     0.079 A 
ATOM     74  N   UNL A   1      32.258  25.049  25.095  1.00  0.00    -0.075 NA
ATOM     75  C   UNL A   1      31.339  24.893  23.064  1.00  0.00     0.232 A 
ATOM     76  O   UNL A   1      32.276  25.536  23.802  1.00  0.00    -0.364 OA
ENDBRANCH  69  72
ENDBRANCH  64  68
BRANCH  67  77
ATOM     77  C   UNL A   1      32.605  18.188  23.538  1.00  0.00     0.416 C 
ATOM     78  F   UNL A   1      31.950  18.584  22.415  1.00  0.00    -0.166 F 
ATOM     79  F   UNL A   1      33.608  17.366  23.122  1.00  0.00    -0.166 F 
ATOM     80  F   UNL A   1      31.737  17.392  24.222  1.00  0.00    -0.166 F 
ENDBRANCH  67  77
ENDBRANCH  60  62
ENDBRANCH  59  60
ENDBRANCH  58  59
ENDBRANCH  57  58
ENDBRANCH   1  57
TORSDOF 17
ENDMDL
MODEL 2
REMARK VINA RESULT:     -10.2      3.874      7.424
REMARK SMILES O=C(OCCOCCOC(=O)c1ccc(C(F)(F)F)cc1NC(=O)c1ccon1)c1ccc(-c2c3nc(c(-c4ccccc4)c4ccc([nH]4)c(-c4ccccc4)c4nc(c(-c5ccccc5)c5ccc2[nH]5)C=C4)C=C3)cc1
REMARK SMILES IDX 6 1 5 2 4 3 3 4 2 5 1 6 30 7 31 8 77 9 32 10 76 11 33 12
REMARK SMILES IDX 34 13 35 14 70 15 36 16 75 17 69 18 71 19 37 20 74 21 68 22
REMARK SMILES IDX 67 23 38 25 60 26 45 27 59 28 46 29 49 30 58 31 72 32 47 33
REMARK SMILES IDX 48 34 57 36 73 37 50 38 39 39 40 40 44 41 41 42 43 43 42 44
REMARK SMILES IDX 61 45 62 46 66 47 63 48 65 49 64 50 51 51 52 52 56 53 53 54
REMARK SMILES IDX 55 55 54 56 7 57 8 58 9 59 10 60 11 61 12 62 13 63 21 64
REMARK SMILES IDX 14 65 20 66 15 67 22 68 23 69 24 71 25 72 26 73 29 74 27 75
REMARK SMILES IDX 28 76 16 77 17 78 18 79 19 80
REMARK H PARENT 71 24 49 35 22 70
REMARK Flexibility Score: inf
ROOT
ATOM      1  O   UNL A   1      40.045  21.573  26.519  1.00  0.00    -0.374 OA
ENDROOT
BRANCH   1   2
ATOM      2  C   UNL A   1      41.092  20.617  26.372  1.00  0.00     0.202 C 
BRANCH   2   3
ATOM      3  C   UNL A   1      42.462  21.229  26.073  1.00  0.00     0.261 C 
BRANCH   3   4
ATOM      4  O   UNL A   1      42.312  22.430  25.305  1.00  0.00    -0.460 OA
BRANCH   4   5
ATOM      5  C   UNL A   1      42.926  23.618  25.501  1.00  0.00     0.338 C 
ATOM      6  O   UNL A   1      43.877  23.916  24.782  1.00  0.00    -0.246 OA
BRANCH   5   7
ATOM      7  C   UNL A   1      42.514  24.606  26.544  1.00  0.00     0.060 A 
ATOM      8  C   UNL A   1      41.605  24.358  27.577  1.00  0.00     0.016 A 
ATOM      9  C   UNL A   1      43.189  25.836  26.543  1.00  0.00     0.016 A 
ATOM     10  C   UNL A   1      41.370  25.276  28.582  1.00  0.00     0.010 A 
ATOM     11  C   UNL A   1      42.963  26.772  27.551  1.00  0.00     0.010 A 
ATOM     12  C   UNL A   1      42.051  26.483  28.571  1.00  0.00    -0.014 A 
BRANCH  12  13
ATOM     13  C   UNL A   1      41.668  27.478  29.572  1.00  0.00     0.031 A 
ATOM     14  C   UNL A   1      42.493  27.560  30.810  1.00  0.00     0.074 A 
ATOM     15  C   UNL A   1      40.681  28.346  29.299  1.00  0.00     0.049 A 
ATOM     16  N   UNL A   1      42.299  28.264  31.887  1.00  0.00    -0.248 NA
ATOM     17  C   UNL A   1      43.713  26.732  30.832  1.00  0.00     0.031 C 
ATOM     18  C   UNL A   1      39.947  28.421  28.033  1.00  0.00     0.029 A 
ATOM     19  N   UNL A   1      40.135  29.335  30.066  1.00  0.00    -0.354 N 
ATOM     20  C   UNL A   1      43.341  27.927  32.737  1.00  0.00     0.074 A 
ATOM     21  C   UNL A   1      44.172  26.965  32.049  1.00  0.00     0.031 C 
ATOM     22  C   UNL A   1      39.032  29.398  28.118  1.00  0.00     0.029 A 
ATOM     23  C   UNL A   1      39.069  29.956  29.465  1.00  0.00     0.049 A 
ATOM     24  H   UNL A   1      40.472  29.579  30.958  1.00  0.00     0.167 HD
ATOM     25  C   UNL A   1      43.555  28.371  33.994  1.00  0.00     0.031 A 
ATOM     26  C   UNL A   1      38.187  30.828  29.984  1.00  0.00     0.031 A 
ATOM     27  C   UNL A   1      42.676  29.305  34.640  1.00  0.00     0.049 A 
ATOM     28  C   UNL A   1      38.373  31.227  31.421  1.00  0.00     0.074 A 
ATOM     29  C   UNL A   1      42.728  29.802  35.926  1.00  0.00     0.029 A 
ATOM     30  N   UNL A   1      41.565  29.877  34.026  1.00  0.00    -0.354 N 
ATOM     31  N   UNL A   1      39.317  30.861  32.260  1.00  0.00    -0.248 NA
ATOM     32  C   UNL A   1      37.379  32.141  31.991  1.00  0.00     0.031 C 
ATOM     33  C   UNL A   1      41.610  30.624  36.111  1.00  0.00     0.029 A 
ATOM     34  C   UNL A   1      40.904  30.700  34.917  1.00  0.00     0.049 A 
ATOM     35  H   UNL A   1      41.290  29.717  33.095  1.00  0.00     0.167 HD
ATOM     36  C   UNL A   1      39.045  31.514  33.452  1.00  0.00     0.074 A 
ATOM     37  C   UNL A   1      37.850  32.308  33.221  1.00  0.00     0.031 C 
ATOM     38  C   UNL A   1      39.718  31.470  34.629  1.00  0.00     0.031 A 
BRANCH  25  39
ATOM     39  C   UNL A   1      44.691  27.741  34.747  1.00  0.00    -0.014 A 
ATOM     40  C   UNL A   1      44.482  26.757  35.728  1.00  0.00     0.009 A 
ATOM     41  C   UNL A   1      45.995  28.213  34.531  1.00  0.00     0.009 A 
ATOM     42  C   UNL A   1      45.545  26.311  36.520  1.00  0.00     0.001 A 
ATOM     43  C   UNL A   1      47.060  27.742  35.300  1.00  0.00     0.001 A 
ATOM     44  C   UNL A   1      46.831  26.804  36.306  1.00  0.00     0.000 A 
ENDBRANCH  25  39
BRANCH  26  45
ATOM     45  C   UNL A   1      37.034  31.289  29.167  1.00  0.00    -0.014 A 
ATOM     46  C   UNL A   1      35.942  30.450  28.909  1.00  0.00     0.009 A 
ATOM     47  C   UNL A   1      37.001  32.607  28.674  1.00  0.00     0.009 A 
ATOM     48  C   UNL A   1      34.849  30.917  28.170  1.00  0.00     0.001 A 
ATOM     49  C   UNL A   1      35.897  33.079  27.963  1.00  0.00     0.001 A 
ATOM     50  C   UNL A   1      34.824  32.232  27.706  1.00  0.00     0.000 A 
ENDBRANCH  26  45
BRANCH  38  51
ATOM     51  C   UNL A   1      39.203  32.339  35.739  1.00  0.00    -0.014 A 
ATOM     52  C   UNL A   1      38.284  31.854  36.679  1.00  0.00     0.009 A 
ATOM     53  C   UNL A   1      39.735  33.629  35.897  1.00  0.00     0.009 A 
ATOM     54  C   UNL A   1      37.898  32.652  37.756  1.00  0.00     0.001 A 
ATOM     55  C   UNL A   1      39.372  34.411  36.991  1.00  0.00     0.001 A 
ATOM     56  C   UNL A   1      38.450  33.924  37.916  1.00  0.00     0.000 A 
ENDBRANCH  38  51
ENDBRANCH  12  13
ENDBRANCH   5   7
ENDBRANCH   4   5
ENDBRANCH   3   4
ENDBRANCH   2   3
ENDBRANCH   1   2
BRANCH   1  57
ATOM     57  C   UNL A   1      38.856  21.359  25.752  1.00  0.00     0.202 C 
BRANCH  57  58
ATOM     58  C   UNL A   1      38.074  22.671  25.695  1.00  0.00     0.261 C 
BRANCH  58  59
ATOM     59  O   UNL A   1      36.689  22.359  25.908  1.00  0.00    -0.460 OA
BRANCH  59  60
ATOM     60  C   UNL A   1      35.847  22.760  24.924  1.00  0.00     0.340 C 
ATOM     61  O   UNL A   1      35.898  23.803  24.291  1.00  0.00    -0.246 OA
BRANCH  60  62
ATOM     62  C   UNL A   1      34.922  21.647  24.594  1.00  0.00     0.083 A 
ATOM     63  C   UNL A   1      35.302  20.377  25.072  1.00  0.00     0.018 A 
ATOM     64  C   UNL A   1      33.726  21.811  23.864  1.00  0.00     0.056 A 
ATOM     65  C   UNL A   1      34.519  19.257  24.812  1.00  0.00     0.014 A 
ATOM     66  C   UNL A   1      33.045  20.647  23.495  1.00  0.00     0.040 A 
ATOM     67  C   UNL A   1      33.404  19.376  23.983  1.00  0.00     0.058 A 
BRANCH  64  68
ATOM     68  N   UNL A   1      33.249  23.117  23.605  1.00  0.00    -0.320 N 
ATOM     69  C   UNL A   1      32.465  24.033  24.271  1.00  0.00     0.277 C 
ATOM     70  H   UNL A   1      33.553  23.456  22.732  1.00  0.00     0.170 HD
ATOM     71  O   UNL A   1      32.392  25.174  23.810  1.00  0.00    -0.267 OA
BRANCH  69  72
ATOM     72  C   UNL A   1      31.765  23.656  25.480  1.00  0.00     0.171 A 
ATOM     73  C   UNL A   1      30.625  22.819  25.617  1.00  0.00     0.079 A 
ATOM     74  N   UNL A   1      32.138  24.157  26.668  1.00  0.00    -0.075 NA
ATOM     75  C   UNL A   1      30.301  22.913  26.945  1.00  0.00     0.232 A 
ATOM     76  O   UNL A   1      31.211  23.690  27.581  1.00  0.00    -0.364 OA
ENDBRANCH  69  72
ENDBRANCH  64  68
BRANCH  67  77
ATOM     77  C   UNL A   1      32.585  18.157  23.626  1.00  0.00     0.416 C 
ATOM     78  F   UNL A   1      31.781  18.365  22.549  1.00  0.00    -0.166 F 
ATOM     79  F   UNL A   1      33.367  17.088  23.314  1.00  0.00    -0.166 F 
ATOM     80  F   UNL A   1      31.769  17.737  24.632  1.00  0.00    -0.166 F 
ENDBRANCH  67  77
ENDBRANCH  60  62
ENDBRANCH  59  60
ENDBRANCH  58  59
ENDBRANCH  57  58
ENDBRANCH   1  57
TORSDOF 17
ENDMDL
MODEL 3
REMARK VINA RESULT:     -10.2      0.658      5.938
REMARK SMILES O=C(OCCOCCOC(=O)c1ccc(C(F)(F)F)cc1NC(=O)c1ccon1)c1ccc(-c2c3nc(c(-c4ccccc4)c4ccc([nH]4)c(-c4ccccc4)c4nc(c(-c5ccccc5)c5ccc2[nH]5)C=C4)C=C3)cc1
REMARK SMILES IDX 6 1 5 2 4 3 3 4 2 5 1 6 30 7 31 8 77 9 32 10 76 11 33 12
REMARK SMILES IDX 34 13 35 14 70 15 36 16 75 17 69 18 71 19 37 20 74 21 68 22
REMARK SMILES IDX 67 23 38 25 60 26 45 27 59 28 46 29 49 30 58 31 72 32 47 33
REMARK SMILES IDX 48 34 57 36 73 37 50 38 39 39 40 40 44 41 41 42 43 43 42 44
REMARK SMILES IDX 61 45 62 46 66 47 63 48 65 49 64 50 51 51 52 52 56 53 53 54
REMARK SMILES IDX 55 55 54 56 7 57 8 58 9 59 10 60 11 61 12 62 13 63 21 64
REMARK SMILES IDX 14 65 20 66 15 67 22 68 23 69 24 71 25 72 26 73 29 74 27 75
REMARK SMILES IDX 28 76 16 77 17 78 18 79 19 80
REMARK H PARENT 71 24 49 35 22 70
REMARK Flexibility Score: inf
ROOT
ATOM      1  O   UNL A   1      38.458  22.048  25.565  1.00  0.00    -0.374 OA
ENDROOT
BRANCH   1   2
ATOM      2  C   UNL A   1      38.125  20.679  25.778  1.00  0.00     0.202 C 
BRANCH   2   3
ATOM      3  C   UNL A   1      39.000  19.692  25.003  1.00  0.00     0.261 C 
BRANCH   3   4
ATOM      4  O   UNL A   1      39.973  19.101  25.875  1.00  0.00    -0.460 OA
BRANCH   4   5
ATOM      5  C   UNL A   1      41.230  19.531  26.123  1.00  0.00     0.338 C 
ATOM      6  O   UNL A   1      42.159  18.735  26.004  1.00  0.00    -0.246 OA
BRANCH   5   7
ATOM      7  C   UNL A   1      41.565  20.928  26.532  1.00  0.00     0.060 A 
ATOM      8  C   UNL A   1      41.595  21.400  27.848  1.00  0.00     0.016 A 
ATOM      9  C   UNL A   1      41.998  21.792  25.514  1.00  0.00     0.016 A 
ATOM     10  C   UNL A   1      42.040  22.669  28.162  1.00  0.00     0.010 A 
ATOM     11  C   UNL A   1      42.451  23.076  25.815  1.00  0.00     0.010 A 
ATOM     12  C   UNL A   1      42.471  23.507  27.145  1.00  0.00    -0.014 A 
BRANCH  12  13
ATOM     13  C   UNL A   1      42.800  24.886  27.507  1.00  0.00     0.031 A 
ATOM     14  C   UNL A   1      44.239  25.274  27.496  1.00  0.00     0.074 A 
ATOM     15  C   UNL A   1      41.812  25.769  27.718  1.00  0.00     0.049 A 
ATOM     16  N   UNL A   1      44.797  26.384  27.884  1.00  0.00    -0.248 NA
ATOM     17  C   UNL A   1      45.178  24.268  26.967  1.00  0.00     0.031 C 
ATOM     18  C   UNL A   1      40.381  25.486  27.579  1.00  0.00     0.029 A 
ATOM     19  N   UNL A   1      41.862  27.084  28.083  1.00  0.00    -0.354 N 
ATOM     20  C   UNL A   1      46.158  26.192  27.697  1.00  0.00     0.074 A 
ATOM     21  C   UNL A   1      46.342  24.867  27.151  1.00  0.00     0.031 C 
ATOM     22  C   UNL A   1      39.687  26.596  27.872  1.00  0.00     0.029 A 
ATOM     23  C   UNL A   1      40.622  27.633  28.292  1.00  0.00     0.049 A 
ATOM     24  H   UNL A   1      42.702  27.587  28.185  1.00  0.00     0.167 HD
ATOM     25  C   UNL A   1      47.158  27.051  27.990  1.00  0.00     0.031 A 
ATOM     26  C   UNL A   1      40.296  28.821  28.829  1.00  0.00     0.031 A 
ATOM     27  C   UNL A   1      46.918  28.346  28.563  1.00  0.00     0.049 A 
ATOM     28  C   UNL A   1      41.422  29.721  29.254  1.00  0.00     0.074 A 
ATOM     29  C   UNL A   1      47.828  29.301  28.967  1.00  0.00     0.029 A 
ATOM     30  N   UNL A   1      45.649  28.857  28.820  1.00  0.00    -0.354 N 
ATOM     31  N   UNL A   1      42.718  29.523  29.146  1.00  0.00    -0.248 NA
ATOM     32  C   UNL A   1      41.056  30.994  29.882  1.00  0.00     0.031 C 
ATOM     33  C   UNL A   1      47.109  30.363  29.529  1.00  0.00     0.029 A 
ATOM     34  C   UNL A   1      45.751  30.103  29.405  1.00  0.00     0.049 A 
ATOM     35  H   UNL A   1      44.803  28.397  28.615  1.00  0.00     0.167 HD
ATOM     36  C   UNL A   1      43.323  30.653  29.672  1.00  0.00     0.074 A 
ATOM     37  C   UNL A   1      42.249  31.537  30.091  1.00  0.00     0.031 C 
ATOM     38  C   UNL A   1      44.643  30.941  29.798  1.00  0.00     0.031 A 
BRANCH  25  39
ATOM     39  C   UNL A   1      48.559  26.540  27.811  1.00  0.00    -0.014 A 
ATOM     40  C   UNL A   1      49.261  26.692  26.604  1.00  0.00     0.009 A 
ATOM     41  C   UNL A   1      49.153  25.807  28.851  1.00  0.00     0.009 A 
ATOM     42  C   UNL A   1      50.497  26.064  26.422  1.00  0.00     0.001 A 
ATOM     43  C   UNL A   1      50.402  25.209  28.677  1.00  0.00     0.001 A 
ATOM     44  C   UNL A   1      51.065  25.323  27.457  1.00  0.00     0.000 A 
ENDBRANCH  25  39
BRANCH  26  45
ATOM     45  C   UNL A   1      38.867  29.161  29.061  1.00  0.00    -0.014 A 
ATOM     46  C   UNL A   1      38.250  28.914  30.294  1.00  0.00     0.009 A 
ATOM     47  C   UNL A   1      38.118  29.788  28.047  1.00  0.00     0.009 A 
ATOM     48  C   UNL A   1      36.915  29.277  30.505  1.00  0.00     0.001 A 
ATOM     49  C   UNL A   1      36.796  30.176  28.270  1.00  0.00     0.001 A 
ATOM     50  C   UNL A   1      36.193  29.915  29.496  1.00  0.00     0.000 A 
ENDBRANCH  26  45
BRANCH  38  51
ATOM     51  C   UNL A   1      44.994  32.285  30.368  1.00  0.00    -0.014 A 
ATOM     52  C   UNL A   1      45.160  33.406  29.544  1.00  0.00     0.009 A 
ATOM     53  C   UNL A   1      45.054  32.438  31.762  1.00  0.00     0.009 A 
ATOM     54  C   UNL A   1      45.391  34.660  30.109  1.00  0.00     0.001 A 
ATOM     55  C   UNL A   1      45.253  33.697  32.324  1.00  0.00     0.001 A 
ATOM     56  C   UNL A   1      45.426  34.806  31.497  1.00  0.00     0.000 A 
ENDBRANCH  38  51
ENDBRANCH  12  13
ENDBRANCH   5   7
ENDBRANCH   4   5
ENDBRANCH   3   4
ENDBRANCH   2   3
ENDBRANCH   1   2
BRANCH   1  57
ATOM     57  C   UNL A   1      37.467  22.871  24.943  1.00  0.00     0.202 C 
BRANCH  57  58
ATOM     58  C   UNL A   1      36.478  23.330  26.012  1.00  0.00     0.261 C 
BRANCH  58  59
ATOM     59  O   UNL A   1      35.160  22.980  25.563  1.00  0.00    -0.460 OA
BRANCH  59  60
ATOM     60  C   UNL A   1      34.464  22.161  26.391  1.00  0.00     0.340 C 
ATOM     61  O   UNL A   1      34.115  22.399  27.537  1.00  0.00    -0.246 OA
BRANCH  60  62
ATOM     62  C   UNL A   1      34.022  20.964  25.632  1.00  0.00     0.083 A 
ATOM     63  C   UNL A   1      35.053  20.118  25.176  1.00  0.00     0.018 A 
ATOM     64  C   UNL A   1      32.671  20.653  25.375  1.00  0.00     0.056 A 
ATOM     65  C   UNL A   1      34.759  18.973  24.443  1.00  0.00     0.014 A 
ATOM     66  C   UNL A   1      32.421  19.582  24.512  1.00  0.00     0.040 A 
ATOM     67  C   UNL A   1      33.441  18.718  24.066  1.00  0.00     0.058 A 
BRANCH  64  68
ATOM     68  N   UNL A   1      31.656  21.380  26.040  1.00  0.00    -0.320 N 
ATOM     69  C   UNL A   1      30.981  22.560  25.821  1.00  0.00     0.277 C 
ATOM     70  H   UNL A   1      31.360  20.932  26.866  1.00  0.00     0.170 HD
ATOM     71  O   UNL A   1      30.010  22.811  26.539  1.00  0.00    -0.267 OA
BRANCH  69  72
ATOM     72  C   UNL A   1      31.400  23.461  24.769  1.00  0.00     0.171 A 
ATOM     73  C   UNL A   1      31.371  23.251  23.364  1.00  0.00     0.079 A 
ATOM     74  N   UNL A   1      31.948  24.649  25.066  1.00  0.00    -0.075 NA
ATOM     75  C   UNL A   1      32.003  24.354  22.851  1.00  0.00     0.232 A 
ATOM     76  O   UNL A   1      32.329  25.201  23.858  1.00  0.00    -0.364 OA
ENDBRANCH  69  72
ENDBRANCH  64  68
BRANCH  67  77
ATOM     77  C   UNL A   1      33.111  17.522  23.205  1.00  0.00     0.416 C 
ATOM     78  F   UNL A   1      32.600  16.486  23.922  1.00  0.00    -0.166 F 
ATOM     79  F   UNL A   1      32.185  17.817  22.252  1.00  0.00    -0.166 F 
ATOM     80  F   UNL A   1      34.185  17.023  22.532  1.00  0.00    -0.166 F 
ENDBRANCH  67  77
ENDBRANCH  60  62
ENDBRANCH  59  60
ENDBRANCH  58  59
ENDBRANCH  57  58
ENDBRANCH   1  57
TORSDOF 17
ENDMDL
