MODEL 1
REMARK VINA RESULT:     -10.8      0.000      0.000
REMARK SMILES Cc1c(Br)c(C)c2c(c1Br)O[C@H](C(F)(F)F)C(C(=O)OCCOCCOC(=O)c1ccc(-c3c4nc(c(-c5ccccc5)c5ccc([nH]5)c(-c5ccccc5)c5nc(c(-c6ccccc6)c6ccc3[nH]6)C=C5)C=C4)cc1)=C2
REMARK SMILES IDX 24 1 23 2 22 3 21 4 20 5 18 6 19 7 17 8 1 9 2 10 3 11 9 12
REMARK SMILES IDX 4 13 5 14 8 15 10 16 6 17 7 18 11 19 77 20 12 21 13 22 14 23
REMARK SMILES IDX 15 24 16 25 25 26 26 27 27 28 28 29 29 30 30 31 76 32 31 33
REMARK SMILES IDX 75 34 32 35 33 36 34 37 69 38 35 39 74 40 68 41 70 42 36 43
REMARK SMILES IDX 73 44 67 45 66 46 37 48 59 49 44 50 58 51 45 52 48 53 57 54
REMARK SMILES IDX 71 55 46 56 47 57 56 59 72 60 49 61 38 62 39 63 43 64 40 65
REMARK SMILES IDX 42 66 41 67 60 68 61 69 65 70 62 71 64 72 63 73 50 74 51 75
REMARK SMILES IDX 55 76 52 77 54 78 53 79
REMARK H PARENT 70 47 48 58
REMARK Flexibility Score: inf
ROOT
ATOM      1  C   UNL A   1      35.668  21.001  24.801  1.00  0.00     0.202 C 
ENDROOT
BRANCH   1   2
ATOM      2  O   UNL A   1      34.643  20.865  25.788  1.00  0.00    -0.374 OA
BRANCH   2   3
ATOM      3  C   UNL A   1      34.424  21.952  26.682  1.00  0.00     0.202 C 
BRANCH   3   4
ATOM      4  C   UNL A   1      35.035  23.303  26.298  1.00  0.00     0.261 C 
BRANCH   4   5
ATOM      5  O   UNL A   1      34.034  24.314  26.107  1.00  0.00    -0.460 OA
BRANCH   5   6
ATOM      6  C   UNL A   1      33.824  24.653  24.812  1.00  0.00     0.338 C 
ATOM      7  O   UNL A   1      33.979  23.939  23.833  1.00  0.00    -0.246 OA
BRANCH   6   8
ATOM      8  C   UNL A   1      33.248  26.007  24.735  1.00  0.00     0.087 C 
ATOM      9  C   UNL A   1      31.028  31.952  26.220  1.00  0.00     0.047 C 
ATOM     10  C   UNL A   1      31.817  30.688  25.965  1.00  0.00    -0.019 A 
ATOM     11  C   UNL A   1      33.017  30.438  26.677  1.00  0.00     0.025 A 
ATOM     12  C   UNL A   1      31.407  29.745  25.000  1.00  0.00     0.064 A 
ATOM     13  Br  UNL A   1      33.671  31.782  27.885  1.00  0.00    -0.050 Br
ATOM     14  C   UNL A   1      33.737  29.230  26.510  1.00  0.00    -0.026 A 
ATOM     15  C   UNL A   1      32.097  28.530  24.838  1.00  0.00     0.142 A 
ATOM     16  Br  UNL A   1      29.890  30.072  23.875  1.00  0.00    -0.046 Br
ATOM     17  C   UNL A   1      35.027  28.944  27.249  1.00  0.00     0.046 C 
ATOM     18  C   UNL A   1      33.225  28.254  25.620  1.00  0.00     0.022 A 
ATOM     19  O   UNL A   1      31.631  27.668  23.877  1.00  0.00    -0.474 OA
ATOM     20  C   UNL A   1      33.818  26.921  25.528  1.00  0.00     0.027 C 
ATOM     21  C   UNL A   1      32.087  26.293  23.840  1.00  0.00     0.316 C 
BRANCH  21  22
ATOM     22  C   UNL A   1      30.889  25.368  24.103  1.00  0.00     0.430 C 
ATOM     23  F   UNL A   1      30.945  24.260  23.325  1.00  0.00    -0.167 F 
ATOM     24  F   UNL A   1      30.863  24.937  25.386  1.00  0.00    -0.167 F 
ATOM     25  F   UNL A   1      29.711  25.981  23.855  1.00  0.00    -0.167 F 
ENDBRANCH  21  22
ENDBRANCH   6   8
ENDBRANCH   5   6
ENDBRANCH   4   5
ENDBRANCH   3   4
ENDBRANCH   2   3
ENDBRANCH   1   2
BRANCH   1  26
ATOM     26  C   UNL A   1      37.039  20.390  25.115  1.00  0.00     0.261 C 
BRANCH  26  27
ATOM     27  O   UNL A   1      38.087  21.378  25.078  1.00  0.00    -0.460 OA
BRANCH  27  28
ATOM     28  C   UNL A   1      39.128  21.137  25.909  1.00  0.00     0.338 C 
ATOM     29  O   UNL A   1      39.779  20.105  26.009  1.00  0.00    -0.246 OA
BRANCH  28  30
ATOM     30  C   UNL A   1      39.528  22.385  26.575  1.00  0.00     0.060 A 
ATOM     31  C   UNL A   1      38.903  23.571  26.169  1.00  0.00     0.016 A 
ATOM     32  C   UNL A   1      40.564  22.408  27.510  1.00  0.00     0.016 A 
ATOM     33  C   UNL A   1      39.337  24.794  26.673  1.00  0.00     0.010 A 
ATOM     34  C   UNL A   1      41.009  23.639  28.003  1.00  0.00     0.010 A 
ATOM     35  C   UNL A   1      40.420  24.836  27.560  1.00  0.00    -0.014 A 
BRANCH  35  36
ATOM     36  C   UNL A   1      41.031  26.148  27.879  1.00  0.00     0.031 A 
ATOM     37  C   UNL A   1      42.394  26.464  27.327  1.00  0.00     0.074 A 
ATOM     38  C   UNL A   1      40.355  27.071  28.584  1.00  0.00     0.049 A 
ATOM     39  N   UNL A   1      43.092  27.566  27.431  1.00  0.00    -0.248 NA
ATOM     40  C   UNL A   1      43.053  25.404  26.548  1.00  0.00     0.031 C 
ATOM     41  C   UNL A   1      39.006  26.902  29.122  1.00  0.00     0.029 A 
ATOM     42  N   UNL A   1      40.710  28.343  28.953  1.00  0.00    -0.354 N 
ATOM     43  C   UNL A   1      44.264  27.334  26.724  1.00  0.00     0.074 A 
ATOM     44  C   UNL A   1      44.204  25.977  26.229  1.00  0.00     0.031 C 
ATOM     45  C   UNL A   1      38.642  28.038  29.743  1.00  0.00     0.029 A 
ATOM     46  C   UNL A   1      39.740  29.000  29.670  1.00  0.00     0.049 A 
ATOM     47  H   UNL A   1      41.578  28.748  28.726  1.00  0.00     0.167 HD
ATOM     48  C   UNL A   1      45.294  28.182  26.491  1.00  0.00     0.031 A 
ATOM     49  C   UNL A   1      39.742  30.234  30.211  1.00  0.00     0.031 A 
ATOM     50  C   UNL A   1      45.364  29.526  26.994  1.00  0.00     0.049 A 
ATOM     51  C   UNL A   1      40.951  31.115  30.039  1.00  0.00     0.074 A 
ATOM     52  C   UNL A   1      46.360  30.465  26.801  1.00  0.00     0.029 A 
ATOM     53  N   UNL A   1      44.402  30.117  27.797  1.00  0.00    -0.354 N 
ATOM     54  N   UNL A   1      42.038  30.897  29.340  1.00  0.00    -0.248 NA
ATOM     55  C   UNL A   1      40.933  32.412  30.732  1.00  0.00     0.031 C 
ATOM     56  C   UNL A   1      46.029  31.606  27.538  1.00  0.00     0.029 A 
ATOM     57  C   UNL A   1      44.802  31.395  28.144  1.00  0.00     0.049 A 
ATOM     58  H   UNL A   1      43.559  29.692  28.078  1.00  0.00     0.167 HD
ATOM     59  C   UNL A   1      42.828  32.029  29.501  1.00  0.00     0.074 A 
ATOM     60  C   UNL A   1      42.085  32.942  30.346  1.00  0.00     0.031 C 
ATOM     61  C   UNL A   1      44.057  32.287  28.994  1.00  0.00     0.031 A 
BRANCH  48  62
ATOM     62  C   UNL A   1      46.440  27.672  25.669  1.00  0.00    -0.014 A 
ATOM     63  C   UNL A   1      47.455  26.893  26.247  1.00  0.00     0.009 A 
ATOM     64  C   UNL A   1      46.481  27.927  24.290  1.00  0.00     0.009 A 
ATOM     65  C   UNL A   1      48.501  26.401  25.464  1.00  0.00     0.001 A 
ATOM     66  C   UNL A   1      47.515  27.414  23.505  1.00  0.00     0.001 A 
ATOM     67  C   UNL A   1      48.527  26.656  24.094  1.00  0.00     0.000 A 
ENDBRANCH  48  62
BRANCH  49  68
ATOM     68  C   UNL A   1      38.562  30.710  30.979  1.00  0.00    -0.014 A 
ATOM     69  C   UNL A   1      37.501  31.358  30.328  1.00  0.00     0.009 A 
ATOM     70  C   UNL A   1      38.491  30.518  32.368  1.00  0.00     0.009 A 
ATOM     71  C   UNL A   1      36.400  31.817  31.056  1.00  0.00     0.001 A 
ATOM     72  C   UNL A   1      37.378  30.957  33.088  1.00  0.00     0.001 A 
ATOM     73  C   UNL A   1      36.337  31.610  32.434  1.00  0.00     0.000 A 
ENDBRANCH  49  68
BRANCH  61  74
ATOM     74  C   UNL A   1      44.696  33.602  29.339  1.00  0.00    -0.014 A 
ATOM     75  C   UNL A   1      45.565  33.710  30.436  1.00  0.00     0.009 A 
ATOM     76  C   UNL A   1      44.513  34.713  28.501  1.00  0.00     0.009 A 
ATOM     77  C   UNL A   1      46.233  34.910  30.689  1.00  0.00     0.001 A 
ATOM     78  C   UNL A   1      45.202  35.902  28.742  1.00  0.00     0.001 A 
ATOM     79  C   UNL A   1      46.059  36.000  29.837  1.00  0.00     0.000 A 
ENDBRANCH  61  74
ENDBRANCH  35  36
ENDBRANCH  28  30
ENDBRANCH  27  28
ENDBRANCH  26  27
ENDBRANCH   1  26
TORSDOF 15
ENDMDL
MODEL 2
REMARK VINA RESULT:     -10.7      0.505      5.852
REMARK SMILES Cc1c(Br)c(C)c2c(c1Br)O[C@H](C(F)(F)F)C(C(=O)OCCOCCOC(=O)c1ccc(-c3c4nc(c(-c5ccccc5)c5ccc([nH]5)c(-c5ccccc5)c5nc(c(-c6ccccc6)c6ccc3[nH]6)C=C5)C=C4)cc1)=C2
REMARK SMILES IDX 24 1 23 2 22 3 21 4 20 5 18 6 19 7 17 8 1 9 2 10 3 11 9 12
REMARK SMILES IDX 4 13 5 14 8 15 10 16 6 17 7 18 11 19 77 20 12 21 13 22 14 23
REMARK SMILES IDX 15 24 16 25 25 26 26 27 27 28 28 29 29 30 30 31 76 32 31 33
REMARK SMILES IDX 75 34 32 35 33 36 34 37 69 38 35 39 74 40 68 41 70 42 36 43
REMARK SMILES IDX 73 44 67 45 66 46 37 48 59 49 44 50 58 51 45 52 48 53 57 54
REMARK SMILES IDX 71 55 46 56 47 57 56 59 72 60 49 61 38 62 39 63 43 64 40 65
REMARK SMILES IDX 42 66 41 67 60 68 61 69 65 70 62 71 64 72 63 73 50 74 51 75
REMARK SMILES IDX 55 76 52 77 54 78 53 79
REMARK H PARENT 70 47 48 58
REMARK Flexibility Score: inf
ROOT
ATOM      1  C   UNL A   1      35.409  20.890  24.754  1.00  0.00     0.202 C 
ENDROOT
BRANCH   1   2
ATOM      2  O   UNL A   1      34.423  21.068  25.774  1.00  0.00    -0.374 OA
BRANCH   2   3
ATOM      3  C   UNL A   1      34.664  22.052  26.774  1.00  0.00     0.202 C 
BRANCH   3   4
ATOM      4  C   UNL A   1      35.011  23.464  26.294  1.00  0.00     0.261 C 
BRANCH   4   5
ATOM      5  O   UNL A   1      33.840  24.265  26.082  1.00  0.00    -0.460 OA
BRANCH   5   6
ATOM      6  C   UNL A   1      33.632  24.618  24.790  1.00  0.00     0.338 C 
ATOM      7  O   UNL A   1      33.751  23.903  23.807  1.00  0.00    -0.246 OA
BRANCH   6   8
ATOM      8  C   UNL A   1      33.107  25.994  24.723  1.00  0.00     0.087 C 
ATOM      9  C   UNL A   1      31.105  32.003  26.256  1.00  0.00     0.047 C 
ATOM     10  C   UNL A   1      31.847  30.713  25.992  1.00  0.00    -0.019 A 
ATOM     11  C   UNL A   1      33.034  30.412  26.705  1.00  0.00     0.025 A 
ATOM     12  C   UNL A   1      31.405  29.795  25.017  1.00  0.00     0.064 A 
ATOM     13  Br  UNL A   1      33.734  31.719  27.928  1.00  0.00    -0.050 Br
ATOM     14  C   UNL A   1      33.709  29.180  26.530  1.00  0.00    -0.026 A 
ATOM     15  C   UNL A   1      32.050  28.557  24.846  1.00  0.00     0.142 A 
ATOM     16  Br  UNL A   1      29.906  30.188  23.890  1.00  0.00    -0.046 Br
ATOM     17  C   UNL A   1      34.985  28.839  27.271  1.00  0.00     0.046 C 
ATOM     18  C   UNL A   1      33.165  28.231  25.630  1.00  0.00     0.022 A 
ATOM     19  O   UNL A   1      31.556  27.721  23.875  1.00  0.00    -0.474 OA
ATOM     20  C   UNL A   1      33.708  26.878  25.527  1.00  0.00     0.027 C 
ATOM     21  C   UNL A   1      31.960  26.330  23.827  1.00  0.00     0.316 C 
BRANCH  21  22
ATOM     22  C   UNL A   1      30.729  25.448  24.077  1.00  0.00     0.430 C 
ATOM     23  F   UNL A   1      30.697  25.002  25.356  1.00  0.00    -0.167 F 
ATOM     24  F   UNL A   1      29.577  26.131  23.880  1.00  0.00    -0.167 F 
ATOM     25  F   UNL A   1      30.705  24.367  23.266  1.00  0.00    -0.167 F 
ENDBRANCH  21  22
ENDBRANCH   6   8
ENDBRANCH   5   6
ENDBRANCH   4   5
ENDBRANCH   3   4
ENDBRANCH   2   3
ENDBRANCH   1   2
BRANCH   1  26
ATOM     26  C   UNL A   1      36.742  20.250  25.161  1.00  0.00     0.261 C 
BRANCH  26  27
ATOM     27  O   UNL A   1      37.845  21.161  25.001  1.00  0.00    -0.460 OA
BRANCH  27  28
ATOM     28  C   UNL A   1      38.927  20.889  25.768  1.00  0.00     0.338 C 
ATOM     29  O   UNL A   1      39.515  19.822  25.876  1.00  0.00    -0.246 OA
BRANCH  28  30
ATOM     30  C   UNL A   1      39.452  22.137  26.342  1.00  0.00     0.060 A 
ATOM     31  C   UNL A   1      38.815  23.335  25.993  1.00  0.00     0.016 A 
ATOM     32  C   UNL A   1      40.605  22.144  27.127  1.00  0.00     0.016 A 
ATOM     33  C   UNL A   1      39.352  24.552  26.402  1.00  0.00     0.010 A 
ATOM     34  C   UNL A   1      41.152  23.369  27.524  1.00  0.00     0.010 A 
ATOM     35  C   UNL A   1      40.546  24.576  27.133  1.00  0.00    -0.014 A 
BRANCH  35  36
ATOM     36  C   UNL A   1      41.236  25.873  27.332  1.00  0.00     0.031 A 
ATOM     37  C   UNL A   1      40.590  26.909  28.210  1.00  0.00     0.074 A 
ATOM     38  C   UNL A   1      42.451  26.095  26.803  1.00  0.00     0.049 A 
ATOM     39  N   UNL A   1      41.038  28.085  28.566  1.00  0.00    -0.248 NA
ATOM     40  C   UNL A   1      39.269  26.572  28.766  1.00  0.00     0.031 C 
ATOM     41  C   UNL A   1      43.203  25.147  25.983  1.00  0.00     0.029 A 
ATOM     42  N   UNL A   1      43.272  27.190  26.893  1.00  0.00    -0.354 N 
ATOM     43  C   UNL A   1      40.062  28.622  29.395  1.00  0.00     0.074 A 
ATOM     44  C   UNL A   1      38.980  27.665  29.457  1.00  0.00     0.031 C 
ATOM     45  C   UNL A   1      44.385  25.698  25.656  1.00  0.00     0.029 A 
ATOM     46  C   UNL A   1      44.459  27.046  26.218  1.00  0.00     0.049 A 
ATOM     47  H   UNL A   1      43.033  28.004  27.394  1.00  0.00     0.167 HD
ATOM     48  C   UNL A   1      40.071  29.801  30.060  1.00  0.00     0.031 A 
ATOM     49  C   UNL A   1      45.486  27.906  26.066  1.00  0.00     0.031 A 
ATOM     50  C   UNL A   1      41.137  30.761  29.989  1.00  0.00     0.049 A 
ATOM     51  C   UNL A   1      45.418  29.261  26.719  1.00  0.00     0.074 A 
ATOM     52  C   UNL A   1      41.242  31.978  30.637  1.00  0.00     0.029 A 
ATOM     53  N   UNL A   1      42.277  30.615  29.216  1.00  0.00    -0.354 N 
ATOM     54  N   UNL A   1      44.505  29.743  27.526  1.00  0.00    -0.248 NA
ATOM     55  C   UNL A   1      46.523  30.191  26.439  1.00  0.00     0.031 C 
ATOM     56  C   UNL A   1      42.421  32.596  30.209  1.00  0.00     0.029 A 
ATOM     57  C   UNL A   1      43.073  31.740  29.337  1.00  0.00     0.049 A 
ATOM     58  H   UNL A   1      42.490  29.828  28.664  1.00  0.00     0.167 HD
ATOM     59  C   UNL A   1      44.927  31.025  27.858  1.00  0.00     0.074 A 
ATOM     60  C   UNL A   1      46.191  31.238  27.181  1.00  0.00     0.031 C 
ATOM     61  C   UNL A   1      44.322  31.941  28.650  1.00  0.00     0.031 A 
BRANCH  48  62
ATOM     62  C   UNL A   1      38.878  30.126  30.911  1.00  0.00    -0.014 A 
ATOM     63  C   UNL A   1      37.744  30.745  30.361  1.00  0.00     0.009 A 
ATOM     64  C   UNL A   1      38.866  29.765  32.266  1.00  0.00     0.009 A 
ATOM     65  C   UNL A   1      36.631  31.016  31.158  1.00  0.00     0.001 A 
ATOM     66  C   UNL A   1      37.742  30.016  33.056  1.00  0.00     0.001 A 
ATOM     67  C   UNL A   1      36.629  30.646  32.503  1.00  0.00     0.000 A 
ENDBRANCH  48  62
BRANCH  49  68
ATOM     68  C   UNL A   1      46.665  27.517  25.250  1.00  0.00    -0.014 A 
ATOM     69  C   UNL A   1      46.783  27.943  23.918  1.00  0.00     0.009 A 
ATOM     70  C   UNL A   1      47.679  26.717  25.798  1.00  0.00     0.009 A 
ATOM     71  C   UNL A   1      47.886  27.564  23.148  1.00  0.00     0.001 A 
ATOM     72  C   UNL A   1      48.792  26.359  25.034  1.00  0.00     0.001 A 
ATOM     73  C   UNL A   1      48.891  26.777  23.709  1.00  0.00     0.000 A 
ENDBRANCH  49  68
BRANCH  61  74
ATOM     74  C   UNL A   1      45.000  33.269  28.831  1.00  0.00    -0.014 A 
ATOM     75  C   UNL A   1      46.049  33.419  29.751  1.00  0.00     0.009 A 
ATOM     76  C   UNL A   1      44.660  34.350  28.002  1.00  0.00     0.009 A 
ATOM     77  C   UNL A   1      46.740  34.629  29.841  1.00  0.00     0.001 A 
ATOM     78  C   UNL A   1      45.369  35.550  28.076  1.00  0.00     0.001 A 
ATOM     79  C   UNL A   1      46.407  35.689  28.997  1.00  0.00     0.000 A 
ENDBRANCH  61  74
ENDBRANCH  35  36
ENDBRANCH  28  30
ENDBRANCH  27  28
ENDBRANCH  26  27
ENDBRANCH   1  26
TORSDOF 15
ENDMDL
MODEL 3
REMARK VINA RESULT:     -10.7      3.928      9.050
REMARK SMILES Cc1c(Br)c(C)c2c(c1Br)O[C@H](C(F)(F)F)C(C(=O)OCCOCCOC(=O)c1ccc(-c3c4nc(c(-c5ccccc5)c5ccc([nH]5)c(-c5ccccc5)c5nc(c(-c6ccccc6)c6ccc3[nH]6)C=C5)C=C4)cc1)=C2
REMARK SMILES IDX 24 1 23 2 22 3 21 4 20 5 18 6 19 7 17 8 1 9 2 10 3 11 9 12
REMARK SMILES IDX 4 13 5 14 8 15 10 16 6 17 7 18 11 19 77 20 12 21 13 22 14 23
REMARK SMILES IDX 15 24 16 25 25 26 26 27 27 28 28 29 29 30 30 31 76 32 31 33
REMARK SMILES IDX 75 34 32 35 33 36 34 37 69 38 35 39 74 40 68 41 70 42 36 43
REMARK SMILES IDX 73 44 67 45 66 46 37 48 59 49 44 50 58 51 45 52 48 53 57 54
REMARK SMILES IDX 71 55 46 56 47 57 56 59 72 60 49 61 38 62 39 63 43 64 40 65
REMARK SMILES IDX 42 66 41 67 60 68 61 69 65 70 62 71 64 72 63 73 50 74 51 75
REMARK SMILES IDX 55 76 52 77 54 78 53 79
REMARK H PARENT 70 47 48 58
REMARK Flexibility Score: inf
ROOT
ATOM      1  C   UNL A   1      31.455  30.790  25.758  1.00  0.00     0.202 C 
ENDROOT
BRANCH   1   2
ATOM      2  O   UNL A   1      32.483  29.812  25.931  1.00  0.00    -0.374 OA
BRANCH   2   3
ATOM      3  C   UNL A   1      32.171  28.634  26.667  1.00  0.00     0.202 C 
BRANCH   3   4
ATOM      4  C   UNL A   1      31.589  27.455  25.881  1.00  0.00     0.261 C 
BRANCH   4   5
ATOM      5  O   UNL A   1      32.360  26.257  26.055  1.00  0.00    -0.460 OA
BRANCH   5   6
ATOM      6  C   UNL A   1      33.268  26.033  25.075  1.00  0.00     0.338 C 
ATOM      7  O   UNL A   1      33.691  26.845  24.266  1.00  0.00    -0.246 OA
BRANCH   6   8
ATOM      8  C   UNL A   1      33.796  24.661  25.184  1.00  0.00     0.087 C 
ATOM      9  C   UNL A   1      37.642  19.404  24.946  1.00  0.00     0.047 C 
ATOM     10  C   UNL A   1      36.957  20.726  25.208  1.00  0.00    -0.019 A 
ATOM     11  C   UNL A   1      37.705  21.841  25.662  1.00  0.00     0.025 A 
ATOM     12  C   UNL A   1      35.565  20.881  25.041  1.00  0.00     0.064 A 
ATOM     13  Br  UNL A   1      39.575  21.607  26.040  1.00  0.00    -0.050 Br
ATOM     14  C   UNL A   1      37.103  23.109  25.845  1.00  0.00    -0.026 A 
ATOM     15  C   UNL A   1      34.955  22.139  25.197  1.00  0.00     0.142 A 
ATOM     16  Br  UNL A   1      34.448  19.392  24.588  1.00  0.00    -0.046 Br
ATOM     17  C   UNL A   1      37.877  24.313  26.341  1.00  0.00     0.046 C 
ATOM     18  C   UNL A   1      35.725  23.255  25.550  1.00  0.00     0.022 A 
ATOM     19  O   UNL A   1      33.596  22.203  25.016  1.00  0.00    -0.474 OA
ATOM     20  C   UNL A   1      35.079  24.566  25.550  1.00  0.00     0.027 C 
ATOM     21  C   UNL A   1      32.933  23.483  24.867  1.00  0.00     0.316 C 
BRANCH  21  22
ATOM     22  C   UNL A   1      32.312  23.558  23.465  1.00  0.00     0.430 C 
ATOM     23  F   UNL A   1      33.166  24.127  22.580  1.00  0.00    -0.167 F 
ATOM     24  F   UNL A   1      32.020  22.328  22.981  1.00  0.00    -0.167 F 
ATOM     25  F   UNL A   1      31.170  24.282  23.454  1.00  0.00    -0.167 F 
ENDBRANCH  21  22
ENDBRANCH   6   8
ENDBRANCH   5   6
ENDBRANCH   4   5
ENDBRANCH   3   4
ENDBRANCH   2   3
ENDBRANCH   1   2
BRANCH   1  26
ATOM     26  C   UNL A   1      31.593  32.107  26.531  1.00  0.00     0.261 C 
BRANCH  26  27
ATOM     27  O   UNL A   1      32.522  31.991  27.626  1.00  0.00    -0.460 OA
BRANCH  27  28
ATOM     28  C   UNL A   1      33.473  32.953  27.672  1.00  0.00     0.338 C 
ATOM     29  O   UNL A   1      33.311  34.165  27.620  1.00  0.00    -0.246 OA
BRANCH  28  30
ATOM     30  C   UNL A   1      34.773  32.347  27.999  1.00  0.00     0.060 A 
ATOM     31  C   UNL A   1      34.803  30.973  28.270  1.00  0.00     0.016 A 
ATOM     32  C   UNL A   1      35.921  33.127  28.136  1.00  0.00     0.016 A 
ATOM     33  C   UNL A   1      35.981  30.377  28.712  1.00  0.00     0.010 A 
ATOM     34  C   UNL A   1      37.100  32.530  28.596  1.00  0.00     0.010 A 
ATOM     35  C   UNL A   1      37.123  31.161  28.918  1.00  0.00    -0.014 A 
BRANCH  35  36
ATOM     36  C   UNL A   1      38.278  30.567  29.631  1.00  0.00     0.031 A 
ATOM     37  C   UNL A   1      38.471  30.887  31.088  1.00  0.00     0.074 A 
ATOM     38  C   UNL A   1      39.097  29.699  29.014  1.00  0.00     0.049 A 
ATOM     39  N   UNL A   1      39.375  30.437  31.919  1.00  0.00    -0.248 NA
ATOM     40  C   UNL A   1      37.514  31.830  31.689  1.00  0.00     0.031 C 
ATOM     41  C   UNL A   1      38.978  29.268  27.622  1.00  0.00     0.029 A 
ATOM     42  N   UNL A   1      40.186  29.013  29.489  1.00  0.00    -0.354 N 
ATOM     43  C   UNL A   1      39.090  31.033  33.141  1.00  0.00     0.074 A 
ATOM     44  C   UNL A   1      37.956  31.906  32.936  1.00  0.00     0.031 C 
ATOM     45  C   UNL A   1      39.950  28.376  27.359  1.00  0.00     0.029 A 
ATOM     46  C   UNL A   1      40.774  28.197  28.554  1.00  0.00     0.049 A 
ATOM     47  H   UNL A   1      40.514  29.096  30.414  1.00  0.00     0.167 HD
ATOM     48  C   UNL A   1      39.706  30.857  34.333  1.00  0.00     0.031 A 
ATOM     49  C   UNL A   1      41.858  27.403  28.649  1.00  0.00     0.031 A 
ATOM     50  C   UNL A   1      40.842  30.001  34.537  1.00  0.00     0.049 A 
ATOM     51  C   UNL A   1      42.599  27.316  29.957  1.00  0.00     0.074 A 
ATOM     52  C   UNL A   1      41.528  29.748  35.711  1.00  0.00     0.029 A 
ATOM     53  N   UNL A   1      41.465  29.268  33.540  1.00  0.00    -0.354 N 
ATOM     54  N   UNL A   1      42.299  27.858  31.113  1.00  0.00    -0.248 NA
ATOM     55  C   UNL A   1      43.828  26.509  29.974  1.00  0.00     0.031 C 
ATOM     56  C   UNL A   1      42.603  28.906  35.412  1.00  0.00     0.029 A 
ATOM     57  C   UNL A   1      42.554  28.594  34.064  1.00  0.00     0.049 A 
ATOM     58  H   UNL A   1      41.175  29.231  32.600  1.00  0.00     0.167 HD
ATOM     59  C   UNL A   1      43.294  27.452  31.994  1.00  0.00     0.074 A 
ATOM     60  C   UNL A   1      44.195  26.599  31.245  1.00  0.00     0.031 C 
ATOM     61  C   UNL A   1      43.446  27.759  33.304  1.00  0.00     0.031 A 
BRANCH  48  62
ATOM     62  C   UNL A   1      39.173  31.621  35.509  1.00  0.00    -0.014 A 
ATOM     63  C   UNL A   1      38.217  31.054  36.367  1.00  0.00     0.009 A 
ATOM     64  C   UNL A   1      39.669  32.902  35.795  1.00  0.00     0.009 A 
ATOM     65  C   UNL A   1      37.751  31.766  37.474  1.00  0.00     0.001 A 
ATOM     66  C   UNL A   1      39.219  33.602  36.916  1.00  0.00     0.001 A 
ATOM     67  C   UNL A   1      38.257  33.036  37.750  1.00  0.00     0.000 A 
ENDBRANCH  48  62
BRANCH  49  68
ATOM     68  C   UNL A   1      42.319  26.631  27.466  1.00  0.00    -0.014 A 
ATOM     69  C   UNL A   1      41.785  25.364  27.188  1.00  0.00     0.009 A 
ATOM     70  C   UNL A   1      43.298  27.158  26.608  1.00  0.00     0.009 A 
ATOM     71  C   UNL A   1      42.231  24.634  26.083  1.00  0.00     0.001 A 
ATOM     72  C   UNL A   1      43.724  26.437  25.491  1.00  0.00     0.001 A 
ATOM     73  C   UNL A   1      43.196  25.174  25.233  1.00  0.00     0.000 A 
ENDBRANCH  49  68
BRANCH  61  74
ATOM     74  C   UNL A   1      44.633  27.186  34.025  1.00  0.00    -0.014 A 
ATOM     75  C   UNL A   1      44.569  25.912  34.610  1.00  0.00     0.009 A 
ATOM     76  C   UNL A   1      45.854  27.878  34.029  1.00  0.00     0.009 A 
ATOM     77  C   UNL A   1      45.705  25.345  35.190  1.00  0.00     0.001 A 
ATOM     78  C   UNL A   1      46.994  27.298  34.587  1.00  0.00     0.001 A 
ATOM     79  C   UNL A   1      46.918  26.034  35.169  1.00  0.00     0.000 A 
ENDBRANCH  61  74
ENDBRANCH  35  36
ENDBRANCH  28  30
ENDBRANCH  27  28
ENDBRANCH  26  27
ENDBRANCH   1  26
TORSDOF 15
ENDMDL
