MODEL 1
REMARK VINA RESULT:     -10.6      0.000      0.000
REMARK SMILES N#Cc1ccc(C[N@H+]2CCCC[C@H]2C(=O)OCCOCCOC(=O)c2ccc(-c3c4nc(c(-c5ccccc5)c5ccc([nH]5)c(-c5ccccc5)c5nc(c(-c6ccccc6)c6ccc3[nH]6)C=C5)C=C4)cc2)c(F)c1
REMARK SMILES IDX 18 1 17 2 16 3 14 4 15 5 13 6 8 7 9 8 10 10 12 11 11 12 7 13
REMARK SMILES IDX 6 14 3 15 4 16 75 17 5 18 73 19 74 20 2 21 1 22 19 23 20 24
REMARK SMILES IDX 21 25 22 26 23 27 24 28 25 29 26 30 72 31 27 32 71 33 28 34
REMARK SMILES IDX 29 35 30 36 65 37 31 38 70 39 64 40 66 41 32 42 69 43 63 44
REMARK SMILES IDX 62 45 33 47 55 48 40 49 54 50 41 51 44 52 53 53 67 54 42 55
REMARK SMILES IDX 43 56 52 58 68 59 45 60 34 61 35 62 39 63 36 64 38 65 37 66
REMARK SMILES IDX 56 67 57 68 61 69 58 70 60 71 59 72 46 73 47 74 51 75 48 76
REMARK SMILES IDX 50 77 49 78
REMARK H PARENT 8 9 66 46 44 57
REMARK Flexibility Score: inf
ROOT
ATOM      1  C   UNL A   1      31.901  27.824  24.114  1.00  0.00     0.202 C 
ENDROOT
BRANCH   1   2
ATOM      2  C   UNL A   1      31.595  26.302  24.207  1.00  0.00     0.261 C 
BRANCH   2   3
ATOM      3  O   UNL A   1      32.573  25.389  24.729  1.00  0.00    -0.459 OA
BRANCH   3   4
ATOM      4  C   UNL A   1      32.077  24.130  24.695  1.00  0.00     0.364 C 
ATOM      5  O   UNL A   1      30.957  23.936  24.248  1.00  0.00    -0.245 OA
BRANCH   4   6
ATOM      6  C   UNL A   1      32.952  23.010  25.264  1.00  0.00     0.295 C 
ATOM      7  N   UNL A   1      33.540  22.158  24.184  1.00  0.00    -0.319 N 
ATOM      8  C   UNL A   1      34.453  22.898  23.308  1.00  0.00     0.263 C 
ATOM      9  H   UNL A   1      34.122  21.496  24.697  1.00  0.00     0.349 HD
ATOM     10  C   UNL A   1      35.564  23.632  24.082  1.00  0.00     0.062 C 
ATOM     11  C   UNL A   1      34.089  23.551  26.143  1.00  0.00     0.078 C 
ATOM     12  C   UNL A   1      35.112  24.355  25.349  1.00  0.00     0.013 C 
BRANCH   7  13
ATOM     13  C   UNL A   1      32.613  21.221  23.483  1.00  0.00     0.302 C 
BRANCH  13  14
ATOM     14  C   UNL A   1      32.472  19.779  23.954  1.00  0.00     0.042 A 
ATOM     15  C   UNL A   1      32.935  17.095  24.715  1.00  0.00     0.055 A 
ATOM     16  C   UNL A   1      32.837  18.098  25.688  1.00  0.00     0.020 A 
ATOM     17  C   UNL A   1      32.661  17.404  23.380  1.00  0.00     0.059 A 
ATOM     18  C   UNL A   1      32.599  19.432  25.313  1.00  0.00     0.014 A 
ATOM     19  C   UNL A   1      32.419  18.731  23.014  1.00  0.00     0.133 A 
ATOM     20  F   UNL A   1      32.340  19.018  21.705  1.00  0.00    -0.206 F 
BRANCH  15  21
ATOM     21  C   UNL A   1      33.424  15.793  25.060  1.00  0.00     0.099 C 
ATOM     22  N   UNL A   1      33.793  14.718  25.321  1.00  0.00    -0.192 NA
ENDBRANCH  15  21
ENDBRANCH  13  14
ENDBRANCH   7  13
ENDBRANCH   4   6
ENDBRANCH   3   4
ENDBRANCH   2   3
ENDBRANCH   1   2
BRANCH   1  23
ATOM     23  O   UNL A   1      31.013  28.891  24.418  1.00  0.00    -0.374 OA
BRANCH  23  24
ATOM     24  C   UNL A   1      31.438  30.050  25.120  1.00  0.00     0.202 C 
BRANCH  24  25
ATOM     25  C   UNL A   1      32.846  30.166  25.692  1.00  0.00     0.261 C 
BRANCH  25  26
ATOM     26  O   UNL A   1      32.858  30.383  27.104  1.00  0.00    -0.460 OA
BRANCH  26  27
ATOM     27  C   UNL A   1      33.571  31.479  27.456  1.00  0.00     0.338 C 
ATOM     28  O   UNL A   1      33.157  32.611  27.640  1.00  0.00    -0.246 OA
BRANCH  27  29
ATOM     29  C   UNL A   1      34.937  31.082  27.820  1.00  0.00     0.060 A 
ATOM     30  C   UNL A   1      35.157  29.715  28.041  1.00  0.00     0.016 A 
ATOM     31  C   UNL A   1      35.945  32.022  28.018  1.00  0.00     0.016 A 
ATOM     32  C   UNL A   1      36.375  29.283  28.530  1.00  0.00     0.010 A 
ATOM     33  C   UNL A   1      37.160  31.591  28.547  1.00  0.00     0.010 A 
ATOM     34  C   UNL A   1      37.351  30.230  28.850  1.00  0.00    -0.014 A 
BRANCH  34  35
ATOM     35  C   UNL A   1      38.469  29.803  29.708  1.00  0.00     0.031 A 
ATOM     36  C   UNL A   1      39.540  28.938  29.106  1.00  0.00     0.074 A 
ATOM     37  C   UNL A   1      38.566  30.256  30.967  1.00  0.00     0.049 A 
ATOM     38  N   UNL A   1      40.610  28.439  29.664  1.00  0.00    -0.248 NA
ATOM     39  C   UNL A   1      39.383  28.593  27.683  1.00  0.00     0.031 C 
ATOM     40  C   UNL A   1      37.627  31.173  31.611  1.00  0.00     0.029 A 
ATOM     41  N   UNL A   1      39.515  30.010  31.922  1.00  0.00    -0.354 N 
ATOM     42  C   UNL A   1      41.246  27.709  28.667  1.00  0.00     0.074 A 
ATOM     43  C   UNL A   1      40.424  27.800  27.481  1.00  0.00     0.031 C 
ATOM     44  C   UNL A   1      38.050  31.416  32.862  1.00  0.00     0.029 A 
ATOM     45  C   UNL A   1      39.259  30.636  33.114  1.00  0.00     0.049 A 
ATOM     46  H   UNL A   1      40.303  29.441  31.768  1.00  0.00     0.167 HD
ATOM     47  C   UNL A   1      42.414  27.028  28.735  1.00  0.00     0.031 A 
ATOM     48  C   UNL A   1      39.919  30.562  34.284  1.00  0.00     0.031 A 
ATOM     49  C   UNL A   1      43.208  26.931  29.931  1.00  0.00     0.049 A 
ATOM     50  C   UNL A   1      41.150  29.701  34.367  1.00  0.00     0.074 A 
ATOM     51  C   UNL A   1      44.405  26.264  30.119  1.00  0.00     0.029 A 
ATOM     52  N   UNL A   1      42.876  27.514  31.146  1.00  0.00    -0.354 N 
ATOM     53  N   UNL A   1      41.748  29.013  33.422  1.00  0.00    -0.248 NA
ATOM     54  C   UNL A   1      41.802  29.612  35.680  1.00  0.00     0.031 C 
ATOM     55  C   UNL A   1      44.758  26.380  31.467  1.00  0.00     0.029 A 
ATOM     56  C   UNL A   1      43.827  27.190  32.099  1.00  0.00     0.049 A 
ATOM     57  H   UNL A   1      42.083  28.074  31.306  1.00  0.00     0.167 HD
ATOM     58  C   UNL A   1      42.865  28.441  34.018  1.00  0.00     0.074 A 
ATOM     59  C   UNL A   1      42.868  28.877  35.399  1.00  0.00     0.031 C 
ATOM     60  C   UNL A   1      43.807  27.633  33.470  1.00  0.00     0.031 A 
BRANCH  47  61
ATOM     61  C   UNL A   1      42.860  26.294  27.501  1.00  0.00    -0.014 A 
ATOM     62  C   UNL A   1      43.707  26.889  26.552  1.00  0.00     0.009 A 
ATOM     63  C   UNL A   1      42.429  24.975  27.288  1.00  0.00     0.009 A 
ATOM     64  C   UNL A   1      44.075  26.195  25.397  1.00  0.00     0.001 A 
ATOM     65  C   UNL A   1      42.828  24.270  26.151  1.00  0.00     0.001 A 
ATOM     66  C   UNL A   1      43.640  24.885  25.199  1.00  0.00     0.000 A 
ENDBRANCH  47  61
BRANCH  48  67
ATOM     67  C   UNL A   1      39.421  31.306  35.469  1.00  0.00    -0.014 A 
ATOM     68  C   UNL A   1      38.329  30.825  36.206  1.00  0.00     0.009 A 
ATOM     69  C   UNL A   1      40.028  32.509  35.863  1.00  0.00     0.009 A 
ATOM     70  C   UNL A   1      37.836  31.551  37.293  1.00  0.00     0.001 A 
ATOM     71  C   UNL A   1      39.555  33.214  36.971  1.00  0.00     0.001 A 
ATOM     72  C   UNL A   1      38.452  32.741  37.678  1.00  0.00     0.000 A 
ENDBRANCH  48  67
BRANCH  60  73
ATOM     73  C   UNL A   1      44.946  27.208  34.359  1.00  0.00    -0.014 A 
ATOM     74  C   UNL A   1      46.125  27.963  34.459  1.00  0.00     0.009 A 
ATOM     75  C   UNL A   1      44.815  26.048  35.140  1.00  0.00     0.009 A 
ATOM     76  C   UNL A   1      47.165  27.541  35.289  1.00  0.00     0.001 A 
ATOM     77  C   UNL A   1      45.840  25.649  35.999  1.00  0.00     0.001 A 
ATOM     78  C   UNL A   1      47.019  26.389  36.063  1.00  0.00     0.000 A 
ENDBRANCH  60  73
ENDBRANCH  34  35
ENDBRANCH  27  29
ENDBRANCH  26  27
ENDBRANCH  25  26
ENDBRANCH  24  25
ENDBRANCH  23  24
ENDBRANCH   1  23
TORSDOF 17
ENDMDL
MODEL 2
REMARK VINA RESULT:     -10.5      4.291      8.097
REMARK SMILES N#Cc1ccc(C[N@H+]2CCCC[C@H]2C(=O)OCCOCCOC(=O)c2ccc(-c3c4nc(c(-c5ccccc5)c5ccc([nH]5)c(-c5ccccc5)c5nc(c(-c6ccccc6)c6ccc3[nH]6)C=C5)C=C4)cc2)c(F)c1
REMARK SMILES IDX 18 1 17 2 16 3 14 4 15 5 13 6 8 7 9 8 10 10 12 11 11 12 7 13
REMARK SMILES IDX 6 14 3 15 4 16 75 17 5 18 73 19 74 20 2 21 1 22 19 23 20 24
REMARK SMILES IDX 21 25 22 26 23 27 24 28 25 29 26 30 72 31 27 32 71 33 28 34
REMARK SMILES IDX 29 35 30 36 65 37 31 38 70 39 64 40 66 41 32 42 69 43 63 44
REMARK SMILES IDX 62 45 33 47 55 48 40 49 54 50 41 51 44 52 53 53 67 54 42 55
REMARK SMILES IDX 43 56 52 58 68 59 45 60 34 61 35 62 39 63 36 64 38 65 37 66
REMARK SMILES IDX 56 67 57 68 61 69 58 70 60 71 59 72 46 73 47 74 51 75 48 76
REMARK SMILES IDX 50 77 49 78
REMARK H PARENT 8 9 66 46 44 57
REMARK Flexibility Score: inf
ROOT
ATOM      1  C   UNL A   1      34.983  20.936  25.803  1.00  0.00     0.202 C 
ENDROOT
BRANCH   1   2
ATOM      2  C   UNL A   1      33.448  20.691  25.745  1.00  0.00     0.261 C 
BRANCH   2   3
ATOM      3  O   UNL A   1      32.641  21.331  24.743  1.00  0.00    -0.459 OA
BRANCH   3   4
ATOM      4  C   UNL A   1      32.120  22.473  25.248  1.00  0.00     0.364 C 
ATOM      5  O   UNL A   1      31.647  22.474  26.374  1.00  0.00    -0.245 OA
BRANCH   4   6
ATOM      6  C   UNL A   1      32.121  23.709  24.345  1.00  0.00     0.295 C 
ATOM      7  N   UNL A   1      33.058  24.764  24.842  1.00  0.00    -0.319 N 
ATOM      8  C   UNL A   1      34.458  24.331  24.836  1.00  0.00     0.263 C 
ATOM      9  H   UNL A   1      32.989  25.494  24.134  1.00  0.00     0.349 HD
ATOM     10  C   UNL A   1      34.918  23.806  23.464  1.00  0.00     0.062 C 
ATOM     11  C   UNL A   1      32.486  23.368  22.893  1.00  0.00     0.078 C 
ATOM     12  C   UNL A   1      33.926  22.891  22.747  1.00  0.00     0.013 C 
BRANCH   7  13
ATOM     13  C   UNL A   1      32.637  25.523  26.058  1.00  0.00     0.302 C 
BRANCH  13  14
ATOM     14  C   UNL A   1      32.711  27.044  26.082  1.00  0.00     0.042 A 
ATOM     15  C   UNL A   1      33.102  29.749  26.807  1.00  0.00     0.055 A 
ATOM     16  C   UNL A   1      34.069  29.074  26.050  1.00  0.00     0.020 A 
ATOM     17  C   UNL A   1      31.882  29.124  27.079  1.00  0.00     0.059 A 
ATOM     18  C   UNL A   1      33.873  27.731  25.683  1.00  0.00     0.014 A 
ATOM     19  C   UNL A   1      31.691  27.791  26.705  1.00  0.00     0.133 A 
ATOM     20  F   UNL A   1      30.585  27.168  27.139  1.00  0.00    -0.206 F 
BRANCH  15  21
ATOM     21  C   UNL A   1      33.400  31.020  27.398  1.00  0.00     0.099 C 
ATOM     22  N   UNL A   1      33.610  32.050  27.902  1.00  0.00    -0.192 NA
ENDBRANCH  15  21
ENDBRANCH  13  14
ENDBRANCH   7  13
ENDBRANCH   4   6
ENDBRANCH   3   4
ENDBRANCH   2   3
ENDBRANCH   1   2
BRANCH   1  23
ATOM     23  O   UNL A   1      35.950  20.504  24.855  1.00  0.00    -0.374 OA
BRANCH  23  24
ATOM     24  C   UNL A   1      37.305  20.925  24.913  1.00  0.00     0.202 C 
BRANCH  24  25
ATOM     25  C   UNL A   1      38.438  19.935  25.162  1.00  0.00     0.261 C 
BRANCH  25  26
ATOM     26  O   UNL A   1      39.208  20.252  26.323  1.00  0.00    -0.460 OA
BRANCH  26  27
ATOM     27  C   UNL A   1      40.521  19.957  26.173  1.00  0.00     0.338 C 
ATOM     28  O   UNL A   1      41.009  18.988  25.617  1.00  0.00    -0.246 OA
BRANCH  27  29
ATOM     29  C   UNL A   1      41.335  21.107  26.589  1.00  0.00     0.060 A 
ATOM     30  C   UNL A   1      41.381  21.380  27.964  1.00  0.00     0.016 A 
ATOM     31  C   UNL A   1      41.961  21.935  25.662  1.00  0.00     0.016 A 
ATOM     32  C   UNL A   1      42.001  22.528  28.418  1.00  0.00     0.010 A 
ATOM     33  C   UNL A   1      42.553  23.112  26.116  1.00  0.00     0.010 A 
ATOM     34  C   UNL A   1      42.524  23.429  27.488  1.00  0.00    -0.014 A 
BRANCH  34  35
ATOM     35  C   UNL A   1      42.830  24.794  27.948  1.00  0.00     0.031 A 
ATOM     36  C   UNL A   1      44.270  25.193  28.091  1.00  0.00     0.074 A 
ATOM     37  C   UNL A   1      41.840  25.679  28.144  1.00  0.00     0.049 A 
ATOM     38  N   UNL A   1      44.779  26.331  28.481  1.00  0.00    -0.248 NA
ATOM     39  C   UNL A   1      45.273  24.171  27.743  1.00  0.00     0.031 C 
ATOM     40  C   UNL A   1      40.416  25.414  27.942  1.00  0.00     0.029 A 
ATOM     41  N   UNL A   1      41.892  26.985  28.545  1.00  0.00    -0.354 N 
ATOM     42  C   UNL A   1      46.157  26.158  28.441  1.00  0.00     0.074 A 
ATOM     43  C   UNL A   1      46.405  24.797  28.024  1.00  0.00     0.031 C 
ATOM     44  C   UNL A   1      39.726  26.531  28.220  1.00  0.00     0.029 A 
ATOM     45  C   UNL A   1      40.656  27.567  28.662  1.00  0.00     0.049 A 
ATOM     46  H   UNL A   1      42.733  27.461  28.732  1.00  0.00     0.167 HD
ATOM     47  C   UNL A   1      47.127  27.059  28.723  1.00  0.00     0.031 A 
ATOM     48  C   UNL A   1      40.320  28.793  29.101  1.00  0.00     0.031 A 
ATOM     49  C   UNL A   1      46.861  28.404  29.158  1.00  0.00     0.049 A 
ATOM     50  C   UNL A   1      41.414  29.735  29.524  1.00  0.00     0.074 A 
ATOM     51  C   UNL A   1      47.764  29.402  29.478  1.00  0.00     0.029 A 
ATOM     52  N   UNL A   1      45.593  28.936  29.342  1.00  0.00    -0.354 N 
ATOM     53  N   UNL A   1      42.715  29.568  29.484  1.00  0.00    -0.248 NA
ATOM     54  C   UNL A   1      40.989  31.040  30.046  1.00  0.00     0.031 C 
ATOM     55  C   UNL A   1      47.043  30.511  29.928  1.00  0.00     0.029 A 
ATOM     56  C   UNL A   1      45.689  30.236  29.807  1.00  0.00     0.049 A 
ATOM     57  H   UNL A   1      44.749  28.459  29.167  1.00  0.00     0.167 HD
ATOM     58  C   UNL A   1      43.264  30.760  29.940  1.00  0.00     0.074 A 
ATOM     59  C   UNL A   1      42.154  31.643  30.235  1.00  0.00     0.031 C 
ATOM     60  C   UNL A   1      44.569  31.096  30.097  1.00  0.00     0.031 A 
BRANCH  47  61
ATOM     61  C   UNL A   1      48.554  26.592  28.626  1.00  0.00    -0.014 A 
ATOM     62  C   UNL A   1      49.302  26.741  27.447  1.00  0.00     0.009 A 
ATOM     63  C   UNL A   1      49.165  25.999  29.742  1.00  0.00     0.009 A 
ATOM     64  C   UNL A   1      50.613  26.264  27.374  1.00  0.00     0.001 A 
ATOM     65  C   UNL A   1      50.487  25.557  29.679  1.00  0.00     0.001 A 
ATOM     66  C   UNL A   1      51.206  25.678  28.491  1.00  0.00     0.000 A 
ENDBRANCH  47  61
BRANCH  48  67
ATOM     67  C   UNL A   1      38.891  29.190  29.182  1.00  0.00    -0.014 A 
ATOM     68  C   UNL A   1      38.165  29.005  30.367  1.00  0.00     0.009 A 
ATOM     69  C   UNL A   1      38.240  29.743  28.068  1.00  0.00     0.009 A 
ATOM     70  C   UNL A   1      36.809  29.338  30.425  1.00  0.00     0.001 A 
ATOM     71  C   UNL A   1      36.895  30.108  28.139  1.00  0.00     0.001 A 
ATOM     72  C   UNL A   1      36.177  29.894  29.313  1.00  0.00     0.000 A 
ENDBRANCH  48  67
BRANCH  60  73
ATOM     73  C   UNL A   1      44.865  32.496  30.565  1.00  0.00    -0.014 A 
ATOM     74  C   UNL A   1      44.992  33.564  29.663  1.00  0.00     0.009 A 
ATOM     75  C   UNL A   1      44.980  32.754  31.941  1.00  0.00     0.009 A 
ATOM     76  C   UNL A   1      45.271  34.851  30.127  1.00  0.00     0.001 A 
ATOM     77  C   UNL A   1      45.219  34.047  32.405  1.00  0.00     0.001 A 
ATOM     78  C   UNL A   1      45.377  35.092  31.496  1.00  0.00     0.000 A 
ENDBRANCH  60  73
ENDBRANCH  34  35
ENDBRANCH  27  29
ENDBRANCH  26  27
ENDBRANCH  25  26
ENDBRANCH  24  25
ENDBRANCH  23  24
ENDBRANCH   1  23
TORSDOF 17
ENDMDL
MODEL 3
REMARK VINA RESULT:     -10.5      3.796      7.131
REMARK SMILES N#Cc1ccc(C[N@H+]2CCCC[C@H]2C(=O)OCCOCCOC(=O)c2ccc(-c3c4nc(c(-c5ccccc5)c5ccc([nH]5)c(-c5ccccc5)c5nc(c(-c6ccccc6)c6ccc3[nH]6)C=C5)C=C4)cc2)c(F)c1
REMARK SMILES IDX 18 1 17 2 16 3 14 4 15 5 13 6 8 7 9 8 10 10 12 11 11 12 7 13
REMARK SMILES IDX 6 14 3 15 4 16 75 17 5 18 73 19 74 20 2 21 1 22 19 23 20 24
REMARK SMILES IDX 21 25 22 26 23 27 24 28 25 29 26 30 72 31 27 32 71 33 28 34
REMARK SMILES IDX 29 35 30 36 65 37 31 38 70 39 64 40 66 41 32 42 69 43 63 44
REMARK SMILES IDX 62 45 33 47 55 48 40 49 54 50 41 51 44 52 53 53 67 54 42 55
REMARK SMILES IDX 43 56 52 58 68 59 45 60 34 61 35 62 39 63 36 64 38 65 37 66
REMARK SMILES IDX 56 67 57 68 61 69 58 70 60 71 59 72 46 73 47 74 51 75 48 76
REMARK SMILES IDX 50 77 49 78
REMARK H PARENT 8 9 66 46 44 57
REMARK Flexibility Score: inf
ROOT
ATOM      1  C   UNL A   1      36.224  22.632  24.815  1.00  0.00     0.202 C 
ENDROOT
BRANCH   1   2
ATOM      2  C   UNL A   1      35.626  23.784  25.674  1.00  0.00     0.261 C 
BRANCH   2   3
ATOM      3  O   UNL A   1      34.207  23.890  25.872  1.00  0.00    -0.459 OA
BRANCH   3   4
ATOM      4  C   UNL A   1      33.676  24.674  24.906  1.00  0.00     0.364 C 
ATOM      5  O   UNL A   1      34.108  25.804  24.742  1.00  0.00    -0.245 OA
BRANCH   4   6
ATOM      6  C   UNL A   1      32.519  24.098  24.085  1.00  0.00     0.295 C 
ATOM      7  N   UNL A   1      31.458  23.503  24.956  1.00  0.00    -0.319 N 
ATOM      8  C   UNL A   1      30.809  24.492  25.821  1.00  0.00     0.263 C 
ATOM      9  H   UNL A   1      30.746  23.205  24.290  1.00  0.00     0.349 HD
ATOM     10  C   UNL A   1      30.253  25.698  25.041  1.00  0.00     0.062 C 
ATOM     11  C   UNL A   1      31.875  25.151  23.171  1.00  0.00     0.078 C 
ATOM     12  C   UNL A   1      31.168  26.252  23.951  1.00  0.00     0.013 C 
BRANCH   7  13
ATOM     13  C   UNL A   1      31.777  22.201  25.614  1.00  0.00     0.302 C 
BRANCH  13  14
ATOM     14  C   UNL A   1      32.511  21.108  24.848  1.00  0.00     0.042 A 
ATOM     15  C   UNL A   1      33.417  18.643  23.800  1.00  0.00     0.055 A 
ATOM     16  C   UNL A   1      32.499  19.421  23.083  1.00  0.00     0.020 A 
ATOM     17  C   UNL A   1      33.991  19.157  24.966  1.00  0.00     0.059 A 
ATOM     18  C   UNL A   1      32.053  20.650  23.598  1.00  0.00     0.014 A 
ATOM     19  C   UNL A   1      33.547  20.384  25.470  1.00  0.00     0.133 A 
ATOM     20  F   UNL A   1      33.985  20.760  26.681  1.00  0.00    -0.206 F 
BRANCH  15  21
ATOM     21  C   UNL A   1      33.681  17.289  23.413  1.00  0.00     0.099 C 
ATOM     22  N   UNL A   1      33.934  16.193  23.106  1.00  0.00    -0.192 NA
ENDBRANCH  15  21
ENDBRANCH  13  14
ENDBRANCH   7  13
ENDBRANCH   4   6
ENDBRANCH   3   4
ENDBRANCH   2   3
ENDBRANCH   1   2
BRANCH   1  23
ATOM     23  O   UNL A   1      37.403  21.889  25.092  1.00  0.00    -0.374 OA
BRANCH  23  24
ATOM     24  C   UNL A   1      37.463  20.479  24.928  1.00  0.00     0.202 C 
BRANCH  24  25
ATOM     25  C   UNL A   1      38.737  19.695  25.223  1.00  0.00     0.261 C 
BRANCH  25  26
ATOM     26  O   UNL A   1      39.463  20.212  26.340  1.00  0.00    -0.460 OA
BRANCH  26  27
ATOM     27  C   UNL A   1      40.788  19.944  26.269  1.00  0.00     0.338 C 
ATOM     28  O   UNL A   1      41.326  18.971  25.769  1.00  0.00    -0.246 OA
BRANCH  27  29
ATOM     29  C   UNL A   1      41.552  21.123  26.694  1.00  0.00     0.060 A 
ATOM     30  C   UNL A   1      41.588  21.388  28.071  1.00  0.00     0.016 A 
ATOM     31  C   UNL A   1      42.143  21.985  25.773  1.00  0.00     0.016 A 
ATOM     32  C   UNL A   1      42.159  22.557  28.535  1.00  0.00     0.010 A 
ATOM     33  C   UNL A   1      42.686  23.181  26.237  1.00  0.00     0.010 A 
ATOM     34  C   UNL A   1      42.644  23.487  27.611  1.00  0.00    -0.014 A 
BRANCH  34  35
ATOM     35  C   UNL A   1      42.892  24.860  28.082  1.00  0.00     0.031 A 
ATOM     36  C   UNL A   1      44.312  25.284  28.326  1.00  0.00     0.074 A 
ATOM     37  C   UNL A   1      41.876  25.728  28.199  1.00  0.00     0.049 A 
ATOM     38  N   UNL A   1      44.771  26.434  28.744  1.00  0.00    -0.248 NA
ATOM     39  C   UNL A   1      45.353  24.277  28.060  1.00  0.00     0.031 C 
ATOM     40  C   UNL A   1      40.476  25.437  27.895  1.00  0.00     0.029 A 
ATOM     41  N   UNL A   1      41.876  27.038  28.593  1.00  0.00    -0.354 N 
ATOM     42  C   UNL A   1      46.151  26.284  28.806  1.00  0.00     0.074 A 
ATOM     43  C   UNL A   1      46.452  24.924  28.418  1.00  0.00     0.031 C 
ATOM     44  C   UNL A   1      39.748  26.544  28.114  1.00  0.00     0.029 A 
ATOM     45  C   UNL A   1      40.626  27.599  28.614  1.00  0.00     0.049 A 
ATOM     46  H   UNL A   1      42.694  27.530  28.837  1.00  0.00     0.167 HD
ATOM     47  C   UNL A   1      47.083  27.203  29.151  1.00  0.00     0.031 A 
ATOM     48  C   UNL A   1      40.238  28.821  29.018  1.00  0.00     0.031 A 
ATOM     49  C   UNL A   1      46.763  28.546  29.555  1.00  0.00     0.049 A 
ATOM     50  C   UNL A   1      41.282  29.786  29.513  1.00  0.00     0.074 A 
ATOM     51  C   UNL A   1      47.624  29.562  29.932  1.00  0.00     0.029 A 
ATOM     52  N   UNL A   1      45.476  29.057  29.641  1.00  0.00    -0.354 N 
ATOM     53  N   UNL A   1      42.585  29.641  29.569  1.00  0.00    -0.248 NA
ATOM     54  C   UNL A   1      40.799  31.086  29.993  1.00  0.00     0.031 C 
ATOM     55  C   UNL A   1      46.853  30.661  30.320  1.00  0.00     0.029 A 
ATOM     56  C   UNL A   1      45.516  30.362  30.103  1.00  0.00     0.049 A 
ATOM     57  H   UNL A   1      44.656  28.565  29.410  1.00  0.00     0.167 HD
ATOM     58  C   UNL A   1      43.080  30.845  30.055  1.00  0.00     0.074 A 
ATOM     59  C   UNL A   1      41.937  31.711  30.262  1.00  0.00     0.031 C 
ATOM     60  C   UNL A   1      44.364  31.204  30.304  1.00  0.00     0.031 A 
BRANCH  47  61
ATOM     61  C   UNL A   1      48.520  26.761  29.161  1.00  0.00    -0.014 A 
ATOM     62  C   UNL A   1      49.117  26.211  30.307  1.00  0.00     0.009 A 
ATOM     63  C   UNL A   1      49.292  26.889  27.995  1.00  0.00     0.009 A 
ATOM     64  C   UNL A   1      50.464  25.843  30.298  1.00  0.00     0.001 A 
ATOM     65  C   UNL A   1      50.628  26.487  27.977  1.00  0.00     0.001 A 
ATOM     66  C   UNL A   1      51.217  25.976  29.133  1.00  0.00     0.000 A 
ENDBRANCH  47  61
BRANCH  48  67
ATOM     67  C   UNL A   1      38.800  29.194  28.992  1.00  0.00    -0.014 A 
ATOM     68  C   UNL A   1      37.998  29.027  30.131  1.00  0.00     0.009 A 
ATOM     69  C   UNL A   1      38.218  29.707  27.822  1.00  0.00     0.009 A 
ATOM     70  C   UNL A   1      36.637  29.336  30.087  1.00  0.00     0.001 A 
ATOM     71  C   UNL A   1      36.865  30.048  27.793  1.00  0.00     0.001 A 
ATOM     72  C   UNL A   1      36.073  29.852  28.921  1.00  0.00     0.000 A 
ENDBRANCH  48  67
BRANCH  60  73
ATOM     73  C   UNL A   1      44.602  32.612  30.782  1.00  0.00    -0.014 A 
ATOM     74  C   UNL A   1      44.670  32.925  32.148  1.00  0.00     0.009 A 
ATOM     75  C   UNL A   1      44.800  33.636  29.841  1.00  0.00     0.009 A 
ATOM     76  C   UNL A   1      44.888  34.242  32.561  1.00  0.00     0.001 A 
ATOM     77  C   UNL A   1      45.056  34.943  30.255  1.00  0.00     0.001 A 
ATOM     78  C   UNL A   1      45.088  35.247  31.615  1.00  0.00     0.000 A 
ENDBRANCH  60  73
ENDBRANCH  34  35
ENDBRANCH  27  29
ENDBRANCH  26  27
ENDBRANCH  25  26
ENDBRANCH  24  25
ENDBRANCH  23  24
ENDBRANCH   1  23
TORSDOF 17
ENDMDL
