MODEL 1
REMARK VINA RESULT:     -10.4      0.000      0.000
REMARK SMILES C[C@@H](C(=O)OCCOCCOC(=O)c1ccc(-c2c3nc(c(-c4ccccc4)c4ccc([nH]4)c(-c4ccccc4)c4nc(c(-c5ccccc5)c5ccc2[nH]5)C=C4)C=C3)cc1)c1ccc(C[C@H]2CCC[C@@H]2O)cc1Br
REMARK SMILES IDX 7 1 6 2 5 3 3 4 4 5 2 6 1 7 62 8 63 9 74 10 64 11 73 12
REMARK SMILES IDX 75 13 65 14 66 15 67 16 68 17 71 18 69 19 70 20 72 21 8 23
REMARK SMILES IDX 9 24 10 25 11 26 12 27 13 28 14 29 15 30 61 31 16 32 60 33
REMARK SMILES IDX 17 34 18 35 19 36 54 37 20 38 59 39 53 40 55 41 21 42 58 43
REMARK SMILES IDX 52 44 51 45 22 47 44 48 29 49 43 50 30 51 33 52 42 53 56 54
REMARK SMILES IDX 31 55 32 56 41 58 57 59 34 60 23 61 24 62 28 63 25 64 27 65
REMARK SMILES IDX 26 66 45 67 46 68 50 69 47 70 49 71 48 72 35 73 36 74 40 75
REMARK SMILES IDX 37 76 39 77 38 78
REMARK H PARENT 72 22 55 46 33 57
REMARK Flexibility Score: inf
ROOT
ATOM      1  C   UNL A   1      36.527  22.973  25.632  1.00  0.00     0.202 C 
ENDROOT
BRANCH   1   2
ATOM      2  C   UNL A   1      35.702  22.993  24.340  1.00  0.00     0.261 C 
BRANCH   2   3
ATOM      3  O   UNL A   1      34.307  23.082  24.667  1.00  0.00    -0.463 OA
BRANCH   3   4
ATOM      4  C   UNL A   1      33.632  21.904  24.754  1.00  0.00     0.313 C 
ATOM      5  O   UNL A   1      34.030  20.932  25.386  1.00  0.00    -0.252 OA
BRANCH   4   6
ATOM      6  C   UNL A   1      32.246  21.988  24.097  1.00  0.00     0.127 C 
ATOM      7  C   UNL A   1      32.165  21.194  22.782  1.00  0.00     0.025 C 
BRANCH   6   8
ATOM      8  C   UNL A   1      31.739  23.432  23.949  1.00  0.00    -0.020 A 
ATOM      9  C   UNL A   1      32.019  24.173  22.781  1.00  0.00     0.006 A 
ATOM     10  C   UNL A   1      31.016  24.094  24.959  1.00  0.00     0.022 A 
ATOM     11  C   UNL A   1      31.662  25.519  22.651  1.00  0.00     0.004 A 
ATOM     12  C   UNL A   1      30.652  25.442  24.821  1.00  0.00     0.019 A 
ATOM     13  Br  UNL A   1      30.542  23.280  26.610  1.00  0.00    -0.050 Br
ATOM     14  C   UNL A   1      31.022  26.184  23.692  1.00  0.00    -0.047 A 
BRANCH  14  15
ATOM     15  C   UNL A   1      30.806  27.679  23.656  1.00  0.00     0.041 C 
BRANCH  15  16
ATOM     16  C   UNL A   1      29.648  28.158  22.755  1.00  0.00     0.022 C 
ATOM     17  C   UNL A   1      28.225  27.868  23.270  1.00  0.00     0.007 C 
ATOM     18  C   UNL A   1      29.650  29.657  22.425  1.00  0.00     0.117 C 
ATOM     19  C   UNL A   1      27.408  29.136  23.016  1.00  0.00     0.003 C 
ATOM     20  C   UNL A   1      28.213  29.925  22.001  1.00  0.00     0.032 C 
BRANCH  18  21
ATOM     21  O   UNL A   1      30.540  29.964  21.368  1.00  0.00    -0.393 OA
ATOM     22  H   UNL A   1      31.177  29.239  21.260  1.00  0.00     0.210 HD
ENDBRANCH  18  21
ENDBRANCH  15  16
ENDBRANCH  14  15
ENDBRANCH   6   8
ENDBRANCH   4   6
ENDBRANCH   3   4
ENDBRANCH   2   3
ENDBRANCH   1   2
BRANCH   1  23
ATOM     23  O   UNL A   1      37.612  22.041  25.658  1.00  0.00    -0.374 OA
BRANCH  23  24
ATOM     24  C   UNL A   1      37.555  20.934  24.757  1.00  0.00     0.202 C 
BRANCH  24  25
ATOM     25  C   UNL A   1      38.577  19.813  24.973  1.00  0.00     0.261 C 
BRANCH  25  26
ATOM     26  O   UNL A   1      39.256  19.936  26.236  1.00  0.00    -0.460 OA
BRANCH  26  27
ATOM     27  C   UNL A   1      40.597  19.777  26.170  1.00  0.00     0.338 C 
ATOM     28  O   UNL A   1      41.211  18.840  25.672  1.00  0.00    -0.246 OA
BRANCH  27  29
ATOM     29  C   UNL A   1      41.282  20.990  26.643  1.00  0.00     0.060 A 
ATOM     30  C   UNL A   1      41.227  21.265  28.015  1.00  0.00     0.016 A 
ATOM     31  C   UNL A   1      41.881  21.893  25.761  1.00  0.00     0.016 A 
ATOM     32  C   UNL A   1      41.723  22.469  28.506  1.00  0.00     0.010 A 
ATOM     33  C   UNL A   1      42.370  23.107  26.255  1.00  0.00     0.010 A 
ATOM     34  C   UNL A   1      42.258  23.415  27.624  1.00  0.00    -0.014 A 
BRANCH  34  35
ATOM     35  C   UNL A   1      42.559  24.779  28.121  1.00  0.00     0.031 A 
ATOM     36  C   UNL A   1      43.984  25.146  28.435  1.00  0.00     0.074 A 
ATOM     37  C   UNL A   1      41.583  25.697  28.246  1.00  0.00     0.049 A 
ATOM     38  N   UNL A   1      44.470  26.279  28.876  1.00  0.00    -0.248 NA
ATOM     39  C   UNL A   1      44.995  24.099  28.218  1.00  0.00     0.031 C 
ATOM     40  C   UNL A   1      40.173  25.481  27.929  1.00  0.00     0.029 A 
ATOM     41  N   UNL A   1      41.640  27.000  28.673  1.00  0.00    -0.354 N 
ATOM     42  C   UNL A   1      45.840  26.080  28.992  1.00  0.00     0.074 A 
ATOM     43  C   UNL A   1      46.105  24.712  28.604  1.00  0.00     0.031 C 
ATOM     44  C   UNL A   1      39.494  26.614  28.178  1.00  0.00     0.029 A 
ATOM     45  C   UNL A   1      40.416  27.621  28.698  1.00  0.00     0.049 A 
ATOM     46  H   UNL A   1      42.477  27.445  28.937  1.00  0.00     0.167 HD
ATOM     47  C   UNL A   1      46.794  26.959  29.381  1.00  0.00     0.031 A 
ATOM     48  C   UNL A   1      40.077  28.857  29.112  1.00  0.00     0.031 A 
ATOM     49  C   UNL A   1      46.534  28.315  29.782  1.00  0.00     0.049 A 
ATOM     50  C   UNL A   1      41.145  29.790  29.616  1.00  0.00     0.074 A 
ATOM     51  C   UNL A   1      47.436  29.284  30.187  1.00  0.00     0.029 A 
ATOM     52  N   UNL A   1      45.275  28.893  29.837  1.00  0.00    -0.354 N 
ATOM     53  N   UNL A   1      42.440  29.596  29.701  1.00  0.00    -0.248 NA
ATOM     54  C   UNL A   1      40.704  31.116  30.074  1.00  0.00     0.031 C 
ATOM     55  C   UNL A   1      46.718  30.432  30.535  1.00  0.00     0.029 A 
ATOM     56  C   UNL A   1      45.374  30.196  30.294  1.00  0.00     0.049 A 
ATOM     57  H   UNL A   1      44.435  28.442  29.589  1.00  0.00     0.167 HD
ATOM     58  C   UNL A   1      42.968  30.782  30.196  1.00  0.00     0.074 A 
ATOM     59  C   UNL A   1      41.858  31.693  30.380  1.00  0.00     0.031 C 
ATOM     60  C   UNL A   1      44.260  31.089  30.473  1.00  0.00     0.031 A 
BRANCH  47  61
ATOM     61  C   UNL A   1      48.212  26.465  29.419  1.00  0.00    -0.014 A 
ATOM     62  C   UNL A   1      49.071  26.632  28.322  1.00  0.00     0.009 A 
ATOM     63  C   UNL A   1      48.705  25.851  30.581  1.00  0.00     0.009 A 
ATOM     64  C   UNL A   1      50.387  26.167  28.377  1.00  0.00     0.001 A 
ATOM     65  C   UNL A   1      50.027  25.409  30.643  1.00  0.00     0.001 A 
ATOM     66  C   UNL A   1      50.864  25.561  29.539  1.00  0.00     0.000 A 
ENDBRANCH  47  61
BRANCH  48  67
ATOM     67  C   UNL A   1      38.653  29.284  29.091  1.00  0.00    -0.014 A 
ATOM     68  C   UNL A   1      38.093  29.861  27.942  1.00  0.00     0.009 A 
ATOM     69  C   UNL A   1      37.853  29.131  30.234  1.00  0.00     0.009 A 
ATOM     70  C   UNL A   1      36.767  30.300  27.947  1.00  0.00     0.001 A 
ATOM     71  C   UNL A   1      36.520  29.545  30.227  1.00  0.00     0.001 A 
ATOM     72  C   UNL A   1      35.981  30.138  29.087  1.00  0.00     0.000 A 
ENDBRANCH  48  67
BRANCH  60  73
ATOM     73  C   UNL A   1      44.545  32.478  30.971  1.00  0.00    -0.014 A 
ATOM     74  C   UNL A   1      44.820  33.529  30.082  1.00  0.00     0.009 A 
ATOM     75  C   UNL A   1      44.493  32.747  32.348  1.00  0.00     0.009 A 
ATOM     76  C   UNL A   1      45.071  34.815  30.566  1.00  0.00     0.001 A 
ATOM     77  C   UNL A   1      44.717  34.039  32.827  1.00  0.00     0.001 A 
ATOM     78  C   UNL A   1      45.014  35.069  31.937  1.00  0.00     0.000 A 
ENDBRANCH  60  73
ENDBRANCH  34  35
ENDBRANCH  27  29
ENDBRANCH  26  27
ENDBRANCH  25  26
ENDBRANCH  24  25
ENDBRANCH  23  24
ENDBRANCH   1  23
TORSDOF 18
ENDMDL
MODEL 2
REMARK VINA RESULT:     -10.4      0.337      5.904
REMARK SMILES C[C@@H](C(=O)OCCOCCOC(=O)c1ccc(-c2c3nc(c(-c4ccccc4)c4ccc([nH]4)c(-c4ccccc4)c4nc(c(-c5ccccc5)c5ccc2[nH]5)C=C4)C=C3)cc1)c1ccc(C[C@H]2CCC[C@@H]2O)cc1Br
REMARK SMILES IDX 7 1 6 2 5 3 3 4 4 5 2 6 1 7 62 8 63 9 74 10 64 11 73 12
REMARK SMILES IDX 75 13 65 14 66 15 67 16 68 17 71 18 69 19 70 20 72 21 8 23
REMARK SMILES IDX 9 24 10 25 11 26 12 27 13 28 14 29 15 30 61 31 16 32 60 33
REMARK SMILES IDX 17 34 18 35 19 36 54 37 20 38 59 39 53 40 55 41 21 42 58 43
REMARK SMILES IDX 52 44 51 45 22 47 44 48 29 49 43 50 30 51 33 52 42 53 56 54
REMARK SMILES IDX 31 55 32 56 41 58 57 59 34 60 23 61 24 62 28 63 25 64 27 65
REMARK SMILES IDX 26 66 45 67 46 68 50 69 47 70 49 71 48 72 35 73 36 74 40 75
REMARK SMILES IDX 37 76 39 77 38 78
REMARK H PARENT 72 22 55 46 33 57
REMARK Flexibility Score: inf
ROOT
ATOM      1  C   UNL A   1      36.746  23.523  25.815  1.00  0.00     0.202 C 
ENDROOT
BRANCH   1   2
ATOM      2  C   UNL A   1      35.698  23.521  24.697  1.00  0.00     0.261 C 
BRANCH   2   3
ATOM      3  O   UNL A   1      34.386  23.441  25.273  1.00  0.00    -0.463 OA
BRANCH   3   4
ATOM      4  C   UNL A   1      33.793  22.216  25.253  1.00  0.00     0.313 C 
ATOM      5  O   UNL A   1      34.177  21.258  25.913  1.00  0.00    -0.252 OA
BRANCH   4   6
ATOM      6  C   UNL A   1      32.499  22.221  24.425  1.00  0.00     0.127 C 
ATOM      7  C   UNL A   1      32.643  21.460  23.096  1.00  0.00     0.025 C 
BRANCH   6   8
ATOM      8  C   UNL A   1      31.911  23.629  24.239  1.00  0.00    -0.020 A 
ATOM      9  C   UNL A   1      32.269  24.413  23.122  1.00  0.00     0.006 A 
ATOM     10  C   UNL A   1      31.032  24.217  25.168  1.00  0.00     0.022 A 
ATOM     11  C   UNL A   1      31.833  25.734  22.969  1.00  0.00     0.004 A 
ATOM     12  C   UNL A   1      30.591  25.540  25.007  1.00  0.00     0.019 A 
ATOM     13  Br  UNL A   1      30.433  23.337  26.743  1.00  0.00    -0.050 Br
ATOM     14  C   UNL A   1      31.034  26.329  23.939  1.00  0.00    -0.047 A 
BRANCH  14  15
ATOM     15  C   UNL A   1      30.717  27.806  23.898  1.00  0.00     0.041 C 
BRANCH  15  16
ATOM     16  C   UNL A   1      29.641  28.225  22.874  1.00  0.00     0.022 C 
ATOM     17  C   UNL A   1      28.178  27.981  23.291  1.00  0.00     0.007 C 
ATOM     18  C   UNL A   1      29.687  29.695  22.436  1.00  0.00     0.117 C 
ATOM     19  C   UNL A   1      27.399  29.231  22.879  1.00  0.00     0.003 C 
ATOM     20  C   UNL A   1      28.292  29.939  21.878  1.00  0.00     0.032 C 
BRANCH  18  21
ATOM     21  O   UNL A   1      30.663  29.918  21.435  1.00  0.00    -0.393 OA
ATOM     22  H   UNL A   1      30.978  30.835  21.490  1.00  0.00     0.210 HD
ENDBRANCH  18  21
ENDBRANCH  15  16
ENDBRANCH  14  15
ENDBRANCH   6   8
ENDBRANCH   4   6
ENDBRANCH   3   4
ENDBRANCH   2   3
ENDBRANCH   1   2
BRANCH   1  23
ATOM     23  O   UNL A   1      37.818  22.588  25.659  1.00  0.00    -0.374 OA
BRANCH  23  24
ATOM     24  C   UNL A   1      37.627  21.509  24.741  1.00  0.00     0.202 C 
BRANCH  24  25
ATOM     25  C   UNL A   1      38.379  20.208  25.036  1.00  0.00     0.261 C 
BRANCH  25  26
ATOM     26  O   UNL A   1      39.091  20.266  26.285  1.00  0.00    -0.460 OA
BRANCH  26  27
ATOM     27  C   UNL A   1      40.414  20.006  26.190  1.00  0.00     0.338 C 
ATOM     28  O   UNL A   1      40.945  19.026  25.678  1.00  0.00    -0.246 OA
BRANCH  27  29
ATOM     29  C   UNL A   1      41.199  21.164  26.647  1.00  0.00     0.060 A 
ATOM     30  C   UNL A   1      41.209  21.431  28.022  1.00  0.00     0.016 A 
ATOM     31  C   UNL A   1      41.831  22.030  25.751  1.00  0.00     0.016 A 
ATOM     32  C   UNL A   1      41.804  22.592  28.504  1.00  0.00     0.010 A 
ATOM     33  C   UNL A   1      42.422  23.202  26.236  1.00  0.00     0.010 A 
ATOM     34  C   UNL A   1      42.377  23.505  27.610  1.00  0.00    -0.014 A 
BRANCH  34  35
ATOM     35  C   UNL A   1      42.790  24.840  28.105  1.00  0.00     0.031 A 
ATOM     36  C   UNL A   1      41.742  25.899  28.316  1.00  0.00     0.074 A 
ATOM     37  C   UNL A   1      44.075  25.094  28.410  1.00  0.00     0.049 A 
ATOM     38  N   UNL A   1      41.880  27.128  28.744  1.00  0.00    -0.248 NA
ATOM     39  C   UNL A   1      40.354  25.520  28.008  1.00  0.00     0.031 C 
ATOM     40  C   UNL A   1      45.176  24.140  28.296  1.00  0.00     0.029 A 
ATOM     41  N   UNL A   1      44.666  26.239  28.883  1.00  0.00    -0.354 N 
ATOM     42  C   UNL A   1      40.601  27.669  28.754  1.00  0.00     0.074 A 
ATOM     43  C   UNL A   1      39.704  26.646  28.263  1.00  0.00     0.031 C 
ATOM     44  C   UNL A   1      46.314  24.741  28.684  1.00  0.00     0.029 A 
ATOM     45  C   UNL A   1      46.025  26.127  29.045  1.00  0.00     0.049 A 
ATOM     46  H   UNL A   1      44.164  27.061  29.087  1.00  0.00     0.167 HD
ATOM     47  C   UNL A   1      40.206  28.905  29.144  1.00  0.00     0.031 A 
ATOM     48  C   UNL A   1      46.934  27.046  29.424  1.00  0.00     0.031 A 
ATOM     49  C   UNL A   1      41.096  29.930  29.618  1.00  0.00     0.049 A 
ATOM     50  C   UNL A   1      46.479  28.437  29.775  1.00  0.00     0.074 A 
ATOM     51  C   UNL A   1      40.789  31.211  30.042  1.00  0.00     0.029 A 
ATOM     52  N   UNL A   1      42.471  29.792  29.724  1.00  0.00    -0.354 N 
ATOM     53  N   UNL A   1      45.264  28.929  29.801  1.00  0.00    -0.248 NA
ATOM     54  C   UNL A   1      47.526  29.398  30.159  1.00  0.00     0.031 C 
ATOM     55  C   UNL A   1      41.983  31.866  30.357  1.00  0.00     0.029 A 
ATOM     56  C   UNL A   1      43.029  30.973  30.182  1.00  0.00     0.049 A 
ATOM     57  H   UNL A   1      42.975  28.975  29.506  1.00  0.00     0.167 HD
ATOM     58  C   UNL A   1      45.397  30.245  30.226  1.00  0.00     0.074 A 
ATOM     59  C   UNL A   1      46.807  30.471  30.461  1.00  0.00     0.031 C 
ATOM     60  C   UNL A   1      44.435  31.183  30.408  1.00  0.00     0.031 A 
BRANCH  47  61
ATOM     61  C   UNL A   1      38.742  29.224  29.042  1.00  0.00    -0.014 A 
ATOM     62  C   UNL A   1      37.880  29.048  30.136  1.00  0.00     0.009 A 
ATOM     63  C   UNL A   1      38.222  29.738  27.843  1.00  0.00     0.009 A 
ATOM     64  C   UNL A   1      36.522  29.352  30.022  1.00  0.00     0.001 A 
ATOM     65  C   UNL A   1      36.869  30.065  27.740  1.00  0.00     0.001 A 
ATOM     66  C   UNL A   1      36.019  29.864  28.826  1.00  0.00     0.000 A 
ENDBRANCH  47  61
BRANCH  48  67
ATOM     67  C   UNL A   1      48.376  26.690  29.471  1.00  0.00    -0.014 A 
ATOM     68  C   UNL A   1      49.203  26.895  28.356  1.00  0.00     0.009 A 
ATOM     69  C   UNL A   1      48.926  26.122  30.630  1.00  0.00     0.009 A 
ATOM     70  C   UNL A   1      50.546  26.515  28.395  1.00  0.00     0.001 A 
ATOM     71  C   UNL A   1      50.276  25.769  30.675  1.00  0.00     0.001 A 
ATOM     72  C   UNL A   1      51.083  25.957  29.555  1.00  0.00     0.000 A 
ENDBRANCH  48  67
BRANCH  60  73
ATOM     73  C   UNL A   1      44.872  32.528  30.916  1.00  0.00    -0.014 A 
ATOM     74  C   UNL A   1      45.195  33.571  30.033  1.00  0.00     0.009 A 
ATOM     75  C   UNL A   1      44.918  32.768  32.299  1.00  0.00     0.009 A 
ATOM     76  C   UNL A   1      45.587  34.817  30.527  1.00  0.00     0.001 A 
ATOM     77  C   UNL A   1      45.284  34.022  32.789  1.00  0.00     0.001 A 
ATOM     78  C   UNL A   1      45.627  35.042  31.904  1.00  0.00     0.000 A 
ENDBRANCH  60  73
ENDBRANCH  34  35
ENDBRANCH  27  29
ENDBRANCH  26  27
ENDBRANCH  25  26
ENDBRANCH  24  25
ENDBRANCH  23  24
ENDBRANCH   1  23
TORSDOF 18
ENDMDL
MODEL 3
REMARK VINA RESULT:     -10.3      3.728      5.113
REMARK SMILES C[C@@H](C(=O)OCCOCCOC(=O)c1ccc(-c2c3nc(c(-c4ccccc4)c4ccc([nH]4)c(-c4ccccc4)c4nc(c(-c5ccccc5)c5ccc2[nH]5)C=C4)C=C3)cc1)c1ccc(C[C@H]2CCC[C@@H]2O)cc1Br
REMARK SMILES IDX 7 1 6 2 5 3 3 4 4 5 2 6 1 7 62 8 63 9 74 10 64 11 73 12
REMARK SMILES IDX 75 13 65 14 66 15 67 16 68 17 71 18 69 19 70 20 72 21 8 23
REMARK SMILES IDX 9 24 10 25 11 26 12 27 13 28 14 29 15 30 61 31 16 32 60 33
REMARK SMILES IDX 17 34 18 35 19 36 54 37 20 38 59 39 53 40 55 41 21 42 58 43
REMARK SMILES IDX 52 44 51 45 22 47 44 48 29 49 43 50 30 51 33 52 42 53 56 54
REMARK SMILES IDX 31 55 32 56 41 58 57 59 34 60 23 61 24 62 28 63 25 64 27 65
REMARK SMILES IDX 26 66 45 67 46 68 50 69 47 70 49 71 48 72 35 73 36 74 40 75
REMARK SMILES IDX 37 76 39 77 38 78
REMARK H PARENT 72 22 55 46 33 57
REMARK Flexibility Score: inf
ROOT
ATOM      1  C   UNL A   1      40.405  21.824  26.298  1.00  0.00     0.202 C 
ENDROOT
BRANCH   1   2
ATOM      2  C   UNL A   1      38.949  21.387  26.106  1.00  0.00     0.261 C 
BRANCH   2   3
ATOM      3  O   UNL A   1      38.316  22.246  25.145  1.00  0.00    -0.463 OA
BRANCH   3   4
ATOM      4  C   UNL A   1      37.290  23.011  25.604  1.00  0.00     0.313 C 
ATOM      5  O   UNL A   1      37.409  23.866  26.474  1.00  0.00    -0.252 OA
BRANCH   4   6
ATOM      6  C   UNL A   1      36.001  22.784  24.799  1.00  0.00     0.127 C 
ATOM      7  C   UNL A   1      36.253  22.729  23.282  1.00  0.00     0.025 C 
BRANCH   6   8
ATOM      8  C   UNL A   1      34.877  23.761  25.177  1.00  0.00    -0.020 A 
ATOM      9  C   UNL A   1      34.764  25.009  24.527  1.00  0.00     0.006 A 
ATOM     10  C   UNL A   1      33.941  23.491  26.192  1.00  0.00     0.022 A 
ATOM     11  C   UNL A   1      33.817  25.965  24.910  1.00  0.00     0.004 A 
ATOM     12  C   UNL A   1      32.987  24.450  26.569  1.00  0.00     0.019 A 
ATOM     13  Br  UNL A   1      33.923  21.876  27.195  1.00  0.00    -0.050 Br
ATOM     14  C   UNL A   1      32.954  25.716  25.973  1.00  0.00    -0.047 A 
BRANCH  14  15
ATOM     15  C   UNL A   1      32.064  26.801  26.533  1.00  0.00     0.041 C 
BRANCH  15  16
ATOM     16  C   UNL A   1      30.757  27.054  25.752  1.00  0.00     0.022 C 
ATOM     17  C   UNL A   1      30.878  27.944  24.499  1.00  0.00     0.007 C 
ATOM     18  C   UNL A   1      30.024  25.794  25.271  1.00  0.00     0.117 C 
ATOM     19  C   UNL A   1      30.033  27.276  23.413  1.00  0.00     0.003 C 
ATOM     20  C   UNL A   1      29.127  26.313  24.157  1.00  0.00     0.032 C 
BRANCH  18  21
ATOM     21  O   UNL A   1      29.244  25.213  26.299  1.00  0.00    -0.393 OA
ATOM     22  H   UNL A   1      29.684  24.411  26.625  1.00  0.00     0.210 HD
ENDBRANCH  18  21
ENDBRANCH  15  16
ENDBRANCH  14  15
ENDBRANCH   6   8
ENDBRANCH   4   6
ENDBRANCH   3   4
ENDBRANCH   2   3
ENDBRANCH   1   2
BRANCH   1  23
ATOM     23  O   UNL A   1      41.390  20.962  25.721  1.00  0.00    -0.374 OA
BRANCH  23  24
ATOM     24  C   UNL A   1      42.707  21.000  26.273  1.00  0.00     0.202 C 
BRANCH  24  25
ATOM     25  C   UNL A   1      43.761  21.794  25.495  1.00  0.00     0.261 C 
BRANCH  25  26
ATOM     26  O   UNL A   1      44.243  22.927  26.238  1.00  0.00    -0.460 OA
BRANCH  26  27
ATOM     27  C   UNL A   1      44.080  24.117  25.618  1.00  0.00     0.338 C 
ATOM     28  O   UNL A   1      44.379  24.402  24.463  1.00  0.00    -0.246 OA
BRANCH  27  29
ATOM     29  C   UNL A   1      43.314  25.040  26.471  1.00  0.00     0.060 A 
ATOM     30  C   UNL A   1      43.753  26.368  26.536  1.00  0.00     0.016 A 
ATOM     31  C   UNL A   1      42.253  24.603  27.268  1.00  0.00     0.016 A 
ATOM     32  C   UNL A   1      43.168  27.254  27.436  1.00  0.00     0.010 A 
ATOM     33  C   UNL A   1      41.672  25.492  28.178  1.00  0.00     0.010 A 
ATOM     34  C   UNL A   1      42.153  26.809  28.292  1.00  0.00    -0.014 A 
BRANCH  34  35
ATOM     35  C   UNL A   1      41.708  27.686  29.402  1.00  0.00     0.031 A 
ATOM     36  C   UNL A   1      42.451  27.646  30.709  1.00  0.00     0.074 A 
ATOM     37  C   UNL A   1      40.685  28.543  29.234  1.00  0.00     0.049 A 
ATOM     38  N   UNL A   1      42.236  28.327  31.806  1.00  0.00    -0.248 NA
ATOM     39  C   UNL A   1      43.591  26.718  30.789  1.00  0.00     0.031 C 
ATOM     40  C   UNL A   1      39.916  28.712  28.003  1.00  0.00     0.029 A 
ATOM     41  N   UNL A   1      40.123  29.437  30.111  1.00  0.00    -0.354 N 
ATOM     42  C   UNL A   1      43.210  27.910  32.705  1.00  0.00     0.074 A 
ATOM     43  C   UNL A   1      43.998  26.897  32.037  1.00  0.00     0.031 C 
ATOM     44  C   UNL A   1      38.975  29.651  28.205  1.00  0.00     0.029 A 
ATOM     45  C   UNL A   1      39.058  30.125  29.584  1.00  0.00     0.049 A 
ATOM     46  H   UNL A   1      40.452  29.570  31.030  1.00  0.00     0.167 HD
ATOM     47  C   UNL A   1      43.433  28.335  33.971  1.00  0.00     0.031 A 
ATOM     48  C   UNL A   1      38.234  31.023  30.158  1.00  0.00     0.031 A 
ATOM     49  C   UNL A   1      42.643  29.331  34.644  1.00  0.00     0.049 A 
ATOM     50  C   UNL A   1      38.454  31.421  31.592  1.00  0.00     0.074 A 
ATOM     51  C   UNL A   1      42.796  29.832  35.926  1.00  0.00     0.029 A 
ATOM     52  N   UNL A   1      41.545  29.972  34.092  1.00  0.00    -0.354 N 
ATOM     53  N   UNL A   1      39.391  31.034  32.424  1.00  0.00    -0.248 NA
ATOM     54  C   UNL A   1      37.503  32.388  32.164  1.00  0.00     0.031 C 
ATOM     55  C   UNL A   1      41.759  30.740  36.166  1.00  0.00     0.029 A 
ATOM     56  C   UNL A   1      40.995  30.844  35.015  1.00  0.00     0.049 A 
ATOM     57  H   UNL A   1      41.207  29.826  33.178  1.00  0.00     0.167 HD
ATOM     58  C   UNL A   1      39.158  31.728  33.605  1.00  0.00     0.074 A 
ATOM     59  C   UNL A   1      38.002  32.569  33.379  1.00  0.00     0.031 C 
ATOM     60  C   UNL A   1      39.843  31.673  34.774  1.00  0.00     0.031 A 
BRANCH  47  61
ATOM     61  C   UNL A   1      44.566  27.698  34.723  1.00  0.00    -0.014 A 
ATOM     62  C   UNL A   1      44.372  26.532  35.481  1.00  0.00     0.009 A 
ATOM     63  C   UNL A   1      45.853  28.254  34.649  1.00  0.00     0.009 A 
ATOM     64  C   UNL A   1      45.439  25.953  36.173  1.00  0.00     0.001 A 
ATOM     65  C   UNL A   1      46.922  27.660  35.320  1.00  0.00     0.001 A 
ATOM     66  C   UNL A   1      46.713  26.515  36.087  1.00  0.00     0.000 A 
ENDBRANCH  47  61
BRANCH  48  67
ATOM     67  C   UNL A   1      37.103  31.595  29.381  1.00  0.00    -0.014 A 
ATOM     68  C   UNL A   1      37.219  32.848  28.761  1.00  0.00     0.009 A 
ATOM     69  C   UNL A   1      35.892  30.893  29.276  1.00  0.00     0.009 A 
ATOM     70  C   UNL A   1      36.135  33.397  28.072  1.00  0.00     0.001 A 
ATOM     71  C   UNL A   1      34.820  31.432  28.563  1.00  0.00     0.001 A 
ATOM     72  C   UNL A   1      34.939  32.688  27.969  1.00  0.00     0.000 A 
ENDBRANCH  48  67
BRANCH  60  73
ATOM     73  C   UNL A   1      39.381  32.573  35.886  1.00  0.00    -0.014 A 
ATOM     74  C   UNL A   1      39.708  33.938  35.902  1.00  0.00     0.009 A 
ATOM     75  C   UNL A   1      38.568  32.055  36.907  1.00  0.00     0.009 A 
ATOM     76  C   UNL A   1      39.257  34.759  36.939  1.00  0.00     0.001 A 
ATOM     77  C   UNL A   1      38.097  32.883  37.926  1.00  0.00     0.001 A 
ATOM     78  C   UNL A   1      38.448  34.231  37.946  1.00  0.00     0.000 A 
ENDBRANCH  60  73
ENDBRANCH  34  35
ENDBRANCH  27  29
ENDBRANCH  26  27
ENDBRANCH  25  26
ENDBRANCH  24  25
ENDBRANCH  23  24
ENDBRANCH   1  23
TORSDOF 18
ENDMDL
