MODEL 1
REMARK VINA RESULT:     -11.2      0.000      0.000
REMARK SMILES Nc1cc(C(=O)OCCOCCOC(=O)c2ccc(-c3c4nc(c(-c5ccccc5)c5ccc([nH]5)c(-c5ccccc5)c5nc(c(-c6ccccc6)c6ccc3[nH]6)C=C5)C=C4)cc2)ccc1N1CC2(CCOCC2)C1
REMARK SMILES IDX 11 1 10 2 9 3 8 4 7 5 5 6 6 7 4 8 2 9 3 10 66 11 65 12 64 13
REMARK SMILES IDX 1 14 67 17 68 18 75 19 69 20 70 21 74 22 71 23 73 24 72 25
REMARK SMILES IDX 12 26 13 27 14 28 15 29 16 30 17 31 63 32 18 33 62 34 19 35
REMARK SMILES IDX 20 36 21 37 56 38 22 39 61 40 55 41 57 42 23 43 60 44 54 45
REMARK SMILES IDX 53 46 24 48 46 49 31 50 45 51 32 52 35 53 44 54 58 55 33 56
REMARK SMILES IDX 34 57 43 59 59 60 36 61 25 62 26 63 30 64 27 65 29 66 28 67
REMARK SMILES IDX 47 68 48 69 52 70 49 71 51 72 50 73 37 74 38 75 42 76 39 77
REMARK SMILES IDX 41 78 40 79
REMARK H PARENT 1 15 1 16 57 47 35 58
REMARK Flexibility Score: inf
ROOT
ATOM      1  C   UNL A   1      45.550  21.535  24.474  1.00  0.00     0.202 C 
ENDROOT
BRANCH   1   2
ATOM      2  O   UNL A   1      44.854  20.645  25.348  1.00  0.00    -0.374 OA
BRANCH   2   3
ATOM      3  C   UNL A   1      44.405  19.410  24.788  1.00  0.00     0.202 C 
BRANCH   3   4
ATOM      4  C   UNL A   1      43.375  18.636  25.617  1.00  0.00     0.261 C 
BRANCH   4   5
ATOM      5  O   UNL A   1      42.045  19.130  25.382  1.00  0.00    -0.460 OA
BRANCH   5   6
ATOM      6  C   UNL A   1      41.452  19.687  26.464  1.00  0.00     0.338 C 
ATOM      7  O   UNL A   1      41.938  19.828  27.576  1.00  0.00    -0.246 OA
BRANCH   6   8
ATOM      8  C   UNL A   1      40.153  20.279  26.089  1.00  0.00     0.062 A 
ATOM      9  C   UNL A   1      38.681  22.220  26.292  1.00  0.00     0.056 A 
ATOM     10  C   UNL A   1      39.916  21.593  26.506  1.00  0.00     0.043 A 
ATOM     11  C   UNL A   1      37.668  21.515  25.607  1.00  0.00     0.060 A 
ATOM     12  C   UNL A   1      37.945  20.204  25.153  1.00  0.00     0.029 A 
ATOM     13  C   UNL A   1      39.179  19.588  25.378  1.00  0.00     0.018 A 
BRANCH   9  14
ATOM     14  N   UNL A   1      38.557  23.536  26.726  1.00  0.00    -0.397 N 
ATOM     15  H   UNL A   1      39.362  24.067  26.923  1.00  0.00     0.156 HD
ATOM     16  H   UNL A   1      37.665  23.936  26.837  1.00  0.00     0.156 HD
ENDBRANCH   9  14
BRANCH  11  17
ATOM     17  N   UNL A   1      36.352  21.987  25.405  1.00  0.00    -0.369 N 
ATOM     18  C   UNL A   1      35.138  21.899  26.149  1.00  0.00     0.125 C 
ATOM     19  C   UNL A   1      35.692  22.007  24.127  1.00  0.00     0.125 C 
ATOM     20  C   UNL A   1      34.413  21.514  24.834  1.00  0.00     0.010 C 
ATOM     21  C   UNL A   1      33.152  22.312  24.500  1.00  0.00     0.039 C 
ATOM     22  C   UNL A   1      34.142  20.015  24.632  1.00  0.00     0.039 C 
ATOM     23  C   UNL A   1      31.994  21.784  25.340  1.00  0.00     0.161 C 
ATOM     24  C   UNL A   1      32.938  19.614  25.476  1.00  0.00     0.161 C 
ATOM     25  O   UNL A   1      31.797  20.388  25.101  1.00  0.00    -0.381 OA
ENDBRANCH  11  17
ENDBRANCH   6   8
ENDBRANCH   5   6
ENDBRANCH   4   5
ENDBRANCH   3   4
ENDBRANCH   2   3
ENDBRANCH   1   2
BRANCH   1  26
ATOM     26  C   UNL A   1      44.674  22.469  23.629  1.00  0.00     0.261 C 
BRANCH  26  27
ATOM     27  O   UNL A   1      43.931  23.390  24.449  1.00  0.00    -0.460 OA
BRANCH  27  28
ATOM     28  C   UNL A   1      44.649  24.424  24.942  1.00  0.00     0.338 C 
ATOM     29  O   UNL A   1      45.763  24.788  24.592  1.00  0.00    -0.246 OA
BRANCH  28  30
ATOM     30  C   UNL A   1      43.826  25.204  25.885  1.00  0.00     0.060 A 
ATOM     31  C   UNL A   1      44.080  26.579  25.979  1.00  0.00     0.016 A 
ATOM     32  C   UNL A   1      42.871  24.603  26.706  1.00  0.00     0.016 A 
ATOM     33  C   UNL A   1      43.417  27.349  26.932  1.00  0.00     0.010 A 
ATOM     34  C   UNL A   1      42.211  25.376  27.668  1.00  0.00     0.010 A 
ATOM     35  C   UNL A   1      42.506  26.744  27.807  1.00  0.00    -0.014 A 
BRANCH  35  36
ATOM     36  C   UNL A   1      41.970  27.517  28.955  1.00  0.00     0.031 A 
ATOM     37  C   UNL A   1      42.684  27.452  30.277  1.00  0.00     0.074 A 
ATOM     38  C   UNL A   1      40.877  28.288  28.816  1.00  0.00     0.049 A 
ATOM     39  N   UNL A   1      42.380  28.028  31.412  1.00  0.00    -0.248 NA
ATOM     40  C   UNL A   1      43.905  26.630  30.326  1.00  0.00     0.031 C 
ATOM     41  C   UNL A   1      40.120  28.471  27.579  1.00  0.00     0.029 A 
ATOM     42  N   UNL A   1      40.215  29.062  29.736  1.00  0.00    -0.354 N 
ATOM     43  C   UNL A   1      43.363  27.632  32.311  1.00  0.00     0.074 A 
ATOM     44  C   UNL A   1      44.260  26.749  31.598  1.00  0.00     0.031 C 
ATOM     45  C   UNL A   1      39.091  29.303  27.819  1.00  0.00     0.029 A 
ATOM     46  C   UNL A   1      39.100  29.683  29.230  1.00  0.00     0.049 A 
ATOM     47  H   UNL A   1      40.510  29.162  30.670  1.00  0.00     0.167 HD
ATOM     48  C   UNL A   1      43.511  27.976  33.612  1.00  0.00     0.031 A 
ATOM     49  C   UNL A   1      38.181  30.457  29.840  1.00  0.00     0.031 A 
ATOM     50  C   UNL A   1      42.618  28.849  34.327  1.00  0.00     0.049 A 
ATOM     51  C   UNL A   1      38.327  30.762  31.308  1.00  0.00     0.074 A 
ATOM     52  C   UNL A   1      42.698  29.272  35.643  1.00  0.00     0.029 A 
ATOM     53  N   UNL A   1      41.479  29.425  33.788  1.00  0.00    -0.354 N 
ATOM     54  N   UNL A   1      39.277  30.405  32.137  1.00  0.00    -0.248 NA
ATOM     55  C   UNL A   1      37.271  31.584  31.919  1.00  0.00     0.031 C 
ATOM     56  C   UNL A   1      41.577  30.063  35.915  1.00  0.00     0.029 A 
ATOM     57  C   UNL A   1      40.831  30.177  34.753  1.00  0.00     0.049 A 
ATOM     58  H   UNL A   1      41.177  29.316  32.858  1.00  0.00     0.167 HD
ATOM     59  C   UNL A   1      38.951  30.984  33.358  1.00  0.00     0.074 A 
ATOM     60  C   UNL A   1      37.723  31.723  33.158  1.00  0.00     0.031 C 
ATOM     61  C   UNL A   1      39.612  30.911  34.539  1.00  0.00     0.031 A 
BRANCH  48  62
ATOM     62  C   UNL A   1      44.669  27.380  34.360  1.00  0.00    -0.014 A 
ATOM     63  C   UNL A   1      45.907  28.038  34.433  1.00  0.00     0.009 A 
ATOM     64  C   UNL A   1      44.504  26.163  35.039  1.00  0.00     0.009 A 
ATOM     65  C   UNL A   1      46.964  27.474  35.149  1.00  0.00     0.001 A 
ATOM     66  C   UNL A   1      45.555  25.614  35.774  1.00  0.00     0.001 A 
ATOM     67  C   UNL A   1      46.787  26.266  35.824  1.00  0.00     0.000 A 
ENDBRANCH  48  62
BRANCH  49  68
ATOM     68  C   UNL A   1      37.022  30.985  29.075  1.00  0.00    -0.014 A 
ATOM     69  C   UNL A   1      36.991  32.325  28.658  1.00  0.00     0.009 A 
ATOM     70  C   UNL A   1      35.924  30.159  28.789  1.00  0.00     0.009 A 
ATOM     71  C   UNL A   1      35.871  32.833  27.995  1.00  0.00     0.001 A 
ATOM     72  C   UNL A   1      34.818  30.663  28.101  1.00  0.00     0.001 A 
ATOM     73  C   UNL A   1      34.788  32.001  27.714  1.00  0.00     0.000 A 
ENDBRANCH  49  68
BRANCH  61  74
ATOM     74  C   UNL A   1      39.043  31.682  35.697  1.00  0.00    -0.014 A 
ATOM     75  C   UNL A   1      38.108  31.106  36.569  1.00  0.00     0.009 A 
ATOM     76  C   UNL A   1      39.485  32.992  35.941  1.00  0.00     0.009 A 
ATOM     77  C   UNL A   1      37.602  31.838  37.645  1.00  0.00     0.001 A 
ATOM     78  C   UNL A   1      39.000  33.712  37.033  1.00  0.00     0.001 A 
ATOM     79  C   UNL A   1      38.052  33.138  37.879  1.00  0.00     0.000 A 
ENDBRANCH  61  74
ENDBRANCH  35  36
ENDBRANCH  28  30
ENDBRANCH  27  28
ENDBRANCH  26  27
ENDBRANCH   1  26
TORSDOF 16
ENDMDL
MODEL 2
REMARK VINA RESULT:     -11.1      5.757     11.434
REMARK SMILES Nc1cc(C(=O)OCCOCCOC(=O)c2ccc(-c3c4nc(c(-c5ccccc5)c5ccc([nH]5)c(-c5ccccc5)c5nc(c(-c6ccccc6)c6ccc3[nH]6)C=C5)C=C4)cc2)ccc1N1CC2(CCOCC2)C1
REMARK SMILES IDX 11 1 10 2 9 3 8 4 7 5 5 6 6 7 4 8 2 9 3 10 66 11 65 12 64 13
REMARK SMILES IDX 1 14 67 17 68 18 75 19 69 20 70 21 74 22 71 23 73 24 72 25
REMARK SMILES IDX 12 26 13 27 14 28 15 29 16 30 17 31 63 32 18 33 62 34 19 35
REMARK SMILES IDX 20 36 21 37 56 38 22 39 61 40 55 41 57 42 23 43 60 44 54 45
REMARK SMILES IDX 53 46 24 48 46 49 31 50 45 51 32 52 35 53 44 54 58 55 33 56
REMARK SMILES IDX 34 57 43 59 59 60 36 61 25 62 26 63 30 64 27 65 29 66 28 67
REMARK SMILES IDX 47 68 48 69 52 70 49 71 51 72 50 73 37 74 38 75 42 76 39 77
REMARK SMILES IDX 41 78 40 79
REMARK H PARENT 1 15 1 16 57 47 35 58
REMARK Flexibility Score: inf
ROOT
ATOM      1  C   UNL A   1      34.189  34.846  32.501  1.00  0.00     0.202 C 
ENDROOT
BRANCH   1   2
ATOM      2  O   UNL A   1      33.119  35.756  32.762  1.00  0.00    -0.374 OA
BRANCH   2   3
ATOM      3  C   UNL A   1      32.257  36.071  31.667  1.00  0.00     0.202 C 
BRANCH   3   4
ATOM      4  C   UNL A   1      32.911  36.069  30.281  1.00  0.00     0.261 C 
BRANCH   4   5
ATOM      5  O   UNL A   1      32.637  34.842  29.582  1.00  0.00    -0.460 OA
BRANCH   5   6
ATOM      6  C   UNL A   1      33.471  34.588  28.545  1.00  0.00     0.338 C 
ATOM      7  O   UNL A   1      34.434  35.254  28.198  1.00  0.00    -0.246 OA
BRANCH   6   8
ATOM      8  C   UNL A   1      33.168  33.269  27.955  1.00  0.00     0.062 A 
ATOM      9  C   UNL A   1      33.933  30.968  27.647  1.00  0.00     0.056 A 
ATOM     10  C   UNL A   1      34.067  32.234  28.233  1.00  0.00     0.043 A 
ATOM     11  C   UNL A   1      32.842  30.728  26.785  1.00  0.00     0.060 A 
ATOM     12  C   UNL A   1      31.918  31.775  26.555  1.00  0.00     0.029 A 
ATOM     13  C   UNL A   1      32.066  33.035  27.140  1.00  0.00     0.018 A 
BRANCH   9  14
ATOM     14  N   UNL A   1      34.867  30.003  28.008  1.00  0.00    -0.397 N 
ATOM     15  H   UNL A   1      35.443  30.145  28.794  1.00  0.00     0.156 HD
ATOM     16  H   UNL A   1      34.953  29.178  27.478  1.00  0.00     0.156 HD
ENDBRANCH   9  14
BRANCH  11  17
ATOM     17  N   UNL A   1      32.636  29.535  26.056  1.00  0.00    -0.369 N 
ATOM     18  C   UNL A   1      32.900  29.131  24.715  1.00  0.00     0.125 C 
ATOM     19  C   UNL A   1      31.472  28.700  26.192  1.00  0.00     0.125 C 
ATOM     20  C   UNL A   1      31.468  28.542  24.658  1.00  0.00     0.010 C 
ATOM     21  C   UNL A   1      31.350  27.099  24.167  1.00  0.00     0.039 C 
ATOM     22  C   UNL A   1      30.413  29.411  23.956  1.00  0.00     0.039 C 
ATOM     23  C   UNL A   1      31.461  27.081  22.646  1.00  0.00     0.161 C 
ATOM     24  C   UNL A   1      30.586  29.276  22.448  1.00  0.00     0.161 C 
ATOM     25  O   UNL A   1      30.450  27.908  22.060  1.00  0.00    -0.381 OA
ENDBRANCH  11  17
ENDBRANCH   6   8
ENDBRANCH   5   6
ENDBRANCH   4   5
ENDBRANCH   3   4
ENDBRANCH   2   3
ENDBRANCH   1   2
BRANCH   1  26
ATOM     26  C   UNL A   1      34.034  33.441  33.096  1.00  0.00     0.261 C 
BRANCH  26  27
ATOM     27  O   UNL A   1      34.941  32.501  32.488  1.00  0.00    -0.460 OA
BRANCH  27  28
ATOM     28  C   UNL A   1      36.075  32.268  33.186  1.00  0.00     0.338 C 
ATOM     29  O   UNL A   1      36.274  32.484  34.374  1.00  0.00    -0.246 OA
BRANCH  28  30
ATOM     30  C   UNL A   1      37.039  31.531  32.348  1.00  0.00     0.060 A 
ATOM     31  C   UNL A   1      38.139  30.945  32.991  1.00  0.00     0.016 A 
ATOM     32  C   UNL A   1      36.912  31.463  30.960  1.00  0.00     0.016 A 
ATOM     33  C   UNL A   1      39.143  30.336  32.242  1.00  0.00     0.010 A 
ATOM     34  C   UNL A   1      37.926  30.857  30.208  1.00  0.00     0.010 A 
ATOM     35  C   UNL A   1      39.060  30.321  30.844  1.00  0.00    -0.014 A 
BRANCH  35  36
ATOM     36  C   UNL A   1      40.227  29.871  30.046  1.00  0.00     0.031 A 
ATOM     37  C   UNL A   1      41.352  30.835  29.788  1.00  0.00     0.074 A 
ATOM     38  C   UNL A   1      40.298  28.611  29.580  1.00  0.00     0.049 A 
ATOM     39  N   UNL A   1      42.453  30.659  29.102  1.00  0.00    -0.248 NA
ATOM     40  C   UNL A   1      41.221  32.175  30.383  1.00  0.00     0.031 C 
ATOM     41  C   UNL A   1      39.296  27.569  29.798  1.00  0.00     0.029 A 
ATOM     42  N   UNL A   1      41.264  27.999  28.821  1.00  0.00    -0.354 N 
ATOM     43  C   UNL A   1      43.139  31.865  29.175  1.00  0.00     0.074 A 
ATOM     44  C   UNL A   1      42.322  32.772  29.951  1.00  0.00     0.031 C 
ATOM     45  C   UNL A   1      39.699  26.444  29.180  1.00  0.00     0.029 A 
ATOM     46  C   UNL A   1      40.967  26.697  28.500  1.00  0.00     0.049 A 
ATOM     47  H   UNL A   1      42.091  28.450  28.533  1.00  0.00     0.167 HD
ATOM     48  C   UNL A   1      44.344  32.188  28.648  1.00  0.00     0.031 A 
ATOM     49  C   UNL A   1      41.635  25.817  27.730  1.00  0.00     0.031 A 
ATOM     50  C   UNL A   1      45.158  31.292  27.871  1.00  0.00     0.049 A 
ATOM     51  C   UNL A   1      42.936  26.227  27.092  1.00  0.00     0.074 A 
ATOM     52  C   UNL A   1      46.403  31.523  27.313  1.00  0.00     0.029 A 
ATOM     53  N   UNL A   1      44.801  29.996  27.536  1.00  0.00    -0.354 N 
ATOM     54  N   UNL A   1      43.587  27.360  27.195  1.00  0.00    -0.248 NA
ATOM     55  C   UNL A   1      43.596  25.229  26.237  1.00  0.00     0.031 C 
ATOM     56  C   UNL A   1      46.777  30.384  26.595  1.00  0.00     0.029 A 
ATOM     57  C   UNL A   1      45.790  29.424  26.754  1.00  0.00     0.049 A 
ATOM     58  H   UNL A   1      43.970  29.548  27.813  1.00  0.00     0.167 HD
ATOM     59  C   UNL A   1      44.746  27.200  26.444  1.00  0.00     0.074 A 
ATOM     60  C   UNL A   1      44.714  25.859  25.902  1.00  0.00     0.031 C 
ATOM     61  C   UNL A   1      45.747  28.086  26.225  1.00  0.00     0.031 A 
BRANCH  48  62
ATOM     62  C   UNL A   1      44.845  33.587  28.871  1.00  0.00    -0.014 A 
ATOM     63  C   UNL A   1      44.667  34.588  27.903  1.00  0.00     0.009 A 
ATOM     64  C   UNL A   1      45.461  33.918  30.087  1.00  0.00     0.009 A 
ATOM     65  C   UNL A   1      45.123  35.886  28.139  1.00  0.00     0.001 A 
ATOM     66  C   UNL A   1      45.895  35.222  30.330  1.00  0.00     0.001 A 
ATOM     67  C   UNL A   1      45.732  36.204  29.353  1.00  0.00     0.000 A 
ENDBRANCH  48  62
BRANCH  49  68
ATOM     68  C   UNL A   1      41.079  24.459  27.494  1.00  0.00    -0.014 A 
ATOM     69  C   UNL A   1      39.987  24.272  26.632  1.00  0.00     0.009 A 
ATOM     70  C   UNL A   1      41.618  23.346  28.159  1.00  0.00     0.009 A 
ATOM     71  C   UNL A   1      39.430  23.002  26.463  1.00  0.00     0.001 A 
ATOM     72  C   UNL A   1      41.075  22.074  27.966  1.00  0.00     0.001 A 
ATOM     73  C   UNL A   1      39.975  21.905  27.127  1.00  0.00     0.000 A 
ENDBRANCH  49  68
BRANCH  61  74
ATOM     74  C   UNL A   1      46.912  27.620  25.396  1.00  0.00    -0.014 A 
ATOM     75  C   UNL A   1      46.961  27.846  24.013  1.00  0.00     0.009 A 
ATOM     76  C   UNL A   1      47.995  26.982  26.021  1.00  0.00     0.009 A 
ATOM     77  C   UNL A   1      48.059  27.414  23.266  1.00  0.00     0.001 A 
ATOM     78  C   UNL A   1      49.104  26.577  25.277  1.00  0.00     0.001 A 
ATOM     79  C   UNL A   1      49.131  26.785  23.899  1.00  0.00     0.000 A 
ENDBRANCH  61  74
ENDBRANCH  35  36
ENDBRANCH  28  30
ENDBRANCH  27  28
ENDBRANCH  26  27
ENDBRANCH   1  26
TORSDOF 16
ENDMDL
MODEL 3
REMARK VINA RESULT:     -10.5      5.667     11.412
REMARK SMILES Nc1cc(C(=O)OCCOCCOC(=O)c2ccc(-c3c4nc(c(-c5ccccc5)c5ccc([nH]5)c(-c5ccccc5)c5nc(c(-c6ccccc6)c6ccc3[nH]6)C=C5)C=C4)cc2)ccc1N1CC2(CCOCC2)C1
REMARK SMILES IDX 11 1 10 2 9 3 8 4 7 5 5 6 6 7 4 8 2 9 3 10 66 11 65 12 64 13
REMARK SMILES IDX 1 14 67 17 68 18 75 19 69 20 70 21 74 22 71 23 73 24 72 25
REMARK SMILES IDX 12 26 13 27 14 28 15 29 16 30 17 31 63 32 18 33 62 34 19 35
REMARK SMILES IDX 20 36 21 37 56 38 22 39 61 40 55 41 57 42 23 43 60 44 54 45
REMARK SMILES IDX 53 46 24 48 46 49 31 50 45 51 32 52 35 53 44 54 58 55 33 56
REMARK SMILES IDX 34 57 43 59 59 60 36 61 25 62 26 63 30 64 27 65 29 66 28 67
REMARK SMILES IDX 47 68 48 69 52 70 49 71 51 72 50 73 37 74 38 75 42 76 39 77
REMARK SMILES IDX 41 78 40 79
REMARK H PARENT 1 15 1 16 57 47 35 58
REMARK Flexibility Score: inf
ROOT
ATOM      1  C   UNL A   1      34.345  34.630  32.273  1.00  0.00     0.202 C 
ENDROOT
BRANCH   1   2
ATOM      2  O   UNL A   1      33.125  35.360  32.422  1.00  0.00    -0.374 OA
BRANCH   2   3
ATOM      3  C   UNL A   1      32.505  35.832  31.225  1.00  0.00     0.202 C 
BRANCH   3   4
ATOM      4  C   UNL A   1      33.375  35.799  29.965  1.00  0.00     0.261 C 
BRANCH   4   5
ATOM      5  O   UNL A   1      33.040  34.674  29.134  1.00  0.00    -0.460 OA
BRANCH   5   6
ATOM      6  C   UNL A   1      34.105  34.051  28.576  1.00  0.00     0.338 C 
ATOM      7  O   UNL A   1      35.276  34.389  28.651  1.00  0.00    -0.246 OA
BRANCH   6   8
ATOM      8  C   UNL A   1      33.691  32.767  27.975  1.00  0.00     0.062 A 
ATOM      9  C   UNL A   1      34.413  30.549  27.246  1.00  0.00     0.056 A 
ATOM     10  C   UNL A   1      34.667  31.770  27.885  1.00  0.00     0.043 A 
ATOM     11  C   UNL A   1      33.128  30.313  26.713  1.00  0.00     0.060 A 
ATOM     12  C   UNL A   1      32.141  31.317  26.856  1.00  0.00     0.029 A 
ATOM     13  C   UNL A   1      32.408  32.533  27.492  1.00  0.00     0.018 A 
BRANCH   9  14
ATOM     14  N   UNL A   1      35.446  29.617  27.231  1.00  0.00    -0.397 N 
ATOM     15  H   UNL A   1      35.482  28.932  26.526  1.00  0.00     0.156 HD
ATOM     16  H   UNL A   1      36.141  29.643  27.928  1.00  0.00     0.156 HD
ENDBRANCH   9  14
BRANCH  11  17
ATOM     17  N   UNL A   1      32.761  29.172  25.964  1.00  0.00    -0.369 N 
ATOM     18  C   UNL A   1      32.937  28.775  24.606  1.00  0.00     0.125 C 
ATOM     19  C   UNL A   1      31.512  28.476  26.118  1.00  0.00     0.125 C 
ATOM     20  C   UNL A   1      31.445  28.360  24.582  1.00  0.00     0.010 C 
ATOM     21  C   UNL A   1      31.143  26.953  24.062  1.00  0.00     0.039 C 
ATOM     22  C   UNL A   1      30.479  29.365  23.934  1.00  0.00     0.039 C 
ATOM     23  C   UNL A   1      31.206  26.963  22.539  1.00  0.00     0.161 C 
ATOM     24  C   UNL A   1      30.592  29.250  22.419  1.00  0.00     0.161 C 
ATOM     25  O   UNL A   1      30.283  27.917  22.004  1.00  0.00    -0.381 OA
ENDBRANCH  11  17
ENDBRANCH   6   8
ENDBRANCH   5   6
ENDBRANCH   4   5
ENDBRANCH   3   4
ENDBRANCH   2   3
ENDBRANCH   1   2
BRANCH   1  26
ATOM     26  C   UNL A   1      34.273  33.130  32.584  1.00  0.00     0.261 C 
BRANCH  26  27
ATOM     27  O   UNL A   1      35.305  32.394  31.902  1.00  0.00    -0.460 OA
BRANCH  27  28
ATOM     28  C   UNL A   1      36.327  31.982  32.687  1.00  0.00     0.338 C 
ATOM     29  O   UNL A   1      36.386  32.019  33.908  1.00  0.00    -0.246 OA
BRANCH  28  30
ATOM     30  C   UNL A   1      37.344  31.296  31.869  1.00  0.00     0.060 A 
ATOM     31  C   UNL A   1      38.411  30.685  32.543  1.00  0.00     0.016 A 
ATOM     32  C   UNL A   1      37.299  31.300  30.474  1.00  0.00     0.016 A 
ATOM     33  C   UNL A   1      39.462  30.122  31.824  1.00  0.00     0.010 A 
ATOM     34  C   UNL A   1      38.360  30.741  29.753  1.00  0.00     0.010 A 
ATOM     35  C   UNL A   1      39.460  30.180  30.424  1.00  0.00    -0.014 A 
BRANCH  35  36
ATOM     36  C   UNL A   1      40.676  29.779  29.673  1.00  0.00     0.031 A 
ATOM     37  C   UNL A   1      40.768  28.382  29.125  1.00  0.00     0.074 A 
ATOM     38  C   UNL A   1      41.672  30.655  29.458  1.00  0.00     0.049 A 
ATOM     39  N   UNL A   1      41.742  27.815  28.459  1.00  0.00    -0.248 NA
ATOM     40  C   UNL A   1      39.607  27.505  29.357  1.00  0.00     0.031 C 
ATOM     41  C   UNL A   1      41.686  32.050  29.897  1.00  0.00     0.029 A 
ATOM     42  N   UNL A   1      42.872  30.493  28.811  1.00  0.00    -0.354 N 
ATOM     43  C   UNL A   1      41.318  26.517  28.201  1.00  0.00     0.074 A 
ATOM     44  C   UNL A   1      40.009  26.371  28.801  1.00  0.00     0.031 C 
ATOM     45  C   UNL A   1      42.843  32.616  29.511  1.00  0.00     0.029 A 
ATOM     46  C   UNL A   1      43.661  31.616  28.827  1.00  0.00     0.049 A 
ATOM     47  H   UNL A   1      43.142  29.651  28.378  1.00  0.00     0.167 HD
ATOM     48  C   UNL A   1      41.957  25.536  27.521  1.00  0.00     0.031 A 
ATOM     49  C   UNL A   1      44.909  31.811  28.358  1.00  0.00     0.031 A 
ATOM     50  C   UNL A   1      43.260  25.675  26.928  1.00  0.00     0.049 A 
ATOM     51  C   UNL A   1      45.628  30.679  27.673  1.00  0.00     0.074 A 
ATOM     52  C   UNL A   1      43.980  24.743  26.201  1.00  0.00     0.029 A 
ATOM     53  N   UNL A   1      44.041  26.817  27.002  1.00  0.00    -0.354 N 
ATOM     54  N   UNL A   1      45.203  29.467  27.409  1.00  0.00    -0.248 NA
ATOM     55  C   UNL A   1      47.000  30.948  27.214  1.00  0.00     0.031 C 
ATOM     56  C   UNL A   1      45.219  25.303  25.880  1.00  0.00     0.029 A 
ATOM     57  C   UNL A   1      45.248  26.603  26.358  1.00  0.00     0.049 A 
ATOM     58  H   UNL A   1      43.777  27.656  27.445  1.00  0.00     0.167 HD
ATOM     59  C   UNL A   1      46.241  28.841  26.729  1.00  0.00     0.074 A 
ATOM     60  C   UNL A   1      47.310  29.809  26.610  1.00  0.00     0.031 C 
ATOM     61  C   UNL A   1      46.301  27.577  26.244  1.00  0.00     0.031 A 
BRANCH  48  62
ATOM     62  C   UNL A   1      41.264  24.208  27.407  1.00  0.00    -0.014 A 
ATOM     63  C   UNL A   1      40.160  24.032  26.558  1.00  0.00     0.009 A 
ATOM     64  C   UNL A   1      41.754  23.107  28.126  1.00  0.00     0.009 A 
ATOM     65  C   UNL A   1      39.543  22.783  26.454  1.00  0.00     0.001 A 
ATOM     66  C   UNL A   1      41.150  21.854  28.001  1.00  0.00     0.001 A 
ATOM     67  C   UNL A   1      40.041  21.695  27.170  1.00  0.00     0.000 A 
ENDBRANCH  48  62
BRANCH  49  68
ATOM     68  C   UNL A   1      45.578  33.126  28.536  1.00  0.00    -0.014 A 
ATOM     69  C   UNL A   1      45.411  34.148  27.589  1.00  0.00     0.009 A 
ATOM     70  C   UNL A   1      46.416  33.352  29.639  1.00  0.00     0.009 A 
ATOM     71  C   UNL A   1      46.092  35.359  27.729  1.00  0.00     0.001 A 
ATOM     72  C   UNL A   1      47.073  34.574  29.790  1.00  0.00     0.001 A 
ATOM     73  C   UNL A   1      46.919  35.573  28.831  1.00  0.00     0.000 A 
ENDBRANCH  49  68
BRANCH  61  74
ATOM     74  C   UNL A   1      47.548  27.181  25.505  1.00  0.00    -0.014 A 
ATOM     75  C   UNL A   1      47.703  27.446  24.136  1.00  0.00     0.009 A 
ATOM     76  C   UNL A   1      48.602  26.570  26.203  1.00  0.00     0.009 A 
ATOM     77  C   UNL A   1      48.875  27.078  23.474  1.00  0.00     0.001 A 
ATOM     78  C   UNL A   1      49.785  26.228  25.545  1.00  0.00     0.001 A 
ATOM     79  C   UNL A   1      49.916  26.475  24.179  1.00  0.00     0.000 A 
ENDBRANCH  61  74
ENDBRANCH  35  36
ENDBRANCH  28  30
ENDBRANCH  27  28
ENDBRANCH  26  27
ENDBRANCH   1  26
TORSDOF 16
ENDMDL
