MODEL 1
REMARK VINA RESULT:     -11.7      0.000      0.000
REMARK SMILES Cc1ccc(S(=O)(=O)N(C)c2cccc(C)c2C)cc1C(=O)OCCOCCOC(=O)c1ccc(-c2c3nc(c(-c4ccccc4)c4ccc([nH]4)c(-c4ccccc4)c4nc(c(-c5ccccc5)c5ccc2[nH]5)C=C4)C=C3)cc1
REMARK SMILES IDX 25 1 24 2 23 3 21 4 22 5 20 6 1 7 2 8 3 9 4 10 19 11 5 12
REMARK SMILES IDX 6 13 7 14 8 15 9 16 10 17 11 18 12 19 17 20 13 21 15 22
REMARK SMILES IDX 18 23 14 24 16 25 26 26 27 27 28 28 29 29 30 30 31 31 32 32
REMARK SMILES IDX 33 33 79 34 34 35 78 36 35 37 36 38 37 39 72 40 38 41 77 42
REMARK SMILES IDX 71 43 73 44 39 45 76 46 70 47 69 48 40 50 62 51 47 52 61 53
REMARK SMILES IDX 48 54 51 55 60 56 74 57 49 58 50 59 59 61 75 62 52 63 41 64
REMARK SMILES IDX 42 65 46 66 43 67 45 68 44 69 63 70 64 71 68 72 65 73 67 74
REMARK SMILES IDX 66 75 53 76 54 77 58 78 55 79 57 80 56 81
REMARK H PARENT 73 49 51 60
REMARK Flexibility Score: inf
ROOT
ATOM      1  C   UNL A   1      41.634  19.735  26.335  1.00  0.00     0.202 C 
ENDROOT
BRANCH   1   2
ATOM      2  C   UNL A   1      40.188  19.420  26.093  1.00  0.00     0.261 C 
BRANCH   2   3
ATOM      3  O   UNL A   1      39.506  20.629  25.761  1.00  0.00    -0.460 OA
BRANCH   3   4
ATOM      4  C   UNL A   1      38.240  20.511  25.309  1.00  0.00     0.338 C 
ATOM      5  O   UNL A   1      37.675  19.489  24.975  1.00  0.00    -0.246 OA
BRANCH   4   6
ATOM      6  C   UNL A   1      37.547  21.810  25.475  1.00  0.00     0.064 A 
ATOM      7  C   UNL A   1      39.475  23.190  26.565  1.00  0.00     0.045 C 
ATOM      8  C   UNL A   1      38.074  22.986  26.047  1.00  0.00    -0.036 A 
ATOM      9  C   UNL A   1      37.220  24.100  26.142  1.00  0.00     0.006 A 
ATOM     10  C   UNL A   1      35.912  24.058  25.654  1.00  0.00     0.022 A 
ATOM     11  C   UNL A   1      36.212  21.764  25.030  1.00  0.00     0.038 A 
ATOM     12  C   UNL A   1      35.411  22.889  25.074  1.00  0.00     0.088 A 
BRANCH  12  13
ATOM     13  S   UNL A   1      33.820  22.977  24.287  1.00  0.00     0.264 S 
ATOM     14  O   UNL A   1      33.995  23.895  23.176  1.00  0.00    -0.201 OA
ATOM     15  O   UNL A   1      33.462  21.591  24.055  1.00  0.00    -0.201 OA
BRANCH  13  16
ATOM     16  N   UNL A   1      32.642  23.673  25.355  1.00  0.00    -0.269 N 
ATOM     17  C   UNL A   1      31.730  22.734  26.071  1.00  0.00     0.164 C 
BRANCH  16  18
ATOM     18  C   UNL A   1      31.878  24.766  24.736  1.00  0.00     0.055 A 
ATOM     19  C   UNL A   1      30.738  24.477  23.966  1.00  0.00     0.027 A 
ATOM     20  C   UNL A   1      32.122  26.107  25.120  1.00  0.00    -0.024 A 
ATOM     21  C   UNL A   1      29.900  25.483  23.503  1.00  0.00     0.002 A 
ATOM     22  C   UNL A   1      31.247  27.129  24.665  1.00  0.00    -0.046 A 
ATOM     23  C   UNL A   1      33.254  26.431  26.063  1.00  0.00     0.047 C 
ATOM     24  C   UNL A   1      30.156  26.801  23.845  1.00  0.00     0.004 A 
ATOM     25  C   UNL A   1      31.425  28.574  25.051  1.00  0.00     0.044 C 
ENDBRANCH  16  18
ENDBRANCH  13  16
ENDBRANCH  12  13
ENDBRANCH   4   6
ENDBRANCH   3   4
ENDBRANCH   2   3
ENDBRANCH   1   2
BRANCH   1  26
ATOM     26  O   UNL A   1      42.339  19.149  25.247  1.00  0.00    -0.374 OA
BRANCH  26  27
ATOM     27  C   UNL A   1      43.618  18.630  25.559  1.00  0.00     0.202 C 
BRANCH  27  28
ATOM     28  C   UNL A   1      44.626  18.782  24.411  1.00  0.00     0.261 C 
BRANCH  28  29
ATOM     29  O   UNL A   1      44.701  20.170  24.016  1.00  0.00    -0.460 OA
BRANCH  29  30
ATOM     30  C   UNL A   1      45.371  21.010  24.851  1.00  0.00     0.338 C 
ATOM     31  O   UNL A   1      46.402  20.743  25.451  1.00  0.00    -0.246 OA
BRANCH  30  32
ATOM     32  C   UNL A   1      44.511  22.190  25.169  1.00  0.00     0.060 A 
ATOM     33  C   UNL A   1      44.401  23.253  24.249  1.00  0.00     0.016 A 
ATOM     34  C   UNL A   1      44.115  22.375  26.491  1.00  0.00     0.016 A 
ATOM     35  C   UNL A   1      44.043  24.538  24.694  1.00  0.00     0.010 A 
ATOM     36  C   UNL A   1      43.869  23.655  26.938  1.00  0.00     0.010 A 
ATOM     37  C   UNL A   1      43.859  24.752  26.059  1.00  0.00    -0.014 A 
BRANCH  37  38
ATOM     38  C   UNL A   1      43.790  26.051  26.740  1.00  0.00     0.031 A 
ATOM     39  C   UNL A   1      42.469  26.704  26.875  1.00  0.00     0.074 A 
ATOM     40  C   UNL A   1      44.823  26.484  27.508  1.00  0.00     0.049 A 
ATOM     41  N   UNL A   1      42.304  27.873  27.382  1.00  0.00    -0.248 NA
ATOM     42  C   UNL A   1      41.208  26.116  26.419  1.00  0.00     0.031 C 
ATOM     43  C   UNL A   1      44.784  27.371  28.675  1.00  0.00     0.029 A 
ATOM     44  N   UNL A   1      46.182  26.203  27.384  1.00  0.00    -0.354 N 
ATOM     45  C   UNL A   1      40.968  28.034  27.643  1.00  0.00     0.074 A 
ATOM     46  C   UNL A   1      40.315  26.978  26.916  1.00  0.00     0.031 C 
ATOM     47  C   UNL A   1      46.031  27.761  28.993  1.00  0.00     0.029 A 
ATOM     48  C   UNL A   1      46.921  27.237  27.974  1.00  0.00     0.049 A 
ATOM     49  H   UNL A   1      46.563  25.405  26.951  1.00  0.00     0.167 HD
ATOM     50  C   UNL A   1      40.605  28.979  28.554  1.00  0.00     0.031 A 
ATOM     51  C   UNL A   1      47.835  27.923  27.238  1.00  0.00     0.031 A 
ATOM     52  C   UNL A   1      41.762  29.798  28.949  1.00  0.00     0.049 A 
ATOM     53  C   UNL A   1      47.307  29.318  27.058  1.00  0.00     0.074 A 
ATOM     54  C   UNL A   1      42.517  29.891  30.106  1.00  0.00     0.029 A 
ATOM     55  N   UNL A   1      42.500  30.441  27.951  1.00  0.00    -0.354 N 
ATOM     56  N   UNL A   1      46.033  29.596  27.160  1.00  0.00    -0.248 NA
ATOM     57  C   UNL A   1      48.131  30.511  26.901  1.00  0.00     0.031 C 
ATOM     58  C   UNL A   1      43.764  30.496  29.760  1.00  0.00     0.029 A 
ATOM     59  C   UNL A   1      43.749  30.815  28.409  1.00  0.00     0.049 A 
ATOM     60  H   UNL A   1      42.172  30.607  27.038  1.00  0.00     0.167 HD
ATOM     61  C   UNL A   1      45.872  30.940  27.236  1.00  0.00     0.074 A 
ATOM     62  C   UNL A   1      47.201  31.480  26.994  1.00  0.00     0.031 C 
ATOM     63  C   UNL A   1      44.682  31.527  27.536  1.00  0.00     0.031 A 
BRANCH  50  64
ATOM     64  C   UNL A   1      39.249  29.058  29.218  1.00  0.00    -0.014 A 
ATOM     65  C   UNL A   1      38.145  29.523  28.482  1.00  0.00     0.009 A 
ATOM     66  C   UNL A   1      38.995  28.762  30.572  1.00  0.00     0.009 A 
ATOM     67  C   UNL A   1      36.871  29.669  29.058  1.00  0.00     0.001 A 
ATOM     68  C   UNL A   1      37.721  28.880  31.149  1.00  0.00     0.001 A 
ATOM     69  C   UNL A   1      36.657  29.337  30.391  1.00  0.00     0.000 A 
ENDBRANCH  50  64
BRANCH  51  70
ATOM     70  C   UNL A   1      48.556  27.027  26.279  1.00  0.00    -0.014 A 
ATOM     71  C   UNL A   1      48.483  27.383  24.910  1.00  0.00     0.009 A 
ATOM     72  C   UNL A   1      49.643  26.237  26.689  1.00  0.00     0.009 A 
ATOM     73  C   UNL A   1      49.523  27.080  24.020  1.00  0.00     0.001 A 
ATOM     74  C   UNL A   1      50.687  25.941  25.793  1.00  0.00     0.001 A 
ATOM     75  C   UNL A   1      50.643  26.391  24.472  1.00  0.00     0.000 A 
ENDBRANCH  51  70
BRANCH  63  76
ATOM     76  C   UNL A   1      44.322  32.887  27.020  1.00  0.00    -0.014 A 
ATOM     77  C   UNL A   1      44.148  33.152  25.653  1.00  0.00     0.009 A 
ATOM     78  C   UNL A   1      43.932  33.890  27.927  1.00  0.00     0.009 A 
ATOM     79  C   UNL A   1      43.662  34.382  25.209  1.00  0.00     0.001 A 
ATOM     80  C   UNL A   1      43.387  35.096  27.489  1.00  0.00     0.001 A 
ATOM     81  C   UNL A   1      43.268  35.348  26.128  1.00  0.00     0.000 A 
ENDBRANCH  63  76
ENDBRANCH  37  38
ENDBRANCH  30  32
ENDBRANCH  29  30
ENDBRANCH  28  29
ENDBRANCH  27  28
ENDBRANCH  26  27
ENDBRANCH   1  26
TORSDOF 17
ENDMDL
MODEL 2
REMARK VINA RESULT:     -11.7      1.830      3.162
REMARK SMILES Cc1ccc(S(=O)(=O)N(C)c2cccc(C)c2C)cc1C(=O)OCCOCCOC(=O)c1ccc(-c2c3nc(c(-c4ccccc4)c4ccc([nH]4)c(-c4ccccc4)c4nc(c(-c5ccccc5)c5ccc2[nH]5)C=C4)C=C3)cc1
REMARK SMILES IDX 25 1 24 2 23 3 21 4 22 5 20 6 1 7 2 8 3 9 4 10 19 11 5 12
REMARK SMILES IDX 6 13 7 14 8 15 9 16 10 17 11 18 12 19 17 20 13 21 15 22
REMARK SMILES IDX 18 23 14 24 16 25 26 26 27 27 28 28 29 29 30 30 31 31 32 32
REMARK SMILES IDX 33 33 79 34 34 35 78 36 35 37 36 38 37 39 72 40 38 41 77 42
REMARK SMILES IDX 71 43 73 44 39 45 76 46 70 47 69 48 40 50 62 51 47 52 61 53
REMARK SMILES IDX 48 54 51 55 60 56 74 57 49 58 50 59 59 61 75 62 52 63 41 64
REMARK SMILES IDX 42 65 46 66 43 67 45 68 44 69 63 70 64 71 68 72 65 73 67 74
REMARK SMILES IDX 66 75 53 76 54 77 58 78 55 79 57 80 56 81
REMARK H PARENT 73 49 51 60
REMARK Flexibility Score: inf
ROOT
ATOM      1  C   UNL A   1      37.799  23.451  25.758  1.00  0.00     0.202 C 
ENDROOT
BRANCH   1   2
ATOM      2  C   UNL A   1      36.431  23.314  26.356  1.00  0.00     0.261 C 
BRANCH   2   3
ATOM      3  O   UNL A   1      35.908  22.031  26.011  1.00  0.00    -0.460 OA
BRANCH   3   4
ATOM      4  C   UNL A   1      34.684  21.722  26.486  1.00  0.00     0.338 C 
ATOM      5  O   UNL A   1      34.358  21.615  27.652  1.00  0.00    -0.246 OA
BRANCH   4   6
ATOM      6  C   UNL A   1      33.715  21.733  25.366  1.00  0.00     0.064 A 
ATOM      7  C   UNL A   1      33.988  19.274  24.538  1.00  0.00     0.045 C 
ATOM      8  C   UNL A   1      33.419  20.668  24.490  1.00  0.00    -0.036 A 
ATOM      9  C   UNL A   1      32.489  20.913  23.463  1.00  0.00     0.006 A 
ATOM     10  C   UNL A   1      31.852  22.150  23.338  1.00  0.00     0.022 A 
ATOM     11  C   UNL A   1      33.101  22.990  25.201  1.00  0.00     0.038 A 
ATOM     12  C   UNL A   1      32.144  23.188  24.226  1.00  0.00     0.088 A 
BRANCH  12  13
ATOM     13  S   UNL A   1      31.141  24.653  24.137  1.00  0.00     0.264 S 
ATOM     14  O   UNL A   1      30.156  24.379  23.107  1.00  0.00    -0.201 OA
ATOM     15  O   UNL A   1      30.734  24.889  25.509  1.00  0.00    -0.201 OA
BRANCH  13  16
ATOM     16  N   UNL A   1      32.082  26.012  23.607  1.00  0.00    -0.269 N 
ATOM     17  C   UNL A   1      33.282  25.727  22.768  1.00  0.00     0.164 C 
BRANCH  16  18
ATOM     18  C   UNL A   1      32.420  26.939  24.697  1.00  0.00     0.055 A 
ATOM     19  C   UNL A   1      33.569  26.717  25.475  1.00  0.00     0.027 A 
ATOM     20  C   UNL A   1      31.753  28.183  24.802  1.00  0.00    -0.024 A 
ATOM     21  C   UNL A   1      34.011  27.651  26.403  1.00  0.00     0.002 A 
ATOM     22  C   UNL A   1      32.224  29.147  25.733  1.00  0.00    -0.046 A 
ATOM     23  C   UNL A   1      30.605  28.508  23.879  1.00  0.00     0.047 C 
ATOM     24  C   UNL A   1      33.340  28.856  26.535  1.00  0.00     0.004 A 
ATOM     25  C   UNL A   1      31.586  30.502  25.885  1.00  0.00     0.044 C 
ENDBRANCH  16  18
ENDBRANCH  13  16
ENDBRANCH  12  13
ENDBRANCH   4   6
ENDBRANCH   3   4
ENDBRANCH   2   3
ENDBRANCH   1   2
BRANCH   1  26
ATOM     26  O   UNL A   1      38.264  22.121  25.560  1.00  0.00    -0.374 OA
BRANCH  26  27
ATOM     27  C   UNL A   1      39.411  21.761  26.306  1.00  0.00     0.202 C 
BRANCH  27  28
ATOM     28  C   UNL A   1      40.005  20.410  25.882  1.00  0.00     0.261 C 
BRANCH  28  29
ATOM     29  O   UNL A   1      41.213  20.157  26.634  1.00  0.00    -0.460 OA
BRANCH  29  30
ATOM     30  C   UNL A   1      42.385  20.549  26.062  1.00  0.00     0.338 C 
ATOM     31  O   UNL A   1      42.984  19.946  25.184  1.00  0.00    -0.246 OA
BRANCH  30  32
ATOM     32  C   UNL A   1      42.988  21.653  26.867  1.00  0.00     0.060 A 
ATOM     33  C   UNL A   1      42.622  21.826  28.218  1.00  0.00     0.016 A 
ATOM     34  C   UNL A   1      43.628  22.687  26.187  1.00  0.00     0.016 A 
ATOM     35  C   UNL A   1      42.757  23.084  28.832  1.00  0.00     0.010 A 
ATOM     36  C   UNL A   1      43.660  23.940  26.759  1.00  0.00     0.010 A 
ATOM     37  C   UNL A   1      43.200  24.162  28.069  1.00  0.00    -0.014 A 
BRANCH  37  38
ATOM     38  C   UNL A   1      43.114  25.583  28.429  1.00  0.00     0.031 A 
ATOM     39  C   UNL A   1      41.884  26.325  28.073  1.00  0.00     0.074 A 
ATOM     40  C   UNL A   1      43.969  26.118  29.339  1.00  0.00     0.049 A 
ATOM     41  N   UNL A   1      41.734  27.586  28.270  1.00  0.00    -0.248 NA
ATOM     42  C   UNL A   1      40.715  25.723  27.429  1.00  0.00     0.031 C 
ATOM     43  C   UNL A   1      43.746  27.247  30.247  1.00  0.00     0.029 A 
ATOM     44  N   UNL A   1      45.276  25.738  29.639  1.00  0.00    -0.354 N 
ATOM     45  C   UNL A   1      40.403  27.879  28.129  1.00  0.00     0.074 A 
ATOM     46  C   UNL A   1      39.832  26.725  27.486  1.00  0.00     0.031 C 
ATOM     47  C   UNL A   1      44.912  27.626  30.799  1.00  0.00     0.029 A 
ATOM     48  C   UNL A   1      45.960  26.834  30.181  1.00  0.00     0.049 A 
ATOM     49  H   UNL A   1      45.657  24.842  29.494  1.00  0.00     0.167 HD
ATOM     50  C   UNL A   1      39.938  29.024  28.700  1.00  0.00     0.031 A 
ATOM     51  C   UNL A   1      47.099  27.282  29.590  1.00  0.00     0.031 A 
ATOM     52  C   UNL A   1      41.047  29.843  29.213  1.00  0.00     0.049 A 
ATOM     53  C   UNL A   1      46.795  28.629  28.997  1.00  0.00     0.074 A 
ATOM     54  C   UNL A   1      41.500  30.151  30.485  1.00  0.00     0.029 A 
ATOM     55  N   UNL A   1      42.077  30.200  28.337  1.00  0.00    -0.354 N 
ATOM     56  N   UNL A   1      45.575  28.995  28.699  1.00  0.00    -0.248 NA
ATOM     57  C   UNL A   1      47.762  29.706  28.825  1.00  0.00     0.031 C 
ATOM     58  C   UNL A   1      42.855  30.590  30.366  1.00  0.00     0.029 A 
ATOM     59  C   UNL A   1      43.209  30.595  29.024  1.00  0.00     0.049 A 
ATOM     60  H   UNL A   1      42.004  30.174  27.355  1.00  0.00     0.167 HD
ATOM     61  C   UNL A   1      45.555  30.329  28.455  1.00  0.00     0.074 A 
ATOM     62  C   UNL A   1      46.955  30.723  28.469  1.00  0.00     0.031 C 
ATOM     63  C   UNL A   1      44.403  31.036  28.303  1.00  0.00     0.031 A 
BRANCH  50  64
ATOM     64  C   UNL A   1      38.477  29.330  28.950  1.00  0.00    -0.014 A 
ATOM     65  C   UNL A   1      37.684  29.822  27.899  1.00  0.00     0.009 A 
ATOM     66  C   UNL A   1      37.834  29.226  30.200  1.00  0.00     0.009 A 
ATOM     67  C   UNL A   1      36.336  30.174  28.083  1.00  0.00     0.001 A 
ATOM     68  C   UNL A   1      36.482  29.551  30.386  1.00  0.00     0.001 A 
ATOM     69  C   UNL A   1      35.732  30.028  29.326  1.00  0.00     0.000 A 
ENDBRANCH  50  64
BRANCH  51  70
ATOM     70  C   UNL A   1      47.927  26.152  29.059  1.00  0.00    -0.014 A 
ATOM     71  C   UNL A   1      47.982  26.022  27.650  1.00  0.00     0.009 A 
ATOM     72  C   UNL A   1      48.982  25.602  29.806  1.00  0.00     0.009 A 
ATOM     73  C   UNL A   1      49.109  25.490  27.010  1.00  0.00     0.001 A 
ATOM     74  C   UNL A   1      50.114  25.074  29.158  1.00  0.00     0.001 A 
ATOM     75  C   UNL A   1      50.192  25.050  27.764  1.00  0.00     0.000 A 
ENDBRANCH  51  70
BRANCH  63  76
ATOM     76  C   UNL A   1      44.339  32.263  27.444  1.00  0.00    -0.014 A 
ATOM     77  C   UNL A   1      44.449  32.211  26.047  1.00  0.00     0.009 A 
ATOM     78  C   UNL A   1      43.944  33.487  28.016  1.00  0.00     0.009 A 
ATOM     79  C   UNL A   1      44.230  33.342  25.260  1.00  0.00     0.001 A 
ATOM     80  C   UNL A   1      43.664  34.602  27.228  1.00  0.00     0.001 A 
ATOM     81  C   UNL A   1      43.824  34.533  25.850  1.00  0.00     0.000 A 
ENDBRANCH  63  76
ENDBRANCH  37  38
ENDBRANCH  30  32
ENDBRANCH  29  30
ENDBRANCH  28  29
ENDBRANCH  27  28
ENDBRANCH  26  27
ENDBRANCH   1  26
TORSDOF 17
ENDMDL
MODEL 3
REMARK VINA RESULT:     -11.5      2.015      3.350
REMARK SMILES Cc1ccc(S(=O)(=O)N(C)c2cccc(C)c2C)cc1C(=O)OCCOCCOC(=O)c1ccc(-c2c3nc(c(-c4ccccc4)c4ccc([nH]4)c(-c4ccccc4)c4nc(c(-c5ccccc5)c5ccc2[nH]5)C=C4)C=C3)cc1
REMARK SMILES IDX 25 1 24 2 23 3 21 4 22 5 20 6 1 7 2 8 3 9 4 10 19 11 5 12
REMARK SMILES IDX 6 13 7 14 8 15 9 16 10 17 11 18 12 19 17 20 13 21 15 22
REMARK SMILES IDX 18 23 14 24 16 25 26 26 27 27 28 28 29 29 30 30 31 31 32 32
REMARK SMILES IDX 33 33 79 34 34 35 78 36 35 37 36 38 37 39 72 40 38 41 77 42
REMARK SMILES IDX 71 43 73 44 39 45 76 46 70 47 69 48 40 50 62 51 47 52 61 53
REMARK SMILES IDX 48 54 51 55 60 56 74 57 49 58 50 59 59 61 75 62 52 63 41 64
REMARK SMILES IDX 42 65 46 66 43 67 45 68 44 69 63 70 64 71 68 72 65 73 67 74
REMARK SMILES IDX 66 75 53 76 54 77 58 78 55 79 57 80 56 81
REMARK H PARENT 73 49 51 60
REMARK Flexibility Score: inf
ROOT
ATOM      1  C   UNL A   1      37.616  20.912  24.764  1.00  0.00     0.202 C 
ENDROOT
BRANCH   1   2
ATOM      2  C   UNL A   1      36.265  21.155  25.367  1.00  0.00     0.261 C 
BRANCH   2   3
ATOM      3  O   UNL A   1      35.766  22.402  24.884  1.00  0.00    -0.460 OA
BRANCH   3   4
ATOM      4  C   UNL A   1      35.798  23.446  25.738  1.00  0.00     0.338 C 
ATOM      5  O   UNL A   1      36.785  24.024  26.148  1.00  0.00    -0.246 OA
BRANCH   4   6
ATOM      6  C   UNL A   1      34.417  23.933  25.956  1.00  0.00     0.064 A 
ATOM      7  C   UNL A   1      33.637  22.222  27.765  1.00  0.00     0.045 C 
ATOM      8  C   UNL A   1      33.452  23.388  26.828  1.00  0.00    -0.036 A 
ATOM      9  C   UNL A   1      32.181  23.989  26.846  1.00  0.00     0.006 A 
ATOM     10  C   UNL A   1      31.894  25.109  26.061  1.00  0.00     0.022 A 
ATOM     11  C   UNL A   1      34.102  25.032  25.135  1.00  0.00     0.038 A 
ATOM     12  C   UNL A   1      32.868  25.647  25.216  1.00  0.00     0.088 A 
BRANCH  12  13
ATOM     13  S   UNL A   1      32.500  27.191  24.415  1.00  0.00     0.264 S 
ATOM     14  O   UNL A   1      31.778  27.970  25.403  1.00  0.00    -0.201 OA
ATOM     15  O   UNL A   1      33.781  27.641  23.906  1.00  0.00    -0.201 OA
BRANCH  13  16
ATOM     16  N   UNL A   1      31.434  26.946  23.067  1.00  0.00    -0.269 N 
ATOM     17  C   UNL A   1      32.061  26.666  21.742  1.00  0.00     0.164 C 
BRANCH  16  18
ATOM     18  C   UNL A   1      30.411  27.994  22.944  1.00  0.00     0.055 A 
ATOM     19  C   UNL A   1      30.686  29.161  22.209  1.00  0.00     0.027 A 
ATOM     20  C   UNL A   1      29.075  27.730  23.331  1.00  0.00    -0.024 A 
ATOM     21  C   UNL A   1      29.697  30.097  21.934  1.00  0.00     0.002 A 
ATOM     22  C   UNL A   1      28.062  28.677  23.024  1.00  0.00    -0.046 A 
ATOM     23  C   UNL A   1      28.723  26.420  23.993  1.00  0.00     0.047 C 
ATOM     24  C   UNL A   1      28.395  29.859  22.344  1.00  0.00     0.004 A 
ATOM     25  C   UNL A   1      26.616  28.456  23.379  1.00  0.00     0.044 C 
ENDBRANCH  16  18
ENDBRANCH  13  16
ENDBRANCH  12  13
ENDBRANCH   4   6
ENDBRANCH   3   4
ENDBRANCH   2   3
ENDBRANCH   1   2
BRANCH   1  26
ATOM     26  O   UNL A   1      37.872  19.525  24.949  1.00  0.00    -0.374 OA
BRANCH  26  27
ATOM     27  C   UNL A   1      39.098  19.212  25.583  1.00  0.00     0.202 C 
BRANCH  27  28
ATOM     28  C   UNL A   1      39.872  20.456  26.044  1.00  0.00     0.261 C 
BRANCH  28  29
ATOM     29  O   UNL A   1      41.115  20.049  26.659  1.00  0.00    -0.460 OA
BRANCH  29  30
ATOM     30  C   UNL A   1      42.262  20.501  26.079  1.00  0.00     0.338 C 
ATOM     31  O   UNL A   1      42.854  19.958  25.159  1.00  0.00    -0.246 OA
BRANCH  30  32
ATOM     32  C   UNL A   1      42.856  21.581  26.923  1.00  0.00     0.060 A 
ATOM     33  C   UNL A   1      42.450  21.735  28.265  1.00  0.00     0.016 A 
ATOM     34  C   UNL A   1      43.531  22.617  26.283  1.00  0.00     0.016 A 
ATOM     35  C   UNL A   1      42.584  22.979  28.907  1.00  0.00     0.010 A 
ATOM     36  C   UNL A   1      43.563  23.859  26.879  1.00  0.00     0.010 A 
ATOM     37  C   UNL A   1      43.066  24.064  28.178  1.00  0.00    -0.014 A 
BRANCH  37  38
ATOM     38  C   UNL A   1      42.990  25.480  28.562  1.00  0.00     0.031 A 
ATOM     39  C   UNL A   1      41.754  26.228  28.242  1.00  0.00     0.074 A 
ATOM     40  C   UNL A   1      43.864  25.998  29.463  1.00  0.00     0.049 A 
ATOM     41  N   UNL A   1      41.611  27.486  28.462  1.00  0.00    -0.248 NA
ATOM     42  C   UNL A   1      40.572  25.638  27.612  1.00  0.00     0.031 C 
ATOM     43  C   UNL A   1      43.660  27.113  30.393  1.00  0.00     0.029 A 
ATOM     44  N   UNL A   1      45.176  25.612  29.731  1.00  0.00    -0.354 N 
ATOM     45  C   UNL A   1      40.277  27.783  28.352  1.00  0.00     0.074 A 
ATOM     46  C   UNL A   1      39.692  26.640  27.702  1.00  0.00     0.031 C 
ATOM     47  C   UNL A   1      44.839  27.482  30.927  1.00  0.00     0.029 A 
ATOM     48  C   UNL A   1      45.873  26.699  30.276  1.00  0.00     0.049 A 
ATOM     49  H   UNL A   1      45.552  24.718  29.564  1.00  0.00     0.167 HD
ATOM     50  C   UNL A   1      39.825  28.920  28.949  1.00  0.00     0.031 A 
ATOM     51  C   UNL A   1      47.000  27.154  29.669  1.00  0.00     0.031 A 
ATOM     52  C   UNL A   1      40.946  29.729  29.453  1.00  0.00     0.049 A 
ATOM     53  C   UNL A   1      46.686  28.510  29.104  1.00  0.00     0.074 A 
ATOM     54  C   UNL A   1      41.425  30.017  30.720  1.00  0.00     0.029 A 
ATOM     55  N   UNL A   1      41.959  30.099  28.562  1.00  0.00    -0.354 N 
ATOM     56  N   UNL A   1      45.462  28.883  28.836  1.00  0.00    -0.248 NA
ATOM     57  C   UNL A   1      47.652  29.589  28.929  1.00  0.00     0.031 C 
ATOM     58  C   UNL A   1      42.778  30.455  30.581  1.00  0.00     0.029 A 
ATOM     59  C   UNL A   1      43.105  30.481  29.232  1.00  0.00     0.049 A 
ATOM     60  H   UNL A   1      41.867  30.088  27.582  1.00  0.00     0.167 HD
ATOM     61  C   UNL A   1      45.440  30.220  28.613  1.00  0.00     0.074 A 
ATOM     62  C   UNL A   1      46.840  30.612  28.605  1.00  0.00     0.031 C 
ATOM     63  C   UNL A   1      44.286  30.932  28.495  1.00  0.00     0.031 A 
BRANCH  50  64
ATOM     64  C   UNL A   1      38.371  29.224  29.233  1.00  0.00    -0.014 A 
ATOM     65  C   UNL A   1      37.493  29.463  28.162  1.00  0.00     0.009 A 
ATOM     66  C   UNL A   1      37.812  29.359  30.519  1.00  0.00     0.009 A 
ATOM     67  C   UNL A   1      36.144  29.803  28.364  1.00  0.00     0.001 A 
ATOM     68  C   UNL A   1      36.460  29.671  30.730  1.00  0.00     0.001 A 
ATOM     69  C   UNL A   1      35.625  29.896  29.650  1.00  0.00     0.000 A 
ENDBRANCH  50  64
BRANCH  51  70
ATOM     70  C   UNL A   1      47.815  26.031  29.105  1.00  0.00    -0.014 A 
ATOM     71  C   UNL A   1      47.652  25.771  27.722  1.00  0.00     0.009 A 
ATOM     72  C   UNL A   1      49.016  25.622  29.708  1.00  0.00     0.009 A 
ATOM     73  C   UNL A   1      48.699  25.250  26.949  1.00  0.00     0.001 A 
ATOM     74  C   UNL A   1      50.065  25.105  28.926  1.00  0.00     0.001 A 
ATOM     75  C   UNL A   1      49.919  24.951  27.546  1.00  0.00     0.000 A 
ENDBRANCH  51  70
BRANCH  63  76
ATOM     76  C   UNL A   1      44.207  32.172  27.657  1.00  0.00    -0.014 A 
ATOM     77  C   UNL A   1      44.149  33.457  28.217  1.00  0.00     0.009 A 
ATOM     78  C   UNL A   1      44.412  32.082  26.268  1.00  0.00     0.009 A 
ATOM     79  C   UNL A   1      44.235  34.600  27.421  1.00  0.00     0.001 A 
ATOM     80  C   UNL A   1      44.560  33.221  25.478  1.00  0.00     0.001 A 
ATOM     81  C   UNL A   1      44.454  34.480  26.053  1.00  0.00     0.000 A 
ENDBRANCH  63  76
ENDBRANCH  37  38
ENDBRANCH  30  32
ENDBRANCH  29  30
ENDBRANCH  28  29
ENDBRANCH  27  28
ENDBRANCH  26  27
ENDBRANCH   1  26
TORSDOF 17
ENDMDL
