MODEL 1
REMARK VINA RESULT:     -10.7      0.000      0.000
REMARK SMILES Cc1c(Cl)cccc1NC(=O)C[C@H](C(=O)OCCOCCOC(=O)c1ccc(-c2c3nc(c(-c4ccccc4)c4ccc([nH]4)c(-c4ccccc4)c4nc(c(-c5ccccc5)c5ccc2[nH]5)C=C4)C=C3)cc1)[C@H](C)c1ccccc1
REMARK SMILES IDX 18 1 17 2 16 3 14 4 15 5 13 6 12 7 10 8 9 9 11 11 8 12 1 13
REMARK SMILES IDX 2 14 3 15 4 16 5 17 7 18 6 19 73 20 74 21 75 22 76 23 80 24
REMARK SMILES IDX 77 25 79 26 78 27 19 28 20 29 21 30 22 31 23 32 24 33 25 34
REMARK SMILES IDX 26 35 72 36 27 37 71 38 28 39 29 40 30 41 65 42 31 43 70 44
REMARK SMILES IDX 64 45 66 46 32 47 69 48 63 49 62 50 33 52 55 53 40 54 54 55
REMARK SMILES IDX 41 56 44 57 53 58 67 59 42 60 43 61 52 63 68 64 45 65 34 66
REMARK SMILES IDX 35 67 39 68 36 69 38 70 37 71 56 72 57 73 61 74 58 75 60 76
REMARK SMILES IDX 59 77 46 78 47 79 51 80 48 81 50 82 49 83
REMARK H PARENT 9 10 66 51 44 62
REMARK Flexibility Score: inf
ROOT
ATOM      1  C   UNL A   1      34.775  23.565  23.974  1.00  0.00     0.202 C 
ENDROOT
BRANCH   1   2
ATOM      2  C   UNL A   1      35.243  24.639  24.969  1.00  0.00     0.261 C 
BRANCH   2   3
ATOM      3  O   UNL A   1      34.158  25.094  25.817  1.00  0.00    -0.463 OA
BRANCH   3   4
ATOM      4  C   UNL A   1      33.213  25.906  25.260  1.00  0.00     0.310 C 
ATOM      5  O   UNL A   1      32.126  25.518  24.855  1.00  0.00    -0.252 OA
BRANCH   4   6
ATOM      6  C   UNL A   1      33.640  27.385  25.265  1.00  0.00     0.116 C 
BRANCH   6   7
ATOM      7  C   UNL A   1      33.662  27.864  23.800  1.00  0.00     0.116 C 
BRANCH   7   8
ATOM      8  C   UNL A   1      33.100  27.087  22.639  1.00  0.00     0.225 C 
ATOM      9  N   UNL A   1      31.800  27.149  22.230  1.00  0.00    -0.326 N 
ATOM     10  H   UNL A   1      31.535  26.403  21.643  1.00  0.00     0.169 HD
ATOM     11  O   UNL A   1      33.840  26.311  22.023  1.00  0.00    -0.275 OA
BRANCH   9  12
ATOM     12  C   UNL A   1      30.759  28.068  22.481  1.00  0.00     0.045 A 
ATOM     13  C   UNL A   1      29.374  26.171  23.532  1.00  0.00     0.048 C 
ATOM     14  C   UNL A   1      29.566  27.602  23.089  1.00  0.00    -0.009 A 
ATOM     15  C   UNL A   1      28.449  28.468  23.134  1.00  0.00     0.046 A 
ATOM     16  Cl  UNL A   1      26.931  27.974  23.804  1.00  0.00    -0.084 Cl
ATOM     17  C   UNL A   1      28.500  29.747  22.584  1.00  0.00     0.021 A 
ATOM     18  C   UNL A   1      30.804  29.383  22.017  1.00  0.00     0.026 A 
ATOM     19  C   UNL A   1      29.680  30.207  22.033  1.00  0.00     0.004 A 
ENDBRANCH   9  12
ENDBRANCH   7   8
ENDBRANCH   6   7
BRANCH   6  20
ATOM     20  C   UNL A   1      32.913  28.092  26.445  1.00  0.00     0.031 C 
ATOM     21  C   UNL A   1      31.543  28.729  26.241  1.00  0.00     0.013 C 
BRANCH  20  22
ATOM     22  C   UNL A   1      33.815  29.191  27.019  1.00  0.00    -0.044 A 
ATOM     23  C   UNL A   1      33.307  30.476  27.243  1.00  0.00     0.004 A 
ATOM     24  C   UNL A   1      35.174  28.942  27.287  1.00  0.00     0.004 A 
ATOM     25  C   UNL A   1      34.155  31.501  27.663  1.00  0.00     0.000 A 
ATOM     26  C   UNL A   1      36.021  29.973  27.686  1.00  0.00     0.000 A 
ATOM     27  C   UNL A   1      35.513  31.255  27.865  1.00  0.00     0.000 A 
ENDBRANCH  20  22
ENDBRANCH   6  20
ENDBRANCH   4   6
ENDBRANCH   3   4
ENDBRANCH   2   3
ENDBRANCH   1   2
BRANCH   1  28
ATOM     28  O   UNL A   1      35.624  22.424  23.842  1.00  0.00    -0.374 OA
BRANCH  28  29
ATOM     29  C   UNL A   1      35.456  21.391  24.807  1.00  0.00     0.202 C 
BRANCH  29  30
ATOM     30  C   UNL A   1      36.748  20.734  25.317  1.00  0.00     0.261 C 
BRANCH  30  31
ATOM     31  O   UNL A   1      37.926  21.519  25.041  1.00  0.00    -0.460 OA
BRANCH  31  32
ATOM     32  C   UNL A   1      38.983  21.256  25.845  1.00  0.00     0.338 C 
ATOM     33  O   UNL A   1      39.601  20.203  25.925  1.00  0.00    -0.246 OA
BRANCH  32  34
ATOM     34  C   UNL A   1      39.442  22.480  26.534  1.00  0.00     0.060 A 
ATOM     35  C   UNL A   1      38.828  23.684  26.166  1.00  0.00     0.016 A 
ATOM     36  C   UNL A   1      40.485  22.483  27.465  1.00  0.00     0.016 A 
ATOM     37  C   UNL A   1      39.291  24.895  26.676  1.00  0.00     0.010 A 
ATOM     38  C   UNL A   1      40.939  23.703  27.990  1.00  0.00     0.010 A 
ATOM     39  C   UNL A   1      40.376  24.922  27.562  1.00  0.00    -0.014 A 
BRANCH  39  40
ATOM     40  C   UNL A   1      41.014  26.226  27.895  1.00  0.00     0.031 A 
ATOM     41  C   UNL A   1      42.369  26.547  27.316  1.00  0.00     0.074 A 
ATOM     42  C   UNL A   1      40.379  27.153  28.636  1.00  0.00     0.049 A 
ATOM     43  N   UNL A   1      43.095  27.630  27.448  1.00  0.00    -0.248 NA
ATOM     44  C   UNL A   1      42.987  25.511  26.473  1.00  0.00     0.031 C 
ATOM     45  C   UNL A   1      39.042  27.011  29.210  1.00  0.00     0.029 A 
ATOM     46  N   UNL A   1      40.777  28.409  29.027  1.00  0.00    -0.354 N 
ATOM     47  C   UNL A   1      44.252  27.402  26.712  1.00  0.00     0.074 A 
ATOM     48  C   UNL A   1      44.152  26.063  26.173  1.00  0.00     0.031 C 
ATOM     49  C   UNL A   1      38.732  28.132  29.884  1.00  0.00     0.029 A 
ATOM     50  C   UNL A   1      39.856  29.064  29.810  1.00  0.00     0.049 A 
ATOM     51  H   UNL A   1      41.643  28.804  28.771  1.00  0.00     0.167 HD
ATOM     52  C   UNL A   1      45.300  28.230  26.491  1.00  0.00     0.031 A 
ATOM     53  C   UNL A   1      39.912  30.271  30.408  1.00  0.00     0.031 A 
ATOM     54  C   UNL A   1      45.415  29.561  27.027  1.00  0.00     0.049 A 
ATOM     55  C   UNL A   1      41.130  31.139  30.222  1.00  0.00     0.074 A 
ATOM     56  C   UNL A   1      46.433  30.479  26.839  1.00  0.00     0.029 A 
ATOM     57  N   UNL A   1      44.486  30.158  27.864  1.00  0.00    -0.354 N 
ATOM     58  N   UNL A   1      42.200  30.922  29.497  1.00  0.00    -0.248 NA
ATOM     59  C   UNL A   1      41.137  32.429  30.930  1.00  0.00     0.031 C 
ATOM     60  C   UNL A   1      46.154  31.606  27.619  1.00  0.00     0.029 A 
ATOM     61  C   UNL A   1      44.926  31.419  28.232  1.00  0.00     0.049 A 
ATOM     62  H   UNL A   1      43.639  29.746  28.154  1.00  0.00     0.167 HD
ATOM     63  C   UNL A   1      42.992  32.056  29.638  1.00  0.00     0.074 A 
ATOM     64  C   UNL A   1      42.271  32.966  30.502  1.00  0.00     0.031 C 
ATOM     65  C   UNL A   1      44.207  32.319  29.095  1.00  0.00     0.031 A 
BRANCH  52  66
ATOM     66  C   UNL A   1      46.436  27.700  25.656  1.00  0.00    -0.014 A 
ATOM     67  C   UNL A   1      46.541  27.993  24.287  1.00  0.00     0.009 A 
ATOM     68  C   UNL A   1      47.432  26.918  26.259  1.00  0.00     0.009 A 
ATOM     69  C   UNL A   1      47.598  27.479  23.532  1.00  0.00     0.001 A 
ATOM     70  C   UNL A   1      48.506  26.433  25.511  1.00  0.00     0.001 A 
ATOM     71  C   UNL A   1      48.582  26.704  24.146  1.00  0.00     0.000 A 
ENDBRANCH  52  66
BRANCH  53  72
ATOM     72  C   UNL A   1      38.782  30.734  31.258  1.00  0.00    -0.014 A 
ATOM     73  C   UNL A   1      37.749  31.517  30.720  1.00  0.00     0.009 A 
ATOM     74  C   UNL A   1      38.749  30.419  32.626  1.00  0.00     0.009 A 
ATOM     75  C   UNL A   1      36.721  31.994  31.539  1.00  0.00     0.001 A 
ATOM     76  C   UNL A   1      37.704  30.869  33.435  1.00  0.00     0.001 A 
ATOM     77  C   UNL A   1      36.697  31.665  32.893  1.00  0.00     0.000 A 
ENDBRANCH  53  72
BRANCH  65  78
ATOM     78  C   UNL A   1      44.822  33.663  29.387  1.00  0.00    -0.014 A 
ATOM     79  C   UNL A   1      45.662  33.861  30.493  1.00  0.00     0.009 A 
ATOM     80  C   UNL A   1      44.591  34.735  28.511  1.00  0.00     0.009 A 
ATOM     81  C   UNL A   1      46.227  35.116  30.737  1.00  0.00     0.001 A 
ATOM     82  C   UNL A   1      45.183  35.980  28.737  1.00  0.00     0.001 A 
ATOM     83  C   UNL A   1      45.992  36.172  29.857  1.00  0.00     0.000 A 
ENDBRANCH  65  78
ENDBRANCH  39  40
ENDBRANCH  32  34
ENDBRANCH  31  32
ENDBRANCH  30  31
ENDBRANCH  29  30
ENDBRANCH  28  29
ENDBRANCH   1  28
TORSDOF 19
ENDMDL
MODEL 2
REMARK VINA RESULT:     -10.5      2.249      6.247
REMARK SMILES Cc1c(Cl)cccc1NC(=O)C[C@H](C(=O)OCCOCCOC(=O)c1ccc(-c2c3nc(c(-c4ccccc4)c4ccc([nH]4)c(-c4ccccc4)c4nc(c(-c5ccccc5)c5ccc2[nH]5)C=C4)C=C3)cc1)[C@H](C)c1ccccc1
REMARK SMILES IDX 18 1 17 2 16 3 14 4 15 5 13 6 12 7 10 8 9 9 11 11 8 12 1 13
REMARK SMILES IDX 2 14 3 15 4 16 5 17 7 18 6 19 73 20 74 21 75 22 76 23 80 24
REMARK SMILES IDX 77 25 79 26 78 27 19 28 20 29 21 30 22 31 23 32 24 33 25 34
REMARK SMILES IDX 26 35 72 36 27 37 71 38 28 39 29 40 30 41 65 42 31 43 70 44
REMARK SMILES IDX 64 45 66 46 32 47 69 48 63 49 62 50 33 52 55 53 40 54 54 55
REMARK SMILES IDX 41 56 44 57 53 58 67 59 42 60 43 61 52 63 68 64 45 65 34 66
REMARK SMILES IDX 35 67 39 68 36 69 38 70 37 71 56 72 57 73 61 74 58 75 60 76
REMARK SMILES IDX 59 77 46 78 47 79 51 80 48 81 50 82 49 83
REMARK H PARENT 9 10 66 51 44 62
REMARK Flexibility Score: inf
ROOT
ATOM      1  C   UNL A   1      38.351  22.871  26.260  1.00  0.00     0.202 C 
ENDROOT
BRANCH   1   2
ATOM      2  C   UNL A   1      37.325  24.009  26.140  1.00  0.00     0.261 C 
BRANCH   2   3
ATOM      3  O   UNL A   1      35.980  23.501  25.950  1.00  0.00    -0.463 OA
BRANCH   3   4
ATOM      4  C   UNL A   1      35.421  23.629  24.712  1.00  0.00     0.310 C 
ATOM      5  O   UNL A   1      36.057  23.633  23.667  1.00  0.00    -0.252 OA
BRANCH   4   6
ATOM      6  C   UNL A   1      33.884  23.695  24.770  1.00  0.00     0.116 C 
BRANCH   6   7
ATOM      7  C   UNL A   1      33.339  22.473  24.004  1.00  0.00     0.116 C 
BRANCH   7   8
ATOM      8  C   UNL A   1      32.299  22.544  22.917  1.00  0.00     0.225 C 
ATOM      9  N   UNL A   1      31.716  23.699  22.484  1.00  0.00    -0.326 N 
ATOM     10  H   UNL A   1      30.889  23.555  21.969  1.00  0.00     0.169 HD
ATOM     11  O   UNL A   1      31.909  21.494  22.392  1.00  0.00    -0.275 OA
BRANCH   9  12
ATOM     12  C   UNL A   1      32.065  25.059  22.626  1.00  0.00     0.045 A 
ATOM     13  C   UNL A   1      29.746  25.516  23.644  1.00  0.00     0.048 C 
ATOM     14  C   UNL A   1      31.108  25.958  23.163  1.00  0.00    -0.009 A 
ATOM     15  C   UNL A   1      31.374  27.345  23.098  1.00  0.00     0.046 A 
ATOM     16  Cl  UNL A   1      30.245  28.523  23.675  1.00  0.00    -0.084 Cl
ATOM     17  C   UNL A   1      32.536  27.833  22.505  1.00  0.00     0.021 A 
ATOM     18  C   UNL A   1      33.257  25.576  22.118  1.00  0.00     0.026 A 
ATOM     19  C   UNL A   1      33.482  26.948  22.023  1.00  0.00     0.004 A 
ENDBRANCH   9  12
ENDBRANCH   7   8
ENDBRANCH   6   7
BRANCH   6  20
ATOM     20  C   UNL A   1      33.474  24.127  26.208  1.00  0.00     0.031 C 
ATOM     21  C   UNL A   1      32.337  23.418  26.934  1.00  0.00     0.013 C 
BRANCH  20  22
ATOM     22  C   UNL A   1      33.123  25.619  26.216  1.00  0.00    -0.044 A 
ATOM     23  C   UNL A   1      34.072  26.571  25.823  1.00  0.00     0.004 A 
ATOM     24  C   UNL A   1      31.862  26.061  26.659  1.00  0.00     0.004 A 
ATOM     25  C   UNL A   1      33.787  27.931  25.934  1.00  0.00     0.000 A 
ATOM     26  C   UNL A   1      31.589  27.420  26.788  1.00  0.00     0.000 A 
ATOM     27  C   UNL A   1      32.556  28.356  26.434  1.00  0.00     0.000 A 
ENDBRANCH  20  22
ENDBRANCH   6  20
ENDBRANCH   4   6
ENDBRANCH   3   4
ENDBRANCH   2   3
ENDBRANCH   1   2
BRANCH   1  28
ATOM     28  O   UNL A   1      38.550  22.086  25.083  1.00  0.00    -0.374 OA
BRANCH  28  29
ATOM     29  C   UNL A   1      37.992  20.777  25.090  1.00  0.00     0.202 C 
BRANCH  29  30
ATOM     30  C   UNL A   1      38.968  19.633  25.406  1.00  0.00     0.261 C 
BRANCH  30  31
ATOM     31  O   UNL A   1      39.848  19.932  26.509  1.00  0.00    -0.460 OA
BRANCH  31  32
ATOM     32  C   UNL A   1      41.165  19.755  26.247  1.00  0.00     0.338 C 
ATOM     33  O   UNL A   1      41.681  18.795  25.694  1.00  0.00    -0.246 OA
BRANCH  32  34
ATOM     34  C   UNL A   1      41.935  20.975  26.568  1.00  0.00     0.060 A 
ATOM     35  C   UNL A   1      42.070  21.303  27.923  1.00  0.00     0.016 A 
ATOM     36  C   UNL A   1      42.461  21.822  25.588  1.00  0.00     0.016 A 
ATOM     37  C   UNL A   1      42.671  22.503  28.300  1.00  0.00     0.010 A 
ATOM     38  C   UNL A   1      43.081  23.021  25.971  1.00  0.00     0.010 A 
ATOM     39  C   UNL A   1      43.147  23.393  27.328  1.00  0.00    -0.014 A 
BRANCH  39  40
ATOM     40  C   UNL A   1      43.551  24.768  27.734  1.00  0.00     0.031 A 
ATOM     41  C   UNL A   1      42.481  25.791  28.018  1.00  0.00     0.074 A 
ATOM     42  C   UNL A   1      44.843  25.096  27.924  1.00  0.00     0.049 A 
ATOM     43  N   UNL A   1      42.604  27.034  28.413  1.00  0.00    -0.248 NA
ATOM     44  C   UNL A   1      41.088  25.353  27.840  1.00  0.00     0.031 C 
ATOM     45  C   UNL A   1      45.982  24.196  27.750  1.00  0.00     0.029 A 
ATOM     46  N   UNL A   1      45.414  26.283  28.318  1.00  0.00    -0.354 N 
ATOM     47  C   UNL A   1      41.307  27.526  28.522  1.00  0.00     0.074 A 
ATOM     48  C   UNL A   1      40.417  26.462  28.111  1.00  0.00     0.031 C 
ATOM     49  C   UNL A   1      47.115  24.864  28.029  1.00  0.00     0.029 A 
ATOM     50  C   UNL A   1      46.786  26.243  28.380  1.00  0.00     0.049 A 
ATOM     51  H   UNL A   1      44.888  27.087  28.534  1.00  0.00     0.167 HD
ATOM     52  C   UNL A   1      40.889  28.745  28.936  1.00  0.00     0.031 A 
ATOM     53  C   UNL A   1      47.679  27.209  28.676  1.00  0.00     0.031 A 
ATOM     54  C   UNL A   1      41.764  29.814  29.340  1.00  0.00     0.049 A 
ATOM     55  C   UNL A   1      47.193  28.586  29.047  1.00  0.00     0.074 A 
ATOM     56  C   UNL A   1      41.427  31.077  29.795  1.00  0.00     0.029 A 
ATOM     57  N   UNL A   1      43.148  29.748  29.329  1.00  0.00    -0.354 N 
ATOM     58  N   UNL A   1      45.964  29.024  29.176  1.00  0.00    -0.248 NA
ATOM     59  C   UNL A   1      48.223  29.599  29.325  1.00  0.00     0.031 C 
ATOM     60  C   UNL A   1      42.608  31.800  29.991  1.00  0.00     0.029 A 
ATOM     61  C   UNL A   1      43.681  30.962  29.732  1.00  0.00     0.049 A 
ATOM     62  H   UNL A   1      43.675  28.956  29.072  1.00  0.00     0.167 HD
ATOM     63  C   UNL A   1      46.073  30.351  29.579  1.00  0.00     0.074 A 
ATOM     64  C   UNL A   1      47.487  30.640  29.690  1.00  0.00     0.031 C 
ATOM     65  C   UNL A   1      45.088  31.246  29.837  1.00  0.00     0.031 A 
BRANCH  52  66
ATOM     66  C   UNL A   1      39.405  29.004  28.936  1.00  0.00    -0.014 A 
ATOM     67  C   UNL A   1      38.738  29.460  27.788  1.00  0.00     0.009 A 
ATOM     68  C   UNL A   1      38.660  28.758  30.099  1.00  0.00     0.009 A 
ATOM     69  C   UNL A   1      37.364  29.703  27.818  1.00  0.00     0.001 A 
ATOM     70  C   UNL A   1      37.280  28.969  30.117  1.00  0.00     0.001 A 
ATOM     71  C   UNL A   1      36.635  29.453  28.980  1.00  0.00     0.000 A 
ENDBRANCH  52  66
BRANCH  53  72
ATOM     72  C   UNL A   1      49.138  26.918  28.623  1.00  0.00    -0.014 A 
ATOM     73  C   UNL A   1      49.853  27.035  27.422  1.00  0.00     0.009 A 
ATOM     74  C   UNL A   1      49.817  26.488  29.775  1.00  0.00     0.009 A 
ATOM     75  C   UNL A   1      51.210  26.706  27.369  1.00  0.00     0.001 A 
ATOM     76  C   UNL A   1      51.180  26.190  29.727  1.00  0.00     0.001 A 
ATOM     77  C   UNL A   1      51.873  26.290  28.523  1.00  0.00     0.000 A 
ENDBRANCH  53  72
BRANCH  65  78
ATOM     78  C   UNL A   1      45.500  32.618  30.303  1.00  0.00    -0.014 A 
ATOM     79  C   UNL A   1      45.685  33.676  29.400  1.00  0.00     0.009 A 
ATOM     80  C   UNL A   1      45.660  32.864  31.676  1.00  0.00     0.009 A 
ATOM     81  C   UNL A   1      46.060  34.942  29.859  1.00  0.00     0.001 A 
ATOM     82  C   UNL A   1      46.002  34.138  32.136  1.00  0.00     0.001 A 
ATOM     83  C   UNL A   1      46.212  35.172  31.226  1.00  0.00     0.000 A 
ENDBRANCH  65  78
ENDBRANCH  39  40
ENDBRANCH  32  34
ENDBRANCH  31  32
ENDBRANCH  30  31
ENDBRANCH  29  30
ENDBRANCH  28  29
ENDBRANCH   1  28
TORSDOF 19
ENDMDL
MODEL 3
REMARK VINA RESULT:     -10.4      2.486      6.884
REMARK SMILES Cc1c(Cl)cccc1NC(=O)C[C@H](C(=O)OCCOCCOC(=O)c1ccc(-c2c3nc(c(-c4ccccc4)c4ccc([nH]4)c(-c4ccccc4)c4nc(c(-c5ccccc5)c5ccc2[nH]5)C=C4)C=C3)cc1)[C@H](C)c1ccccc1
REMARK SMILES IDX 18 1 17 2 16 3 14 4 15 5 13 6 12 7 10 8 9 9 11 11 8 12 1 13
REMARK SMILES IDX 2 14 3 15 4 16 5 17 7 18 6 19 73 20 74 21 75 22 76 23 80 24
REMARK SMILES IDX 77 25 79 26 78 27 19 28 20 29 21 30 22 31 23 32 24 33 25 34
REMARK SMILES IDX 26 35 72 36 27 37 71 38 28 39 29 40 30 41 65 42 31 43 70 44
REMARK SMILES IDX 64 45 66 46 32 47 69 48 63 49 62 50 33 52 55 53 40 54 54 55
REMARK SMILES IDX 41 56 44 57 53 58 67 59 42 60 43 61 52 63 68 64 45 65 34 66
REMARK SMILES IDX 35 67 39 68 36 69 38 70 37 71 56 72 57 73 61 74 58 75 60 76
REMARK SMILES IDX 59 77 46 78 47 79 51 80 48 81 50 82 49 83
REMARK H PARENT 9 10 66 51 44 62
REMARK Flexibility Score: inf
ROOT
ATOM      1  C   UNL A   1      37.071  22.533  25.001  1.00  0.00     0.202 C 
ENDROOT
BRANCH   1   2
ATOM      2  C   UNL A   1      36.524  23.784  25.707  1.00  0.00     0.261 C 
BRANCH   2   3
ATOM      3  O   UNL A   1      35.117  23.643  26.032  1.00  0.00    -0.463 OA
BRANCH   3   4
ATOM      4  C   UNL A   1      34.206  24.121  25.137  1.00  0.00     0.310 C 
ATOM      5  O   UNL A   1      34.332  25.171  24.521  1.00  0.00    -0.252 OA
BRANCH   4   6
ATOM      6  C   UNL A   1      33.029  23.152  24.930  1.00  0.00     0.116 C 
BRANCH   6   7
ATOM      7  C   UNL A   1      31.727  23.964  25.087  1.00  0.00     0.116 C 
BRANCH   7   8
ATOM      8  C   UNL A   1      31.218  24.514  26.393  1.00  0.00     0.225 C 
ATOM      9  N   UNL A   1      31.469  25.776  26.846  1.00  0.00    -0.326 N 
ATOM     10  H   UNL A   1      31.294  25.892  27.809  1.00  0.00     0.169 HD
ATOM     11  O   UNL A   1      30.554  23.780  27.134  1.00  0.00    -0.275 OA
BRANCH   9  12
ATOM     12  C   UNL A   1      31.930  26.949  26.209  1.00  0.00     0.045 A 
ATOM     13  C   UNL A   1      29.919  26.833  24.607  1.00  0.00     0.048 C 
ATOM     14  C   UNL A   1      31.201  27.458  25.104  1.00  0.00    -0.009 A 
ATOM     15  C   UNL A   1      31.780  28.493  24.334  1.00  0.00     0.046 A 
ATOM     16  Cl  UNL A   1      30.996  29.143  22.934  1.00  0.00    -0.084 Cl
ATOM     17  C   UNL A   1      33.044  28.998  24.631  1.00  0.00     0.021 A 
ATOM     18  C   UNL A   1      33.153  27.536  26.532  1.00  0.00     0.026 A 
ATOM     19  C   UNL A   1      33.727  28.525  25.735  1.00  0.00     0.004 A 
ENDBRANCH   9  12
ENDBRANCH   7   8
ENDBRANCH   6   7
BRANCH   6  20
ATOM     20  C   UNL A   1      33.380  22.213  23.740  1.00  0.00     0.031 C 
ATOM     21  C   UNL A   1      32.821  22.486  22.347  1.00  0.00     0.013 C 
BRANCH  20  22
ATOM     22  C   UNL A   1      32.983  20.773  24.086  1.00  0.00    -0.044 A 
ATOM     23  C   UNL A   1      33.158  20.285  25.386  1.00  0.00     0.004 A 
ATOM     24  C   UNL A   1      32.481  19.906  23.097  1.00  0.00     0.004 A 
ATOM     25  C   UNL A   1      32.898  18.945  25.672  1.00  0.00     0.000 A 
ATOM     26  C   UNL A   1      32.243  18.564  23.382  1.00  0.00     0.000 A 
ATOM     27  C   UNL A   1      32.461  18.081  24.669  1.00  0.00     0.000 A 
ENDBRANCH  20  22
ENDBRANCH   6  20
ENDBRANCH   4   6
ENDBRANCH   3   4
ENDBRANCH   2   3
ENDBRANCH   1   2
BRANCH   1  28
ATOM     28  O   UNL A   1      36.738  21.281  25.603  1.00  0.00    -0.374 OA
BRANCH  28  29
ATOM     29  C   UNL A   1      37.076  20.112  24.866  1.00  0.00     0.202 C 
BRANCH  29  30
ATOM     30  C   UNL A   1      38.518  19.608  25.032  1.00  0.00     0.261 C 
BRANCH  30  31
ATOM     31  O   UNL A   1      39.237  20.295  26.076  1.00  0.00    -0.460 OA
BRANCH  31  32
ATOM     32  C   UNL A   1      40.564  20.024  26.122  1.00  0.00     0.338 C 
ATOM     33  O   UNL A   1      41.121  19.011  25.725  1.00  0.00    -0.246 OA
BRANCH  32  34
ATOM     34  C   UNL A   1      41.328  21.205  26.576  1.00  0.00     0.060 A 
ATOM     35  C   UNL A   1      41.319  21.479  27.948  1.00  0.00     0.016 A 
ATOM     36  C   UNL A   1      41.985  22.070  25.694  1.00  0.00     0.016 A 
ATOM     37  C   UNL A   1      41.908  22.643  28.439  1.00  0.00     0.010 A 
ATOM     38  C   UNL A   1      42.592  23.233  26.192  1.00  0.00     0.010 A 
ATOM     39  C   UNL A   1      42.516  23.552  27.562  1.00  0.00    -0.014 A 
BRANCH  39  40
ATOM     40  C   UNL A   1      42.911  24.897  28.065  1.00  0.00     0.031 A 
ATOM     41  C   UNL A   1      41.845  25.941  28.280  1.00  0.00     0.074 A 
ATOM     42  C   UNL A   1      44.184  25.178  28.402  1.00  0.00     0.049 A 
ATOM     43  N   UNL A   1      41.958  27.164  28.737  1.00  0.00    -0.248 NA
ATOM     44  C   UNL A   1      40.467  25.553  27.939  1.00  0.00     0.031 C 
ATOM     45  C   UNL A   1      45.311  24.251  28.310  1.00  0.00     0.029 A 
ATOM     46  N   UNL A   1      44.741  26.331  28.903  1.00  0.00    -0.354 N 
ATOM     47  C   UNL A   1      40.671  27.690  28.731  1.00  0.00     0.074 A 
ATOM     48  C   UNL A   1      39.801  26.671  28.185  1.00  0.00     0.031 C 
ATOM     49  C   UNL A   1      46.426  24.872  28.733  1.00  0.00     0.029 A 
ATOM     50  C   UNL A   1      46.098  26.247  29.106  1.00  0.00     0.049 A 
ATOM     51  H   UNL A   1      44.217  27.142  29.097  1.00  0.00     0.167 HD
ATOM     52  C   UNL A   1      40.243  28.904  29.151  1.00  0.00     0.031 A 
ATOM     53  C   UNL A   1      46.981  27.173  29.534  1.00  0.00     0.031 A 
ATOM     54  C   UNL A   1      41.099  29.929  29.689  1.00  0.00     0.049 A 
ATOM     55  C   UNL A   1      46.494  28.548  29.909  1.00  0.00     0.074 A 
ATOM     56  C   UNL A   1      40.749  31.183  30.158  1.00  0.00     0.029 A 
ATOM     57  N   UNL A   1      42.474  29.821  29.818  1.00  0.00    -0.354 N 
ATOM     58  N   UNL A   1      45.270  29.018  29.929  1.00  0.00    -0.248 NA
ATOM     59  C   UNL A   1      47.515  29.518  30.336  1.00  0.00     0.031 C 
ATOM     60  C   UNL A   1      41.922  31.861  30.506  1.00  0.00     0.029 A 
ATOM     61  C   UNL A   1      42.993  31.002  30.325  1.00  0.00     0.049 A 
ATOM     62  H   UNL A   1      43.004  29.024  29.585  1.00  0.00     0.167 HD
ATOM     63  C   UNL A   1      45.372  30.324  30.396  1.00  0.00     0.074 A 
ATOM     64  C   UNL A   1      46.773  30.565  30.666  1.00  0.00     0.031 C 
ATOM     65  C   UNL A   1      44.389  31.238  30.588  1.00  0.00     0.031 A 
BRANCH  52  66
ATOM     66  C   UNL A   1      38.775  29.208  29.008  1.00  0.00    -0.014 A 
ATOM     67  C   UNL A   1      37.886  29.066  30.085  1.00  0.00     0.009 A 
ATOM     68  C   UNL A   1      38.281  29.671  27.778  1.00  0.00     0.009 A 
ATOM     69  C   UNL A   1      36.527  29.342  29.922  1.00  0.00     0.001 A 
ATOM     70  C   UNL A   1      36.928  29.979  27.627  1.00  0.00     0.001 A 
ATOM     71  C   UNL A   1      36.050  29.804  28.695  1.00  0.00     0.000 A 
ENDBRANCH  52  66
BRANCH  53  72
ATOM     72  C   UNL A   1      48.428  26.839  29.620  1.00  0.00    -0.014 A 
ATOM     73  C   UNL A   1      49.285  27.060  28.531  1.00  0.00     0.009 A 
ATOM     74  C   UNL A   1      48.954  26.265  30.789  1.00  0.00     0.009 A 
ATOM     75  C   UNL A   1      50.632  26.692  28.602  1.00  0.00     0.001 A 
ATOM     76  C   UNL A   1      50.307  25.928  30.869  1.00  0.00     0.001 A 
ATOM     77  C   UNL A   1      51.142  26.132  29.772  1.00  0.00     0.000 A 
ENDBRANCH  53  72
BRANCH  65  78
ATOM     78  C   UNL A   1      44.785  32.578  31.152  1.00  0.00    -0.014 A 
ATOM     79  C   UNL A   1      45.173  33.639  30.320  1.00  0.00     0.009 A 
ATOM     80  C   UNL A   1      44.725  32.791  32.538  1.00  0.00     0.009 A 
ATOM     81  C   UNL A   1      45.529  34.874  30.868  1.00  0.00     0.001 A 
ATOM     82  C   UNL A   1      45.048  34.036  33.081  1.00  0.00     0.001 A 
ATOM     83  C   UNL A   1      45.460  35.073  32.246  1.00  0.00     0.000 A 
ENDBRANCH  65  78
ENDBRANCH  39  40
ENDBRANCH  32  34
ENDBRANCH  31  32
ENDBRANCH  30  31
ENDBRANCH  29  30
ENDBRANCH  28  29
ENDBRANCH   1  28
TORSDOF 19
ENDMDL
