MODEL 1
REMARK VINA RESULT:     -10.8      0.000      0.000
REMARK SMILES O=C(OCCOCCOC(=O)c1cc(-c2ccn(C(F)F)c(=O)c2)ccc1O)c1ccc(-c2c3nc(c(-c4ccccc4)c4ccc([nH]4)c(-c4ccccc4)c4nc(c(-c5ccccc5)c5ccc2[nH]5)C=C4)C=C3)cc1
REMARK SMILES IDX 6 1 5 2 4 3 3 4 2 5 1 6 29 7 30 8 76 9 31 10 75 11 32 12
REMARK SMILES IDX 33 13 34 14 69 15 35 16 74 17 68 18 70 19 36 20 73 21 67 22
REMARK SMILES IDX 66 23 37 25 59 26 44 27 58 28 45 29 48 30 57 31 71 32 46 33
REMARK SMILES IDX 47 34 56 36 72 37 49 38 38 39 39 40 43 41 40 42 42 43 41 44
REMARK SMILES IDX 60 45 61 46 65 47 62 48 64 49 63 50 50 51 51 52 55 53 52 54
REMARK SMILES IDX 54 55 53 56 7 57 8 58 9 59 10 60 11 61 12 62 13 63 27 64
REMARK SMILES IDX 14 65 26 66 25 67 28 68 15 70 16 71 24 72 17 73 22 74 18 75
REMARK SMILES IDX 23 76 19 77 20 78 21 79
REMARK H PARENT 70 24 48 35 28 69
REMARK Flexibility Score: inf
ROOT
ATOM      1  O   UNL A   1      37.436  21.032  25.330  1.00  0.00    -0.374 OA
ENDROOT
BRANCH   1   2
ATOM      2  C   UNL A   1      38.140  19.929  24.761  1.00  0.00     0.202 C 
BRANCH   2   3
ATOM      3  C   UNL A   1      38.991  19.170  25.780  1.00  0.00     0.261 C 
BRANCH   3   4
ATOM      4  O   UNL A   1      40.371  19.133  25.380  1.00  0.00    -0.460 OA
BRANCH   4   5
ATOM      5  C   UNL A   1      41.488  19.412  26.087  1.00  0.00     0.338 C 
ATOM      6  O   UNL A   1      42.212  18.463  26.393  1.00  0.00    -0.246 OA
BRANCH   5   7
ATOM      7  C   UNL A   1      41.901  20.772  26.578  1.00  0.00     0.060 A 
ATOM      8  C   UNL A   1      42.224  21.719  25.584  1.00  0.00     0.016 A 
ATOM      9  C   UNL A   1      42.073  21.161  27.907  1.00  0.00     0.016 A 
ATOM     10  C   UNL A   1      42.729  22.982  25.910  1.00  0.00     0.010 A 
ATOM     11  C   UNL A   1      42.597  22.405  28.243  1.00  0.00     0.010 A 
ATOM     12  C   UNL A   1      42.927  23.321  27.248  1.00  0.00    -0.014 A 
BRANCH  12  13
ATOM     13  C   UNL A   1      43.302  24.677  27.674  1.00  0.00     0.031 A 
ATOM     14  C   UNL A   1      42.267  25.714  27.961  1.00  0.00     0.074 A 
ATOM     15  C   UNL A   1      44.608  24.985  27.598  1.00  0.00     0.049 A 
ATOM     16  N   UNL A   1      42.440  26.960  28.315  1.00  0.00    -0.248 NA
ATOM     17  C   UNL A   1      40.860  25.317  27.809  1.00  0.00     0.031 C 
ATOM     18  C   UNL A   1      45.662  24.042  27.212  1.00  0.00     0.029 A 
ATOM     19  N   UNL A   1      45.265  26.169  27.787  1.00  0.00    -0.354 N 
ATOM     20  C   UNL A   1      41.166  27.496  28.440  1.00  0.00     0.074 A 
ATOM     21  C   UNL A   1      40.229  26.453  28.083  1.00  0.00     0.031 C 
ATOM     22  C   UNL A   1      46.832  24.689  27.174  1.00  0.00     0.029 A 
ATOM     23  C   UNL A   1      46.609  26.086  27.530  1.00  0.00     0.049 A 
ATOM     24  H   UNL A   1      44.817  26.996  28.079  1.00  0.00     0.167 HD
ATOM     25  C   UNL A   1      40.830  28.749  28.828  1.00  0.00     0.031 A 
ATOM     26  C   UNL A   1      47.562  27.033  27.580  1.00  0.00     0.031 A 
ATOM     27  C   UNL A   1      41.806  29.763  29.139  1.00  0.00     0.049 A 
ATOM     28  C   UNL A   1      47.176  28.406  28.030  1.00  0.00     0.074 A 
ATOM     29  C   UNL A   1      41.598  31.024  29.670  1.00  0.00     0.029 A 
ATOM     30  N   UNL A   1      43.171  29.643  28.913  1.00  0.00    -0.354 N 
ATOM     31  N   UNL A   1      45.981  28.860  28.326  1.00  0.00    -0.248 NA
ATOM     32  C   UNL A   1      48.254  29.388  28.186  1.00  0.00     0.031 C 
ATOM     33  C   UNL A   1      42.823  31.693  29.685  1.00  0.00     0.029 A 
ATOM     34  C   UNL A   1      43.809  30.827  29.239  1.00  0.00     0.049 A 
ATOM     35  H   UNL A   1      43.618  28.835  28.571  1.00  0.00     0.167 HD
ATOM     36  C   UNL A   1      46.158  30.177  28.717  1.00  0.00     0.074 A 
ATOM     37  C   UNL A   1      47.583  30.444  28.634  1.00  0.00     0.031 C 
ATOM     38  C   UNL A   1      45.227  31.078  29.115  1.00  0.00     0.031 A 
BRANCH  25  39
ATOM     39  C   UNL A   1      39.372  29.103  28.951  1.00  0.00    -0.014 A 
ATOM     40  C   UNL A   1      38.683  28.835  30.146  1.00  0.00     0.009 A 
ATOM     41  C   UNL A   1      38.645  29.596  27.855  1.00  0.00     0.009 A 
ATOM     42  C   UNL A   1      37.303  29.039  30.237  1.00  0.00     0.001 A 
ATOM     43  C   UNL A   1      37.270  29.828  27.957  1.00  0.00     0.001 A 
ATOM     44  C   UNL A   1      36.599  29.539  29.144  1.00  0.00     0.000 A 
ENDBRANCH  25  39
BRANCH  26  45
ATOM     45  C   UNL A   1      48.959  26.628  27.282  1.00  0.00    -0.014 A 
ATOM     46  C   UNL A   1      49.448  26.668  25.965  1.00  0.00     0.009 A 
ATOM     47  C   UNL A   1      49.729  26.008  28.275  1.00  0.00     0.009 A 
ATOM     48  C   UNL A   1      50.659  26.051  25.642  1.00  0.00     0.001 A 
ATOM     49  C   UNL A   1      50.950  25.411  27.953  1.00  0.00     0.001 A 
ATOM     50  C   UNL A   1      51.405  25.417  26.634  1.00  0.00     0.000 A 
ENDBRANCH  26  45
BRANCH  38  51
ATOM     51  C   UNL A   1      45.701  32.460  29.462  1.00  0.00    -0.014 A 
ATOM     52  C   UNL A   1      45.811  33.435  28.457  1.00  0.00     0.009 A 
ATOM     53  C   UNL A   1      46.161  32.754  30.754  1.00  0.00     0.009 A 
ATOM     54  C   UNL A   1      46.402  34.667  28.733  1.00  0.00     0.001 A 
ATOM     55  C   UNL A   1      46.723  34.000  31.034  1.00  0.00     0.001 A 
ATOM     56  C   UNL A   1      46.856  34.949  30.021  1.00  0.00     0.000 A 
ENDBRANCH  38  51
ENDBRANCH  12  13
ENDBRANCH   5   7
ENDBRANCH   4   5
ENDBRANCH   3   4
ENDBRANCH   2   3
ENDBRANCH   1   2
BRANCH   1  57
ATOM     57  C   UNL A   1      38.247  22.147  25.716  1.00  0.00     0.202 C 
BRANCH  57  58
ATOM     58  C   UNL A   1      37.370  23.389  25.850  1.00  0.00     0.261 C 
BRANCH  58  59
ATOM     59  O   UNL A   1      36.520  23.463  24.699  1.00  0.00    -0.460 OA
BRANCH  59  60
ATOM     60  C   UNL A   1      35.254  23.901  24.910  1.00  0.00     0.342 C 
ATOM     61  O   UNL A   1      34.903  24.910  25.499  1.00  0.00    -0.246 OA
BRANCH  60  62
ATOM     62  C   UNL A   1      34.345  23.081  24.081  1.00  0.00     0.102 A 
ATOM     63  C   UNL A   1      34.188  21.729  24.434  1.00  0.00     0.028 A 
ATOM     64  C   UNL A   1      33.595  23.624  23.033  1.00  0.00     0.130 A 
ATOM     65  C   UNL A   1      33.243  20.942  23.772  1.00  0.00    -0.017 A 
ATOM     66  C   UNL A   1      32.668  22.836  22.358  1.00  0.00     0.048 A 
ATOM     67  C   UNL A   1      32.487  21.505  22.733  1.00  0.00     0.012 A 
BRANCH  64  68
ATOM     68  O   UNL A   1      33.777  24.922  22.647  1.00  0.00    -0.507 OA
ATOM     69  H   UNL A   1      34.540  25.390  22.922  1.00  0.00     0.293 HD
ENDBRANCH  64  68
BRANCH  65  70
ATOM     70  C   UNL A   1      33.028  19.526  24.112  1.00  0.00    -0.011 A 
ATOM     71  C   UNL A   1      32.524  19.114  25.405  1.00  0.00     0.027 A 
ATOM     72  C   UNL A   1      33.426  18.590  23.232  1.00  0.00     0.080 A 
ATOM     73  C   UNL A   1      32.547  17.826  25.762  1.00  0.00     0.095 A 
ATOM     74  C   UNL A   1      33.418  17.145  23.603  1.00  0.00     0.255 A 
ATOM     75  N   UNL A   1      33.009  16.854  24.895  1.00  0.00    -0.258 N 
ATOM     76  O   UNL A   1      33.800  16.328  22.771  1.00  0.00    -0.269 OA
BRANCH  75  77
ATOM     77  C   UNL A   1      33.120  15.484  25.326  1.00  0.00     0.451 C 
ATOM     78  F   UNL A   1      34.414  15.115  25.481  1.00  0.00    -0.185 F 
ATOM     79  F   UNL A   1      32.487  15.302  26.512  1.00  0.00    -0.185 F 
ENDBRANCH  75  77
ENDBRANCH  65  70
ENDBRANCH  60  62
ENDBRANCH  59  60
ENDBRANCH  58  59
ENDBRANCH  57  58
ENDBRANCH   1  57
TORSDOF 17
ENDMDL
MODEL 2
REMARK VINA RESULT:     -10.6      5.979     10.464
REMARK SMILES O=C(OCCOCCOC(=O)c1cc(-c2ccn(C(F)F)c(=O)c2)ccc1O)c1ccc(-c2c3nc(c(-c4ccccc4)c4ccc([nH]4)c(-c4ccccc4)c4nc(c(-c5ccccc5)c5ccc2[nH]5)C=C4)C=C3)cc1
REMARK SMILES IDX 6 1 5 2 4 3 3 4 2 5 1 6 29 7 30 8 76 9 31 10 75 11 32 12
REMARK SMILES IDX 33 13 34 14 69 15 35 16 74 17 68 18 70 19 36 20 73 21 67 22
REMARK SMILES IDX 66 23 37 25 59 26 44 27 58 28 45 29 48 30 57 31 71 32 46 33
REMARK SMILES IDX 47 34 56 36 72 37 49 38 38 39 39 40 43 41 40 42 42 43 41 44
REMARK SMILES IDX 60 45 61 46 65 47 62 48 64 49 63 50 50 51 51 52 55 53 52 54
REMARK SMILES IDX 54 55 53 56 7 57 8 58 9 59 10 60 11 61 12 62 13 63 27 64
REMARK SMILES IDX 14 65 26 66 25 67 28 68 15 70 16 71 24 72 17 73 22 74 18 75
REMARK SMILES IDX 23 76 19 77 20 78 21 79
REMARK H PARENT 70 24 48 35 28 69
REMARK Flexibility Score: inf
ROOT
ATOM      1  O   UNL A   1      33.067  30.460  26.477  1.00  0.00    -0.374 OA
ENDROOT
BRANCH   1   2
ATOM      2  C   UNL A   1      32.217  31.328  27.224  1.00  0.00     0.202 C 
BRANCH   2   3
ATOM      3  C   UNL A   1      32.169  32.750  26.664  1.00  0.00     0.261 C 
BRANCH   3   4
ATOM      4  O   UNL A   1      32.013  33.717  27.715  1.00  0.00    -0.460 OA
BRANCH   4   5
ATOM      5  C   UNL A   1      32.947  34.343  28.465  1.00  0.00     0.338 C 
ATOM      6  O   UNL A   1      32.770  35.538  28.704  1.00  0.00    -0.246 OA
BRANCH   5   7
ATOM      7  C   UNL A   1      34.211  33.721  28.993  1.00  0.00     0.060 A 
ATOM      8  C   UNL A   1      35.386  33.985  28.260  1.00  0.00     0.016 A 
ATOM      9  C   UNL A   1      34.320  32.849  30.078  1.00  0.00     0.016 A 
ATOM     10  C   UNL A   1      36.604  33.376  28.581  1.00  0.00     0.010 A 
ATOM     11  C   UNL A   1      35.519  32.219  30.392  1.00  0.00     0.010 A 
ATOM     12  C   UNL A   1      36.666  32.479  29.647  1.00  0.00    -0.014 A 
BRANCH  12  13
ATOM     13  C   UNL A   1      37.934  31.923  30.141  1.00  0.00     0.031 A 
ATOM     14  C   UNL A   1      38.468  30.629  29.621  1.00  0.00     0.074 A 
ATOM     15  C   UNL A   1      38.475  32.531  31.210  1.00  0.00     0.049 A 
ATOM     16  N   UNL A   1      39.554  29.994  29.978  1.00  0.00    -0.248 NA
ATOM     17  C   UNL A   1      37.677  29.943  28.589  1.00  0.00     0.031 C 
ATOM     18  C   UNL A   1      37.934  33.740  31.839  1.00  0.00     0.029 A 
ATOM     19  N   UNL A   1      39.552  32.200  31.983  1.00  0.00    -0.354 N 
ATOM     20  C   UNL A   1      39.584  28.840  29.209  1.00  0.00     0.074 A 
ATOM     21  C   UNL A   1      38.389  28.838  28.395  1.00  0.00     0.031 C 
ATOM     22  C   UNL A   1      38.672  34.038  32.914  1.00  0.00     0.029 A 
ATOM     23  C   UNL A   1      39.730  33.044  33.049  1.00  0.00     0.049 A 
ATOM     24  H   UNL A   1      40.139  31.433  31.794  1.00  0.00     0.167 HD
ATOM     25  C   UNL A   1      40.542  27.883  29.193  1.00  0.00     0.031 A 
ATOM     26  C   UNL A   1      40.651  33.023  34.029  1.00  0.00     0.031 A 
ATOM     27  C   UNL A   1      41.699  27.914  30.052  1.00  0.00     0.049 A 
ATOM     28  C   UNL A   1      41.713  31.970  33.983  1.00  0.00     0.074 A 
ATOM     29  C   UNL A   1      42.803  27.080  30.039  1.00  0.00     0.029 A 
ATOM     30  N   UNL A   1      41.883  28.808  31.098  1.00  0.00    -0.354 N 
ATOM     31  N   UNL A   1      41.840  30.978  33.133  1.00  0.00    -0.248 NA
ATOM     32  C   UNL A   1      42.770  32.040  34.996  1.00  0.00     0.031 C 
ATOM     33  C   UNL A   1      43.610  27.415  31.128  1.00  0.00     0.029 A 
ATOM     34  C   UNL A   1      43.053  28.508  31.775  1.00  0.00     0.049 A 
ATOM     35  H   UNL A   1      41.271  29.545  31.326  1.00  0.00     0.167 HD
ATOM     36  C   UNL A   1      42.997  30.310  33.496  1.00  0.00     0.074 A 
ATOM     37  C   UNL A   1      43.543  31.021  34.638  1.00  0.00     0.031 C 
ATOM     38  C   UNL A   1      43.558  29.213  32.931  1.00  0.00     0.031 A 
BRANCH  25  39
ATOM     39  C   UNL A   1      40.401  26.733  28.230  1.00  0.00    -0.014 A 
ATOM     40  C   UNL A   1      40.939  26.832  26.935  1.00  0.00     0.009 A 
ATOM     41  C   UNL A   1      39.642  25.597  28.555  1.00  0.00     0.009 A 
ATOM     42  C   UNL A   1      40.711  25.831  25.988  1.00  0.00     0.001 A 
ATOM     43  C   UNL A   1      39.440  24.582  27.615  1.00  0.00     0.001 A 
ATOM     44  C   UNL A   1      39.965  24.705  26.329  1.00  0.00     0.000 A 
ENDBRANCH  25  39
BRANCH  26  45
ATOM     45  C   UNL A   1      40.615  34.111  35.038  1.00  0.00    -0.014 A 
ATOM     46  C   UNL A   1      39.850  33.973  36.209  1.00  0.00     0.009 A 
ATOM     47  C   UNL A   1      41.174  35.360  34.733  1.00  0.00     0.009 A 
ATOM     48  C   UNL A   1      39.606  35.079  37.027  1.00  0.00     0.001 A 
ATOM     49  C   UNL A   1      40.946  36.458  35.566  1.00  0.00     0.001 A 
ATOM     50  C   UNL A   1      40.148  36.321  36.702  1.00  0.00     0.000 A 
ENDBRANCH  26  45
BRANCH  38  51
ATOM     51  C   UNL A   1      44.815  28.677  33.552  1.00  0.00    -0.014 A 
ATOM     52  C   UNL A   1      46.066  29.099  33.074  1.00  0.00     0.009 A 
ATOM     53  C   UNL A   1      44.759  27.661  34.518  1.00  0.00     0.009 A 
ATOM     54  C   UNL A   1      47.237  28.491  33.528  1.00  0.00     0.001 A 
ATOM     55  C   UNL A   1      45.934  27.076  34.993  1.00  0.00     0.001 A 
ATOM     56  C   UNL A   1      47.169  27.483  34.487  1.00  0.00     0.000 A 
ENDBRANCH  38  51
ENDBRANCH  12  13
ENDBRANCH   5   7
ENDBRANCH   4   5
ENDBRANCH   3   4
ENDBRANCH   2   3
ENDBRANCH   1   2
BRANCH   1  57
ATOM     57  C   UNL A   1      33.800  29.502  27.247  1.00  0.00     0.202 C 
BRANCH  57  58
ATOM     58  C   UNL A   1      34.341  28.414  26.322  1.00  0.00     0.261 C 
BRANCH  58  59
ATOM     59  O   UNL A   1      33.615  27.206  26.581  1.00  0.00    -0.460 OA
BRANCH  59  60
ATOM     60  C   UNL A   1      33.767  26.205  25.679  1.00  0.00     0.342 C 
ATOM     61  O   UNL A   1      34.746  25.497  25.510  1.00  0.00    -0.246 OA
BRANCH  60  62
ATOM     62  C   UNL A   1      32.443  25.923  25.084  1.00  0.00     0.102 A 
ATOM     63  C   UNL A   1      31.767  26.993  24.472  1.00  0.00     0.028 A 
ATOM     64  C   UNL A   1      31.899  24.636  25.044  1.00  0.00     0.130 A 
ATOM     65  C   UNL A   1      30.578  26.760  23.777  1.00  0.00    -0.017 A 
ATOM     66  C   UNL A   1      30.704  24.404  24.371  1.00  0.00     0.048 A 
ATOM     67  C   UNL A   1      30.053  25.460  23.733  1.00  0.00     0.012 A 
BRANCH  64  68
ATOM     68  O   UNL A   1      32.520  23.598  25.680  1.00  0.00    -0.507 OA
ATOM     69  H   UNL A   1      32.278  23.373  26.557  1.00  0.00     0.293 HD
ENDBRANCH  64  68
BRANCH  65  70
ATOM     70  C   UNL A   1      29.838  27.841  23.106  1.00  0.00    -0.011 A 
ATOM     71  C   UNL A   1      30.509  28.872  22.342  1.00  0.00     0.027 A 
ATOM     72  C   UNL A   1      28.513  27.934  23.314  1.00  0.00     0.080 A 
ATOM     73  C   UNL A   1      29.841  29.955  21.932  1.00  0.00     0.095 A 
ATOM     74  C   UNL A   1      27.747  29.117  22.826  1.00  0.00     0.255 A 
ATOM     75  N   UNL A   1      28.490  30.098  22.188  1.00  0.00    -0.258 N 
ATOM     76  O   UNL A   1      26.541  29.162  23.048  1.00  0.00    -0.269 OA
BRANCH  75  77
ATOM     77  C   UNL A   1      27.803  31.312  21.828  1.00  0.00     0.451 C 
ATOM     78  F   UNL A   1      27.846  32.223  22.830  1.00  0.00    -0.185 F 
ATOM     79  F   UNL A   1      28.365  31.871  20.727  1.00  0.00    -0.185 F 
ENDBRANCH  75  77
ENDBRANCH  65  70
ENDBRANCH  60  62
ENDBRANCH  59  60
ENDBRANCH  58  59
ENDBRANCH  57  58
ENDBRANCH   1  57
TORSDOF 17
ENDMDL
MODEL 3
REMARK VINA RESULT:     -10.4      3.182      7.510
REMARK SMILES O=C(OCCOCCOC(=O)c1cc(-c2ccn(C(F)F)c(=O)c2)ccc1O)c1ccc(-c2c3nc(c(-c4ccccc4)c4ccc([nH]4)c(-c4ccccc4)c4nc(c(-c5ccccc5)c5ccc2[nH]5)C=C4)C=C3)cc1
REMARK SMILES IDX 6 1 5 2 4 3 3 4 2 5 1 6 29 7 30 8 76 9 31 10 75 11 32 12
REMARK SMILES IDX 33 13 34 14 69 15 35 16 74 17 68 18 70 19 36 20 73 21 67 22
REMARK SMILES IDX 66 23 37 25 59 26 44 27 58 28 45 29 48 30 57 31 71 32 46 33
REMARK SMILES IDX 47 34 56 36 72 37 49 38 38 39 39 40 43 41 40 42 42 43 41 44
REMARK SMILES IDX 60 45 61 46 65 47 62 48 64 49 63 50 50 51 51 52 55 53 52 54
REMARK SMILES IDX 54 55 53 56 7 57 8 58 9 59 10 60 11 61 12 62 13 63 27 64
REMARK SMILES IDX 14 65 26 66 25 67 28 68 15 70 16 71 24 72 17 73 22 74 18 75
REMARK SMILES IDX 23 76 19 77 20 78 21 79
REMARK H PARENT 70 24 48 35 28 69
REMARK Flexibility Score: inf
ROOT
ATOM      1  O   UNL A   1      32.436  28.794  24.867  1.00  0.00    -0.374 OA
ENDROOT
BRANCH   1   2
ATOM      2  C   UNL A   1      33.369  28.105  25.698  1.00  0.00     0.202 C 
BRANCH   2   3
ATOM      3  C   UNL A   1      33.354  28.592  27.148  1.00  0.00     0.261 C 
BRANCH   3   4
ATOM      4  O   UNL A   1      33.651  29.995  27.228  1.00  0.00    -0.460 OA
BRANCH   4   5
ATOM      5  C   UNL A   1      34.515  30.657  28.029  1.00  0.00     0.338 C 
ATOM      6  O   UNL A   1      34.171  31.769  28.432  1.00  0.00    -0.246 OA
BRANCH   5   7
ATOM      7  C   UNL A   1      35.883  30.177  28.431  1.00  0.00     0.060 A 
ATOM      8  C   UNL A   1      36.846  30.114  27.404  1.00  0.00     0.016 A 
ATOM      9  C   UNL A   1      36.266  29.714  29.691  1.00  0.00     0.016 A 
ATOM     10  C   UNL A   1      38.120  29.581  27.623  1.00  0.00     0.010 A 
ATOM     11  C   UNL A   1      37.521  29.159  29.916  1.00  0.00     0.010 A 
ATOM     12  C   UNL A   1      38.454  29.089  28.885  1.00  0.00    -0.014 A 
BRANCH  12  13
ATOM     13  C   UNL A   1      39.816  28.660  29.232  1.00  0.00     0.031 A 
ATOM     14  C   UNL A   1      40.815  29.623  29.786  1.00  0.00     0.074 A 
ATOM     15  C   UNL A   1      40.169  27.424  28.843  1.00  0.00     0.049 A 
ATOM     16  N   UNL A   1      42.061  29.405  30.112  1.00  0.00    -0.248 NA
ATOM     17  C   UNL A   1      40.372  31.012  29.978  1.00  0.00     0.031 C 
ATOM     18  C   UNL A   1      39.267  26.470  28.190  1.00  0.00     0.029 A 
ATOM     19  N   UNL A   1      41.372  26.776  28.888  1.00  0.00    -0.354 N 
ATOM     20  C   UNL A   1      42.552  30.624  30.558  1.00  0.00     0.074 A 
ATOM     21  C   UNL A   1      41.483  31.589  30.422  1.00  0.00     0.031 C 
ATOM     22  C   UNL A   1      39.954  25.365  27.878  1.00  0.00     0.029 A 
ATOM     23  C   UNL A   1      41.337  25.535  28.306  1.00  0.00     0.049 A 
ATOM     24  H   UNL A   1      42.180  27.162  29.298  1.00  0.00     0.167 HD
ATOM     25  C   UNL A   1      43.788  30.890  31.043  1.00  0.00     0.031 A 
ATOM     26  C   UNL A   1      42.316  24.628  28.138  1.00  0.00     0.031 A 
ATOM     27  C   UNL A   1      44.831  29.898  31.123  1.00  0.00     0.049 A 
ATOM     28  C   UNL A   1      43.669  24.931  28.697  1.00  0.00     0.074 A 
ATOM     29  C   UNL A   1      46.077  30.006  31.715  1.00  0.00     0.029 A 
ATOM     30  N   UNL A   1      44.759  28.629  30.565  1.00  0.00    -0.354 N 
ATOM     31  N   UNL A   1      44.079  26.029  29.288  1.00  0.00    -0.248 NA
ATOM     32  C   UNL A   1      44.685  23.877  28.603  1.00  0.00     0.031 C 
ATOM     33  C   UNL A   1      46.787  28.835  31.441  1.00  0.00     0.029 A 
ATOM     34  C   UNL A   1      45.960  27.965  30.747  1.00  0.00     0.049 A 
ATOM     35  H   UNL A   1      43.971  28.256  30.107  1.00  0.00     0.167 HD
ATOM     36  C   UNL A   1      45.396  25.799  29.650  1.00  0.00     0.074 A 
ATOM     37  C   UNL A   1      45.712  24.448  29.223  1.00  0.00     0.031 C 
ATOM     38  C   UNL A   1      46.260  26.630  30.283  1.00  0.00     0.031 A 
BRANCH  25  39
ATOM     39  C   UNL A   1      44.091  32.283  31.528  1.00  0.00    -0.014 A 
ATOM     40  C   UNL A   1      43.765  32.654  32.844  1.00  0.00     0.009 A 
ATOM     41  C   UNL A   1      44.595  33.266  30.660  1.00  0.00     0.009 A 
ATOM     42  C   UNL A   1      43.921  33.974  33.274  1.00  0.00     0.001 A 
ATOM     43  C   UNL A   1      44.779  34.579  31.101  1.00  0.00     0.001 A 
ATOM     44  C   UNL A   1      44.432  34.935  32.403  1.00  0.00     0.000 A 
ENDBRANCH  25  39
BRANCH  26  45
ATOM     45  C   UNL A   1      41.962  23.337  27.497  1.00  0.00    -0.014 A 
ATOM     46  C   UNL A   1      41.506  22.256  28.273  1.00  0.00     0.009 A 
ATOM     47  C   UNL A   1      42.277  23.121  26.149  1.00  0.00     0.009 A 
ATOM     48  C   UNL A   1      41.421  20.976  27.720  1.00  0.00     0.001 A 
ATOM     49  C   UNL A   1      42.169  21.844  25.594  1.00  0.00     0.001 A 
ATOM     50  C   UNL A   1      41.758  20.770  26.383  1.00  0.00     0.000 A 
ENDBRANCH  26  45
BRANCH  38  51
ATOM     51  C   UNL A   1      47.653  26.126  30.530  1.00  0.00    -0.014 A 
ATOM     52  C   UNL A   1      48.006  25.638  31.798  1.00  0.00     0.009 A 
ATOM     53  C   UNL A   1      48.645  26.257  29.547  1.00  0.00     0.009 A 
ATOM     54  C   UNL A   1      49.332  25.320  32.088  1.00  0.00     0.001 A 
ATOM     55  C   UNL A   1      49.967  25.908  29.831  1.00  0.00     0.001 A 
ATOM     56  C   UNL A   1      50.310  25.454  31.104  1.00  0.00     0.000 A 
ENDBRANCH  38  51
ENDBRANCH  12  13
ENDBRANCH   5   7
ENDBRANCH   4   5
ENDBRANCH   3   4
ENDBRANCH   2   3
ENDBRANCH   1   2
BRANCH   1  57
ATOM     57  C   UNL A   1      32.840  28.972  23.505  1.00  0.00     0.202 C 
BRANCH  57  58
ATOM     58  C   UNL A   1      31.611  28.915  22.600  1.00  0.00     0.261 C 
BRANCH  58  59
ATOM     59  O   UNL A   1      30.799  27.812  23.019  1.00  0.00    -0.460 OA
BRANCH  59  60
ATOM     60  C   UNL A   1      31.081  26.607  22.463  1.00  0.00     0.342 C 
ATOM     61  O   UNL A   1      31.334  26.367  21.294  1.00  0.00    -0.246 OA
BRANCH  60  62
ATOM     62  C   UNL A   1      31.291  25.639  23.560  1.00  0.00     0.102 A 
ATOM     63  C   UNL A   1      32.528  24.972  23.607  1.00  0.00     0.028 A 
ATOM     64  C   UNL A   1      30.347  25.437  24.571  1.00  0.00     0.130 A 
ATOM     65  C   UNL A   1      32.835  24.149  24.693  1.00  0.00    -0.017 A 
ATOM     66  C   UNL A   1      30.641  24.601  25.644  1.00  0.00     0.048 A 
ATOM     67  C   UNL A   1      31.883  23.968  25.708  1.00  0.00     0.012 A 
BRANCH  64  68
ATOM     68  O   UNL A   1      29.121  26.039  24.508  1.00  0.00    -0.507 OA
ATOM     69  H   UNL A   1      28.998  26.795  23.970  1.00  0.00     0.293 HD
ENDBRANCH  64  68
BRANCH  65  70
ATOM     70  C   UNL A   1      34.120  23.439  24.800  1.00  0.00    -0.011 A 
ATOM     71  C   UNL A   1      34.631  22.963  26.069  1.00  0.00     0.027 A 
ATOM     72  C   UNL A   1      34.889  23.340  23.702  1.00  0.00     0.080 A 
ATOM     73  C   UNL A   1      35.889  22.523  26.169  1.00  0.00     0.095 A 
ATOM     74  C   UNL A   1      36.282  22.812  23.793  1.00  0.00     0.255 A 
ATOM     75  N   UNL A   1      36.717  22.470  25.063  1.00  0.00    -0.258 N 
ATOM     76  O   UNL A   1      36.949  22.750  22.766  1.00  0.00    -0.269 OA
BRANCH  75  77
ATOM     77  C   UNL A   1      38.098  22.087  25.204  1.00  0.00     0.451 C 
ATOM     78  F   UNL A   1      38.605  22.483  26.396  1.00  0.00    -0.185 F 
ATOM     79  F   UNL A   1      38.234  20.740  25.117  1.00  0.00    -0.185 F 
ENDBRANCH  75  77
ENDBRANCH  65  70
ENDBRANCH  60  62
ENDBRANCH  59  60
ENDBRANCH  58  59
ENDBRANCH  57  58
ENDBRANCH   1  57
TORSDOF 17
ENDMDL
