MODEL 1
REMARK VINA RESULT:      -9.4      0.000      0.000
REMARK SMILES CCCCCCNC(=O)Oc1cccc(-c2ccc([C@@H](C)C(=O)OCCOCCOC(=O)c3ccc(-c4c5nc(c(-c6ccccc6)c6ccc([nH]6)c(-c6ccccc6)c6nc(c(-c7ccccc7)c7ccc4[nH]7)C=C6)C=C5)cc3)cc2)c1
REMARK SMILES IDX 22 1 23 2 20 3 21 4 19 5 16 6 17 7 82 8 18 9 81 10 15 11
REMARK SMILES IDX 11 12 12 13 83 14 13 15 14 16 10 17 8 18 7 19 9 21 6 22 5 23
REMARK SMILES IDX 4 24 3 25 2 26 1 27 24 28 25 29 26 30 27 31 28 32 29 33
REMARK SMILES IDX 30 34 31 35 32 36 33 37 34 38 80 39 35 40 79 41 36 42 37 43
REMARK SMILES IDX 38 44 73 45 39 46 78 47 72 48 74 49 40 50 77 51 71 52 70 53
REMARK SMILES IDX 41 55 63 56 48 57 62 58 49 59 52 60 61 61 75 62 50 63 51 64
REMARK SMILES IDX 60 66 76 67 53 68 42 69 43 70 47 71 44 72 46 73 45 74 64 75
REMARK SMILES IDX 65 76 69 77 66 78 68 79 67 80 54 81 55 82 59 83 56 84 58 85
REMARK SMILES IDX 57 86
REMARK H PARENT 7 20 74 54 52 65
REMARK Flexibility Score: inf
ROOT
ATOM      1  C   UNL A   1      34.048  21.898  26.100  1.00  0.00     0.313 C 
ATOM      2  O   UNL A   1      34.293  21.920  27.302  1.00  0.00    -0.252 OA
ENDROOT
BRANCH   1   3
ATOM      3  C   UNL A   1      32.946  22.751  25.494  1.00  0.00     0.126 C 
ATOM      4  C   UNL A   1      32.884  22.494  23.990  1.00  0.00     0.025 C 
BRANCH   3   5
ATOM      5  C   UNL A   1      32.931  24.243  25.814  1.00  0.00    -0.034 A 
ATOM      6  C   UNL A   1      32.687  27.063  26.164  1.00  0.00    -0.018 A 
ATOM      7  C   UNL A   1      33.852  26.492  25.628  1.00  0.00     0.009 A 
ATOM      8  C   UNL A   1      31.672  26.190  26.580  1.00  0.00     0.009 A 
ATOM      9  C   UNL A   1      33.974  25.105  25.454  1.00  0.00     0.005 A 
ATOM     10  C   UNL A   1      31.790  24.805  26.408  1.00  0.00     0.005 A 
BRANCH   6  11
ATOM     11  C   UNL A   1      32.493  28.526  26.213  1.00  0.00    -0.015 A 
ATOM     12  C   UNL A   1      33.022  30.724  27.105  1.00  0.00     0.133 A 
ATOM     13  C   UNL A   1      31.979  31.302  26.386  1.00  0.00     0.047 A 
ATOM     14  C   UNL A   1      33.279  29.351  27.036  1.00  0.00     0.056 A 
ATOM     15  C   UNL A   1      31.197  30.502  25.562  1.00  0.00     0.004 A 
ATOM     16  C   UNL A   1      31.454  29.128  25.476  1.00  0.00     0.009 A 
BRANCH  12  17
ATOM     17  O   UNL A   1      33.718  31.562  27.992  1.00  0.00    -0.410 OA
BRANCH  17  18
ATOM     18  C   UNL A   1      33.538  32.930  27.861  1.00  0.00     0.412 C 
ATOM     19  N   UNL A   1      34.708  33.637  27.902  1.00  0.00    -0.321 N 
ATOM     20  H   UNL A   1      34.634  34.612  27.793  1.00  0.00     0.167 HD
ATOM     21  O   UNL A   1      32.462  33.506  27.729  1.00  0.00    -0.224 OA
BRANCH  19  22
ATOM     22  C   UNL A   1      36.045  33.108  28.088  1.00  0.00     0.119 C 
BRANCH  22  23
ATOM     23  C   UNL A   1      36.782  33.790  29.240  1.00  0.00     0.021 C 
BRANCH  23  24
ATOM     24  C   UNL A   1      38.165  33.206  29.561  1.00  0.00     0.002 C 
BRANCH  24  25
ATOM     25  C   UNL A   1      38.583  33.260  31.034  1.00  0.00    -0.000 C 
BRANCH  25  26
ATOM     26  C   UNL A   1      38.240  32.020  31.864  1.00  0.00    -0.003 C 
ATOM     27  C   UNL A   1      37.227  32.292  32.967  1.00  0.00     0.004 C 
ENDBRANCH  25  26
ENDBRANCH  24  25
ENDBRANCH  23  24
ENDBRANCH  22  23
ENDBRANCH  19  22
ENDBRANCH  17  18
ENDBRANCH  12  17
ENDBRANCH   6  11
ENDBRANCH   3   5
ENDBRANCH   1   3
BRANCH   1  28
ATOM     28  O   UNL A   1      34.681  21.096  25.204  1.00  0.00    -0.463 OA
BRANCH  28  29
ATOM     29  C   UNL A   1      36.104  20.962  25.375  1.00  0.00     0.261 C 
BRANCH  29  30
ATOM     30  C   UNL A   1      36.845  22.142  24.746  1.00  0.00     0.202 C 
BRANCH  30  31
ATOM     31  O   UNL A   1      38.257  22.168  24.948  1.00  0.00    -0.374 OA
BRANCH  31  32
ATOM     32  C   UNL A   1      38.784  21.342  25.988  1.00  0.00     0.202 C 
BRANCH  32  33
ATOM     33  C   UNL A   1      39.527  20.079  25.536  1.00  0.00     0.261 C 
BRANCH  33  34
ATOM     34  O   UNL A   1      40.485  19.637  26.513  1.00  0.00    -0.460 OA
BRANCH  34  35
ATOM     35  C   UNL A   1      41.777  19.677  26.113  1.00  0.00     0.338 C 
ATOM     36  O   UNL A   1      42.364  18.867  25.414  1.00  0.00    -0.246 OA
BRANCH  35  37
ATOM     37  C   UNL A   1      42.373  20.972  26.491  1.00  0.00     0.060 A 
ATOM     38  C   UNL A   1      42.327  21.339  27.844  1.00  0.00     0.016 A 
ATOM     39  C   UNL A   1      42.900  21.843  25.537  1.00  0.00     0.016 A 
ATOM     40  C   UNL A   1      42.763  22.600  28.243  1.00  0.00     0.010 A 
ATOM     41  C   UNL A   1      43.325  23.114  25.937  1.00  0.00     0.010 A 
ATOM     42  C   UNL A   1      43.226  23.510  27.284  1.00  0.00    -0.014 A 
BRANCH  42  43
ATOM     43  C   UNL A   1      43.447  24.929  27.649  1.00  0.00     0.031 A 
ATOM     44  C   UNL A   1      44.856  25.406  27.865  1.00  0.00     0.074 A 
ATOM     45  C   UNL A   1      42.416  25.779  27.798  1.00  0.00     0.049 A 
ATOM     46  N   UNL A   1      45.282  26.559  28.313  1.00  0.00    -0.248 NA
ATOM     47  C   UNL A   1      45.929  24.453  27.534  1.00  0.00     0.031 C 
ATOM     48  C   UNL A   1      41.010  25.458  27.555  1.00  0.00     0.029 A 
ATOM     49  N   UNL A   1      42.398  27.088  28.210  1.00  0.00    -0.354 N 
ATOM     50  C   UNL A   1      46.667  26.462  28.340  1.00  0.00     0.074 A 
ATOM     51  C   UNL A   1      47.012  25.137  27.872  1.00  0.00     0.031 C 
ATOM     52  C   UNL A   1      40.262  26.536  27.850  1.00  0.00     0.029 A 
ATOM     53  C   UNL A   1      41.133  27.603  28.341  1.00  0.00     0.049 A 
ATOM     54  H   UNL A   1      43.215  27.607  28.394  1.00  0.00     0.167 HD
ATOM     55  C   UNL A   1      47.572  27.391  28.726  1.00  0.00     0.031 A 
ATOM     56  C   UNL A   1      40.722  28.786  28.837  1.00  0.00     0.031 A 
ATOM     57  C   UNL A   1      47.229  28.706  29.196  1.00  0.00     0.049 A 
ATOM     58  C   UNL A   1      41.742  29.773  29.341  1.00  0.00     0.074 A 
ATOM     59  C   UNL A   1      48.076  29.724  29.598  1.00  0.00     0.029 A 
ATOM     60  N   UNL A   1      45.936  29.179  29.334  1.00  0.00    -0.354 N 
ATOM     61  N   UNL A   1      43.050  29.676  29.354  1.00  0.00    -0.248 NA
ATOM     62  C   UNL A   1      41.230  31.033  29.902  1.00  0.00     0.031 C 
ATOM     63  C   UNL A   1      47.291  30.798  30.026  1.00  0.00     0.029 A 
ATOM     64  C   UNL A   1      45.958  30.466  29.840  1.00  0.00     0.049 A 
ATOM     65  H   UNL A   1      45.121  28.675  29.106  1.00  0.00     0.167 HD
ATOM     66  C   UNL A   1      43.515  30.870  29.891  1.00  0.00     0.074 A 
ATOM     67  C   UNL A   1      42.352  31.679  30.189  1.00  0.00     0.031 C 
ATOM     68  C   UNL A   1      44.792  31.263  30.115  1.00  0.00     0.031 A 
BRANCH  55  69
ATOM     69  C   UNL A   1      49.021  27.004  28.697  1.00  0.00    -0.014 A 
ATOM     70  C   UNL A   1      49.702  26.629  29.866  1.00  0.00     0.009 A 
ATOM     71  C   UNL A   1      49.704  26.971  27.470  1.00  0.00     0.009 A 
ATOM     72  C   UNL A   1      51.046  26.255  29.809  1.00  0.00     0.001 A 
ATOM     73  C   UNL A   1      51.041  26.574  27.413  1.00  0.00     0.001 A 
ATOM     74  C   UNL A   1      51.712  26.222  28.582  1.00  0.00     0.000 A 
ENDBRANCH  55  69
BRANCH  56  75
ATOM     75  C   UNL A   1      39.271  29.091  28.934  1.00  0.00    -0.014 A 
ATOM     76  C   UNL A   1      38.556  28.816  30.109  1.00  0.00     0.009 A 
ATOM     77  C   UNL A   1      38.586  29.639  27.837  1.00  0.00     0.009 A 
ATOM     78  C   UNL A   1      37.182  29.060  30.176  1.00  0.00     0.001 A 
ATOM     79  C   UNL A   1      37.219  29.908  27.915  1.00  0.00     0.001 A 
ATOM     80  C   UNL A   1      36.516  29.610  29.081  1.00  0.00     0.000 A 
ENDBRANCH  56  75
BRANCH  68  81
ATOM     81  C   UNL A   1      45.012  32.644  30.661  1.00  0.00    -0.014 A 
ATOM     82  C   UNL A   1      45.130  32.873  32.039  1.00  0.00     0.009 A 
ATOM     83  C   UNL A   1      45.185  33.718  29.772  1.00  0.00     0.009 A 
ATOM     84  C   UNL A   1      45.400  34.158  32.518  1.00  0.00     0.001 A 
ATOM     85  C   UNL A   1      45.479  34.994  30.252  1.00  0.00     0.001 A 
ATOM     86  C   UNL A   1      45.582  35.214  31.625  1.00  0.00     0.000 A 
ENDBRANCH  68  81
ENDBRANCH  42  43
ENDBRANCH  35  37
ENDBRANCH  34  35
ENDBRANCH  33  34
ENDBRANCH  32  33
ENDBRANCH  31  32
ENDBRANCH  30  31
ENDBRANCH  29  30
ENDBRANCH  28  29
ENDBRANCH   1  28
TORSDOF 23
ENDMDL
MODEL 2
REMARK VINA RESULT:      -9.2      2.981      9.102
REMARK SMILES CCCCCCNC(=O)Oc1cccc(-c2ccc([C@@H](C)C(=O)OCCOCCOC(=O)c3ccc(-c4c5nc(c(-c6ccccc6)c6ccc([nH]6)c(-c6ccccc6)c6nc(c(-c7ccccc7)c7ccc4[nH]7)C=C6)C=C5)cc3)cc2)c1
REMARK SMILES IDX 22 1 23 2 20 3 21 4 19 5 16 6 17 7 82 8 18 9 81 10 15 11
REMARK SMILES IDX 11 12 12 13 83 14 13 15 14 16 10 17 8 18 7 19 9 21 6 22 5 23
REMARK SMILES IDX 4 24 3 25 2 26 1 27 24 28 25 29 26 30 27 31 28 32 29 33
REMARK SMILES IDX 30 34 31 35 32 36 33 37 34 38 80 39 35 40 79 41 36 42 37 43
REMARK SMILES IDX 38 44 73 45 39 46 78 47 72 48 74 49 40 50 77 51 71 52 70 53
REMARK SMILES IDX 41 55 63 56 48 57 62 58 49 59 52 60 61 61 75 62 50 63 51 64
REMARK SMILES IDX 60 66 76 67 53 68 42 69 43 70 47 71 44 72 46 73 45 74 64 75
REMARK SMILES IDX 65 76 69 77 66 78 68 79 67 80 54 81 55 82 59 83 56 84 58 85
REMARK SMILES IDX 57 86
REMARK H PARENT 7 20 74 54 52 65
REMARK Flexibility Score: inf
ROOT
ATOM      1  C   UNL A   1      32.203  21.325  24.276  1.00  0.00     0.313 C 
ATOM      2  O   UNL A   1      31.932  22.150  23.408  1.00  0.00    -0.252 OA
ENDROOT
BRANCH   1   3
ATOM      3  C   UNL A   1      33.418  20.420  24.165  1.00  0.00     0.126 C 
ATOM      4  C   UNL A   1      33.157  19.133  24.944  1.00  0.00     0.025 C 
BRANCH   3   5
ATOM      5  C   UNL A   1      34.788  21.009  24.490  1.00  0.00    -0.034 A 
ATOM      6  C   UNL A   1      37.269  22.071  25.413  1.00  0.00    -0.018 A 
ATOM      7  C   UNL A   1      36.289  22.898  24.841  1.00  0.00     0.009 A 
ATOM      8  C   UNL A   1      37.009  20.694  25.456  1.00  0.00     0.009 A 
ATOM      9  C   UNL A   1      35.067  22.377  24.387  1.00  0.00     0.005 A 
ATOM     10  C   UNL A   1      35.791  20.171  25.003  1.00  0.00     0.005 A 
BRANCH   6  11
ATOM     11  C   UNL A   1      38.491  22.629  26.026  1.00  0.00    -0.015 A 
ATOM     12  C   UNL A   1      40.764  22.398  26.855  1.00  0.00     0.133 A 
ATOM     13  C   UNL A   1      40.752  23.702  27.345  1.00  0.00     0.047 A 
ATOM     14  C   UNL A   1      39.648  21.854  26.212  1.00  0.00     0.056 A 
ATOM     15  C   UNL A   1      39.617  24.485  27.164  1.00  0.00     0.004 A 
ATOM     16  C   UNL A   1      38.500  23.953  26.509  1.00  0.00     0.009 A 
BRANCH  12  17
ATOM     17  O   UNL A   1      41.899  21.624  27.150  1.00  0.00    -0.410 OA
BRANCH  17  18
ATOM     18  C   UNL A   1      42.601  21.081  26.086  1.00  0.00     0.412 C 
ATOM     19  N   UNL A   1      43.695  21.820  25.726  1.00  0.00    -0.321 N 
ATOM     20  H   UNL A   1      44.238  21.465  24.987  1.00  0.00     0.167 HD
ATOM     21  O   UNL A   1      42.314  20.052  25.483  1.00  0.00    -0.224 OA
BRANCH  19  22
ATOM     22  C   UNL A   1      44.141  23.069  26.314  1.00  0.00     0.119 C 
BRANCH  22  23
ATOM     23  C   UNL A   1      43.825  24.271  25.425  1.00  0.00     0.021 C 
BRANCH  23  24
ATOM     24  C   UNL A   1      45.044  25.111  25.016  1.00  0.00     0.002 C 
BRANCH  24  25
ATOM     25  C   UNL A   1      46.012  25.472  26.147  1.00  0.00    -0.000 C 
BRANCH  25  26
ATOM     26  C   UNL A   1      47.466  25.043  25.934  1.00  0.00    -0.003 C 
ATOM     27  C   UNL A   1      47.993  25.363  24.543  1.00  0.00     0.004 C 
ENDBRANCH  25  26
ENDBRANCH  24  25
ENDBRANCH  23  24
ENDBRANCH  22  23
ENDBRANCH  19  22
ENDBRANCH  17  18
ENDBRANCH  12  17
ENDBRANCH   6  11
ENDBRANCH   3   5
ENDBRANCH   1   3
BRANCH   1  28
ATOM     28  O   UNL A   1      31.444  21.098  25.380  1.00  0.00    -0.463 OA
BRANCH  28  29
ATOM     29  C   UNL A   1      30.718  22.232  25.889  1.00  0.00     0.261 C 
BRANCH  29  30
ATOM     30  C   UNL A   1      31.485  22.908  27.027  1.00  0.00     0.202 C 
BRANCH  30  31
ATOM     31  O   UNL A   1      31.688  24.313  26.890  1.00  0.00    -0.374 OA
BRANCH  31  32
ATOM     32  C   UNL A   1      32.265  24.775  25.667  1.00  0.00     0.202 C 
BRANCH  32  33
ATOM     33  C   UNL A   1      31.374  25.665  24.793  1.00  0.00     0.261 C 
BRANCH  33  34
ATOM     34  O   UNL A   1      30.967  26.862  25.479  1.00  0.00    -0.460 OA
BRANCH  34  35
ATOM     35  C   UNL A   1      31.382  28.020  24.915  1.00  0.00     0.338 C 
ATOM     36  O   UNL A   1      30.816  28.672  24.054  1.00  0.00    -0.246 OA
BRANCH  35  37
ATOM     37  C   UNL A   1      32.572  28.519  25.629  1.00  0.00     0.060 A 
ATOM     38  C   UNL A   1      32.774  28.079  26.945  1.00  0.00     0.016 A 
ATOM     39  C   UNL A   1      33.434  29.453  25.053  1.00  0.00     0.016 A 
ATOM     40  C   UNL A   1      33.810  28.609  27.710  1.00  0.00     0.010 A 
ATOM     41  C   UNL A   1      34.467  29.994  25.825  1.00  0.00     0.010 A 
ATOM     42  C   UNL A   1      34.637  29.600  27.166  1.00  0.00    -0.014 A 
BRANCH  42  43
ATOM     43  C   UNL A   1      35.569  30.354  28.038  1.00  0.00     0.031 A 
ATOM     44  C   UNL A   1      36.986  29.867  28.167  1.00  0.00     0.074 A 
ATOM     45  C   UNL A   1      35.164  31.443  28.713  1.00  0.00     0.049 A 
ATOM     46  N   UNL A   1      37.936  30.283  28.964  1.00  0.00    -0.248 NA
ATOM     47  C   UNL A   1      37.384  28.762  27.278  1.00  0.00     0.031 C 
ATOM     48  C   UNL A   1      33.838  32.052  28.625  1.00  0.00     0.029 A 
ATOM     49  N   UNL A   1      35.834  32.220  29.625  1.00  0.00    -0.354 N 
ATOM     50  C   UNL A   1      39.034  29.478  28.691  1.00  0.00     0.074 A 
ATOM     51  C   UNL A   1      38.633  28.543  27.662  1.00  0.00     0.031 C 
ATOM     52  C   UNL A   1      33.783  33.095  29.472  1.00  0.00     0.029 A 
ATOM     53  C   UNL A   1      35.052  33.197  30.191  1.00  0.00     0.049 A 
ATOM     54  H   UNL A   1      36.783  32.089  29.853  1.00  0.00     0.167 HD
ATOM     55  C   UNL A   1      40.265  29.509  29.252  1.00  0.00     0.031 A 
ATOM     56  C   UNL A   1      35.319  34.050  31.199  1.00  0.00     0.031 A 
ATOM     57  C   UNL A   1      40.662  30.433  30.279  1.00  0.00     0.049 A 
ATOM     58  C   UNL A   1      36.668  34.010  31.866  1.00  0.00     0.074 A 
ATOM     59  C   UNL A   1      41.893  30.552  30.901  1.00  0.00     0.029 A 
ATOM     60  N   UNL A   1      39.834  31.391  30.838  1.00  0.00    -0.354 N 
ATOM     61  N   UNL A   1      37.702  33.251  31.596  1.00  0.00    -0.248 NA
ATOM     62  C   UNL A   1      36.886  34.943  32.983  1.00  0.00     0.031 C 
ATOM     63  C   UNL A   1      41.793  31.551  31.874  1.00  0.00     0.029 A 
ATOM     64  C   UNL A   1      40.516  32.089  31.817  1.00  0.00     0.049 A 
ATOM     65  H   UNL A   1      38.898  31.552  30.576  1.00  0.00     0.167 HD
ATOM     66  C   UNL A   1      38.700  33.635  32.483  1.00  0.00     0.074 A 
ATOM     67  C   UNL A   1      38.151  34.698  33.299  1.00  0.00     0.031 C 
ATOM     68  C   UNL A   1      39.960  33.155  32.608  1.00  0.00     0.031 A 
BRANCH  55  69
ATOM     69  C   UNL A   1      41.261  28.483  28.797  1.00  0.00    -0.014 A 
ATOM     70  C   UNL A   1      41.966  28.633  27.593  1.00  0.00     0.009 A 
ATOM     71  C   UNL A   1      41.530  27.370  29.611  1.00  0.00     0.009 A 
ATOM     72  C   UNL A   1      42.903  27.673  27.201  1.00  0.00     0.001 A 
ATOM     73  C   UNL A   1      42.483  26.426  29.228  1.00  0.00     0.001 A 
ATOM     74  C   UNL A   1      43.164  26.574  28.021  1.00  0.00     0.000 A 
ENDBRANCH  55  69
BRANCH  56  75
ATOM     75  C   UNL A   1      34.270  34.986  31.679  1.00  0.00    -0.014 A 
ATOM     76  C   UNL A   1      33.325  34.577  32.633  1.00  0.00     0.009 A 
ATOM     77  C   UNL A   1      34.194  36.291  31.166  1.00  0.00     0.009 A 
ATOM     78  C   UNL A   1      32.313  35.448  33.044  1.00  0.00     0.001 A 
ATOM     79  C   UNL A   1      33.199  37.168  31.600  1.00  0.00     0.001 A 
ATOM     80  C   UNL A   1      32.253  36.743  32.531  1.00  0.00     0.000 A 
ENDBRANCH  56  75
BRANCH  68  81
ATOM     81  C   UNL A   1      40.856  33.800  33.626  1.00  0.00    -0.014 A 
ATOM     82  C   UNL A   1      41.011  33.257  34.909  1.00  0.00     0.009 A 
ATOM     83  C   UNL A   1      41.617  34.923  33.261  1.00  0.00     0.009 A 
ATOM     84  C   UNL A   1      41.901  33.839  35.816  1.00  0.00     0.001 A 
ATOM     85  C   UNL A   1      42.523  35.486  34.160  1.00  0.00     0.001 A 
ATOM     86  C   UNL A   1      42.660  34.947  35.438  1.00  0.00     0.000 A 
ENDBRANCH  68  81
ENDBRANCH  42  43
ENDBRANCH  35  37
ENDBRANCH  34  35
ENDBRANCH  33  34
ENDBRANCH  32  33
ENDBRANCH  31  32
ENDBRANCH  30  31
ENDBRANCH  29  30
ENDBRANCH  28  29
ENDBRANCH   1  28
TORSDOF 23
ENDMDL
MODEL 3
REMARK VINA RESULT:      -9.2      0.563      5.630
REMARK SMILES CCCCCCNC(=O)Oc1cccc(-c2ccc([C@@H](C)C(=O)OCCOCCOC(=O)c3ccc(-c4c5nc(c(-c6ccccc6)c6ccc([nH]6)c(-c6ccccc6)c6nc(c(-c7ccccc7)c7ccc4[nH]7)C=C6)C=C5)cc3)cc2)c1
REMARK SMILES IDX 22 1 23 2 20 3 21 4 19 5 16 6 17 7 82 8 18 9 81 10 15 11
REMARK SMILES IDX 11 12 12 13 83 14 13 15 14 16 10 17 8 18 7 19 9 21 6 22 5 23
REMARK SMILES IDX 4 24 3 25 2 26 1 27 24 28 25 29 26 30 27 31 28 32 29 33
REMARK SMILES IDX 30 34 31 35 32 36 33 37 34 38 80 39 35 40 79 41 36 42 37 43
REMARK SMILES IDX 38 44 73 45 39 46 78 47 72 48 74 49 40 50 77 51 71 52 70 53
REMARK SMILES IDX 41 55 63 56 48 57 62 58 49 59 52 60 61 61 75 62 50 63 51 64
REMARK SMILES IDX 60 66 76 67 53 68 42 69 43 70 47 71 44 72 46 73 45 74 64 75
REMARK SMILES IDX 65 76 69 77 66 78 68 79 67 80 54 81 55 82 59 83 56 84 58 85
REMARK SMILES IDX 57 86
REMARK H PARENT 7 20 74 54 52 65
REMARK Flexibility Score: inf
ROOT
ATOM      1  C   UNL A   1      33.791  22.107  25.867  1.00  0.00     0.313 C 
ATOM      2  O   UNL A   1      33.854  21.957  27.083  1.00  0.00    -0.252 OA
ENDROOT
BRANCH   1   3
ATOM      3  C   UNL A   1      32.763  23.026  25.228  1.00  0.00     0.126 C 
ATOM      4  C   UNL A   1      32.835  22.880  23.710  1.00  0.00     0.025 C 
BRANCH   3   5
ATOM      5  C   UNL A   1      32.741  24.490  25.656  1.00  0.00    -0.034 A 
ATOM      6  C   UNL A   1      32.565  27.292  26.162  1.00  0.00    -0.018 A 
ATOM      7  C   UNL A   1      33.800  26.671  25.918  1.00  0.00     0.009 A 
ATOM      8  C   UNL A   1      31.427  26.474  26.209  1.00  0.00     0.009 A 
ATOM      9  C   UNL A   1      33.889  25.293  25.668  1.00  0.00     0.005 A 
ATOM     10  C   UNL A   1      31.513  25.098  25.961  1.00  0.00     0.005 A 
BRANCH   6  11
ATOM     11  C   UNL A   1      32.446  28.759  26.278  1.00  0.00    -0.015 A 
ATOM     12  C   UNL A   1      33.111  30.888  27.244  1.00  0.00     0.133 A 
ATOM     13  C   UNL A   1      32.077  31.547  26.584  1.00  0.00     0.047 A 
ATOM     14  C   UNL A   1      33.296  29.509  27.109  1.00  0.00     0.056 A 
ATOM     15  C   UNL A   1      31.231  30.822  25.752  1.00  0.00     0.004 A 
ATOM     16  C   UNL A   1      31.417  29.443  25.601  1.00  0.00     0.009 A 
BRANCH  12  17
ATOM     17  O   UNL A   1      33.874  31.652  28.144  1.00  0.00    -0.410 OA
BRANCH  17  18
ATOM     18  C   UNL A   1      33.776  33.032  28.059  1.00  0.00     0.412 C 
ATOM     19  N   UNL A   1      34.991  33.657  27.993  1.00  0.00    -0.321 N 
ATOM     20  H   UNL A   1      34.974  34.638  27.912  1.00  0.00     0.167 HD
ATOM     21  O   UNL A   1      32.735  33.682  28.052  1.00  0.00    -0.224 OA
BRANCH  19  22
ATOM     22  C   UNL A   1      36.301  33.034  28.028  1.00  0.00     0.119 C 
BRANCH  22  23
ATOM     23  C   UNL A   1      37.172  33.584  29.158  1.00  0.00     0.021 C 
BRANCH  23  24
ATOM     24  C   UNL A   1      37.514  32.573  30.261  1.00  0.00     0.002 C 
BRANCH  24  25
ATOM     25  C   UNL A   1      37.979  33.175  31.592  1.00  0.00    -0.000 C 
BRANCH  25  26
ATOM     26  C   UNL A   1      38.638  32.195  32.566  1.00  0.00    -0.003 C 
ATOM     27  C   UNL A   1      37.638  31.401  33.394  1.00  0.00     0.004 C 
ENDBRANCH  25  26
ENDBRANCH  24  25
ENDBRANCH  23  24
ENDBRANCH  22  23
ENDBRANCH  19  22
ENDBRANCH  17  18
ENDBRANCH  12  17
ENDBRANCH   6  11
ENDBRANCH   3   5
ENDBRANCH   1   3
BRANCH   1  28
ATOM     28  O   UNL A   1      34.575  21.450  24.972  1.00  0.00    -0.463 OA
BRANCH  28  29
ATOM     29  C   UNL A   1      35.984  21.430  25.267  1.00  0.00     0.261 C 
BRANCH  29  30
ATOM     30  C   UNL A   1      36.672  22.689  24.737  1.00  0.00     0.202 C 
BRANCH  30  31
ATOM     31  O   UNL A   1      38.058  22.816  25.049  1.00  0.00    -0.374 OA
BRANCH  31  32
ATOM     32  C   UNL A   1      38.586  21.948  26.054  1.00  0.00     0.202 C 
BRANCH  32  33
ATOM     33  C   UNL A   1      39.283  20.678  25.552  1.00  0.00     0.261 C 
BRANCH  33  34
ATOM     34  O   UNL A   1      40.228  20.167  26.508  1.00  0.00    -0.460 OA
BRANCH  34  35
ATOM     35  C   UNL A   1      41.518  20.165  26.101  1.00  0.00     0.338 C 
ATOM     36  O   UNL A   1      42.048  19.398  25.314  1.00  0.00    -0.246 OA
BRANCH  35  37
ATOM     37  C   UNL A   1      42.199  21.370  26.609  1.00  0.00     0.060 A 
ATOM     38  C   UNL A   1      42.309  21.519  27.999  1.00  0.00     0.016 A 
ATOM     39  C   UNL A   1      42.658  22.370  25.749  1.00  0.00     0.016 A 
ATOM     40  C   UNL A   1      42.831  22.692  28.539  1.00  0.00     0.010 A 
ATOM     41  C   UNL A   1      43.171  23.551  26.292  1.00  0.00     0.010 A 
ATOM     42  C   UNL A   1      43.227  23.731  27.688  1.00  0.00    -0.014 A 
BRANCH  42  43
ATOM     43  C   UNL A   1      43.540  25.070  28.242  1.00  0.00     0.031 A 
ATOM     44  C   UNL A   1      42.407  26.019  28.516  1.00  0.00     0.074 A 
ATOM     45  C   UNL A   1      44.808  25.443  28.486  1.00  0.00     0.049 A 
ATOM     46  N   UNL A   1      42.446  27.276  28.875  1.00  0.00    -0.248 NA
ATOM     47  C   UNL A   1      41.046  25.476  28.364  1.00  0.00     0.031 C 
ATOM     48  C   UNL A   1      45.989  24.596  28.323  1.00  0.00     0.029 A 
ATOM     49  N   UNL A   1      45.312  26.648  28.909  1.00  0.00    -0.354 N 
ATOM     50  C   UNL A   1      41.121  27.681  28.967  1.00  0.00     0.074 A 
ATOM     51  C   UNL A   1      40.301  26.541  28.620  1.00  0.00     0.031 C 
ATOM     52  C   UNL A   1      47.085  25.318  28.617  1.00  0.00     0.029 A 
ATOM     53  C   UNL A   1      46.684  26.685  28.946  1.00  0.00     0.049 A 
ATOM     54  H   UNL A   1      44.744  27.412  29.161  1.00  0.00     0.167 HD
ATOM     55  C   UNL A   1      40.631  28.896  29.305  1.00  0.00     0.031 A 
ATOM     56  C   UNL A   1      47.520  27.715  29.179  1.00  0.00     0.031 A 
ATOM     57  C   UNL A   1      41.446  30.031  29.643  1.00  0.00     0.049 A 
ATOM     58  C   UNL A   1      46.953  29.079  29.469  1.00  0.00     0.074 A 
ATOM     59  C   UNL A   1      41.041  31.302  30.013  1.00  0.00     0.029 A 
ATOM     60  N   UNL A   1      42.831  30.032  29.647  1.00  0.00    -0.354 N 
ATOM     61  N   UNL A   1      45.699  29.451  29.563  1.00  0.00    -0.248 NA
ATOM     62  C   UNL A   1      47.918  30.170  29.683  1.00  0.00     0.031 C 
ATOM     63  C   UNL A   1      42.185  32.087  30.192  1.00  0.00     0.029 A 
ATOM     64  C   UNL A   1      43.298  31.288  29.986  1.00  0.00     0.049 A 
ATOM     65  H   UNL A   1      43.397  29.254  29.440  1.00  0.00     0.167 HD
ATOM     66  C   UNL A   1      45.725  30.804  29.878  1.00  0.00     0.074 A 
ATOM     67  C   UNL A   1      47.118  31.190  29.962  1.00  0.00     0.031 C 
ATOM     68  C   UNL A   1      44.688  31.650  30.082  1.00  0.00     0.031 A 
BRANCH  55  69
ATOM     69  C   UNL A   1      39.141  29.075  29.283  1.00  0.00    -0.014 A 
ATOM     70  C   UNL A   1      38.369  28.925  30.445  1.00  0.00     0.009 A 
ATOM     71  C   UNL A   1      38.506  29.443  28.085  1.00  0.00     0.009 A 
ATOM     72  C   UNL A   1      36.986  29.115  30.402  1.00  0.00     0.001 A 
ATOM     73  C   UNL A   1      37.127  29.655  28.051  1.00  0.00     0.001 A 
ATOM     74  C   UNL A   1      36.368  29.485  29.207  1.00  0.00     0.000 A 
ENDBRANCH  55  69
BRANCH  56  75
ATOM     75  C   UNL A   1      48.990  27.513  29.099  1.00  0.00    -0.014 A 
ATOM     76  C   UNL A   1      49.689  27.785  27.912  1.00  0.00     0.009 A 
ATOM     77  C   UNL A   1      49.701  27.024  30.207  1.00  0.00     0.009 A 
ATOM     78  C   UNL A   1      51.063  27.547  27.830  1.00  0.00     0.001 A 
ATOM     79  C   UNL A   1      51.079  26.813  30.130  1.00  0.00     0.001 A 
ATOM     80  C   UNL A   1      51.757  27.067  28.939  1.00  0.00     0.000 A 
ENDBRANCH  56  75
BRANCH  68  81
ATOM     81  C   UNL A   1      45.008  33.066  30.467  1.00  0.00    -0.014 A 
ATOM     82  C   UNL A   1      45.215  33.429  31.806  1.00  0.00     0.009 A 
ATOM     83  C   UNL A   1      45.184  34.031  29.462  1.00  0.00     0.009 A 
ATOM     84  C   UNL A   1      45.576  34.738  32.132  1.00  0.00     0.001 A 
ATOM     85  C   UNL A   1      45.569  35.332  29.789  1.00  0.00     0.001 A 
ATOM     86  C   UNL A   1      45.760  35.685  31.124  1.00  0.00     0.000 A 
ENDBRANCH  68  81
ENDBRANCH  42  43
ENDBRANCH  35  37
ENDBRANCH  34  35
ENDBRANCH  33  34
ENDBRANCH  32  33
ENDBRANCH  31  32
ENDBRANCH  30  31
ENDBRANCH  29  30
ENDBRANCH  28  29
ENDBRANCH   1  28
TORSDOF 23
ENDMDL
