MODEL 1
REMARK VINA RESULT:      -8.3      0.000      0.000
REMARK SMILES CC[C@@](C)(C(=O)OCCOCCOC(=O)c1ccc(-c2c3nc(c(-c4ccccc4)c4ccc([nH]4)c(-c4ccccc4)c4nc(c(-c5ccccc5)c5ccc2[nH]5)C=C4)C=C3)cc1)n1nnnc1Cc1cccs1
REMARK SMILES IDX 9 1 8 2 7 3 5 4 6 5 3 6 4 7 2 8 1 9 64 10 65 11 68 12 66 13
REMARK SMILES IDX 67 14 69 15 70 16 71 17 74 18 72 19 73 20 10 21 11 22 12 23
REMARK SMILES IDX 13 24 14 25 15 26 16 27 17 28 63 29 18 30 62 31 19 32 20 33
REMARK SMILES IDX 21 34 56 35 22 36 61 37 55 38 57 39 23 40 60 41 54 42 53 43
REMARK SMILES IDX 24 45 46 46 31 47 45 48 32 49 35 50 44 51 58 52 33 53 34 54
REMARK SMILES IDX 43 56 59 57 36 58 25 59 26 60 30 61 27 62 29 63 28 64 47 65
REMARK SMILES IDX 48 66 52 67 49 68 51 69 50 70 37 71 38 72 42 73 39 74 41 75
REMARK SMILES IDX 40 76
REMARK H PARENT 57 44 35 55
REMARK Flexibility Score: inf
ROOT
ATOM      1  C   UNL A   1      34.807  32.540  31.558  1.00  0.00     0.202 C 
ENDROOT
BRANCH   1   2
ATOM      2  C   UNL A   1      35.277  32.908  32.970  1.00  0.00     0.261 C 
BRANCH   2   3
ATOM      3  O   UNL A   1      36.494  32.219  33.353  1.00  0.00    -0.461 OA
BRANCH   3   4
ATOM      4  C   UNL A   1      37.667  32.876  33.108  1.00  0.00     0.334 C 
ATOM      5  O   UNL A   1      38.043  33.185  31.983  1.00  0.00    -0.249 OA
BRANCH   4   6
ATOM      6  C   UNL A   1      38.486  33.141  34.382  1.00  0.00     0.160 C 
ATOM      7  C   UNL A   1      37.825  34.412  34.978  1.00  0.00     0.050 C 
BRANCH   6   8
ATOM      8  C   UNL A   1      39.984  33.436  34.095  1.00  0.00     0.039 C 
ATOM      9  C   UNL A   1      40.358  34.918  34.099  1.00  0.00     0.007 C 
ENDBRANCH   6   8
BRANCH   6  10
ATOM     10  N   UNL A   1      38.358  31.974  35.273  1.00  0.00    -0.212 N 
ATOM     11  N   UNL A   1      37.650  32.070  36.416  1.00  0.00    -0.044 NA
ATOM     12  C   UNL A   1      38.915  30.707  35.207  1.00  0.00     0.157 A 
ATOM     13  N   UNL A   1      37.749  30.892  37.008  1.00  0.00    -0.024 NA
ATOM     14  N   UNL A   1      38.524  30.039  36.275  1.00  0.00    -0.113 NA
BRANCH  12  15
ATOM     15  C   UNL A   1      39.691  30.157  34.068  1.00  0.00     0.125 C 
BRANCH  15  16
ATOM     16  C   UNL A   1      40.763  29.155  34.396  1.00  0.00     0.012 A 
ATOM     17  C   UNL A   1      41.155  28.051  33.662  1.00  0.00     0.016 A 
ATOM     18  S   UNL A   1      41.781  29.380  35.759  1.00  0.00    -0.148 S 
ATOM     19  C   UNL A   1      42.360  27.470  34.156  1.00  0.00     0.012 A 
ATOM     20  C   UNL A   1      42.830  28.125  35.272  1.00  0.00     0.065 A 
ENDBRANCH  15  16
ENDBRANCH  12  15
ENDBRANCH   6  10
ENDBRANCH   4   6
ENDBRANCH   3   4
ENDBRANCH   2   3
ENDBRANCH   1   2
BRANCH   1  21
ATOM     21  O   UNL A   1      34.035  33.496  30.832  1.00  0.00    -0.374 OA
BRANCH  21  22
ATOM     22  C   UNL A   1      34.553  33.964  29.598  1.00  0.00     0.202 C 
BRANCH  22  23
ATOM     23  C   UNL A   1      34.088  33.281  28.302  1.00  0.00     0.261 C 
BRANCH  23  24
ATOM     24  O   UNL A   1      35.037  32.387  27.738  1.00  0.00    -0.460 OA
BRANCH  24  25
ATOM     25  C   UNL A   1      34.746  31.089  27.979  1.00  0.00     0.338 C 
ATOM     26  O   UNL A   1      33.666  30.526  27.878  1.00  0.00    -0.246 OA
BRANCH  25  27
ATOM     27  C   UNL A   1      36.006  30.390  28.232  1.00  0.00     0.060 A 
ATOM     28  C   UNL A   1      36.168  29.793  29.486  1.00  0.00     0.016 A 
ATOM     29  C   UNL A   1      37.007  30.333  27.259  1.00  0.00     0.016 A 
ATOM     30  C   UNL A   1      37.371  29.176  29.795  1.00  0.00     0.010 A 
ATOM     31  C   UNL A   1      38.215  29.718  27.572  1.00  0.00     0.010 A 
ATOM     32  C   UNL A   1      38.410  29.176  28.854  1.00  0.00    -0.014 A 
BRANCH  32  33
ATOM     33  C   UNL A   1      39.757  28.758  29.284  1.00  0.00     0.031 A 
ATOM     34  C   UNL A   1      40.260  27.414  28.845  1.00  0.00     0.074 A 
ATOM     35  C   UNL A   1      40.522  29.592  30.007  1.00  0.00     0.049 A 
ATOM     36  N   UNL A   1      41.411  26.843  29.086  1.00  0.00    -0.248 NA
ATOM     37  C   UNL A   1      39.343  26.602  28.025  1.00  0.00     0.031 C 
ATOM     38  C   UNL A   1      40.133  30.934  30.439  1.00  0.00     0.029 A 
ATOM     39  N   UNL A   1      41.790  29.431  30.496  1.00  0.00    -0.354 N 
ATOM     40  C   UNL A   1      41.353  25.606  28.455  1.00  0.00     0.074 A 
ATOM     41  C   UNL A   1      40.045  25.493  27.850  1.00  0.00     0.031 C 
ATOM     42  C   UNL A   1      41.151  31.481  31.125  1.00  0.00     0.029 A 
ATOM     43  C   UNL A   1      42.242  30.514  31.209  1.00  0.00     0.049 A 
ATOM     44  H   UNL A   1      42.327  28.619  30.351  1.00  0.00     0.167 HD
ATOM     45  C   UNL A   1      42.311  24.654  28.386  1.00  0.00     0.031 A 
ATOM     46  C   UNL A   1      43.403  30.689  31.866  1.00  0.00     0.031 A 
ATOM     47  C   UNL A   1      43.601  24.777  29.007  1.00  0.00     0.049 A 
ATOM     48  C   UNL A   1      44.422  29.582  31.833  1.00  0.00     0.074 A 
ATOM     49  C   UNL A   1      44.656  23.884  28.993  1.00  0.00     0.029 A 
ATOM     50  N   UNL A   1      44.006  25.869  29.763  1.00  0.00    -0.354 N 
ATOM     51  N   UNL A   1      44.371  28.429  31.211  1.00  0.00    -0.248 NA
ATOM     52  C   UNL A   1      45.663  29.807  32.586  1.00  0.00     0.031 C 
ATOM     53  C   UNL A   1      45.675  24.407  29.795  1.00  0.00     0.029 A 
ATOM     54  C   UNL A   1      45.283  25.656  30.250  1.00  0.00     0.049 A 
ATOM     55  H   UNL A   1      43.463  26.673  29.930  1.00  0.00     0.167 HD
ATOM     56  C   UNL A   1      45.581  27.801  31.473  1.00  0.00     0.074 A 
ATOM     57  C   UNL A   1      46.353  28.712  32.296  1.00  0.00     0.031 C 
ATOM     58  C   UNL A   1      46.022  26.583  31.070  1.00  0.00     0.031 A 
BRANCH  45  59
ATOM     59  C   UNL A   1      41.976  23.383  27.654  1.00  0.00    -0.014 A 
ATOM     60  C   UNL A   1      42.445  23.138  26.354  1.00  0.00     0.009 A 
ATOM     61  C   UNL A   1      41.191  22.407  28.286  1.00  0.00     0.009 A 
ATOM     62  C   UNL A   1      42.106  21.955  25.690  1.00  0.00     0.001 A 
ATOM     63  C   UNL A   1      40.880  21.213  27.633  1.00  0.00     0.001 A 
ATOM     64  C   UNL A   1      41.330  20.992  26.332  1.00  0.00     0.000 A 
ENDBRANCH  45  59
BRANCH  46  65
ATOM     65  C   UNL A   1      43.657  31.949  32.613  1.00  0.00    -0.014 A 
ATOM     66  C   UNL A   1      44.179  33.077  31.963  1.00  0.00     0.009 A 
ATOM     67  C   UNL A   1      43.384  32.025  33.988  1.00  0.00     0.009 A 
ATOM     68  C   UNL A   1      44.446  34.247  32.680  1.00  0.00     0.001 A 
ATOM     69  C   UNL A   1      43.623  33.205  34.695  1.00  0.00     0.001 A 
ATOM     70  C   UNL A   1      44.163  34.311  34.043  1.00  0.00     0.000 A 
ENDBRANCH  46  65
BRANCH  58  71
ATOM     71  C   UNL A   1      47.412  26.188  31.484  1.00  0.00    -0.014 A 
ATOM     72  C   UNL A   1      47.661  25.584  32.725  1.00  0.00     0.009 A 
ATOM     73  C   UNL A   1      48.479  26.388  30.595  1.00  0.00     0.009 A 
ATOM     74  C   UNL A   1      48.961  25.221  33.082  1.00  0.00     0.001 A 
ATOM     75  C   UNL A   1      49.771  25.994  30.941  1.00  0.00     0.001 A 
ATOM     76  C   UNL A   1      50.013  25.421  32.189  1.00  0.00     0.000 A 
ENDBRANCH  58  71
ENDBRANCH  32  33
ENDBRANCH  25  27
ENDBRANCH  24  25
ENDBRANCH  23  24
ENDBRANCH  22  23
ENDBRANCH  21  22
ENDBRANCH   1  21
TORSDOF 18
ENDMDL
MODEL 2
REMARK VINA RESULT:      -8.2      5.314     10.390
REMARK SMILES CC[C@@](C)(C(=O)OCCOCCOC(=O)c1ccc(-c2c3nc(c(-c4ccccc4)c4ccc([nH]4)c(-c4ccccc4)c4nc(c(-c5ccccc5)c5ccc2[nH]5)C=C4)C=C3)cc1)n1nnnc1Cc1cccs1
REMARK SMILES IDX 9 1 8 2 7 3 5 4 6 5 3 6 4 7 2 8 1 9 64 10 65 11 68 12 66 13
REMARK SMILES IDX 67 14 69 15 70 16 71 17 74 18 72 19 73 20 10 21 11 22 12 23
REMARK SMILES IDX 13 24 14 25 15 26 16 27 17 28 63 29 18 30 62 31 19 32 20 33
REMARK SMILES IDX 21 34 56 35 22 36 61 37 55 38 57 39 23 40 60 41 54 42 53 43
REMARK SMILES IDX 24 45 46 46 31 47 45 48 32 49 35 50 44 51 58 52 33 53 34 54
REMARK SMILES IDX 43 56 59 57 36 58 25 59 26 60 30 61 27 62 29 63 28 64 47 65
REMARK SMILES IDX 48 66 52 67 49 68 51 69 50 70 37 71 38 72 42 73 39 74 41 75
REMARK SMILES IDX 40 76
REMARK H PARENT 57 44 35 55
REMARK Flexibility Score: inf
ROOT
ATOM      1  C   UNL A   1      37.550  23.563  25.876  1.00  0.00     0.202 C 
ENDROOT
BRANCH   1   2
ATOM      2  C   UNL A   1      36.659  23.656  24.632  1.00  0.00     0.261 C 
BRANCH   2   3
ATOM      3  O   UNL A   1      35.247  23.554  24.946  1.00  0.00    -0.461 OA
BRANCH   3   4
ATOM      4  C   UNL A   1      34.416  23.228  23.911  1.00  0.00     0.334 C 
ATOM      5  O   UNL A   1      34.571  23.643  22.768  1.00  0.00    -0.249 OA
BRANCH   4   6
ATOM      6  C   UNL A   1      33.242  22.333  24.340  1.00  0.00     0.160 C 
ATOM      7  C   UNL A   1      33.895  20.936  24.505  1.00  0.00     0.050 C 
BRANCH   6   8
ATOM      8  C   UNL A   1      32.119  22.244  23.269  1.00  0.00     0.039 C 
ATOM      9  C   UNL A   1      32.123  20.960  22.442  1.00  0.00     0.007 C 
ENDBRANCH   6   8
BRANCH   6  10
ATOM     10  N   UNL A   1      32.697  22.850  25.607  1.00  0.00    -0.212 N 
ATOM     11  N   UNL A   1      32.829  22.134  26.742  1.00  0.00    -0.044 NA
ATOM     12  C   UNL A   1      31.956  23.987  25.890  1.00  0.00     0.157 A 
ATOM     13  N   UNL A   1      32.215  22.828  27.686  1.00  0.00    -0.024 NA
ATOM     14  N   UNL A   1      31.674  23.974  27.178  1.00  0.00    -0.113 NA
BRANCH  12  15
ATOM     15  C   UNL A   1      31.662  25.090  24.942  1.00  0.00     0.125 C 
BRANCH  15  16
ATOM     16  C   UNL A   1      32.342  26.406  25.197  1.00  0.00     0.012 A 
ATOM     17  C   UNL A   1      33.658  26.635  25.551  1.00  0.00     0.016 A 
ATOM     18  S   UNL A   1      31.515  27.884  24.918  1.00  0.00    -0.148 S 
ATOM     19  C   UNL A   1      34.011  28.015  25.473  1.00  0.00     0.012 A 
ATOM     20  C   UNL A   1      32.944  28.800  25.098  1.00  0.00     0.065 A 
ENDBRANCH  15  16
ENDBRANCH  12  15
ENDBRANCH   6  10
ENDBRANCH   4   6
ENDBRANCH   3   4
ENDBRANCH   2   3
ENDBRANCH   1   2
BRANCH   1  21
ATOM     21  O   UNL A   1      38.426  22.442  25.997  1.00  0.00    -0.374 OA
BRANCH  21  22
ATOM     22  C   UNL A   1      38.153  21.301  25.201  1.00  0.00     0.202 C 
BRANCH  22  23
ATOM     23  C   UNL A   1      39.031  20.052  25.384  1.00  0.00     0.261 C 
BRANCH  23  24
ATOM     24  O   UNL A   1      39.854  20.080  26.542  1.00  0.00    -0.460 OA
BRANCH  24  25
ATOM     25  C   UNL A   1      41.159  19.865  26.266  1.00  0.00     0.338 C 
ATOM     26  O   UNL A   1      41.665  18.902  25.709  1.00  0.00    -0.246 OA
BRANCH  25  27
ATOM     27  C   UNL A   1      41.891  21.086  26.602  1.00  0.00     0.060 A 
ATOM     28  C   UNL A   1      42.067  21.377  27.959  1.00  0.00     0.016 A 
ATOM     29  C   UNL A   1      42.385  21.929  25.603  1.00  0.00     0.016 A 
ATOM     30  C   UNL A   1      42.696  22.556  28.326  1.00  0.00     0.010 A 
ATOM     31  C   UNL A   1      43.012  23.115  25.974  1.00  0.00     0.010 A 
ATOM     32  C   UNL A   1      43.131  23.446  27.334  1.00  0.00    -0.014 A 
BRANCH  32  33
ATOM     33  C   UNL A   1      43.553  24.802  27.732  1.00  0.00     0.031 A 
ATOM     34  C   UNL A   1      42.492  25.815  28.045  1.00  0.00     0.074 A 
ATOM     35  C   UNL A   1      44.858  25.092  27.856  1.00  0.00     0.049 A 
ATOM     36  N   UNL A   1      42.623  27.058  28.429  1.00  0.00    -0.248 NA
ATOM     37  C   UNL A   1      41.093  25.370  27.907  1.00  0.00     0.031 C 
ATOM     38  C   UNL A   1      45.958  24.156  27.617  1.00  0.00     0.029 A 
ATOM     39  N   UNL A   1      45.477  26.256  28.223  1.00  0.00    -0.354 N 
ATOM     40  C   UNL A   1      41.328  27.543  28.570  1.00  0.00     0.074 A 
ATOM     41  C   UNL A   1      40.426  26.476  28.199  1.00  0.00     0.031 C 
ATOM     42  C   UNL A   1      47.122  24.784  27.854  1.00  0.00     0.029 A 
ATOM     43  C   UNL A   1      46.847  26.171  28.223  1.00  0.00     0.049 A 
ATOM     44  H   UNL A   1      44.987  27.074  28.464  1.00  0.00     0.167 HD
ATOM     45  C   UNL A   1      40.931  28.770  28.977  1.00  0.00     0.031 A 
ATOM     46  C   UNL A   1      47.768  27.116  28.481  1.00  0.00     0.031 A 
ATOM     47  C   UNL A   1      41.843  29.824  29.328  1.00  0.00     0.049 A 
ATOM     48  C   UNL A   1      47.299  28.494  28.861  1.00  0.00     0.074 A 
ATOM     49  C   UNL A   1      41.557  31.104  29.766  1.00  0.00     0.029 A 
ATOM     50  N   UNL A   1      43.226  29.717  29.269  1.00  0.00    -0.354 N 
ATOM     51  N   UNL A   1      46.074  28.936  29.019  1.00  0.00    -0.248 NA
ATOM     52  C   UNL A   1      48.340  29.501  29.105  1.00  0.00     0.031 C 
ATOM     53  C   UNL A   1      42.767  31.791  29.912  1.00  0.00     0.029 A 
ATOM     54  C   UNL A   1      43.807  30.919  29.631  1.00  0.00     0.049 A 
ATOM     55  H   UNL A   1      43.719  28.906  29.006  1.00  0.00     0.167 HD
ATOM     56  C   UNL A   1      46.196  30.263  29.410  1.00  0.00     0.074 A 
ATOM     57  C   UNL A   1      47.616  30.547  29.481  1.00  0.00     0.031 C 
ATOM     58  C   UNL A   1      45.225  31.169  29.689  1.00  0.00     0.031 A 
BRANCH  45  59
ATOM     59  C   UNL A   1      39.453  29.045  29.017  1.00  0.00    -0.014 A 
ATOM     60  C   UNL A   1      38.693  28.814  30.175  1.00  0.00     0.009 A 
ATOM     61  C   UNL A   1      38.815  29.562  27.879  1.00  0.00     0.009 A 
ATOM     62  C   UNL A   1      37.318  29.064  30.180  1.00  0.00     0.001 A 
ATOM     63  C   UNL A   1      37.447  29.840  27.898  1.00  0.00     0.001 A 
ATOM     64  C   UNL A   1      36.698  29.582  29.045  1.00  0.00     0.000 A 
ENDBRANCH  45  59
BRANCH  46  65
ATOM     65  C   UNL A   1      49.216  26.797  28.377  1.00  0.00    -0.014 A 
ATOM     66  C   UNL A   1      49.883  26.875  27.145  1.00  0.00     0.009 A 
ATOM     67  C   UNL A   1      49.940  26.403  29.514  1.00  0.00     0.009 A 
ATOM     68  C   UNL A   1      51.237  26.541  27.050  1.00  0.00     0.001 A 
ATOM     69  C   UNL A   1      51.299  26.098  29.421  1.00  0.00     0.001 A 
ATOM     70  C   UNL A   1      51.944  26.158  28.188  1.00  0.00     0.000 A 
ENDBRANCH  46  65
BRANCH  58  71
ATOM     71  C   UNL A   1      45.672  32.534  30.131  1.00  0.00    -0.014 A 
ATOM     72  C   UNL A   1      45.924  32.820  31.481  1.00  0.00     0.009 A 
ATOM     73  C   UNL A   1      45.882  33.535  29.170  1.00  0.00     0.009 A 
ATOM     74  C   UNL A   1      46.343  34.095  31.863  1.00  0.00     0.001 A 
ATOM     75  C   UNL A   1      46.333  34.799  29.551  1.00  0.00     0.001 A 
ATOM     76  C   UNL A   1      46.552  35.081  30.899  1.00  0.00     0.000 A 
ENDBRANCH  58  71
ENDBRANCH  32  33
ENDBRANCH  25  27
ENDBRANCH  24  25
ENDBRANCH  23  24
ENDBRANCH  22  23
ENDBRANCH  21  22
ENDBRANCH   1  21
TORSDOF 18
ENDMDL
MODEL 3
REMARK VINA RESULT:      -8.1      5.873     10.782
REMARK SMILES CC[C@@](C)(C(=O)OCCOCCOC(=O)c1ccc(-c2c3nc(c(-c4ccccc4)c4ccc([nH]4)c(-c4ccccc4)c4nc(c(-c5ccccc5)c5ccc2[nH]5)C=C4)C=C3)cc1)n1nnnc1Cc1cccs1
REMARK SMILES IDX 9 1 8 2 7 3 5 4 6 5 3 6 4 7 2 8 1 9 64 10 65 11 68 12 66 13
REMARK SMILES IDX 67 14 69 15 70 16 71 17 74 18 72 19 73 20 10 21 11 22 12 23
REMARK SMILES IDX 13 24 14 25 15 26 16 27 17 28 63 29 18 30 62 31 19 32 20 33
REMARK SMILES IDX 21 34 56 35 22 36 61 37 55 38 57 39 23 40 60 41 54 42 53 43
REMARK SMILES IDX 24 45 46 46 31 47 45 48 32 49 35 50 44 51 58 52 33 53 34 54
REMARK SMILES IDX 43 56 59 57 36 58 25 59 26 60 30 61 27 62 29 63 28 64 47 65
REMARK SMILES IDX 48 66 52 67 49 68 51 69 50 70 37 71 38 72 42 73 39 74 41 75
REMARK SMILES IDX 40 76
REMARK H PARENT 57 44 35 55
REMARK Flexibility Score: inf
ROOT
ATOM      1  C   UNL A   1      37.248  23.009  24.743  1.00  0.00     0.202 C 
ENDROOT
BRANCH   1   2
ATOM      2  C   UNL A   1      36.700  23.626  26.035  1.00  0.00     0.261 C 
BRANCH   2   3
ATOM      3  O   UNL A   1      35.297  23.975  25.937  1.00  0.00    -0.461 OA
BRANCH   3   4
ATOM      4  C   UNL A   1      34.403  23.006  26.295  1.00  0.00     0.334 C 
ATOM      5  O   UNL A   1      34.723  21.979  26.883  1.00  0.00    -0.249 OA
BRANCH   4   6
ATOM      6  C   UNL A   1      32.967  23.312  25.837  1.00  0.00     0.160 C 
ATOM      7  C   UNL A   1      32.859  24.852  25.994  1.00  0.00     0.050 C 
BRANCH   6   8
ATOM      8  C   UNL A   1      31.885  22.636  26.726  1.00  0.00     0.039 C 
ATOM      9  C   UNL A   1      30.474  23.195  26.554  1.00  0.00     0.007 C 
ENDBRANCH   6   8
BRANCH   6  10
ATOM     10  N   UNL A   1      32.818  22.880  24.437  1.00  0.00    -0.212 N 
ATOM     11  N   UNL A   1      32.962  23.772  23.435  1.00  0.00    -0.044 NA
ATOM     12  C   UNL A   1      32.467  21.657  23.888  1.00  0.00     0.157 A 
ATOM     13  N   UNL A   1      32.736  23.104  22.317  1.00  0.00    -0.024 NA
ATOM     14  N   UNL A   1      32.432  21.799  22.577  1.00  0.00    -0.113 NA
BRANCH  12  15
ATOM     15  C   UNL A   1      32.305  20.385  24.634  1.00  0.00     0.125 C 
BRANCH  15  16
ATOM     16  C   UNL A   1      33.144  19.221  24.185  1.00  0.00     0.012 A 
ATOM     17  C   UNL A   1      34.390  18.838  24.644  1.00  0.00     0.016 A 
ATOM     18  S   UNL A   1      32.525  18.080  23.061  1.00  0.00    -0.148 S 
ATOM     19  C   UNL A   1      34.775  17.551  24.162  1.00  0.00     0.012 A 
ATOM     20  C   UNL A   1      33.828  17.009  23.322  1.00  0.00     0.065 A 
ENDBRANCH  15  16
ENDBRANCH  12  15
ENDBRANCH   6  10
ENDBRANCH   4   6
ENDBRANCH   3   4
ENDBRANCH   2   3
ENDBRANCH   1   2
BRANCH   1  21
ATOM     21  O   UNL A   1      37.690  21.651  24.777  1.00  0.00    -0.374 OA
BRANCH  21  22
ATOM     22  C   UNL A   1      38.741  21.322  25.669  1.00  0.00     0.202 C 
BRANCH  22  23
ATOM     23  C   UNL A   1      39.383  19.929  25.563  1.00  0.00     0.261 C 
BRANCH  23  24
ATOM     24  O   UNL A   1      40.297  19.623  26.607  1.00  0.00    -0.460 OA
BRANCH  24  25
ATOM     25  C   UNL A   1      41.583  19.608  26.193  1.00  0.00     0.338 C 
ATOM     26  O   UNL A   1      42.150  18.760  25.519  1.00  0.00    -0.246 OA
BRANCH  25  27
ATOM     27  C   UNL A   1      42.180  20.895  26.549  1.00  0.00     0.060 A 
ATOM     28  C   UNL A   1      42.203  21.239  27.904  1.00  0.00     0.016 A 
ATOM     29  C   UNL A   1      42.698  21.746  25.569  1.00  0.00     0.016 A 
ATOM     30  C   UNL A   1      42.699  22.477  28.283  1.00  0.00     0.010 A 
ATOM     31  C   UNL A   1      43.191  22.990  25.951  1.00  0.00     0.010 A 
ATOM     32  C   UNL A   1      43.153  23.370  27.303  1.00  0.00    -0.014 A 
BRANCH  32  33
ATOM     33  C   UNL A   1      43.426  24.767  27.687  1.00  0.00     0.031 A 
ATOM     34  C   UNL A   1      44.851  25.237  27.702  1.00  0.00     0.074 A 
ATOM     35  C   UNL A   1      42.410  25.601  27.965  1.00  0.00     0.049 A 
ATOM     36  N   UNL A   1      45.329  26.419  27.989  1.00  0.00    -0.248 NA
ATOM     37  C   UNL A   1      45.877  24.241  27.344  1.00  0.00     0.031 C 
ATOM     38  C   UNL A   1      40.992  25.243  27.930  1.00  0.00     0.029 A 
ATOM     39  N   UNL A   1      42.419  26.922  28.321  1.00  0.00    -0.354 N 
ATOM     40  C   UNL A   1      46.708  26.306  27.855  1.00  0.00     0.074 A 
ATOM     41  C   UNL A   1      46.994  24.936  27.495  1.00  0.00     0.031 C 
ATOM     42  C   UNL A   1      40.263  26.327  28.246  1.00  0.00     0.029 A 
ATOM     43  C   UNL A   1      41.166  27.438  28.538  1.00  0.00     0.049 A 
ATOM     44  H   UNL A   1      43.244  27.451  28.412  1.00  0.00     0.167 HD
ATOM     45  C   UNL A   1      47.648  27.265  28.016  1.00  0.00     0.031 A 
ATOM     46  C   UNL A   1      40.800  28.668  28.942  1.00  0.00     0.031 A 
ATOM     47  C   UNL A   1      47.346  28.620  28.390  1.00  0.00     0.049 A 
ATOM     48  C   UNL A   1      41.872  29.695  29.184  1.00  0.00     0.074 A 
ATOM     49  C   UNL A   1      48.213  29.681  28.569  1.00  0.00     0.029 A 
ATOM     50  N   UNL A   1      46.068  29.094  28.650  1.00  0.00    -0.354 N 
ATOM     51  N   UNL A   1      43.170  29.588  29.028  1.00  0.00    -0.248 NA
ATOM     52  C   UNL A   1      41.427  31.015  29.650  1.00  0.00     0.031 C 
ATOM     53  C   UNL A   1      47.466  30.782  29.000  1.00  0.00     0.029 A 
ATOM     54  C   UNL A   1      46.127  30.426  29.021  1.00  0.00     0.049 A 
ATOM     55  H   UNL A   1      45.242  28.562  28.581  1.00  0.00     0.167 HD
ATOM     56  C   UNL A   1      43.695  30.833  29.348  1.00  0.00     0.074 A 
ATOM     57  C   UNL A   1      42.571  31.683  29.690  1.00  0.00     0.031 C 
ATOM     58  C   UNL A   1      44.988  31.243  29.358  1.00  0.00     0.031 A 
BRANCH  45  59
ATOM     59  C   UNL A   1      49.087  26.866  27.834  1.00  0.00    -0.014 A 
ATOM     60  C   UNL A   1      49.711  26.915  26.578  1.00  0.00     0.009 A 
ATOM     61  C   UNL A   1      49.835  26.450  28.947  1.00  0.00     0.009 A 
ATOM     62  C   UNL A   1      51.045  26.524  26.435  1.00  0.00     0.001 A 
ATOM     63  C   UNL A   1      51.176  26.089  28.806  1.00  0.00     0.001 A 
ATOM     64  C   UNL A   1      51.777  26.117  27.548  1.00  0.00     0.000 A 
ENDBRANCH  45  59
BRANCH  46  65
ATOM     65  C   UNL A   1      39.363  28.989  29.151  1.00  0.00    -0.014 A 
ATOM     66  C   UNL A   1      38.598  29.561  28.125  1.00  0.00     0.009 A 
ATOM     67  C   UNL A   1      38.751  28.729  30.388  1.00  0.00     0.009 A 
ATOM     68  C   UNL A   1      37.257  29.891  28.341  1.00  0.00     0.001 A 
ATOM     69  C   UNL A   1      37.403  29.031  30.591  1.00  0.00     0.001 A 
ATOM     70  C   UNL A   1      36.660  29.621  29.571  1.00  0.00     0.000 A 
ENDBRANCH  46  65
BRANCH  58  71
ATOM     71  C   UNL A   1      45.247  32.680  29.714  1.00  0.00    -0.014 A 
ATOM     72  C   UNL A   1      45.244  33.687  28.737  1.00  0.00     0.009 A 
ATOM     73  C   UNL A   1      45.455  33.031  31.056  1.00  0.00     0.009 A 
ATOM     74  C   UNL A   1      45.481  35.016  29.096  1.00  0.00     0.001 A 
ATOM     75  C   UNL A   1      45.659  34.363  31.416  1.00  0.00     0.001 A 
ATOM     76  C   UNL A   1      45.683  35.353  30.434  1.00  0.00     0.000 A 
ENDBRANCH  58  71
ENDBRANCH  32  33
ENDBRANCH  25  27
ENDBRANCH  24  25
ENDBRANCH  23  24
ENDBRANCH  22  23
ENDBRANCH  21  22
ENDBRANCH   1  21
TORSDOF 18
ENDMDL
