MODEL 1
REMARK VINA RESULT:     -10.6      0.000      0.000
REMARK SMILES O=C(C[C@H](C(=O)OCCOCCOC(=O)c1ccc(-c2c3nc(c(-c4ccccc4)c4ccc([nH]4)c(-c4ccccc4)c4nc(c(-c5ccccc5)c5ccc2[nH]5)C=C4)C=C3)cc1)c1ccccc1)Nc1ccc(Cl)cc1Cl
REMARK SMILES IDX 9 1 8 2 7 3 5 4 6 5 4 6 3 7 2 8 1 9 70 10 71 12 72 13 77 14
REMARK SMILES IDX 73 15 76 16 78 17 74 18 75 19 64 20 65 21 69 22 66 23 68 24
REMARK SMILES IDX 67 25 10 26 11 27 12 28 13 29 14 30 15 31 16 32 17 33 63 34
REMARK SMILES IDX 18 35 62 36 19 37 20 38 21 39 56 40 22 41 61 42 55 43 57 44
REMARK SMILES IDX 23 45 60 46 54 47 53 48 24 50 46 51 31 52 45 53 32 54 35 55
REMARK SMILES IDX 44 56 58 57 33 58 34 59 43 61 59 62 36 63 25 64 26 65 30 66
REMARK SMILES IDX 27 67 29 68 28 69 47 70 48 71 52 72 49 73 51 74 50 75 37 76
REMARK SMILES IDX 38 77 42 78 39 79 41 80 40 81
REMARK H PARENT 70 11 57 49 35 60
REMARK Flexibility Score: inf
ROOT
ATOM      1  C   UNL A   1      36.718  22.628  23.566  1.00  0.00     0.202 C 
ENDROOT
BRANCH   1   2
ATOM      2  C   UNL A   1      35.369  23.350  23.619  1.00  0.00     0.261 C 
BRANCH   2   3
ATOM      3  O   UNL A   1      34.289  22.396  23.658  1.00  0.00    -0.463 OA
BRANCH   3   4
ATOM      4  C   UNL A   1      33.876  22.016  24.904  1.00  0.00     0.314 C 
ATOM      5  O   UNL A   1      34.404  22.357  25.952  1.00  0.00    -0.252 OA
BRANCH   4   6
ATOM      6  C   UNL A   1      32.628  21.138  24.791  1.00  0.00     0.138 C 
BRANCH   6   7
ATOM      7  C   UNL A   1      31.489  21.889  24.095  1.00  0.00     0.120 C 
BRANCH   7   8
ATOM      8  C   UNL A   1      31.315  23.298  24.638  1.00  0.00     0.225 C 
ATOM      9  O   UNL A   1      30.701  23.487  25.681  1.00  0.00    -0.275 OA
ATOM     10  N   UNL A   1      31.795  24.286  23.791  1.00  0.00    -0.325 N 
ATOM     11  H   UNL A   1      32.267  23.999  22.976  1.00  0.00     0.169 HD
BRANCH  10  12
ATOM     12  C   UNL A   1      31.653  25.678  24.015  1.00  0.00     0.060 A 
ATOM     13  C   UNL A   1      30.683  26.320  23.227  1.00  0.00     0.029 A 
ATOM     14  C   UNL A   1      32.386  26.445  24.939  1.00  0.00     0.066 A 
ATOM     15  C   UNL A   1      30.386  27.672  23.417  1.00  0.00     0.023 A 
ATOM     16  C   UNL A   1      32.079  27.798  25.134  1.00  0.00     0.043 A 
ATOM     17  Cl  UNL A   1      33.826  25.879  25.717  1.00  0.00    -0.082 Cl
ATOM     18  C   UNL A   1      31.074  28.400  24.383  1.00  0.00     0.042 A 
ATOM     19  Cl  UNL A   1      30.705  30.062  24.621  1.00  0.00    -0.084 Cl
ENDBRANCH  10  12
ENDBRANCH   7   8
ENDBRANCH   6   7
BRANCH   6  20
ATOM     20  C   UNL A   1      32.903  19.769  24.173  1.00  0.00    -0.033 A 
ATOM     21  C   UNL A   1      33.893  18.939  24.724  1.00  0.00     0.004 A 
ATOM     22  C   UNL A   1      32.207  19.304  23.044  1.00  0.00     0.004 A 
ATOM     23  C   UNL A   1      34.206  17.709  24.137  1.00  0.00     0.000 A 
ATOM     24  C   UNL A   1      32.531  18.084  22.449  1.00  0.00     0.000 A 
ATOM     25  C   UNL A   1      33.535  17.288  22.992  1.00  0.00     0.000 A 
ENDBRANCH   6  20
ENDBRANCH   4   6
ENDBRANCH   3   4
ENDBRANCH   2   3
ENDBRANCH   1   2
BRANCH   1  26
ATOM     26  O   UNL A   1      37.425  22.504  24.800  1.00  0.00    -0.374 OA
BRANCH  26  27
ATOM     27  C   UNL A   1      37.979  21.232  25.129  1.00  0.00     0.202 C 
BRANCH  27  28
ATOM     28  C   UNL A   1      39.390  21.230  25.724  1.00  0.00     0.261 C 
BRANCH  28  29
ATOM     29  O   UNL A   1      39.848  19.909  26.060  1.00  0.00    -0.460 OA
BRANCH  29  30
ATOM     30  C   UNL A   1      41.195  19.777  26.089  1.00  0.00     0.338 C 
ATOM     31  O   UNL A   1      41.865  18.851  25.648  1.00  0.00    -0.246 OA
BRANCH  30  32
ATOM     32  C   UNL A   1      41.814  21.006  26.609  1.00  0.00     0.060 A 
ATOM     33  C   UNL A   1      41.688  21.261  27.981  1.00  0.00     0.016 A 
ATOM     34  C   UNL A   1      42.414  21.940  25.763  1.00  0.00     0.016 A 
ATOM     35  C   UNL A   1      42.119  22.475  28.506  1.00  0.00     0.010 A 
ATOM     36  C   UNL A   1      42.835  23.166  26.290  1.00  0.00     0.010 A 
ATOM     37  C   UNL A   1      42.655  23.451  27.656  1.00  0.00    -0.014 A 
BRANCH  37  38
ATOM     38  C   UNL A   1      42.877  24.821  28.176  1.00  0.00     0.031 A 
ATOM     39  C   UNL A   1      44.273  25.242  28.545  1.00  0.00     0.074 A 
ATOM     40  C   UNL A   1      41.858  25.693  28.274  1.00  0.00     0.049 A 
ATOM     41  N   UNL A   1      44.695  26.389  29.013  1.00  0.00    -0.248 NA
ATOM     42  C   UNL A   1      45.334  24.240  28.357  1.00  0.00     0.031 C 
ATOM     43  C   UNL A   1      40.472  25.421  27.897  1.00  0.00     0.029 A 
ATOM     44  N   UNL A   1      41.841  26.990  28.718  1.00  0.00    -0.354 N 
ATOM     45  C   UNL A   1      46.068  26.247  29.174  1.00  0.00     0.074 A 
ATOM     46  C   UNL A   1      46.403  24.895  28.783  1.00  0.00     0.031 C 
ATOM     47  C   UNL A   1      39.736  26.522  28.127  1.00  0.00     0.029 A 
ATOM     48  C   UNL A   1      40.595  27.563  28.691  1.00  0.00     0.049 A 
ATOM     49  H   UNL A   1      42.647  27.465  29.025  1.00  0.00     0.167 HD
ATOM     50  C   UNL A   1      46.970  27.162  29.601  1.00  0.00     0.031 A 
ATOM     51  C   UNL A   1      40.191  28.784  29.089  1.00  0.00     0.031 A 
ATOM     52  C   UNL A   1      46.638  28.501  30.006  1.00  0.00     0.049 A 
ATOM     53  C   UNL A   1      41.199  29.754  29.643  1.00  0.00     0.074 A 
ATOM     54  C   UNL A   1      47.482  29.501  30.456  1.00  0.00     0.029 A 
ATOM     55  N   UNL A   1      45.355  29.023  30.019  1.00  0.00    -0.354 N 
ATOM     56  N   UNL A   1      42.495  29.610  29.780  1.00  0.00    -0.248 NA
ATOM     57  C   UNL A   1      40.687  31.057  30.093  1.00  0.00     0.031 C 
ATOM     58  C   UNL A   1      46.702  30.615  30.785  1.00  0.00     0.029 A 
ATOM     59  C   UNL A   1      45.379  30.324  30.490  1.00  0.00     0.049 A 
ATOM     60  H   UNL A   1      44.545  28.541  29.734  1.00  0.00     0.167 HD
ATOM     61  C   UNL A   1      42.956  30.811  30.306  1.00  0.00     0.074 A 
ATOM     62  C   UNL A   1      41.803  31.674  30.453  1.00  0.00     0.031 C 
ATOM     63  C   UNL A   1      44.222  31.168  30.635  1.00  0.00     0.031 A 
BRANCH  50  64
ATOM     64  C   UNL A   1      48.406  26.726  29.680  1.00  0.00    -0.014 A 
ATOM     65  C   UNL A   1      48.912  26.099  30.829  1.00  0.00     0.009 A 
ATOM     66  C   UNL A   1      49.255  26.922  28.581  1.00  0.00     0.009 A 
ATOM     67  C   UNL A   1      50.251  25.706  30.887  1.00  0.00     0.001 A 
ATOM     68  C   UNL A   1      50.587  26.506  28.633  1.00  0.00     0.001 A 
ATOM     69  C   UNL A   1      51.086  25.906  29.789  1.00  0.00     0.000 A 
ENDBRANCH  50  64
BRANCH  51  70
ATOM     70  C   UNL A   1      38.757  29.158  28.991  1.00  0.00    -0.014 A 
ATOM     71  C   UNL A   1      38.242  29.714  27.811  1.00  0.00     0.009 A 
ATOM     72  C   UNL A   1      37.899  28.972  30.087  1.00  0.00     0.009 A 
ATOM     73  C   UNL A   1      36.898  30.092  27.736  1.00  0.00     0.001 A 
ATOM     74  C   UNL A   1      36.552  29.327  30.000  1.00  0.00     0.001 A 
ATOM     75  C   UNL A   1      36.055  29.894  28.828  1.00  0.00     0.000 A 
ENDBRANCH  51  70
BRANCH  63  76
ATOM     76  C   UNL A   1      44.430  32.560  31.156  1.00  0.00    -0.014 A 
ATOM     77  C   UNL A   1      44.401  32.834  32.533  1.00  0.00     0.009 A 
ATOM     78  C   UNL A   1      44.706  33.605  30.260  1.00  0.00     0.009 A 
ATOM     79  C   UNL A   1      44.613  34.134  32.998  1.00  0.00     0.001 A 
ATOM     80  C   UNL A   1      44.942  34.898  30.730  1.00  0.00     0.001 A 
ATOM     81  C   UNL A   1      44.887  35.162  32.098  1.00  0.00     0.000 A 
ENDBRANCH  63  76
ENDBRANCH  37  38
ENDBRANCH  30  32
ENDBRANCH  29  30
ENDBRANCH  28  29
ENDBRANCH  27  28
ENDBRANCH  26  27
ENDBRANCH   1  26
TORSDOF 18
ENDMDL
MODEL 2
REMARK VINA RESULT:     -10.5      3.652      8.850
REMARK SMILES O=C(C[C@H](C(=O)OCCOCCOC(=O)c1ccc(-c2c3nc(c(-c4ccccc4)c4ccc([nH]4)c(-c4ccccc4)c4nc(c(-c5ccccc5)c5ccc2[nH]5)C=C4)C=C3)cc1)c1ccccc1)Nc1ccc(Cl)cc1Cl
REMARK SMILES IDX 9 1 8 2 7 3 5 4 6 5 4 6 3 7 2 8 1 9 70 10 71 12 72 13 77 14
REMARK SMILES IDX 73 15 76 16 78 17 74 18 75 19 64 20 65 21 69 22 66 23 68 24
REMARK SMILES IDX 67 25 10 26 11 27 12 28 13 29 14 30 15 31 16 32 17 33 63 34
REMARK SMILES IDX 18 35 62 36 19 37 20 38 21 39 56 40 22 41 61 42 55 43 57 44
REMARK SMILES IDX 23 45 60 46 54 47 53 48 24 50 46 51 31 52 45 53 32 54 35 55
REMARK SMILES IDX 44 56 58 57 33 58 34 59 43 61 59 62 36 63 25 64 26 65 30 66
REMARK SMILES IDX 27 67 29 68 28 69 47 70 48 71 52 72 49 73 51 74 50 75 37 76
REMARK SMILES IDX 38 77 42 78 39 79 41 80 40 81
REMARK H PARENT 70 11 57 49 35 60
REMARK Flexibility Score: inf
ROOT
ATOM      1  C   UNL A   1      32.947  29.075  26.057  1.00  0.00     0.202 C 
ENDROOT
BRANCH   1   2
ATOM      2  C   UNL A   1      32.606  27.585  26.155  1.00  0.00     0.261 C 
BRANCH   2   3
ATOM      3  O   UNL A   1      31.210  27.407  26.465  1.00  0.00    -0.463 OA
BRANCH   3   4
ATOM      4  C   UNL A   1      30.590  26.364  25.837  1.00  0.00     0.314 C 
ATOM      5  O   UNL A   1      30.029  25.438  26.404  1.00  0.00    -0.252 OA
BRANCH   4   6
ATOM      6  C   UNL A   1      30.665  26.552  24.320  1.00  0.00     0.138 C 
BRANCH   6   7
ATOM      7  C   UNL A   1      30.540  25.209  23.594  1.00  0.00     0.120 C 
BRANCH   7   8
ATOM      8  C   UNL A   1      31.862  24.462  23.539  1.00  0.00     0.225 C 
ATOM      9  O   UNL A   1      32.560  24.512  22.533  1.00  0.00    -0.275 OA
ATOM     10  N   UNL A   1      32.099  23.664  24.648  1.00  0.00    -0.325 N 
ATOM     11  H   UNL A   1      31.453  23.711  25.390  1.00  0.00     0.169 HD
BRANCH  10  12
ATOM     12  C   UNL A   1      33.201  22.785  24.789  1.00  0.00     0.060 A 
ATOM     13  C   UNL A   1      32.894  21.415  24.724  1.00  0.00     0.029 A 
ATOM     14  C   UNL A   1      34.542  23.166  24.981  1.00  0.00     0.066 A 
ATOM     15  C   UNL A   1      33.905  20.452  24.759  1.00  0.00     0.023 A 
ATOM     16  C   UNL A   1      35.554  22.198  25.005  1.00  0.00     0.043 A 
ATOM     17  Cl  UNL A   1      35.023  24.770  25.421  1.00  0.00    -0.082 Cl
ATOM     18  C   UNL A   1      35.233  20.850  24.881  1.00  0.00     0.042 A 
ATOM     19  Cl  UNL A   1      36.478  19.665  24.918  1.00  0.00    -0.084 Cl
ENDBRANCH  10  12
ENDBRANCH   7   8
ENDBRANCH   6   7
BRANCH   6  20
ATOM     20  C   UNL A   1      29.697  27.608  23.790  1.00  0.00    -0.033 A 
ATOM     21  C   UNL A   1      30.165  28.900  23.499  1.00  0.00     0.004 A 
ATOM     22  C   UNL A   1      28.332  27.341  23.597  1.00  0.00     0.004 A 
ATOM     23  C   UNL A   1      29.284  29.901  23.073  1.00  0.00     0.000 A 
ATOM     24  C   UNL A   1      27.452  28.345  23.188  1.00  0.00     0.000 A 
ATOM     25  C   UNL A   1      27.927  29.627  22.932  1.00  0.00     0.000 A 
ENDBRANCH   6  20
ENDBRANCH   4   6
ENDBRANCH   3   4
ENDBRANCH   2   3
ENDBRANCH   1   2
BRANCH   1  26
ATOM     26  O   UNL A   1      32.149  29.965  26.836  1.00  0.00    -0.374 OA
BRANCH  26  27
ATOM     27  C   UNL A   1      32.110  31.337  26.453  1.00  0.00     0.202 C 
BRANCH  27  28
ATOM     28  C   UNL A   1      31.844  32.355  27.566  1.00  0.00     0.261 C 
BRANCH  28  29
ATOM     29  O   UNL A   1      32.308  33.675  27.233  1.00  0.00    -0.460 OA
BRANCH  29  30
ATOM     30  C   UNL A   1      32.997  34.289  28.223  1.00  0.00     0.338 C 
ATOM     31  O   UNL A   1      32.656  35.268  28.875  1.00  0.00    -0.246 OA
BRANCH  30  32
ATOM     32  C   UNL A   1      34.210  33.523  28.548  1.00  0.00     0.060 A 
ATOM     33  C   UNL A   1      34.139  32.626  29.621  1.00  0.00     0.016 A 
ATOM     34  C   UNL A   1      35.419  33.749  27.887  1.00  0.00     0.016 A 
ATOM     35  C   UNL A   1      35.290  31.987  30.072  1.00  0.00     0.010 A 
ATOM     36  C   UNL A   1      36.578  33.115  28.349  1.00  0.00     0.010 A 
ATOM     37  C   UNL A   1      36.522  32.261  29.466  1.00  0.00    -0.014 A 
BRANCH  37  38
ATOM     38  C   UNL A   1      37.767  31.774  30.105  1.00  0.00     0.031 A 
ATOM     39  C   UNL A   1      38.410  30.517  29.584  1.00  0.00     0.074 A 
ATOM     40  C   UNL A   1      38.343  32.465  31.104  1.00  0.00     0.049 A 
ATOM     41  N   UNL A   1      39.499  29.915  29.989  1.00  0.00    -0.248 NA
ATOM     42  C   UNL A   1      37.738  29.854  28.455  1.00  0.00     0.031 C 
ATOM     43  C   UNL A   1      37.847  33.723  31.660  1.00  0.00     0.029 A 
ATOM     44  N   UNL A   1      39.480  32.202  31.823  1.00  0.00    -0.354 N 
ATOM     45  C   UNL A   1      39.644  28.806  29.165  1.00  0.00     0.074 A 
ATOM     46  C   UNL A   1      38.516  28.801  28.259  1.00  0.00     0.031 C 
ATOM     47  C   UNL A   1      38.679  34.124  32.636  1.00  0.00     0.029 A 
ATOM     48  C   UNL A   1      39.747  33.138  32.791  1.00  0.00     0.049 A 
ATOM     49  H   UNL A   1      40.052  31.417  31.659  1.00  0.00     0.167 HD
ATOM     50  C   UNL A   1      40.630  27.879  29.157  1.00  0.00     0.031 A 
ATOM     51  C   UNL A   1      40.733  33.184  33.707  1.00  0.00     0.031 A 
ATOM     52  C   UNL A   1      41.743  27.872  30.067  1.00  0.00     0.049 A 
ATOM     53  C   UNL A   1      41.770  32.095  33.735  1.00  0.00     0.074 A 
ATOM     54  C   UNL A   1      42.794  26.974  30.140  1.00  0.00     0.029 A 
ATOM     55  N   UNL A   1      41.945  28.806  31.071  1.00  0.00    -0.354 N 
ATOM     56  N   UNL A   1      41.900  31.057  32.944  1.00  0.00    -0.248 NA
ATOM     57  C   UNL A   1      42.798  32.186  34.782  1.00  0.00     0.031 C 
ATOM     58  C   UNL A   1      43.607  27.338  31.218  1.00  0.00     0.029 A 
ATOM     59  C   UNL A   1      43.090  28.494  31.783  1.00  0.00     0.049 A 
ATOM     60  H   UNL A   1      41.361  29.578  31.250  1.00  0.00     0.167 HD
ATOM     61  C   UNL A   1      43.038  30.389  33.380  1.00  0.00     0.074 A 
ATOM     62  C   UNL A   1      43.565  31.143  34.498  1.00  0.00     0.031 C 
ATOM     63  C   UNL A   1      43.598  29.253  32.896  1.00  0.00     0.031 A 
BRANCH  50  64
ATOM     64  C   UNL A   1      40.527  26.774  28.145  1.00  0.00    -0.014 A 
ATOM     65  C   UNL A   1      41.113  26.893  26.876  1.00  0.00     0.009 A 
ATOM     66  C   UNL A   1      39.856  25.587  28.476  1.00  0.00     0.009 A 
ATOM     67  C   UNL A   1      41.001  25.857  25.946  1.00  0.00     0.001 A 
ATOM     68  C   UNL A   1      39.767  24.543  27.553  1.00  0.00     0.001 A 
ATOM     69  C   UNL A   1      40.332  24.682  26.286  1.00  0.00     0.000 A 
ENDBRANCH  50  64
BRANCH  51  70
ATOM     70  C   UNL A   1      40.782  34.300  34.685  1.00  0.00    -0.014 A 
ATOM     71  C   UNL A   1      41.480  35.481  34.390  1.00  0.00     0.009 A 
ATOM     72  C   UNL A   1      40.140  34.182  35.929  1.00  0.00     0.009 A 
ATOM     73  C   UNL A   1      41.547  36.515  35.328  1.00  0.00     0.001 A 
ATOM     74  C   UNL A   1      40.188  35.226  36.853  1.00  0.00     0.001 A 
ATOM     75  C   UNL A   1      40.899  36.388  36.556  1.00  0.00     0.000 A 
ENDBRANCH  51  70
BRANCH  63  76
ATOM     76  C   UNL A   1      44.861  28.775  33.552  1.00  0.00    -0.014 A 
ATOM     77  C   UNL A   1      44.827  27.855  34.612  1.00  0.00     0.009 A 
ATOM     78  C   UNL A   1      46.105  29.217  33.072  1.00  0.00     0.009 A 
ATOM     79  C   UNL A   1      46.015  27.412  35.198  1.00  0.00     0.001 A 
ATOM     80  C   UNL A   1      47.290  28.751  33.643  1.00  0.00     0.001 A 
ATOM     81  C   UNL A   1      47.243  27.856  34.710  1.00  0.00     0.000 A 
ENDBRANCH  63  76
ENDBRANCH  37  38
ENDBRANCH  30  32
ENDBRANCH  29  30
ENDBRANCH  28  29
ENDBRANCH  27  28
ENDBRANCH  26  27
ENDBRANCH   1  26
TORSDOF 18
ENDMDL
MODEL 3
REMARK VINA RESULT:     -10.5      1.387      6.043
REMARK SMILES O=C(C[C@H](C(=O)OCCOCCOC(=O)c1ccc(-c2c3nc(c(-c4ccccc4)c4ccc([nH]4)c(-c4ccccc4)c4nc(c(-c5ccccc5)c5ccc2[nH]5)C=C4)C=C3)cc1)c1ccccc1)Nc1ccc(Cl)cc1Cl
REMARK SMILES IDX 9 1 8 2 7 3 5 4 6 5 4 6 3 7 2 8 1 9 70 10 71 12 72 13 77 14
REMARK SMILES IDX 73 15 76 16 78 17 74 18 75 19 64 20 65 21 69 22 66 23 68 24
REMARK SMILES IDX 67 25 10 26 11 27 12 28 13 29 14 30 15 31 16 32 17 33 63 34
REMARK SMILES IDX 18 35 62 36 19 37 20 38 21 39 56 40 22 41 61 42 55 43 57 44
REMARK SMILES IDX 23 45 60 46 54 47 53 48 24 50 46 51 31 52 45 53 32 54 35 55
REMARK SMILES IDX 44 56 58 57 33 58 34 59 43 61 59 62 36 63 25 64 26 65 30 66
REMARK SMILES IDX 27 67 29 68 28 69 47 70 48 71 52 72 49 73 51 74 50 75 37 76
REMARK SMILES IDX 38 77 42 78 39 79 41 80 40 81
REMARK H PARENT 70 11 57 49 35 60
REMARK Flexibility Score: inf
ROOT
ATOM      1  C   UNL A   1      37.704  23.459  26.225  1.00  0.00     0.202 C 
ENDROOT
BRANCH   1   2
ATOM      2  C   UNL A   1      36.758  24.043  25.172  1.00  0.00     0.261 C 
BRANCH   2   3
ATOM      3  O   UNL A   1      35.517  23.312  25.150  1.00  0.00    -0.463 OA
BRANCH   3   4
ATOM      4  C   UNL A   1      35.027  23.008  23.911  1.00  0.00     0.314 C 
ATOM      5  O   UNL A   1      35.690  22.969  22.885  1.00  0.00    -0.252 OA
BRANCH   4   6
ATOM      6  C   UNL A   1      33.534  22.683  24.009  1.00  0.00     0.138 C 
BRANCH   6   7
ATOM      7  C   UNL A   1      32.725  23.516  23.010  1.00  0.00     0.120 C 
BRANCH   7   8
ATOM      8  C   UNL A   1      32.763  24.999  23.336  1.00  0.00     0.225 C 
ATOM      9  O   UNL A   1      33.290  25.789  22.563  1.00  0.00    -0.275 OA
ATOM     10  N   UNL A   1      32.274  25.306  24.597  1.00  0.00    -0.325 N 
ATOM     11  H   UNL A   1      31.880  24.574  25.125  1.00  0.00     0.169 HD
BRANCH  10  12
ATOM     12  C   UNL A   1      32.304  26.597  25.181  1.00  0.00     0.060 A 
ATOM     13  C   UNL A   1      33.322  26.809  26.128  1.00  0.00     0.029 A 
ATOM     14  C   UNL A   1      31.421  27.654  24.894  1.00  0.00     0.066 A 
ATOM     15  C   UNL A   1      33.511  28.066  26.706  1.00  0.00     0.023 A 
ATOM     16  C   UNL A   1      31.620  28.916  25.469  1.00  0.00     0.043 A 
ATOM     17  Cl  UNL A   1      29.935  27.446  24.030  1.00  0.00    -0.082 Cl
ATOM     18  C   UNL A   1      32.670  29.119  26.359  1.00  0.00     0.042 A 
ATOM     19  Cl  UNL A   1      32.906  30.668  27.067  1.00  0.00    -0.084 Cl
ENDBRANCH  10  12
ENDBRANCH   7   8
ENDBRANCH   6   7
BRANCH   6  20
ATOM     20  C   UNL A   1      33.231  21.189  23.922  1.00  0.00    -0.033 A 
ATOM     21  C   UNL A   1      33.903  20.289  24.766  1.00  0.00     0.004 A 
ATOM     22  C   UNL A   1      32.306  20.665  23.003  1.00  0.00     0.004 A 
ATOM     23  C   UNL A   1      33.688  18.911  24.660  1.00  0.00     0.000 A 
ATOM     24  C   UNL A   1      32.106  19.289  22.887  1.00  0.00     0.000 A 
ATOM     25  C   UNL A   1      32.801  18.410  23.712  1.00  0.00     0.000 A 
ENDBRANCH   6  20
ENDBRANCH   4   6
ENDBRANCH   3   4
ENDBRANCH   2   3
ENDBRANCH   1   2
BRANCH   1  26
ATOM     26  O   UNL A   1      38.638  22.480  25.772  1.00  0.00    -0.374 OA
BRANCH  26  27
ATOM     27  C   UNL A   1      38.131  21.214  25.355  1.00  0.00     0.202 C 
BRANCH  27  28
ATOM     28  C   UNL A   1      39.129  20.054  25.313  1.00  0.00     0.261 C 
BRANCH  28  29
ATOM     29  O   UNL A   1      39.926  19.964  26.508  1.00  0.00    -0.460 OA
BRANCH  29  30
ATOM     30  C   UNL A   1      41.241  19.739  26.284  1.00  0.00     0.338 C 
ATOM     31  O   UNL A   1      41.755  18.751  25.773  1.00  0.00    -0.246 OA
BRANCH  30  32
ATOM     32  C   UNL A   1      42.025  20.940  26.612  1.00  0.00     0.060 A 
ATOM     33  C   UNL A   1      42.210  21.241  27.967  1.00  0.00     0.016 A 
ATOM     34  C   UNL A   1      42.481  21.811  25.620  1.00  0.00     0.016 A 
ATOM     35  C   UNL A   1      42.810  22.440  28.339  1.00  0.00     0.010 A 
ATOM     36  C   UNL A   1      43.073  23.022  25.995  1.00  0.00     0.010 A 
ATOM     37  C   UNL A   1      43.205  23.356  27.356  1.00  0.00    -0.014 A 
BRANCH  37  38
ATOM     38  C   UNL A   1      43.608  24.723  27.761  1.00  0.00     0.031 A 
ATOM     39  C   UNL A   1      42.540  25.742  28.050  1.00  0.00     0.074 A 
ATOM     40  C   UNL A   1      44.906  25.040  27.915  1.00  0.00     0.049 A 
ATOM     41  N   UNL A   1      42.666  26.991  28.423  1.00  0.00    -0.248 NA
ATOM     42  C   UNL A   1      41.146  25.293  27.906  1.00  0.00     0.031 C 
ATOM     43  C   UNL A   1      46.030  24.126  27.717  1.00  0.00     0.029 A 
ATOM     44  N   UNL A   1      45.492  26.224  28.280  1.00  0.00    -0.354 N 
ATOM     45  C   UNL A   1      41.371  27.475  28.558  1.00  0.00     0.074 A 
ATOM     46  C   UNL A   1      40.475  26.397  28.199  1.00  0.00     0.031 C 
ATOM     47  C   UNL A   1      47.174  24.786  27.965  1.00  0.00     0.029 A 
ATOM     48  C   UNL A   1      46.863  26.172  28.310  1.00  0.00     0.049 A 
ATOM     49  H   UNL A   1      44.978  27.034  28.501  1.00  0.00     0.167 HD
ATOM     50  C   UNL A   1      40.963  28.704  28.953  1.00  0.00     0.031 A 
ATOM     51  C   UNL A   1      47.764  27.137  28.573  1.00  0.00     0.031 A 
ATOM     52  C   UNL A   1      41.850  29.783  29.294  1.00  0.00     0.049 A 
ATOM     53  C   UNL A   1      47.286  28.520  28.925  1.00  0.00     0.074 A 
ATOM     54  C   UNL A   1      41.532  31.065  29.704  1.00  0.00     0.029 A 
ATOM     55  N   UNL A   1      43.233  29.705  29.255  1.00  0.00    -0.354 N 
ATOM     56  N   UNL A   1      46.059  28.961  29.059  1.00  0.00    -0.248 NA
ATOM     57  C   UNL A   1      48.321  29.537  29.166  1.00  0.00     0.031 C 
ATOM     58  C   UNL A   1      42.724  31.779  29.869  1.00  0.00     0.029 A 
ATOM     59  C   UNL A   1      43.784  30.924  29.611  1.00  0.00     0.049 A 
ATOM     60  H   UNL A   1      43.748  28.902  29.011  1.00  0.00     0.167 HD
ATOM     61  C   UNL A   1      46.175  30.297  29.424  1.00  0.00     0.074 A 
ATOM     62  C   UNL A   1      47.591  30.591  29.501  1.00  0.00     0.031 C 
ATOM     63  C   UNL A   1      45.195  31.200  29.678  1.00  0.00     0.031 A 
BRANCH  50  64
ATOM     64  C   UNL A   1      39.482  28.952  29.005  1.00  0.00    -0.014 A 
ATOM     65  C   UNL A   1      38.744  28.705  30.173  1.00  0.00     0.009 A 
ATOM     66  C   UNL A   1      38.821  29.464  27.878  1.00  0.00     0.009 A 
ATOM     67  C   UNL A   1      37.367  28.937  30.200  1.00  0.00     0.001 A 
ATOM     68  C   UNL A   1      37.449  29.718  27.916  1.00  0.00     0.001 A 
ATOM     69  C   UNL A   1      36.722  29.446  29.074  1.00  0.00     0.000 A 
ENDBRANCH  50  64
BRANCH  51  70
ATOM     70  C   UNL A   1      49.216  26.835  28.502  1.00  0.00    -0.014 A 
ATOM     71  C   UNL A   1      49.937  26.512  29.661  1.00  0.00     0.009 A 
ATOM     72  C   UNL A   1      49.891  26.880  27.271  1.00  0.00     0.009 A 
ATOM     73  C   UNL A   1      51.309  26.257  29.592  1.00  0.00     0.001 A 
ATOM     74  C   UNL A   1      51.256  26.601  27.202  1.00  0.00     0.001 A 
ATOM     75  C   UNL A   1      51.966  26.298  28.362  1.00  0.00     0.000 A 
ENDBRANCH  51  70
BRANCH  63  76
ATOM     76  C   UNL A   1      45.621  32.579  30.091  1.00  0.00    -0.014 A 
ATOM     77  C   UNL A   1      45.830  33.591  29.141  1.00  0.00     0.009 A 
ATOM     78  C   UNL A   1      45.770  32.882  31.454  1.00  0.00     0.009 A 
ATOM     79  C   UNL A   1      46.211  34.872  29.548  1.00  0.00     0.001 A 
ATOM     80  C   UNL A   1      46.126  34.170  31.858  1.00  0.00     0.001 A 
ATOM     81  C   UNL A   1      46.353  35.161  30.904  1.00  0.00     0.000 A 
ENDBRANCH  63  76
ENDBRANCH  37  38
ENDBRANCH  30  32
ENDBRANCH  29  30
ENDBRANCH  28  29
ENDBRANCH  27  28
ENDBRANCH  26  27
ENDBRANCH   1  26
TORSDOF 18
ENDMDL
