MODEL 1
REMARK VINA RESULT:      -9.9      0.000      0.000
REMARK SMILES O=C(OCCOCCOC(=O)[C@H]1CCO[C@H]1Cc1ccccc1)c1ccc(-c2c3nc(c(-c4ccccc4)c4ccc([nH]4)c(-c4ccccc4)c4nc(c(-c5ccccc5)c5ccc2[nH]5)C=C4)C=C3)cc1
REMARK SMILES IDX 6 1 5 2 4 3 3 4 2 5 1 6 24 7 25 8 71 9 26 10 70 11 27 12
REMARK SMILES IDX 28 13 29 14 64 15 30 16 69 17 63 18 65 19 31 20 68 21 62 22
REMARK SMILES IDX 61 23 32 25 54 26 39 27 53 28 40 29 43 30 52 31 66 32 41 33
REMARK SMILES IDX 42 34 51 36 67 37 44 38 33 39 34 40 38 41 35 42 37 43 36 44
REMARK SMILES IDX 55 45 56 46 60 47 57 48 59 49 58 50 45 51 46 52 50 53 47 54
REMARK SMILES IDX 49 55 48 56 7 57 8 58 9 59 10 60 11 61 12 62 13 63 16 64
REMARK SMILES IDX 14 65 15 66 17 67 18 68 19 69 23 70 20 71 22 72 21 73
REMARK H PARENT 65 24 43 35
REMARK Flexibility Score: inf
ROOT
ATOM      1  O   UNL A   1      33.453  30.503  27.109  1.00  0.00    -0.374 OA
ENDROOT
BRANCH   1   2
ATOM      2  C   UNL A   1      32.138  30.709  26.591  1.00  0.00     0.202 C 
BRANCH   2   3
ATOM      3  C   UNL A   1      31.495  32.065  26.915  1.00  0.00     0.261 C 
BRANCH   3   4
ATOM      4  O   UNL A   1      32.454  33.134  26.869  1.00  0.00    -0.460 OA
BRANCH   4   5
ATOM      5  C   UNL A   1      32.976  33.841  27.901  1.00  0.00     0.338 C 
ATOM      6  O   UNL A   1      32.376  34.842  28.290  1.00  0.00    -0.246 OA
BRANCH   5   7
ATOM      7  C   UNL A   1      34.257  33.485  28.590  1.00  0.00     0.060 A 
ATOM      8  C   UNL A   1      35.521  33.906  28.184  1.00  0.00     0.016 A 
ATOM      9  C   UNL A   1      34.175  32.720  29.767  1.00  0.00     0.016 A 
ATOM     10  C   UNL A   1      36.661  33.604  28.882  1.00  0.00     0.010 A 
ATOM     11  C   UNL A   1      35.331  32.361  30.470  1.00  0.00     0.010 A 
ATOM     12  C   UNL A   1      36.574  32.793  29.999  1.00  0.00    -0.014 A 
BRANCH  12  13
ATOM     13  C   UNL A   1      37.858  32.222  30.403  1.00  0.00     0.031 A 
ATOM     14  C   UNL A   1      38.450  32.749  31.674  1.00  0.00     0.074 A 
ATOM     15  C   UNL A   1      38.261  31.072  29.839  1.00  0.00     0.049 A 
ATOM     16  N   UNL A   1      39.518  32.363  32.313  1.00  0.00    -0.248 NA
ATOM     17  C   UNL A   1      37.706  33.836  32.344  1.00  0.00     0.031 C 
ATOM     18  C   UNL A   1      37.555  30.367  28.760  1.00  0.00     0.029 A 
ATOM     19  N   UNL A   1      39.306  30.252  30.146  1.00  0.00    -0.354 N 
ATOM     20  C   UNL A   1      39.600  33.191  33.426  1.00  0.00     0.074 A 
ATOM     21  C   UNL A   1      38.468  34.083  33.396  1.00  0.00     0.031 C 
ATOM     22  C   UNL A   1      38.182  29.205  28.515  1.00  0.00     0.029 A 
ATOM     23  C   UNL A   1      39.365  29.127  29.363  1.00  0.00     0.049 A 
ATOM     24  H   UNL A   1      39.954  30.448  30.861  1.00  0.00     0.167 HD
ATOM     25  C   UNL A   1      40.565  33.211  34.370  1.00  0.00     0.031 A 
ATOM     26  C   UNL A   1      40.306  28.169  29.325  1.00  0.00     0.031 A 
ATOM     27  C   UNL A   1      41.681  32.308  34.344  1.00  0.00     0.049 A 
ATOM     28  C   UNL A   1      41.455  28.307  30.286  1.00  0.00     0.074 A 
ATOM     29  C   UNL A   1      42.792  32.275  35.159  1.00  0.00     0.029 A 
ATOM     30  N   UNL A   1      41.811  31.268  33.430  1.00  0.00    -0.354 N 
ATOM     31  N   UNL A   1      41.618  29.175  31.259  1.00  0.00    -0.248 NA
ATOM     32  C   UNL A   1      42.554  27.350  30.137  1.00  0.00     0.031 C 
ATOM     33  C   UNL A   1      43.627  31.250  34.697  1.00  0.00     0.029 A 
ATOM     34  C   UNL A   1      42.998  30.598  33.644  1.00  0.00     0.049 A 
ATOM     35  H   UNL A   1      41.153  31.043  32.734  1.00  0.00     0.167 HD
ATOM     36  C   UNL A   1      42.825  28.853  31.859  1.00  0.00     0.074 A 
ATOM     37  C   UNL A   1      43.341  27.698  31.146  1.00  0.00     0.031 C 
ATOM     38  C   UNL A   1      43.456  29.448  32.903  1.00  0.00     0.031 A 
BRANCH  25  39
ATOM     39  C   UNL A   1      40.504  34.325  35.375  1.00  0.00    -0.014 A 
ATOM     40  C   UNL A   1      41.102  35.575  35.150  1.00  0.00     0.009 A 
ATOM     41  C   UNL A   1      39.903  34.078  36.620  1.00  0.00     0.009 A 
ATOM     42  C   UNL A   1      41.140  36.535  36.167  1.00  0.00     0.001 A 
ATOM     43  C   UNL A   1      39.916  35.047  37.623  1.00  0.00     0.001 A 
ATOM     44  C   UNL A   1      40.547  36.269  37.401  1.00  0.00     0.000 A 
ENDBRANCH  25  39
BRANCH  26  45
ATOM     45  C   UNL A   1      40.247  27.081  28.315  1.00  0.00    -0.014 A 
ATOM     46  C   UNL A   1      39.606  25.864  28.592  1.00  0.00     0.009 A 
ATOM     47  C   UNL A   1      40.857  27.247  27.059  1.00  0.00     0.009 A 
ATOM     48  C   UNL A   1      39.603  24.833  27.646  1.00  0.00     0.001 A 
ATOM     49  C   UNL A   1      40.825  26.228  26.105  1.00  0.00     0.001 A 
ATOM     50  C   UNL A   1      40.208  25.017  26.404  1.00  0.00     0.000 A 
ENDBRANCH  26  45
BRANCH  38  51
ATOM     51  C   UNL A   1      44.733  28.811  33.362  1.00  0.00    -0.014 A 
ATOM     52  C   UNL A   1      45.981  29.241  32.887  1.00  0.00     0.009 A 
ATOM     53  C   UNL A   1      44.677  27.790  34.324  1.00  0.00     0.009 A 
ATOM     54  C   UNL A   1      47.150  28.629  33.340  1.00  0.00     0.001 A 
ATOM     55  C   UNL A   1      45.847  27.208  34.801  1.00  0.00     0.001 A 
ATOM     56  C   UNL A   1      47.081  27.619  34.300  1.00  0.00     0.000 A 
ENDBRANCH  38  51
ENDBRANCH  12  13
ENDBRANCH   5   7
ENDBRANCH   4   5
ENDBRANCH   3   4
ENDBRANCH   2   3
ENDBRANCH   1   2
BRANCH   1  57
ATOM     57  C   UNL A   1      34.059  29.240  26.824  1.00  0.00     0.202 C 
BRANCH  57  58
ATOM     58  C   UNL A   1      33.063  28.337  26.124  1.00  0.00     0.261 C 
BRANCH  58  59
ATOM     59  O   UNL A   1      33.751  27.717  25.033  1.00  0.00    -0.463 OA
BRANCH  59  60
ATOM     60  C   UNL A   1      33.424  28.161  23.791  1.00  0.00     0.311 C 
ATOM     61  O   UNL A   1      33.360  29.331  23.429  1.00  0.00    -0.252 OA
BRANCH  60  62
ATOM     62  C   UNL A   1      33.190  27.006  22.860  1.00  0.00     0.131 C 
ATOM     63  C   UNL A   1      33.671  25.666  23.386  1.00  0.00     0.046 C 
ATOM     64  C   UNL A   1      31.736  26.751  22.475  1.00  0.00     0.136 C 
ATOM     65  C   UNL A   1      32.883  24.696  22.553  1.00  0.00     0.161 C 
ATOM     66  O   UNL A   1      31.616  25.312  22.309  1.00  0.00    -0.377 OA
BRANCH  64  67
ATOM     67  C   UNL A   1      30.618  27.188  23.452  1.00  0.00     0.068 C 
BRANCH  67  68
ATOM     68  C   UNL A   1      29.633  28.223  22.952  1.00  0.00    -0.045 A 
ATOM     69  C   UNL A   1      28.263  28.059  23.219  1.00  0.00     0.004 A 
ATOM     70  C   UNL A   1      30.049  29.390  22.297  1.00  0.00     0.004 A 
ATOM     71  C   UNL A   1      27.352  29.081  22.944  1.00  0.00     0.000 A 
ATOM     72  C   UNL A   1      29.137  30.411  22.023  1.00  0.00     0.000 A 
ATOM     73  C   UNL A   1      27.794  30.267  22.365  1.00  0.00     0.000 A 
ENDBRANCH  67  68
ENDBRANCH  64  67
ENDBRANCH  60  62
ENDBRANCH  59  60
ENDBRANCH  58  59
ENDBRANCH  57  58
ENDBRANCH   1  57
TORSDOF 16
ENDMDL
MODEL 2
REMARK VINA RESULT:      -9.6      4.710      9.679
REMARK SMILES O=C(OCCOCCOC(=O)[C@H]1CCO[C@H]1Cc1ccccc1)c1ccc(-c2c3nc(c(-c4ccccc4)c4ccc([nH]4)c(-c4ccccc4)c4nc(c(-c5ccccc5)c5ccc2[nH]5)C=C4)C=C3)cc1
REMARK SMILES IDX 6 1 5 2 4 3 3 4 2 5 1 6 24 7 25 8 71 9 26 10 70 11 27 12
REMARK SMILES IDX 28 13 29 14 64 15 30 16 69 17 63 18 65 19 31 20 68 21 62 22
REMARK SMILES IDX 61 23 32 25 54 26 39 27 53 28 40 29 43 30 52 31 66 32 41 33
REMARK SMILES IDX 42 34 51 36 67 37 44 38 33 39 34 40 38 41 35 42 37 43 36 44
REMARK SMILES IDX 55 45 56 46 60 47 57 48 59 49 58 50 45 51 46 52 50 53 47 54
REMARK SMILES IDX 49 55 48 56 7 57 8 58 9 59 10 60 11 61 12 62 13 63 16 64
REMARK SMILES IDX 14 65 15 66 17 67 18 68 19 69 23 70 20 71 22 72 21 73
REMARK H PARENT 65 24 43 35
REMARK Flexibility Score: inf
ROOT
ATOM      1  O   UNL A   1      37.099  21.712  24.581  1.00  0.00    -0.374 OA
ENDROOT
BRANCH   1   2
ATOM      2  C   UNL A   1      37.288  20.412  25.140  1.00  0.00     0.202 C 
BRANCH   2   3
ATOM      3  C   UNL A   1      38.632  19.738  24.831  1.00  0.00     0.261 C 
BRANCH   3   4
ATOM      4  O   UNL A   1      39.444  19.603  26.009  1.00  0.00    -0.460 OA
BRANCH   4   5
ATOM      5  C   UNL A   1      40.775  19.823  26.143  1.00  0.00     0.338 C 
ATOM      6  O   UNL A   1      41.554  18.937  25.798  1.00  0.00    -0.246 OA
BRANCH   5   7
ATOM      7  C   UNL A   1      41.357  21.082  26.707  1.00  0.00     0.060 A 
ATOM      8  C   UNL A   1      41.592  21.312  28.060  1.00  0.00     0.016 A 
ATOM      9  C   UNL A   1      41.750  22.083  25.801  1.00  0.00     0.016 A 
ATOM     10  C   UNL A   1      42.184  22.457  28.524  1.00  0.00     0.010 A 
ATOM     11  C   UNL A   1      42.314  23.280  26.257  1.00  0.00     0.010 A 
ATOM     12  C   UNL A   1      42.503  23.463  27.630  1.00  0.00    -0.014 A 
BRANCH  12  13
ATOM     13  C   UNL A   1      42.739  24.756  28.270  1.00  0.00     0.031 A 
ATOM     14  C   UNL A   1      44.170  25.154  28.460  1.00  0.00     0.074 A 
ATOM     15  C   UNL A   1      41.727  25.637  28.341  1.00  0.00     0.049 A 
ATOM     16  N   UNL A   1      44.667  26.272  28.908  1.00  0.00    -0.248 NA
ATOM     17  C   UNL A   1      45.187  24.166  28.043  1.00  0.00     0.031 C 
ATOM     18  C   UNL A   1      40.348  25.376  27.906  1.00  0.00     0.029 A 
ATOM     19  N   UNL A   1      41.716  26.946  28.721  1.00  0.00    -0.354 N 
ATOM     20  C   UNL A   1      46.046  26.101  28.874  1.00  0.00     0.074 A 
ATOM     21  C   UNL A   1      46.314  24.789  28.341  1.00  0.00     0.031 C 
ATOM     22  C   UNL A   1      39.633  26.507  28.025  1.00  0.00     0.029 A 
ATOM     23  C   UNL A   1      40.482  27.536  28.612  1.00  0.00     0.049 A 
ATOM     24  H   UNL A   1      42.516  27.422  29.042  1.00  0.00     0.167 HD
ATOM     25  C   UNL A   1      46.995  26.969  29.286  1.00  0.00     0.031 A 
ATOM     26  C   UNL A   1      40.094  28.765  28.988  1.00  0.00     0.031 A 
ATOM     27  C   UNL A   1      46.671  28.260  29.823  1.00  0.00     0.049 A 
ATOM     28  C   UNL A   1      41.146  29.654  29.593  1.00  0.00     0.074 A 
ATOM     29  C   UNL A   1      47.506  29.204  30.383  1.00  0.00     0.029 A 
ATOM     30  N   UNL A   1      45.381  28.779  29.859  1.00  0.00    -0.354 N 
ATOM     31  N   UNL A   1      42.439  29.450  29.698  1.00  0.00    -0.248 NA
ATOM     32  C   UNL A   1      40.688  30.933  30.142  1.00  0.00     0.031 C 
ATOM     33  C   UNL A   1      46.709  30.270  30.817  1.00  0.00     0.029 A 
ATOM     34  C   UNL A   1      45.391  30.024  30.456  1.00  0.00     0.049 A 
ATOM     35  H   UNL A   1      44.580  28.326  29.511  1.00  0.00     0.167 HD
ATOM     36  C   UNL A   1      42.957  30.585  30.301  1.00  0.00     0.074 A 
ATOM     37  C   UNL A   1      41.834  31.479  30.521  1.00  0.00     0.031 C 
ATOM     38  C   UNL A   1      44.239  30.871  30.643  1.00  0.00     0.031 A 
BRANCH  25  39
ATOM     39  C   UNL A   1      48.410  26.466  29.300  1.00  0.00    -0.014 A 
ATOM     40  C   UNL A   1      48.970  25.826  30.417  1.00  0.00     0.009 A 
ATOM     41  C   UNL A   1      49.227  26.723  28.188  1.00  0.00     0.009 A 
ATOM     42  C   UNL A   1      50.329  25.498  30.437  1.00  0.00     0.001 A 
ATOM     43  C   UNL A   1      50.577  26.370  28.198  1.00  0.00     0.001 A 
ATOM     44  C   UNL A   1      51.131  25.770  29.328  1.00  0.00     0.000 A 
ENDBRANCH  25  39
BRANCH  26  45
ATOM     45  C   UNL A   1      38.670  29.179  28.889  1.00  0.00    -0.014 A 
ATOM     46  C   UNL A   1      37.782  28.997  29.960  1.00  0.00     0.009 A 
ATOM     47  C   UNL A   1      38.179  29.747  27.700  1.00  0.00     0.009 A 
ATOM     48  C   UNL A   1      36.434  29.347  29.830  1.00  0.00     0.001 A 
ATOM     49  C   UNL A   1      36.840  30.126  27.585  1.00  0.00     0.001 A 
ATOM     50  C   UNL A   1      35.965  29.914  28.646  1.00  0.00     0.000 A 
ENDBRANCH  26  45
BRANCH  38  51
ATOM     51  C   UNL A   1      44.485  32.230  31.227  1.00  0.00    -0.014 A 
ATOM     52  C   UNL A   1      44.456  32.451  32.612  1.00  0.00     0.009 A 
ATOM     53  C   UNL A   1      44.797  33.295  30.367  1.00  0.00     0.009 A 
ATOM     54  C   UNL A   1      44.695  33.727  33.122  1.00  0.00     0.001 A 
ATOM     55  C   UNL A   1      45.072  34.558  30.882  1.00  0.00     0.001 A 
ATOM     56  C   UNL A   1      45.009  34.776  32.257  1.00  0.00     0.000 A 
ENDBRANCH  38  51
ENDBRANCH  12  13
ENDBRANCH   5   7
ENDBRANCH   4   5
ENDBRANCH   3   4
ENDBRANCH   2   3
ENDBRANCH   1   2
BRANCH   1  57
ATOM     57  C   UNL A   1      37.338  22.820  25.451  1.00  0.00     0.202 C 
BRANCH  57  58
ATOM     58  C   UNL A   1      36.181  23.795  25.374  1.00  0.00     0.261 C 
BRANCH  58  59
ATOM     59  O   UNL A   1      35.116  23.131  24.686  1.00  0.00    -0.463 OA
BRANCH  59  60
ATOM     60  C   UNL A   1      33.971  22.946  25.394  1.00  0.00     0.311 C 
ATOM     61  O   UNL A   1      33.806  23.181  26.587  1.00  0.00    -0.252 OA
BRANCH  60  62
ATOM     62  C   UNL A   1      32.871  22.449  24.501  1.00  0.00     0.131 C 
ATOM     63  C   UNL A   1      33.085  22.724  23.025  1.00  0.00     0.046 C 
ATOM     64  C   UNL A   1      32.596  20.949  24.562  1.00  0.00     0.136 C 
ATOM     65  C   UNL A   1      32.172  21.723  22.378  1.00  0.00     0.161 C 
ATOM     66  O   UNL A   1      32.178  20.569  23.222  1.00  0.00    -0.377 OA
BRANCH  64  67
ATOM     67  C   UNL A   1      33.747  19.997  24.963  1.00  0.00     0.068 C 
BRANCH  67  68
ATOM     68  C   UNL A   1      33.486  18.510  24.837  1.00  0.00    -0.045 A 
ATOM     69  C   UNL A   1      34.150  17.774  23.842  1.00  0.00     0.004 A 
ATOM     70  C   UNL A   1      32.660  17.822  25.736  1.00  0.00     0.004 A 
ATOM     71  C   UNL A   1      34.083  16.379  23.818  1.00  0.00     0.000 A 
ATOM     72  C   UNL A   1      32.593  16.427  25.710  1.00  0.00     0.000 A 
ATOM     73  C   UNL A   1      33.321  15.705  24.767  1.00  0.00     0.000 A 
ENDBRANCH  67  68
ENDBRANCH  64  67
ENDBRANCH  60  62
ENDBRANCH  59  60
ENDBRANCH  58  59
ENDBRANCH  57  58
ENDBRANCH   1  57
TORSDOF 16
ENDMDL
MODEL 3
REMARK VINA RESULT:      -9.6      2.928      7.413
REMARK SMILES O=C(OCCOCCOC(=O)[C@H]1CCO[C@H]1Cc1ccccc1)c1ccc(-c2c3nc(c(-c4ccccc4)c4ccc([nH]4)c(-c4ccccc4)c4nc(c(-c5ccccc5)c5ccc2[nH]5)C=C4)C=C3)cc1
REMARK SMILES IDX 6 1 5 2 4 3 3 4 2 5 1 6 24 7 25 8 71 9 26 10 70 11 27 12
REMARK SMILES IDX 28 13 29 14 64 15 30 16 69 17 63 18 65 19 31 20 68 21 62 22
REMARK SMILES IDX 61 23 32 25 54 26 39 27 53 28 40 29 43 30 52 31 66 32 41 33
REMARK SMILES IDX 42 34 51 36 67 37 44 38 33 39 34 40 38 41 35 42 37 43 36 44
REMARK SMILES IDX 55 45 56 46 60 47 57 48 59 49 58 50 45 51 46 52 50 53 47 54
REMARK SMILES IDX 49 55 48 56 7 57 8 58 9 59 10 60 11 61 12 62 13 63 16 64
REMARK SMILES IDX 14 65 15 66 17 67 18 68 19 69 23 70 20 71 22 72 21 73
REMARK H PARENT 65 24 43 35
REMARK Flexibility Score: inf
ROOT
ATOM      1  O   UNL A   1      35.401  22.225  25.363  1.00  0.00    -0.374 OA
ENDROOT
BRANCH   1   2
ATOM      2  C   UNL A   1      36.436  21.529  24.667  1.00  0.00     0.202 C 
BRANCH   2   3
ATOM      3  C   UNL A   1      37.703  21.226  25.480  1.00  0.00     0.261 C 
BRANCH   3   4
ATOM      4  O   UNL A   1      38.605  22.345  25.497  1.00  0.00    -0.460 OA
BRANCH   4   5
ATOM      5  C   UNL A   1      39.485  22.701  26.464  1.00  0.00     0.338 C 
ATOM      6  O   UNL A   1      40.152  21.820  27.004  1.00  0.00    -0.246 OA
BRANCH   5   7
ATOM      7  C   UNL A   1      39.684  24.110  26.931  1.00  0.00     0.060 A 
ATOM      8  C   UNL A   1      40.287  25.117  26.182  1.00  0.00     0.016 A 
ATOM      9  C   UNL A   1      39.171  24.459  28.193  1.00  0.00     0.016 A 
ATOM     10  C   UNL A   1      40.392  26.409  26.627  1.00  0.00     0.010 A 
ATOM     11  C   UNL A   1      39.309  25.761  28.687  1.00  0.00     0.010 A 
ATOM     12  C   UNL A   1      39.946  26.723  27.898  1.00  0.00    -0.014 A 
BRANCH  12  13
ATOM     13  C   UNL A   1      40.472  27.992  28.400  1.00  0.00     0.031 A 
ATOM     14  C   UNL A   1      39.467  29.073  28.656  1.00  0.00     0.074 A 
ATOM     15  C   UNL A   1      41.714  28.021  28.911  1.00  0.00     0.049 A 
ATOM     16  N   UNL A   1      39.635  30.253  29.184  1.00  0.00    -0.248 NA
ATOM     17  C   UNL A   1      38.065  28.762  28.308  1.00  0.00     0.031 C 
ATOM     18  C   UNL A   1      42.647  26.888  28.927  1.00  0.00     0.029 A 
ATOM     19  N   UNL A   1      42.371  29.007  29.587  1.00  0.00    -0.354 N 
ATOM     20  C   UNL A   1      38.375  30.839  29.183  1.00  0.00     0.074 A 
ATOM     21  C   UNL A   1      37.446  29.886  28.629  1.00  0.00     0.031 C 
ATOM     22  C   UNL A   1      43.752  27.243  29.605  1.00  0.00     0.029 A 
ATOM     23  C   UNL A   1      43.628  28.641  29.998  1.00  0.00     0.049 A 
ATOM     24  H   UNL A   1      41.981  29.893  29.763  1.00  0.00     0.167 HD
ATOM     25  C   UNL A   1      38.044  32.083  29.589  1.00  0.00     0.031 A 
ATOM     26  C   UNL A   1      44.575  29.385  30.592  1.00  0.00     0.031 A 
ATOM     27  C   UNL A   1      39.013  32.999  30.121  1.00  0.00     0.049 A 
ATOM     28  C   UNL A   1      44.227  30.819  30.887  1.00  0.00     0.074 A 
ATOM     29  C   UNL A   1      38.859  34.324  30.469  1.00  0.00     0.029 A 
ATOM     30  N   UNL A   1      40.338  32.658  30.376  1.00  0.00    -0.354 N 
ATOM     31  N   UNL A   1      43.072  31.431  30.759  1.00  0.00    -0.248 NA
ATOM     32  C   UNL A   1      45.310  31.666  31.391  1.00  0.00     0.031 C 
ATOM     33  C   UNL A   1      40.110  34.803  30.878  1.00  0.00     0.029 A 
ATOM     34  C   UNL A   1      41.022  33.756  30.857  1.00  0.00     0.049 A 
ATOM     35  H   UNL A   1      40.728  31.766  30.235  1.00  0.00     0.167 HD
ATOM     36  C   UNL A   1      43.280  32.731  31.194  1.00  0.00     0.074 A 
ATOM     37  C   UNL A   1      44.671  32.808  31.603  1.00  0.00     0.031 C 
ATOM     38  C   UNL A   1      42.408  33.770  31.254  1.00  0.00     0.031 A 
BRANCH  25  39
ATOM     39  C   UNL A   1      36.636  32.530  29.318  1.00  0.00    -0.014 A 
ATOM     40  C   UNL A   1      36.247  33.092  28.092  1.00  0.00     0.009 A 
ATOM     41  C   UNL A   1      35.696  32.462  30.360  1.00  0.00     0.009 A 
ATOM     42  C   UNL A   1      34.961  33.620  27.932  1.00  0.00     0.001 A 
ATOM     43  C   UNL A   1      34.405  32.963  30.189  1.00  0.00     0.001 A 
ATOM     44  C   UNL A   1      34.043  33.555  28.981  1.00  0.00     0.000 A 
ENDBRANCH  25  39
BRANCH  26  45
ATOM     45  C   UNL A   1      45.928  28.829  30.856  1.00  0.00    -0.014 A 
ATOM     46  C   UNL A   1      46.932  28.860  29.878  1.00  0.00     0.009 A 
ATOM     47  C   UNL A   1      46.219  28.236  32.098  1.00  0.00     0.009 A 
ATOM     48  C   UNL A   1      48.184  28.287  30.128  1.00  0.00     0.001 A 
ATOM     49  C   UNL A   1      47.479  27.694  32.356  1.00  0.00     0.001 A 
ATOM     50  C   UNL A   1      48.457  27.708  31.367  1.00  0.00     0.000 A 
ENDBRANCH  26  45
BRANCH  38  51
ATOM     51  C   UNL A   1      42.932  35.046  31.842  1.00  0.00    -0.014 A 
ATOM     52  C   UNL A   1      43.580  36.007  31.053  1.00  0.00     0.009 A 
ATOM     53  C   UNL A   1      42.726  35.300  33.207  1.00  0.00     0.009 A 
ATOM     54  C   UNL A   1      44.050  37.186  31.633  1.00  0.00     0.001 A 
ATOM     55  C   UNL A   1      43.163  36.494  33.774  1.00  0.00     0.001 A 
ATOM     56  C   UNL A   1      43.835  37.430  32.990  1.00  0.00     0.000 A 
ENDBRANCH  38  51
ENDBRANCH  12  13
ENDBRANCH   5   7
ENDBRANCH   4   5
ENDBRANCH   3   4
ENDBRANCH   2   3
ENDBRANCH   1   2
BRANCH   1  57
ATOM     57  C   UNL A   1      34.616  21.454  26.275  1.00  0.00     0.202 C 
BRANCH  57  58
ATOM     58  C   UNL A   1      33.646  22.357  27.011  1.00  0.00     0.261 C 
BRANCH  58  59
ATOM     59  O   UNL A   1      32.452  22.421  26.224  1.00  0.00    -0.463 OA
BRANCH  59  60
ATOM     60  C   UNL A   1      31.748  23.581  26.301  1.00  0.00     0.311 C 
ATOM     61  O   UNL A   1      31.231  24.054  27.308  1.00  0.00    -0.252 OA
BRANCH  60  62
ATOM     62  C   UNL A   1      31.716  24.270  24.967  1.00  0.00     0.131 C 
ATOM     63  C   UNL A   1      30.498  25.145  24.739  1.00  0.00     0.046 C 
ATOM     64  C   UNL A   1      32.895  25.193  24.672  1.00  0.00     0.136 C 
ATOM     65  C   UNL A   1      30.963  26.057  23.640  1.00  0.00     0.161 C 
ATOM     66  O   UNL A   1      32.358  26.273  23.859  1.00  0.00    -0.377 OA
BRANCH  64  67
ATOM     67  C   UNL A   1      33.643  25.848  25.857  1.00  0.00     0.068 C 
BRANCH  67  68
ATOM     68  C   UNL A   1      33.240  27.260  26.229  1.00  0.00    -0.045 A 
ATOM     69  C   UNL A   1      32.029  27.476  26.908  1.00  0.00     0.004 A 
ATOM     70  C   UNL A   1      34.075  28.359  25.990  1.00  0.00     0.004 A 
ATOM     71  C   UNL A   1      31.718  28.732  27.435  1.00  0.00     0.000 A 
ATOM     72  C   UNL A   1      33.762  29.614  26.516  1.00  0.00     0.000 A 
ATOM     73  C   UNL A   1      32.596  29.796  27.257  1.00  0.00     0.000 A 
ENDBRANCH  67  68
ENDBRANCH  64  67
ENDBRANCH  60  62
ENDBRANCH  59  60
ENDBRANCH  58  59
ENDBRANCH  57  58
ENDBRANCH   1  57
TORSDOF 16
ENDMDL
