MODEL 1
REMARK VINA RESULT:     -10.8      0.000      0.000
REMARK SMILES Cn1ccnc1[C@@H]1[C@@H](C(=O)OCCOCCOC(=O)c2ccc(-c3c4nc(c(-c5ccccc5)c5ccc([nH]5)c(-c5ccccc5)c5nc(c(-c6ccccc6)c6ccc3[nH]6)C=C5)C=C4)cc2)CC(=O)N1CCc1ccccc1F
REMARK SMILES IDX 13 1 12 2 11 3 9 4 10 5 8 6 7 7 71 8 68 9 69 10 70 11 6 12
REMARK SMILES IDX 1 13 2 14 3 15 4 16 5 17 72 18 73 19 74 20 75 21 79 22 76 23
REMARK SMILES IDX 78 24 80 25 77 26 14 27 15 28 16 29 17 30 18 31 19 32 20 33
REMARK SMILES IDX 21 34 67 35 22 36 66 37 23 38 24 39 25 40 60 41 26 42 65 43
REMARK SMILES IDX 59 44 61 45 27 46 64 47 58 48 57 49 28 51 50 52 35 53 49 54
REMARK SMILES IDX 36 55 39 56 48 57 62 58 37 59 38 60 47 62 63 63 40 64 29 65
REMARK SMILES IDX 30 66 34 67 31 68 33 69 32 70 51 71 52 72 56 73 53 74 55 75
REMARK SMILES IDX 54 76 41 77 42 78 46 79 43 80 45 81 44 82
REMARK H PARENT 61 50 39 61
REMARK Flexibility Score: inf
ROOT
ATOM      1  C   UNL A   1      33.054  29.276  24.809  1.00  0.00     0.202 C 
ENDROOT
BRANCH   1   2
ATOM      2  C   UNL A   1      33.158  27.751  24.717  1.00  0.00     0.261 C 
BRANCH   2   3
ATOM      3  O   UNL A   1      34.129  27.329  23.748  1.00  0.00    -0.463 OA
BRANCH   3   4
ATOM      4  C   UNL A   1      33.649  26.494  22.789  1.00  0.00     0.312 C 
ATOM      5  O   UNL A   1      33.879  26.584  21.591  1.00  0.00    -0.252 OA
BRANCH   4   6
ATOM      6  C   UNL A   1      32.821  25.378  23.363  1.00  0.00     0.139 C 
ATOM      7  C   UNL A   1      33.344  24.061  22.835  1.00  0.00     0.166 C 
ATOM      8  N   UNL A   1      32.233  23.151  23.037  1.00  0.00    -0.331 N 
ATOM      9  C   UNL A   1      31.342  25.330  22.989  1.00  0.00     0.118 C 
ATOM     10  C   UNL A   1      31.033  23.851  23.038  1.00  0.00     0.224 C 
ATOM     11  O   UNL A   1      29.912  23.374  23.035  1.00  0.00    -0.275 OA
BRANCH   7  12
ATOM     12  C   UNL A   1      34.655  23.677  23.434  1.00  0.00     0.132 A 
ATOM     13  C   UNL A   1      34.247  24.156  25.897  1.00  0.00     0.151 C 
ATOM     14  N   UNL A   1      35.019  23.723  24.760  1.00  0.00    -0.336 N 
ATOM     15  C   UNL A   1      36.320  23.299  24.847  1.00  0.00     0.107 A 
ATOM     16  C   UNL A   1      36.718  23.076  23.555  1.00  0.00     0.131 A 
ATOM     17  N   UNL A   1      35.691  23.325  22.693  1.00  0.00    -0.239 NA
ENDBRANCH   7  12
BRANCH   8  18
ATOM     18  C   UNL A   1      32.299  21.700  22.861  1.00  0.00     0.125 C 
BRANCH  18  19
ATOM     19  C   UNL A   1      32.214  20.892  24.169  1.00  0.00     0.060 C 
BRANCH  19  20
ATOM     20  C   UNL A   1      32.911  19.556  24.096  1.00  0.00    -0.010 A 
ATOM     21  C   UNL A   1      32.350  18.490  23.379  1.00  0.00     0.007 A 
ATOM     22  C   UNL A   1      34.169  19.380  24.681  1.00  0.00     0.126 A 
ATOM     23  C   UNL A   1      33.070  17.307  23.198  1.00  0.00     0.000 A 
ATOM     24  C   UNL A   1      34.883  18.198  24.520  1.00  0.00     0.039 A 
ATOM     25  F   UNL A   1      34.724  20.383  25.380  1.00  0.00    -0.207 F 
ATOM     26  C   UNL A   1      34.339  17.165  23.760  1.00  0.00     0.003 A 
ENDBRANCH  19  20
ENDBRANCH  18  19
ENDBRANCH   8  18
ENDBRANCH   4   6
ENDBRANCH   3   4
ENDBRANCH   2   3
ENDBRANCH   1   2
BRANCH   1  27
ATOM     27  O   UNL A   1      31.888  29.819  25.425  1.00  0.00    -0.374 OA
BRANCH  27  28
ATOM     28  C   UNL A   1      32.056  30.630  26.586  1.00  0.00     0.202 C 
BRANCH  28  29
ATOM     29  C   UNL A   1      33.248  30.319  27.496  1.00  0.00     0.261 C 
BRANCH  29  30
ATOM     30  O   UNL A   1      34.234  31.366  27.477  1.00  0.00    -0.460 OA
BRANCH  30  31
ATOM     31  C   UNL A   1      34.892  31.527  28.650  1.00  0.00     0.338 C 
ATOM     32  O   UNL A   1      34.523  32.156  29.628  1.00  0.00    -0.246 OA
BRANCH  31  33
ATOM     33  C   UNL A   1      36.096  30.676  28.681  1.00  0.00     0.060 A 
ATOM     34  C   UNL A   1      36.456  30.126  29.918  1.00  0.00     0.016 A 
ATOM     35  C   UNL A   1      36.907  30.501  27.559  1.00  0.00     0.016 A 
ATOM     36  C   UNL A   1      37.666  29.451  30.053  1.00  0.00     0.010 A 
ATOM     37  C   UNL A   1      38.127  29.827  27.699  1.00  0.00     0.010 A 
ATOM     38  C   UNL A   1      38.528  29.338  28.955  1.00  0.00    -0.014 A 
BRANCH  38  39
ATOM     39  C   UNL A   1      39.908  28.840  29.169  1.00  0.00     0.031 A 
ATOM     40  C   UNL A   1      40.910  29.730  29.851  1.00  0.00     0.074 A 
ATOM     41  C   UNL A   1      40.251  27.593  28.803  1.00  0.00     0.049 A 
ATOM     42  N   UNL A   1      42.164  29.495  30.144  1.00  0.00    -0.248 NA
ATOM     43  C   UNL A   1      40.435  31.063  30.260  1.00  0.00     0.031 C 
ATOM     44  C   UNL A   1      39.358  26.619  28.176  1.00  0.00     0.029 A 
ATOM     45  N   UNL A   1      41.450  26.934  28.912  1.00  0.00    -0.354 N 
ATOM     46  C   UNL A   1      42.629  30.648  30.762  1.00  0.00     0.074 A 
ATOM     47  C   UNL A   1      41.534  31.593  30.779  1.00  0.00     0.031 C 
ATOM     48  C   UNL A   1      40.044  25.484  27.952  1.00  0.00     0.029 A 
ATOM     49  C   UNL A   1      41.426  25.663  28.392  1.00  0.00     0.049 A 
ATOM     50  H   UNL A   1      42.250  27.333  29.324  1.00  0.00     0.167 HD
ATOM     51  C   UNL A   1      43.857  30.898  31.277  1.00  0.00     0.031 A 
ATOM     52  C   UNL A   1      42.413  24.757  28.267  1.00  0.00     0.031 A 
ATOM     53  C   UNL A   1      44.951  29.964  31.252  1.00  0.00     0.049 A 
ATOM     54  C   UNL A   1      43.790  25.086  28.779  1.00  0.00     0.074 A 
ATOM     55  C   UNL A   1      46.226  30.117  31.766  1.00  0.00     0.029 A 
ATOM     56  N   UNL A   1      44.900  28.706  30.675  1.00  0.00    -0.354 N 
ATOM     57  N   UNL A   1      44.208  26.169  29.390  1.00  0.00    -0.248 NA
ATOM     58  C   UNL A   1      44.827  24.063  28.591  1.00  0.00     0.031 C 
ATOM     59  C   UNL A   1      46.965  28.972  31.449  1.00  0.00     0.029 A 
ATOM     60  C   UNL A   1      46.131  28.083  30.791  1.00  0.00     0.049 A 
ATOM     61  H   UNL A   1      44.106  28.312  30.246  1.00  0.00     0.167 HD
ATOM     62  C   UNL A   1      45.548  25.946  29.680  1.00  0.00     0.074 A 
ATOM     63  C   UNL A   1      45.868  24.620  29.194  1.00  0.00     0.031 C 
ATOM     64  C   UNL A   1      46.435  26.765  30.296  1.00  0.00     0.031 A 
BRANCH  51  65
ATOM     65  C   UNL A   1      44.093  32.256  31.878  1.00  0.00    -0.014 A 
ATOM     66  C   UNL A   1      44.526  33.337  31.095  1.00  0.00     0.009 A 
ATOM     67  C   UNL A   1      43.843  32.462  33.244  1.00  0.00     0.009 A 
ATOM     68  C   UNL A   1      44.733  34.591  31.675  1.00  0.00     0.001 A 
ATOM     69  C   UNL A   1      44.026  33.723  33.815  1.00  0.00     0.001 A 
ATOM     70  C   UNL A   1      44.479  34.783  33.032  1.00  0.00     0.000 A 
ENDBRANCH  51  65
BRANCH  52  71
ATOM     71  C   UNL A   1      42.144  23.452  27.610  1.00  0.00    -0.014 A 
ATOM     72  C   UNL A   1      41.606  22.379  28.336  1.00  0.00     0.009 A 
ATOM     73  C   UNL A   1      42.443  23.269  26.250  1.00  0.00     0.009 A 
ATOM     74  C   UNL A   1      41.395  21.143  27.719  1.00  0.00     0.001 A 
ATOM     75  C   UNL A   1      42.204  22.041  25.629  1.00  0.00     0.001 A 
ATOM     76  C   UNL A   1      41.690  20.978  26.367  1.00  0.00     0.000 A 
ENDBRANCH  52  71
BRANCH  64  77
ATOM     77  C   UNL A   1      47.827  26.239  30.508  1.00  0.00    -0.014 A 
ATOM     78  C   UNL A   1      48.795  26.310  29.493  1.00  0.00     0.009 A 
ATOM     79  C   UNL A   1      48.185  25.700  31.753  1.00  0.00     0.009 A 
ATOM     80  C   UNL A   1      50.084  25.819  29.713  1.00  0.00     0.001 A 
ATOM     81  C   UNL A   1      49.482  25.236  31.979  1.00  0.00     0.001 A 
ATOM     82  C   UNL A   1      50.427  25.288  30.956  1.00  0.00     0.000 A 
ENDBRANCH  64  77
ENDBRANCH  38  39
ENDBRANCH  31  33
ENDBRANCH  30  31
ENDBRANCH  29  30
ENDBRANCH  28  29
ENDBRANCH  27  28
ENDBRANCH   1  27
TORSDOF 18
ENDMDL
MODEL 2
REMARK VINA RESULT:     -10.5      2.348      7.687
REMARK SMILES Cn1ccnc1[C@@H]1[C@@H](C(=O)OCCOCCOC(=O)c2ccc(-c3c4nc(c(-c5ccccc5)c5ccc([nH]5)c(-c5ccccc5)c5nc(c(-c6ccccc6)c6ccc3[nH]6)C=C5)C=C4)cc2)CC(=O)N1CCc1ccccc1F
REMARK SMILES IDX 13 1 12 2 11 3 9 4 10 5 8 6 7 7 71 8 68 9 69 10 70 11 6 12
REMARK SMILES IDX 1 13 2 14 3 15 4 16 5 17 72 18 73 19 74 20 75 21 79 22 76 23
REMARK SMILES IDX 78 24 80 25 77 26 14 27 15 28 16 29 17 30 18 31 19 32 20 33
REMARK SMILES IDX 21 34 67 35 22 36 66 37 23 38 24 39 25 40 60 41 26 42 65 43
REMARK SMILES IDX 59 44 61 45 27 46 64 47 58 48 57 49 28 51 50 52 35 53 49 54
REMARK SMILES IDX 36 55 39 56 48 57 62 58 37 59 38 60 47 62 63 63 40 64 29 65
REMARK SMILES IDX 30 66 34 67 31 68 33 69 32 70 51 71 52 72 56 73 53 74 55 75
REMARK SMILES IDX 54 76 41 77 42 78 46 79 43 80 45 81 44 82
REMARK H PARENT 61 50 39 61
REMARK Flexibility Score: inf
ROOT
ATOM      1  C   UNL A   1      35.143  20.322  25.230  1.00  0.00     0.202 C 
ENDROOT
BRANCH   1   2
ATOM      2  C   UNL A   1      34.018  19.684  24.409  1.00  0.00     0.261 C 
BRANCH   2   3
ATOM      3  O   UNL A   1      32.832  20.491  24.391  1.00  0.00    -0.463 OA
BRANCH   3   4
ATOM      4  C   UNL A   1      32.557  21.069  23.192  1.00  0.00     0.312 C 
ATOM      5  O   UNL A   1      31.838  20.593  22.324  1.00  0.00    -0.252 OA
BRANCH   4   6
ATOM      6  C   UNL A   1      33.200  22.420  23.045  1.00  0.00     0.139 C 
ATOM      7  C   UNL A   1      32.458  23.411  23.913  1.00  0.00     0.166 C 
ATOM      8  N   UNL A   1      32.820  24.695  23.345  1.00  0.00    -0.331 N 
ATOM      9  C   UNL A   1      33.161  23.076  21.668  1.00  0.00     0.118 C 
ATOM     10  C   UNL A   1      33.148  24.551  22.003  1.00  0.00     0.224 C 
ATOM     11  O   UNL A   1      33.351  25.448  21.203  1.00  0.00    -0.275 OA
BRANCH   7  12
ATOM     12  C   UNL A   1      32.716  23.214  25.368  1.00  0.00     0.132 A 
ATOM     13  C   UNL A   1      30.372  22.757  26.241  1.00  0.00     0.151 C 
ATOM     14  N   UNL A   1      31.799  22.928  26.353  1.00  0.00    -0.336 N 
ATOM     15  C   UNL A   1      32.477  22.854  27.543  1.00  0.00     0.107 A 
ATOM     16  C   UNL A   1      33.777  23.167  27.241  1.00  0.00     0.131 A 
ATOM     17  N   UNL A   1      33.910  23.401  25.904  1.00  0.00    -0.239 NA
ENDBRANCH   7  12
BRANCH   8  18
ATOM     18  C   UNL A   1      32.508  25.992  23.946  1.00  0.00     0.125 C 
BRANCH  18  19
ATOM     19  C   UNL A   1      33.668  26.628  24.734  1.00  0.00     0.060 C 
BRANCH  19  20
ATOM     20  C   UNL A   1      33.225  27.711  25.686  1.00  0.00    -0.010 A 
ATOM     21  C   UNL A   1      33.660  29.033  25.525  1.00  0.00     0.007 A 
ATOM     22  C   UNL A   1      32.309  27.427  26.705  1.00  0.00     0.126 A 
ATOM     23  C   UNL A   1      33.131  30.051  26.323  1.00  0.00     0.000 A 
ATOM     24  C   UNL A   1      31.792  28.432  27.514  1.00  0.00     0.039 A 
ATOM     25  F   UNL A   1      31.884  26.167  26.884  1.00  0.00    -0.207 F 
ATOM     26  C   UNL A   1      32.191  29.752  27.310  1.00  0.00     0.003 A 
ENDBRANCH  19  20
ENDBRANCH  18  19
ENDBRANCH   8  18
ENDBRANCH   4   6
ENDBRANCH   3   4
ENDBRANCH   2   3
ENDBRANCH   1   2
BRANCH   1  27
ATOM     27  O   UNL A   1      36.084  21.136  24.535  1.00  0.00    -0.374 OA
BRANCH  27  28
ATOM     28  C   UNL A   1      37.311  21.455  25.188  1.00  0.00     0.202 C 
BRANCH  28  29
ATOM     29  C   UNL A   1      38.436  20.420  25.118  1.00  0.00     0.261 C 
BRANCH  29  30
ATOM     30  O   UNL A   1      39.145  20.301  26.364  1.00  0.00    -0.460 OA
BRANCH  30  31
ATOM     31  C   UNL A   1      40.469  20.052  26.227  1.00  0.00     0.338 C 
ATOM     32  O   UNL A   1      40.991  19.094  25.682  1.00  0.00    -0.246 OA
BRANCH  31  33
ATOM     33  C   UNL A   1      41.257  21.211  26.686  1.00  0.00     0.060 A 
ATOM     34  C   UNL A   1      41.246  21.485  28.059  1.00  0.00     0.016 A 
ATOM     35  C   UNL A   1      41.904  22.066  25.793  1.00  0.00     0.016 A 
ATOM     36  C   UNL A   1      41.830  22.654  28.540  1.00  0.00     0.010 A 
ATOM     37  C   UNL A   1      42.485  23.244  26.278  1.00  0.00     0.010 A 
ATOM     38  C   UNL A   1      42.412  23.562  27.646  1.00  0.00    -0.014 A 
BRANCH  38  39
ATOM     39  C   UNL A   1      42.806  24.904  28.136  1.00  0.00     0.031 A 
ATOM     40  C   UNL A   1      41.744  25.951  28.335  1.00  0.00     0.074 A 
ATOM     41  C   UNL A   1      44.086  25.173  28.443  1.00  0.00     0.049 A 
ATOM     42  N   UNL A   1      41.865  27.184  28.759  1.00  0.00    -0.248 NA
ATOM     43  C   UNL A   1      40.362  25.555  28.018  1.00  0.00     0.031 C 
ATOM     44  C   UNL A   1      45.199  24.230  28.337  1.00  0.00     0.029 A 
ATOM     45  N   UNL A   1      44.663  26.327  28.912  1.00  0.00    -0.354 N 
ATOM     46  C   UNL A   1      40.581  27.712  28.752  1.00  0.00     0.074 A 
ATOM     47  C   UNL A   1      39.699  26.677  28.257  1.00  0.00     0.031 C 
ATOM     48  C   UNL A   1      46.328  24.846  28.727  1.00  0.00     0.029 A 
ATOM     49  C   UNL A   1      46.023  26.230  29.080  1.00  0.00     0.049 A 
ATOM     50  H   UNL A   1      44.152  27.145  29.109  1.00  0.00     0.167 HD
ATOM     51  C   UNL A   1      40.170  28.946  29.130  1.00  0.00     0.031 A 
ATOM     52  C   UNL A   1      46.919  27.161  29.459  1.00  0.00     0.031 A 
ATOM     53  C   UNL A   1      41.046  29.979  29.613  1.00  0.00     0.049 A 
ATOM     54  C   UNL A   1      46.447  28.548  29.802  1.00  0.00     0.074 A 
ATOM     55  C   UNL A   1      40.721  31.255  30.040  1.00  0.00     0.029 A 
ATOM     56  N   UNL A   1      42.421  29.857  29.725  1.00  0.00    -0.354 N 
ATOM     57  N   UNL A   1      45.226  29.025  29.820  1.00  0.00    -0.248 NA
ATOM     58  C   UNL A   1      47.480  29.522  30.183  1.00  0.00     0.031 C 
ATOM     59  C   UNL A   1      41.908  31.924  30.357  1.00  0.00     0.029 A 
ATOM     60  C   UNL A   1      42.965  31.045  30.184  1.00  0.00     0.049 A 
ATOM     61  H   UNL A   1      42.936  29.046  29.511  1.00  0.00     0.167 HD
ATOM     62  C   UNL A   1      45.341  30.344  30.239  1.00  0.00     0.074 A 
ATOM     63  C   UNL A   1      46.748  30.587  30.479  1.00  0.00     0.031 C 
ATOM     64  C   UNL A   1      44.368  31.273  30.412  1.00  0.00     0.031 A 
BRANCH  51  65
ATOM     65  C   UNL A   1      38.705  29.258  28.998  1.00  0.00    -0.014 A 
ATOM     66  C   UNL A   1      38.153  29.672  27.776  1.00  0.00     0.009 A 
ATOM     67  C   UNL A   1      37.859  29.101  30.108  1.00  0.00     0.009 A 
ATOM     68  C   UNL A   1      36.787  29.952  27.675  1.00  0.00     0.001 A 
ATOM     69  C   UNL A   1      36.491  29.356  29.998  1.00  0.00     0.001 A 
ATOM     70  C   UNL A   1      35.959  29.789  28.785  1.00  0.00     0.000 A 
ENDBRANCH  51  65
BRANCH  52  71
ATOM     71  C   UNL A   1      48.364  26.819  29.515  1.00  0.00    -0.014 A 
ATOM     72  C   UNL A   1      48.992  26.552  30.740  1.00  0.00     0.009 A 
ATOM     73  C   UNL A   1      49.128  26.776  28.337  1.00  0.00     0.009 A 
ATOM     74  C   UNL A   1      50.361  26.272  30.787  1.00  0.00     0.001 A 
ATOM     75  C   UNL A   1      50.489  26.468  28.384  1.00  0.00     0.001 A 
ATOM     76  C   UNL A   1      51.105  26.226  29.609  1.00  0.00     0.000 A 
ENDBRANCH  52  71
BRANCH  64  77
ATOM     77  C   UNL A   1      44.789  32.626  30.913  1.00  0.00    -0.014 A 
ATOM     78  C   UNL A   1      45.173  33.645  30.027  1.00  0.00     0.009 A 
ATOM     79  C   UNL A   1      44.762  32.897  32.291  1.00  0.00     0.009 A 
ATOM     80  C   UNL A   1      45.555  34.896  30.515  1.00  0.00     0.001 A 
ATOM     81  C   UNL A   1      45.117  34.157  32.772  1.00  0.00     0.001 A 
ATOM     82  C   UNL A   1      45.522  35.152  31.885  1.00  0.00     0.000 A 
ENDBRANCH  64  77
ENDBRANCH  38  39
ENDBRANCH  31  33
ENDBRANCH  30  31
ENDBRANCH  29  30
ENDBRANCH  28  29
ENDBRANCH  27  28
ENDBRANCH   1  27
TORSDOF 18
ENDMDL
MODEL 3
REMARK VINA RESULT:     -10.4      3.127      8.263
REMARK SMILES Cn1ccnc1[C@@H]1[C@@H](C(=O)OCCOCCOC(=O)c2ccc(-c3c4nc(c(-c5ccccc5)c5ccc([nH]5)c(-c5ccccc5)c5nc(c(-c6ccccc6)c6ccc3[nH]6)C=C5)C=C4)cc2)CC(=O)N1CCc1ccccc1F
REMARK SMILES IDX 13 1 12 2 11 3 9 4 10 5 8 6 7 7 71 8 68 9 69 10 70 11 6 12
REMARK SMILES IDX 1 13 2 14 3 15 4 16 5 17 72 18 73 19 74 20 75 21 79 22 76 23
REMARK SMILES IDX 78 24 80 25 77 26 14 27 15 28 16 29 17 30 18 31 19 32 20 33
REMARK SMILES IDX 21 34 67 35 22 36 66 37 23 38 24 39 25 40 60 41 26 42 65 43
REMARK SMILES IDX 59 44 61 45 27 46 64 47 58 48 57 49 28 51 50 52 35 53 49 54
REMARK SMILES IDX 36 55 39 56 48 57 62 58 37 59 38 60 47 62 63 63 40 64 29 65
REMARK SMILES IDX 30 66 34 67 31 68 33 69 32 70 51 71 52 72 56 73 53 74 55 75
REMARK SMILES IDX 54 76 41 77 42 78 46 79 43 80 45 81 44 82
REMARK H PARENT 61 50 39 61
REMARK Flexibility Score: inf
ROOT
ATOM      1  C   UNL A   1      36.661  23.109  25.937  1.00  0.00     0.202 C 
ENDROOT
BRANCH   1   2
ATOM      2  C   UNL A   1      35.550  23.583  24.994  1.00  0.00     0.261 C 
BRANCH   2   3
ATOM      3  O   UNL A   1      34.626  24.469  25.643  1.00  0.00    -0.463 OA
BRANCH   3   4
ATOM      4  C   UNL A   1      33.349  24.393  25.183  1.00  0.00     0.312 C 
ATOM      5  O   UNL A   1      32.480  23.654  25.624  1.00  0.00    -0.252 OA
BRANCH   4   6
ATOM      6  C   UNL A   1      33.079  25.374  24.077  1.00  0.00     0.139 C 
ATOM      7  C   UNL A   1      31.783  26.097  24.370  1.00  0.00     0.166 C 
ATOM      8  N   UNL A   1      31.387  26.619  23.077  1.00  0.00    -0.331 N 
ATOM      9  C   UNL A   1      32.847  24.815  22.676  1.00  0.00     0.118 C 
ATOM     10  C   UNL A   1      31.917  25.835  22.060  1.00  0.00     0.224 C 
ATOM     11  O   UNL A   1      31.657  25.911  20.871  1.00  0.00    -0.275 OA
BRANCH   7  12
ATOM     12  C   UNL A   1      31.905  27.073  25.490  1.00  0.00     0.132 A 
ATOM     13  C   UNL A   1      33.634  28.691  24.566  1.00  0.00     0.151 C 
ATOM     14  N   UNL A   1      32.708  28.188  25.549  1.00  0.00    -0.336 N 
ATOM     15  C   UNL A   1      32.513  28.776  26.773  1.00  0.00     0.107 A 
ATOM     16  C   UNL A   1      31.644  27.951  27.438  1.00  0.00     0.131 A 
ATOM     17  N   UNL A   1      31.288  26.900  26.646  1.00  0.00    -0.239 NA
ENDBRANCH   7  12
BRANCH   8  18
ATOM     18  C   UNL A   1      30.289  27.560  22.856  1.00  0.00     0.125 C 
BRANCH  18  19
ATOM     19  C   UNL A   1      30.705  28.886  22.194  1.00  0.00     0.060 C 
BRANCH  19  20
ATOM     20  C   UNL A   1      29.719  30.005  22.421  1.00  0.00    -0.010 A 
ATOM     21  C   UNL A   1      28.842  30.409  21.405  1.00  0.00     0.007 A 
ATOM     22  C   UNL A   1      29.612  30.611  23.677  1.00  0.00     0.126 A 
ATOM     23  C   UNL A   1      27.839  31.345  21.671  1.00  0.00     0.000 A 
ATOM     24  C   UNL A   1      28.628  31.556  23.943  1.00  0.00     0.039 A 
ATOM     25  F   UNL A   1      30.446  30.248  24.664  1.00  0.00    -0.207 F 
ATOM     26  C   UNL A   1      27.727  31.911  22.941  1.00  0.00     0.003 A 
ENDBRANCH  19  20
ENDBRANCH  18  19
ENDBRANCH   8  18
ENDBRANCH   4   6
ENDBRANCH   3   4
ENDBRANCH   2   3
ENDBRANCH   1   2
BRANCH   1  27
ATOM     27  O   UNL A   1      37.960  22.924  25.381  1.00  0.00    -0.374 OA
BRANCH  27  28
ATOM     28  C   UNL A   1      38.930  22.220  26.155  1.00  0.00     0.202 C 
BRANCH  28  29
ATOM     29  C   UNL A   1      39.293  20.802  25.707  1.00  0.00     0.261 C 
BRANCH  29  30
ATOM     30  O   UNL A   1      40.193  20.156  26.625  1.00  0.00    -0.460 OA
BRANCH  30  31
ATOM     31  C   UNL A   1      41.477  20.101  26.195  1.00  0.00     0.338 C 
ATOM     32  O   UNL A   1      41.974  19.275  25.448  1.00  0.00    -0.246 OA
BRANCH  31  33
ATOM     33  C   UNL A   1      42.209  21.309  26.617  1.00  0.00     0.060 A 
ATOM     34  C   UNL A   1      42.238  21.589  27.989  1.00  0.00     0.016 A 
ATOM     35  C   UNL A   1      42.765  22.198  25.696  1.00  0.00     0.016 A 
ATOM     36  C   UNL A   1      42.767  22.794  28.442  1.00  0.00     0.010 A 
ATOM     37  C   UNL A   1      43.290  23.413  26.153  1.00  0.00     0.010 A 
ATOM     38  C   UNL A   1      43.254  23.732  27.523  1.00  0.00    -0.014 A 
BRANCH  38  39
ATOM     39  C   UNL A   1      43.583  25.099  27.992  1.00  0.00     0.031 A 
ATOM     40  C   UNL A   1      42.467  26.073  28.252  1.00  0.00     0.074 A 
ATOM     41  C   UNL A   1      44.858  25.455  28.227  1.00  0.00     0.049 A 
ATOM     42  N   UNL A   1      42.528  27.311  28.671  1.00  0.00    -0.248 NA
ATOM     43  C   UNL A   1      41.098  25.584  28.012  1.00  0.00     0.031 C 
ATOM     44  C   UNL A   1      46.024  24.588  28.057  1.00  0.00     0.029 A 
ATOM     45  N   UNL A   1      45.381  26.646  28.665  1.00  0.00    -0.354 N 
ATOM     46  C   UNL A   1      41.212  27.752  28.737  1.00  0.00     0.074 A 
ATOM     47  C   UNL A   1      40.376  26.659  28.290  1.00  0.00     0.031 C 
ATOM     48  C   UNL A   1      47.129  25.280  28.384  1.00  0.00     0.029 A 
ATOM     49  C   UNL A   1      46.751  26.641  28.757  1.00  0.00     0.049 A 
ATOM     50  H   UNL A   1      44.828  27.427  28.892  1.00  0.00     0.167 HD
ATOM     51  C   UNL A   1      40.740  28.956  29.139  1.00  0.00     0.031 A 
ATOM     52  C   UNL A   1      47.603  27.631  29.086  1.00  0.00     0.031 A 
ATOM     53  C   UNL A   1      41.571  30.047  29.574  1.00  0.00     0.049 A 
ATOM     54  C   UNL A   1      47.058  28.983  29.457  1.00  0.00     0.074 A 
ATOM     55  C   UNL A   1      41.185  31.298  30.021  1.00  0.00     0.029 A 
ATOM     56  N   UNL A   1      42.955  30.018  29.608  1.00  0.00    -0.354 N 
ATOM     57  N   UNL A   1      45.810  29.377  29.545  1.00  0.00    -0.248 NA
ATOM     58  C   UNL A   1      48.042  30.026  29.782  1.00  0.00     0.031 C 
ATOM     59  C   UNL A   1      42.340  32.047  30.272  1.00  0.00     0.029 A 
ATOM     60  C   UNL A   1      43.442  31.241  30.038  1.00  0.00     0.049 A 
ATOM     61  H   UNL A   1      43.511  29.243  29.364  1.00  0.00     0.167 HD
ATOM     62  C   UNL A   1      45.859  30.702  29.959  1.00  0.00     0.074 A 
ATOM     63  C   UNL A   1      47.259  31.040  30.120  1.00  0.00     0.031 C 
ATOM     64  C   UNL A   1      44.838  31.563  30.188  1.00  0.00     0.031 A 
BRANCH  51  65
ATOM     65  C   UNL A   1      39.253  29.168  29.090  1.00  0.00    -0.014 A 
ATOM     66  C   UNL A   1      38.451  28.989  30.228  1.00  0.00     0.009 A 
ATOM     67  C   UNL A   1      38.651  29.587  27.893  1.00  0.00     0.009 A 
ATOM     68  C   UNL A   1      37.071  29.197  30.160  1.00  0.00     0.001 A 
ATOM     69  C   UNL A   1      37.276  29.820  27.835  1.00  0.00     0.001 A 
ATOM     70  C   UNL A   1      36.486  29.616  28.965  1.00  0.00     0.000 A 
ENDBRANCH  51  65
BRANCH  52  71
ATOM     71  C   UNL A   1      49.069  27.387  29.060  1.00  0.00    -0.014 A 
ATOM     72  C   UNL A   1      49.750  26.983  30.217  1.00  0.00     0.009 A 
ATOM     73  C   UNL A   1      49.797  27.576  27.874  1.00  0.00     0.009 A 
ATOM     74  C   UNL A   1      51.135  26.798  30.193  1.00  0.00     0.001 A 
ATOM     75  C   UNL A   1      51.176  27.362  27.846  1.00  0.00     0.001 A 
ATOM     76  C   UNL A   1      51.845  26.982  29.007  1.00  0.00     0.000 A 
ENDBRANCH  52  71
BRANCH  64  77
ATOM     77  C   UNL A   1      45.194  32.942  30.667  1.00  0.00    -0.014 A 
ATOM     78  C   UNL A   1      45.475  33.979  29.762  1.00  0.00     0.009 A 
ATOM     79  C   UNL A   1      45.208  33.218  32.043  1.00  0.00     0.009 A 
ATOM     80  C   UNL A   1      45.799  35.254  30.230  1.00  0.00     0.001 A 
ATOM     81  C   UNL A   1      45.504  34.502  32.506  1.00  0.00     0.001 A 
ATOM     82  C   UNL A   1      45.808  35.515  31.600  1.00  0.00     0.000 A 
ENDBRANCH  64  77
ENDBRANCH  38  39
ENDBRANCH  31  33
ENDBRANCH  30  31
ENDBRANCH  29  30
ENDBRANCH  28  29
ENDBRANCH  27  28
ENDBRANCH   1  27
TORSDOF 18
ENDMDL
