MODEL 1
REMARK VINA RESULT:     -11.7      0.000      0.000
REMARK SMILES COc1ccccc1N1C(=O)CC[C@H]1CC(=O)OCCOCCOC(=O)c1ccc(-c2c3nc(c(-c4ccccc4)c4ccc([nH]4)c(-c4ccccc4)c4nc(c(-c5ccccc5)c5ccc2[nH]5)C=C4)C=C3)cc1
REMARK SMILES IDX 20 1 19 2 18 3 16 4 17 5 15 6 14 7 9 8 10 9 11 10 12 11
REMARK SMILES IDX 13 12 8 13 3 14 4 15 5 16 7 17 6 18 2 19 1 20 21 21 22 22
REMARK SMILES IDX 23 23 24 24 25 25 26 26 27 27 28 28 74 29 29 30 73 31 30 32
REMARK SMILES IDX 31 33 32 34 67 35 33 36 72 37 66 38 68 39 34 40 71 41 65 42
REMARK SMILES IDX 64 43 35 45 57 46 42 47 56 48 43 49 46 50 55 51 69 52 44 53
REMARK SMILES IDX 45 54 54 56 70 57 47 58 36 59 37 60 41 61 38 62 40 63 39 64
REMARK SMILES IDX 58 65 59 66 63 67 60 68 62 69 61 70 48 71 49 72 53 73 50 74
REMARK SMILES IDX 52 75 51 76
REMARK H PARENT 68 44 46 55
REMARK Flexibility Score: inf
ROOT
ATOM      1  C   UNL A   1      31.683  27.899  26.419  1.00  0.00     0.202 C 
ENDROOT
BRANCH   1   2
ATOM      2  C   UNL A   1      30.901  26.564  26.492  1.00  0.00     0.261 C 
BRANCH   2   3
ATOM      3  O   UNL A   1      31.760  25.448  26.802  1.00  0.00    -0.463 OA
BRANCH   3   4
ATOM      4  C   UNL A   1      31.262  24.221  26.531  1.00  0.00     0.307 C 
ATOM      5  O   UNL A   1      30.999  23.381  27.382  1.00  0.00    -0.252 OA
BRANCH   4   6
ATOM      6  C   UNL A   1      30.804  24.103  25.094  1.00  0.00     0.148 C 
BRANCH   6   7
ATOM      7  C   UNL A   1      31.745  24.336  23.922  1.00  0.00     0.102 C 
ATOM      8  N   UNL A   1      32.354  23.313  23.085  1.00  0.00    -0.305 N 
ATOM      9  C   UNL A   1      32.844  23.944  21.925  1.00  0.00     0.227 C 
ATOM     10  O   UNL A   1      33.671  23.544  21.125  1.00  0.00    -0.275 OA
ATOM     11  C   UNL A   1      32.233  25.325  21.836  1.00  0.00     0.103 C 
ATOM     12  C   UNL A   1      31.151  25.295  22.898  1.00  0.00     0.036 C 
BRANCH   8  13
ATOM     13  C   UNL A   1      32.934  22.108  23.565  1.00  0.00     0.086 A 
ATOM     14  C   UNL A   1      34.516  22.031  24.424  1.00  0.00     0.142 A 
ATOM     15  C   UNL A   1      35.176  20.449  24.988  1.00  0.00     0.048 A 
ATOM     16  C   UNL A   1      34.307  18.899  24.614  1.00  0.00     0.004 A 
ATOM     17  C   UNL A   1      32.080  20.569  23.163  1.00  0.00     0.030 A 
ATOM     18  C   UNL A   1      32.752  18.959  23.706  1.00  0.00     0.002 A 
BRANCH  14  19
ATOM     19  O   UNL A   1      35.425  23.054  24.458  1.00  0.00    -0.495 OA
ATOM     20  C   UNL A   1      35.834  23.426  25.758  1.00  0.00     0.278 C 
ENDBRANCH  14  19
ENDBRANCH   8  13
ENDBRANCH   6   7
ENDBRANCH   4   6
ENDBRANCH   3   4
ENDBRANCH   2   3
ENDBRANCH   1   2
BRANCH   1  21
ATOM     21  O   UNL A   1      31.110  29.066  25.801  1.00  0.00    -0.374 OA
BRANCH  21  22
ATOM     22  C   UNL A   1      31.814  30.304  25.810  1.00  0.00     0.202 C 
BRANCH  22  23
ATOM     23  C   UNL A   1      31.180  31.801  26.171  1.00  0.00     0.261 C 
BRANCH  23  24
ATOM     24  O   UNL A   1      31.986  33.316  27.232  1.00  0.00    -0.460 OA
BRANCH  24  25
ATOM     25  C   UNL A   1      32.869  34.115  28.001  1.00  0.00     0.338 C 
ATOM     26  O   UNL A   1      32.658  35.211  28.515  1.00  0.00    -0.246 OA
BRANCH  25  27
ATOM     27  C   UNL A   1      34.135  33.423  28.333  1.00  0.00     0.060 A 
ATOM     28  C   UNL A   1      34.162  32.033  28.516  1.00  0.00     0.016 A 
ATOM     29  C   UNL A   1      35.250  34.184  28.656  1.00  0.00     0.016 A 
ATOM     30  C   UNL A   1      35.313  31.412  29.012  1.00  0.00     0.010 A 
ATOM     31  C   UNL A   1      36.418  33.564  29.102  1.00  0.00     0.010 A 
ATOM     32  C   UNL A   1      36.441  32.180  29.338  1.00  0.00    -0.014 A 
BRANCH  32  33
ATOM     33  C   UNL A   1      37.543  31.599  30.147  1.00  0.00     0.031 A 
ATOM     34  C   UNL A   1      38.450  30.585  29.495  1.00  0.00     0.074 A 
ATOM     35  C   UNL A   1      37.755  31.948  31.428  1.00  0.00     0.049 A 
ATOM     36  N   UNL A   1      39.445  29.908  30.010  1.00  0.00    -0.248 NA
ATOM     37  C   UNL A   1      38.193  30.291  28.075  1.00  0.00     0.031 C 
ATOM     38  C   UNL A   1      36.979  32.927  32.186  1.00  0.00     0.029 A 
ATOM     39  N   UNL A   1      38.697  31.498  32.322  1.00  0.00    -0.354 N 
ATOM     40  C   UNL A   1      39.913  29.094  28.986  1.00  0.00     0.074 A 
ATOM     41  C   UNL A   1      39.079  29.338  27.831  1.00  0.00     0.031 C 
ATOM     42  C   UNL A   1      37.477  33.002  33.434  1.00  0.00     0.029 A 
ATOM     43  C   UNL A   1      38.587  32.059  33.569  1.00  0.00     0.049 A 
ATOM     44  H   UNL A   1      39.385  30.833  32.089  1.00  0.00     0.167 HD
ATOM     45  C   UNL A   1      40.953  28.228  28.993  1.00  0.00     0.031 A 
ATOM     46  C   UNL A   1      39.292  31.829  34.694  1.00  0.00     0.031 A 
ATOM     47  C   UNL A   1      41.805  27.981  30.122  1.00  0.00     0.049 A 
ATOM     48  C   UNL A   1      40.412  30.823  34.694  1.00  0.00     0.074 A 
ATOM     49  C   UNL A   1      42.913  27.155  30.199  1.00  0.00     0.029 A 
ATOM     50  N   UNL A   1      41.641  28.553  31.371  1.00  0.00    -0.354 N 
ATOM     51  N   UNL A   1      40.871  30.094  33.708  1.00  0.00    -0.248 NA
ATOM     52  C   UNL A   1      41.117  30.615  35.971  1.00  0.00     0.031 C 
ATOM     53  C   UNL A   1      43.395  27.194  31.511  1.00  0.00     0.029 A 
ATOM     54  C   UNL A   1      42.612  28.078  32.235  1.00  0.00     0.049 A 
ATOM     55  H   UNL A   1      40.938  29.201  31.608  1.00  0.00     0.167 HD
ATOM     56  C   UNL A   1      41.927  29.360  34.236  1.00  0.00     0.074 A 
ATOM     57  C   UNL A   1      42.051  29.738  35.627  1.00  0.00     0.031 C 
ATOM     58  C   UNL A   1      42.727  28.457  33.618  1.00  0.00     0.031 A 
BRANCH  45  59
ATOM     59  C   UNL A   1      41.209  27.463  27.728  1.00  0.00    -0.014 A 
ATOM     60  C   UNL A   1      40.592  26.224  27.491  1.00  0.00     0.009 A 
ATOM     61  C   UNL A   1      42.070  27.996  26.758  1.00  0.00     0.009 A 
ATOM     62  C   UNL A   1      40.863  25.519  26.318  1.00  0.00     0.001 A 
ATOM     63  C   UNL A   1      42.319  27.300  25.576  1.00  0.00     0.001 A 
ATOM     64  C   UNL A   1      41.722  26.057  25.361  1.00  0.00     0.000 A 
ENDBRANCH  45  59
BRANCH  46  65
ATOM     65  C   UNL A   1      38.956  32.562  35.942  1.00  0.00    -0.014 A 
ATOM     66  C   UNL A   1      39.583  33.780  36.243  1.00  0.00     0.009 A 
ATOM     67  C   UNL A   1      38.034  32.027  36.854  1.00  0.00     0.009 A 
ATOM     68  C   UNL A   1      39.308  34.437  37.444  1.00  0.00     0.001 A 
ATOM     69  C   UNL A   1      37.746  32.697  38.043  1.00  0.00     0.001 A 
ATOM     70  C   UNL A   1      38.389  33.898  38.341  1.00  0.00     0.000 A 
ENDBRANCH  46  65
BRANCH  58  71
ATOM     71  C   UNL A   1      43.826  27.830  34.428  1.00  0.00    -0.014 A 
ATOM     72  C   UNL A   1      45.083  28.443  34.543  1.00  0.00     0.009 A 
ATOM     73  C   UNL A   1      43.581  26.641  35.132  1.00  0.00     0.009 A 
ATOM     74  C   UNL A   1      46.081  27.863  35.329  1.00  0.00     0.001 A 
ATOM     75  C   UNL A   1      44.573  26.077  35.936  1.00  0.00     0.001 A 
ATOM     76  C   UNL A   1      45.823  26.684  36.029  1.00  0.00     0.000 A 
ENDBRANCH  58  71
ENDBRANCH  32  33
ENDBRANCH  25  27
ENDBRANCH  24  25
ENDBRANCH  23  24
ENDBRANCH  22  23
ENDBRANCH  21  22
ENDBRANCH   1  21
TORSDOF 17
ENDMDL
MODEL 2
REMARK VINA RESULT:     -11.6      1.864      3.211
REMARK SMILES COc1ccccc1N1C(=O)CC[C@H]1CC(=O)OCCOCCOC(=O)c1ccc(-c2c3nc(c(-c4ccccc4)c4ccc([nH]4)c(-c4ccccc4)c4nc(c(-c5ccccc5)c5ccc2[nH]5)C=C4)C=C3)cc1
REMARK SMILES IDX 20 1 19 2 18 3 16 4 17 5 15 6 14 7 9 8 10 9 11 10 12 11
REMARK SMILES IDX 13 12 8 13 3 14 4 15 5 16 7 17 6 18 2 19 1 20 21 21 22 22
REMARK SMILES IDX 23 23 24 24 25 25 26 26 27 27 28 28 74 29 29 30 73 31 30 32
REMARK SMILES IDX 31 33 32 34 67 35 33 36 72 37 66 38 68 39 34 40 71 41 65 42
REMARK SMILES IDX 64 43 35 45 57 46 42 47 56 48 43 49 46 50 55 51 69 52 44 53
REMARK SMILES IDX 45 54 54 56 70 57 47 58 36 59 37 60 41 61 38 62 40 63 39 64
REMARK SMILES IDX 58 65 59 66 63 67 60 68 62 69 61 70 48 71 49 72 53 73 50 74
REMARK SMILES IDX 52 75 51 76
REMARK H PARENT 68 44 46 55
REMARK Flexibility Score: inf
ROOT
ATOM      1  C   UNL A   1      30.676  26.964  26.075  1.00  0.00     0.202 C 
ENDROOT
BRANCH   1   2
ATOM      2  C   UNL A   1      30.584  25.515  25.537  1.00  0.00     0.261 C 
BRANCH   2   3
ATOM      3  O   UNL A   1      30.094  24.595  26.533  1.00  0.00    -0.463 OA
BRANCH   3   4
ATOM      4  C   UNL A   1      30.730  23.405  26.608  1.00  0.00     0.307 C 
ATOM      5  O   UNL A   1      30.294  22.361  26.138  1.00  0.00    -0.252 OA
BRANCH   4   6
ATOM      6  C   UNL A   1      32.158  23.557  27.081  1.00  0.00     0.148 C 
BRANCH   6   7
ATOM      7  C   UNL A   1      33.335  22.978  26.308  1.00  0.00     0.102 C 
ATOM      8  N   UNL A   1      34.333  23.729  25.563  1.00  0.00    -0.305 N 
ATOM      9  C   UNL A   1      35.419  22.866  25.314  1.00  0.00     0.227 C 
ATOM     10  O   UNL A   1      36.308  22.970  24.487  1.00  0.00    -0.275 OA
ATOM     11  C   UNL A   1      35.287  21.658  26.214  1.00  0.00     0.103 C 
ATOM     12  C   UNL A   1      34.186  22.059  27.175  1.00  0.00     0.036 C 
BRANCH   8  13
ATOM     13  C   UNL A   1      34.053  24.823  24.700  1.00  0.00     0.086 A 
ATOM     14  C   UNL A   1      33.656  24.643  22.952  1.00  0.00     0.142 A 
ATOM     15  C   UNL A   1      33.324  26.095  21.935  1.00  0.00     0.048 A 
ATOM     16  C   UNL A   1      33.479  27.766  22.629  1.00  0.00     0.004 A 
ATOM     17  C   UNL A   1      34.238  26.481  25.390  1.00  0.00     0.030 A 
ATOM     18  C   UNL A   1      33.931  27.959  24.363  1.00  0.00     0.002 A 
BRANCH  14  19
ATOM     19  O   UNL A   1      33.849  23.495  22.232  1.00  0.00    -0.495 OA
ATOM     20  C   UNL A   1      32.851  22.514  22.420  1.00  0.00     0.278 C 
ENDBRANCH  14  19
ENDBRANCH   8  13
ENDBRANCH   6   7
ENDBRANCH   4   6
ENDBRANCH   3   4
ENDBRANCH   2   3
ENDBRANCH   1   2
BRANCH   1  21
ATOM     21  O   UNL A   1      31.245  27.245  27.368  1.00  0.00    -0.374 OA
BRANCH  21  22
ATOM     22  C   UNL A   1      31.961  28.456  27.591  1.00  0.00     0.202 C 
BRANCH  22  23
ATOM     23  C   UNL A   1      31.811  29.868  26.720  1.00  0.00     0.261 C 
BRANCH  23  24
ATOM     24  O   UNL A   1      32.618  31.685  27.067  1.00  0.00    -0.460 OA
BRANCH  24  25
ATOM     25  C   UNL A   1      32.932  32.943  27.639  1.00  0.00     0.338 C 
ATOM     26  O   UNL A   1      32.228  33.947  27.710  1.00  0.00    -0.246 OA
BRANCH  25  27
ATOM     27  C   UNL A   1      34.217  32.940  28.373  1.00  0.00     0.060 A 
ATOM     28  C   UNL A   1      35.398  33.369  27.749  1.00  0.00     0.016 A 
ATOM     29  C   UNL A   1      34.278  32.324  29.616  1.00  0.00     0.016 A 
ATOM     30  C   UNL A   1      36.633  33.187  28.380  1.00  0.00     0.010 A 
ATOM     31  C   UNL A   1      35.502  32.187  30.273  1.00  0.00     0.010 A 
ATOM     32  C   UNL A   1      36.695  32.566  29.636  1.00  0.00    -0.014 A 
BRANCH  32  33
ATOM     33  C   UNL A   1      37.992  32.084  30.179  1.00  0.00     0.031 A 
ATOM     34  C   UNL A   1      38.550  30.787  29.650  1.00  0.00     0.074 A 
ATOM     35  C   UNL A   1      38.675  32.764  31.116  1.00  0.00     0.049 A 
ATOM     36  N   UNL A   1      39.634  30.144  30.004  1.00  0.00    -0.248 NA
ATOM     37  C   UNL A   1      37.777  30.124  28.587  1.00  0.00     0.031 C 
ATOM     38  C   UNL A   1      38.275  34.040  31.708  1.00  0.00     0.029 A 
ATOM     39  N   UNL A   1      39.859  32.457  31.743  1.00  0.00    -0.354 N 
ATOM     40  C   UNL A   1      39.657  28.994  29.225  1.00  0.00     0.074 A 
ATOM     41  C   UNL A   1      38.468  29.010  28.403  1.00  0.00     0.031 C 
ATOM     42  C   UNL A   1      39.200  34.406  32.614  1.00  0.00     0.029 A 
ATOM     43  C   UNL A   1      40.240  33.379  32.685  1.00  0.00     0.049 A 
ATOM     44  H   UNL A   1      40.384  31.651  31.536  1.00  0.00     0.167 HD
ATOM     45  C   UNL A   1      40.587  28.012  29.181  1.00  0.00     0.031 A 
ATOM     46  C   UNL A   1      41.298  33.388  33.519  1.00  0.00     0.031 A 
ATOM     47  C   UNL A   1      41.784  27.982  29.974  1.00  0.00     0.049 A 
ATOM     48  C   UNL A   1      42.296  32.260  33.490  1.00  0.00     0.074 A 
ATOM     49  C   UNL A   1      42.805  27.048  29.956  1.00  0.00     0.029 A 
ATOM     50  N   UNL A   1      42.116  28.923  30.932  1.00  0.00    -0.354 N 
ATOM     51  N   UNL A   1      42.327  31.202  32.718  1.00  0.00    -0.248 NA
ATOM     52  C   UNL A   1      43.410  32.335  34.449  1.00  0.00     0.031 C 
ATOM     53  C   UNL A   1      43.737  27.402  30.936  1.00  0.00     0.029 A 
ATOM     54  C   UNL A   1      43.314  28.579  31.532  1.00  0.00     0.049 A 
ATOM     55  H   UNL A   1      41.578  29.719  31.153  1.00  0.00     0.167 HD
ATOM     56  C   UNL A   1      43.471  30.500  33.082  1.00  0.00     0.074 A 
ATOM     57  C   UNL A   1      44.113  31.255  34.135  1.00  0.00     0.031 C 
ATOM     58  C   UNL A   1      43.947  29.334  32.580  1.00  0.00     0.031 A 
BRANCH  45  59
ATOM     59  C   UNL A   1      40.327  26.870  28.243  1.00  0.00    -0.014 A 
ATOM     60  C   UNL A   1      39.565  25.761  28.644  1.00  0.00     0.009 A 
ATOM     61  C   UNL A   1      40.843  26.911  26.940  1.00  0.00     0.009 A 
ATOM     62  C   UNL A   1      39.354  24.699  27.764  1.00  0.00     0.001 A 
ATOM     63  C   UNL A   1      40.609  25.858  26.055  1.00  0.00     0.001 A 
ATOM     64  C   UNL A   1      39.872  24.749  26.472  1.00  0.00     0.000 A 
ENDBRANCH  45  59
BRANCH  46  65
ATOM     65  C   UNL A   1      41.477  34.508  34.478  1.00  0.00    -0.014 A 
ATOM     66  C   UNL A   1      42.224  35.640  34.119  1.00  0.00     0.009 A 
ATOM     67  C   UNL A   1      40.932  34.432  35.769  1.00  0.00     0.009 A 
ATOM     68  C   UNL A   1      42.439  36.665  35.043  1.00  0.00     0.001 A 
ATOM     69  C   UNL A   1      41.131  35.468  36.682  1.00  0.00     0.001 A 
ATOM     70  C   UNL A   1      41.891  36.580  36.322  1.00  0.00     0.000 A 
ENDBRANCH  46  65
BRANCH  58  71
ATOM     71  C   UNL A   1      45.238  28.810  33.141  1.00  0.00    -0.014 A 
ATOM     72  C   UNL A   1      45.251  27.914  34.220  1.00  0.00     0.009 A 
ATOM     73  C   UNL A   1      46.455  29.175  32.543  1.00  0.00     0.009 A 
ATOM     74  C   UNL A   1      46.460  27.411  34.705  1.00  0.00     0.001 A 
ATOM     75  C   UNL A   1      47.660  28.652  33.016  1.00  0.00     0.001 A 
ATOM     76  C   UNL A   1      47.663  27.777  34.100  1.00  0.00     0.000 A 
ENDBRANCH  58  71
ENDBRANCH  32  33
ENDBRANCH  25  27
ENDBRANCH  24  25
ENDBRANCH  23  24
ENDBRANCH  22  23
ENDBRANCH  21  22
ENDBRANCH   1  21
TORSDOF 17
ENDMDL
MODEL 3
REMARK VINA RESULT:     -11.5      0.885      6.006
REMARK SMILES COc1ccccc1N1C(=O)CC[C@H]1CC(=O)OCCOCCOC(=O)c1ccc(-c2c3nc(c(-c4ccccc4)c4ccc([nH]4)c(-c4ccccc4)c4nc(c(-c5ccccc5)c5ccc2[nH]5)C=C4)C=C3)cc1
REMARK SMILES IDX 20 1 19 2 18 3 16 4 17 5 15 6 14 7 9 8 10 9 11 10 12 11
REMARK SMILES IDX 13 12 8 13 3 14 4 15 5 16 7 17 6 18 2 19 1 20 21 21 22 22
REMARK SMILES IDX 23 23 24 24 25 25 26 26 27 27 28 28 74 29 29 30 73 31 30 32
REMARK SMILES IDX 31 33 32 34 67 35 33 36 72 37 66 38 68 39 34 40 71 41 65 42
REMARK SMILES IDX 64 43 35 45 57 46 42 47 56 48 43 49 46 50 55 51 69 52 44 53
REMARK SMILES IDX 45 54 54 56 70 57 47 58 36 59 37 60 41 61 38 62 40 63 39 64
REMARK SMILES IDX 58 65 59 66 63 67 60 68 62 69 61 70 48 71 49 72 53 73 50 74
REMARK SMILES IDX 52 75 51 76
REMARK H PARENT 68 44 46 55
REMARK Flexibility Score: inf
ROOT
ATOM      1  C   UNL A   1      31.433  28.136  26.859  1.00  0.00     0.202 C 
ENDROOT
BRANCH   1   2
ATOM      2  C   UNL A   1      30.858  26.731  26.555  1.00  0.00     0.261 C 
BRANCH   2   3
ATOM      3  O   UNL A   1      31.851  25.695  26.697  1.00  0.00    -0.463 OA
BRANCH   3   4
ATOM      4  C   UNL A   1      31.421  24.428  26.508  1.00  0.00     0.307 C 
ATOM      5  O   UNL A   1      31.226  23.625  27.412  1.00  0.00    -0.252 OA
BRANCH   4   6
ATOM      6  C   UNL A   1      30.939  24.202  25.092  1.00  0.00     0.148 C 
BRANCH   6   7
ATOM      7  C   UNL A   1      31.849  24.390  23.887  1.00  0.00     0.102 C 
ATOM      8  N   UNL A   1      32.365  23.341  23.021  1.00  0.00    -0.305 N 
ATOM      9  C   UNL A   1      32.849  23.953  21.848  1.00  0.00     0.227 C 
ATOM     10  O   UNL A   1      33.621  23.513  21.015  1.00  0.00    -0.275 OA
ATOM     11  C   UNL A   1      32.315  25.367  21.791  1.00  0.00     0.103 C 
ATOM     12  C   UNL A   1      31.274  25.391  22.892  1.00  0.00     0.036 C 
BRANCH   8  13
ATOM     13  C   UNL A   1      32.892  22.100  23.471  1.00  0.00     0.086 A 
ATOM     14  C   UNL A   1      34.432  21.941  24.393  1.00  0.00     0.142 A 
ATOM     15  C   UNL A   1      35.024  20.318  24.913  1.00  0.00     0.048 A 
ATOM     16  C   UNL A   1      34.132  18.811  24.434  1.00  0.00     0.004 A 
ATOM     17  C   UNL A   1      32.016  20.605  22.965  1.00  0.00     0.030 A 
ATOM     18  C   UNL A   1      32.620  18.955  23.464  1.00  0.00     0.002 A 
BRANCH  14  19
ATOM     19  O   UNL A   1      35.366  22.935  24.511  1.00  0.00    -0.495 OA
ATOM     20  C   UNL A   1      35.510  23.446  25.820  1.00  0.00     0.278 C 
ENDBRANCH  14  19
ENDBRANCH   8  13
ENDBRANCH   6   7
ENDBRANCH   4   6
ENDBRANCH   3   4
ENDBRANCH   2   3
ENDBRANCH   1   2
BRANCH   1  21
ATOM     21  O   UNL A   1      32.273  28.819  25.909  1.00  0.00    -0.374 OA
BRANCH  21  22
ATOM     22  C   UNL A   1      31.967  30.150  25.504  1.00  0.00     0.202 C 
BRANCH  22  23
ATOM     23  C   UNL A   1      31.473  31.396  26.492  1.00  0.00     0.261 C 
BRANCH  23  24
ATOM     24  O   UNL A   1      32.557  32.870  27.344  1.00  0.00    -0.460 OA
BRANCH  24  25
ATOM     25  C   UNL A   1      33.607  33.607  27.946  1.00  0.00     0.338 C 
ATOM     26  O   UNL A   1      33.572  34.740  28.419  1.00  0.00    -0.246 OA
BRANCH  25  27
ATOM     27  C   UNL A   1      34.833  32.804  28.154  1.00  0.00     0.060 A 
ATOM     28  C   UNL A   1      34.760  31.409  28.285  1.00  0.00     0.016 A 
ATOM     29  C   UNL A   1      36.028  33.460  28.416  1.00  0.00     0.016 A 
ATOM     30  C   UNL A   1      35.890  30.679  28.667  1.00  0.00     0.010 A 
ATOM     31  C   UNL A   1      37.172  32.732  28.748  1.00  0.00     0.010 A 
ATOM     32  C   UNL A   1      37.098  31.341  28.931  1.00  0.00    -0.014 A 
BRANCH  32  33
ATOM     33  C   UNL A   1      38.207  30.642  29.630  1.00  0.00     0.031 A 
ATOM     34  C   UNL A   1      38.399  30.901  31.103  1.00  0.00     0.074 A 
ATOM     35  C   UNL A   1      39.034  29.794  28.995  1.00  0.00     0.049 A 
ATOM     36  N   UNL A   1      39.322  30.448  31.913  1.00  0.00    -0.248 NA
ATOM     37  C   UNL A   1      37.424  31.799  31.745  1.00  0.00     0.031 C 
ATOM     38  C   UNL A   1      38.962  29.427  27.583  1.00  0.00     0.029 A 
ATOM     39  N   UNL A   1      40.115  29.091  29.472  1.00  0.00    -0.354 N 
ATOM     40  C   UNL A   1      39.051  31.024  33.148  1.00  0.00     0.074 A 
ATOM     41  C   UNL A   1      37.900  31.880  32.977  1.00  0.00     0.031 C 
ATOM     42  C   UNL A   1      39.959  28.566  27.307  1.00  0.00     0.029 A 
ATOM     43  C   UNL A   1      40.753  28.343  28.515  1.00  0.00     0.049 A 
ATOM     44  H   UNL A   1      40.405  29.123  30.413  1.00  0.00     0.167 HD
ATOM     45  C   UNL A   1      39.691  30.850  34.329  1.00  0.00     0.031 A 
ATOM     46  C   UNL A   1      41.859  27.578  28.599  1.00  0.00     0.031 A 
ATOM     47  C   UNL A   1      40.825  29.993  34.527  1.00  0.00     0.049 A 
ATOM     48  C   UNL A   1      42.586  27.438  29.911  1.00  0.00     0.074 A 
ATOM     49  C   UNL A   1      41.504  29.721  35.702  1.00  0.00     0.029 A 
ATOM     50  N   UNL A   1      41.452  29.274  33.524  1.00  0.00    -0.354 N 
ATOM     51  N   UNL A   1      42.293  27.954  31.079  1.00  0.00    -0.248 NA
ATOM     52  C   UNL A   1      43.797  26.602  29.912  1.00  0.00     0.031 C 
ATOM     53  C   UNL A   1      42.571  28.869  35.402  1.00  0.00     0.029 A 
ATOM     54  C   UNL A   1      42.528  28.579  34.049  1.00  0.00     0.049 A 
ATOM     55  H   UNL A   1      41.174  29.261  32.579  1.00  0.00     0.167 HD
ATOM     56  C   UNL A   1      43.266  27.488  31.955  1.00  0.00     0.074 A 
ATOM     57  C   UNL A   1      44.154  26.641  31.189  1.00  0.00     0.031 C 
ATOM     58  C   UNL A   1      43.407  27.739  33.280  1.00  0.00     0.031 A 
BRANCH  45  59
ATOM     59  C   UNL A   1      39.177  31.631  35.501  1.00  0.00    -0.014 A 
ATOM     60  C   UNL A   1      39.653  32.923  35.779  1.00  0.00     0.009 A 
ATOM     61  C   UNL A   1      38.196  31.070  36.332  1.00  0.00     0.009 A 
ATOM     62  C   UNL A   1      39.178  33.623  36.889  1.00  0.00     0.001 A 
ATOM     63  C   UNL A   1      37.706  31.783  37.426  1.00  0.00     0.001 A 
ATOM     64  C   UNL A   1      38.204  33.055  37.708  1.00  0.00     0.000 A 
ENDBRANCH  45  59
BRANCH  46  65
ATOM     65  C   UNL A   1      42.370  26.877  27.393  1.00  0.00    -0.014 A 
ATOM     66  C   UNL A   1      41.923  25.585  27.078  1.00  0.00     0.009 A 
ATOM     67  C   UNL A   1      43.333  27.485  26.574  1.00  0.00     0.009 A 
ATOM     68  C   UNL A   1      42.448  24.907  25.977  1.00  0.00     0.001 A 
ATOM     69  C   UNL A   1      43.840  26.811  25.462  1.00  0.00     0.001 A 
ATOM     70  C   UNL A   1      43.404  25.520  25.168  1.00  0.00     0.000 A 
ENDBRANCH  46  65
BRANCH  58  71
ATOM     71  C   UNL A   1      44.545  27.070  33.999  1.00  0.00    -0.014 A 
ATOM     72  C   UNL A   1      45.784  27.711  34.151  1.00  0.00     0.009 A 
ATOM     73  C   UNL A   1      44.354  25.807  34.580  1.00  0.00     0.009 A 
ATOM     74  C   UNL A   1      46.818  27.088  34.853  1.00  0.00     0.001 A 
ATOM     75  C   UNL A   1      45.383  25.197  35.301  1.00  0.00     0.001 A 
ATOM     76  C   UNL A   1      46.615  25.834  35.431  1.00  0.00     0.000 A 
ENDBRANCH  58  71
ENDBRANCH  32  33
ENDBRANCH  25  27
ENDBRANCH  24  25
ENDBRANCH  23  24
ENDBRANCH  22  23
ENDBRANCH  21  22
ENDBRANCH   1  21
TORSDOF 17
ENDMDL
