MODEL 1
REMARK VINA RESULT:      -8.1      0.000      0.000
REMARK SMILES C[C@@H](C[NH3+])S/C=C/C(=O)OCCOCCOC(=O)c1ccc(-c2c3nc(c(-c4ccccc4)c4ccc([nH]4)c(-c4ccccc4)c4nc(c(-c5ccccc5)c5ccc2[nH]5)C=C4)C=C3)cc1
REMARK SMILES IDX 12 1 11 2 10 3 8 4 9 5 7 6 6 7 5 8 2 9 1 10 3 11 4 12 13 16
REMARK SMILES IDX 14 17 15 18 16 19 17 20 18 21 19 22 20 23 66 24 21 25 65 26
REMARK SMILES IDX 22 27 23 28 24 29 59 30 25 31 64 32 58 33 60 34 26 35 63 36
REMARK SMILES IDX 57 37 56 38 27 40 49 41 34 42 48 43 35 44 38 45 47 46 61 47
REMARK SMILES IDX 36 48 37 49 46 51 62 52 39 53 28 54 29 55 33 56 30 57 32 58
REMARK SMILES IDX 31 59 50 60 51 61 55 62 52 63 54 64 53 65 40 66 41 67 45 68
REMARK SMILES IDX 42 69 44 70 43 71
REMARK H PARENT 4 13 4 14 4 15 60 39 38 50
REMARK Flexibility Score: inf
ROOT
ATOM      1  C   UNL A   1      46.454  22.058  24.308  1.00  0.00     0.202 C 
ENDROOT
BRANCH   1   2
ATOM      2  C   UNL A   1      46.002  23.513  24.453  1.00  0.00     0.261 C 
BRANCH   2   3
ATOM      3  O   UNL A   1      47.074  24.347  24.922  1.00  0.00    -0.460 OA
BRANCH   3   4
ATOM      4  C   UNL A   1      46.880  25.675  24.743  1.00  0.00     0.331 C 
ATOM      5  O   UNL A   1      45.833  26.285  24.909  1.00  0.00    -0.247 OA
BRANCH   4   6
ATOM      6  C   UNL A   1      48.115  26.392  24.376  1.00  0.00     0.100 C 
ATOM      7  C   UNL A   1      48.665  26.453  23.160  1.00  0.00     0.048 C 
BRANCH   7   8
ATOM      8  S   UNL A   1      50.081  27.351  22.743  1.00  0.00    -0.125 SA
BRANCH   8   9
ATOM      9  C   UNL A   1      49.866  28.090  21.075  1.00  0.00     0.103 C 
ATOM     10  C   UNL A   1      50.337  29.540  20.958  1.00  0.00     0.026 C 
BRANCH   9  11
ATOM     11  C   UNL A   1      50.280  27.201  19.881  1.00  0.00     0.273 C 
BRANCH  11  12
ATOM     12  N   UNL A   1      49.749  25.837  19.854  1.00  0.00    -0.357 N 
ATOM     13  H   UNL A   1      50.051  25.371  18.999  1.00  0.00     0.344 HD
ATOM     14  H   UNL A   1      48.730  25.868  19.884  1.00  0.00     0.344 HD
ATOM     15  H   UNL A   1      50.097  25.322  20.664  1.00  0.00     0.344 HD
ENDBRANCH  11  12
ENDBRANCH   9  11
ENDBRANCH   8   9
ENDBRANCH   7   8
ENDBRANCH   4   6
ENDBRANCH   3   4
ENDBRANCH   2   3
ENDBRANCH   1   2
BRANCH   1  16
ATOM     16  O   UNL A   1      45.971  21.153  25.299  1.00  0.00    -0.374 OA
BRANCH  16  17
ATOM     17  C   UNL A   1      45.953  19.765  24.953  1.00  0.00     0.202 C 
BRANCH  17  18
ATOM     18  C   UNL A   1      44.716  18.979  25.406  1.00  0.00     0.261 C 
BRANCH  18  19
ATOM     19  O   UNL A   1      43.507  19.515  24.833  1.00  0.00    -0.460 OA
BRANCH  19  20
ATOM     20  C   UNL A   1      42.453  19.595  25.675  1.00  0.00     0.338 C 
ATOM     21  O   UNL A   1      41.736  18.680  26.061  1.00  0.00    -0.246 OA
BRANCH  20  22
ATOM     22  C   UNL A   1      42.376  20.952  26.247  1.00  0.00     0.060 A 
ATOM     23  C   UNL A   1      42.572  22.035  25.379  1.00  0.00     0.016 A 
ATOM     24  C   UNL A   1      42.172  21.163  27.612  1.00  0.00     0.016 A 
ATOM     25  C   UNL A   1      42.609  23.334  25.881  1.00  0.00     0.010 A 
ATOM     26  C   UNL A   1      42.220  22.468  28.116  1.00  0.00     0.010 A 
ATOM     27  C   UNL A   1      42.471  23.555  27.258  1.00  0.00    -0.014 A 
BRANCH  27  28
ATOM     28  C   UNL A   1      42.728  24.905  27.812  1.00  0.00     0.031 A 
ATOM     29  C   UNL A   1      44.137  25.289  28.174  1.00  0.00     0.074 A 
ATOM     30  C   UNL A   1      41.728  25.790  27.969  1.00  0.00     0.049 A 
ATOM     31  N   UNL A   1      44.586  26.402  28.696  1.00  0.00    -0.248 NA
ATOM     32  C   UNL A   1      45.179  24.282  27.913  1.00  0.00     0.031 C 
ATOM     33  C   UNL A   1      40.329  25.556  27.617  1.00  0.00     0.029 A 
ATOM     34  N   UNL A   1      41.743  27.067  28.471  1.00  0.00    -0.354 N 
ATOM     35  C   UNL A   1      45.957  26.229  28.828  1.00  0.00     0.074 A 
ATOM     36  C   UNL A   1      46.265  24.895  28.361  1.00  0.00     0.031 C 
ATOM     37  C   UNL A   1      39.615  26.654  27.924  1.00  0.00     0.029 A 
ATOM     38  C   UNL A   1      40.501  27.651  28.519  1.00  0.00     0.049 A 
ATOM     39  H   UNL A   1      42.565  27.520  28.768  1.00  0.00     0.167 HD
ATOM     40  C   UNL A   1      46.880  27.105  29.292  1.00  0.00     0.031 A 
ATOM     41  C   UNL A   1      40.121  28.847  29.008  1.00  0.00     0.031 A 
ATOM     42  C   UNL A   1      46.577  28.426  29.773  1.00  0.00     0.049 A 
ATOM     43  C   UNL A   1      41.156  29.772  29.592  1.00  0.00     0.074 A 
ATOM     44  C   UNL A   1      47.447  29.390  30.254  1.00  0.00     0.029 A 
ATOM     45  N   UNL A   1      45.303  28.966  29.839  1.00  0.00    -0.354 N 
ATOM     46  N   UNL A   1      42.452  29.606  29.691  1.00  0.00    -0.248 NA
ATOM     47  C   UNL A   1      40.671  31.054  30.126  1.00  0.00     0.031 C 
ATOM     48  C   UNL A   1      46.691  30.495  30.661  1.00  0.00     0.029 A 
ATOM     49  C   UNL A   1      45.358  30.240  30.379  1.00  0.00     0.049 A 
ATOM     50  H   UNL A   1      44.480  28.511  29.547  1.00  0.00     0.167 HD
ATOM     51  C   UNL A   1      42.941  30.770  30.271  1.00  0.00     0.074 A 
ATOM     52  C   UNL A   1      41.804  31.639  30.490  1.00  0.00     0.031 C 
ATOM     53  C   UNL A   1      44.218  31.092  30.591  1.00  0.00     0.031 A 
BRANCH  40  54
ATOM     54  C   UNL A   1      48.310  26.643  29.328  1.00  0.00    -0.014 A 
ATOM     55  C   UNL A   1      49.186  26.900  28.263  1.00  0.00     0.009 A 
ATOM     56  C   UNL A   1      48.795  25.969  30.460  1.00  0.00     0.009 A 
ATOM     57  C   UNL A   1      50.511  26.462  28.316  1.00  0.00     0.001 A 
ATOM     58  C   UNL A   1      50.126  25.556  30.522  1.00  0.00     0.001 A 
ATOM     59  C   UNL A   1      50.981  25.794  29.446  1.00  0.00     0.000 A 
ENDBRANCH  40  54
BRANCH  41  60
ATOM     60  C   UNL A   1      38.687  29.236  28.992  1.00  0.00    -0.014 A 
ATOM     61  C   UNL A   1      37.882  29.057  30.128  1.00  0.00     0.009 A 
ATOM     62  C   UNL A   1      38.110  29.769  27.828  1.00  0.00     0.009 A 
ATOM     63  C   UNL A   1      36.524  29.380  30.090  1.00  0.00     0.001 A 
ATOM     64  C   UNL A   1      36.759  30.118  27.803  1.00  0.00     0.001 A 
ATOM     65  C   UNL A   1      35.964  29.915  28.930  1.00  0.00     0.000 A 
ENDBRANCH  41  60
BRANCH  53  66
ATOM     66  C   UNL A   1      44.459  32.454  31.180  1.00  0.00    -0.014 A 
ATOM     67  C   UNL A   1      44.457  32.661  32.568  1.00  0.00     0.009 A 
ATOM     68  C   UNL A   1      44.735  33.538  30.331  1.00  0.00     0.009 A 
ATOM     69  C   UNL A   1      44.697  33.933  33.092  1.00  0.00     0.001 A 
ATOM     70  C   UNL A   1      45.000  34.802  30.859  1.00  0.00     0.001 A 
ATOM     71  C   UNL A   1      44.972  35.001  32.238  1.00  0.00     0.000 A 
ENDBRANCH  53  66
ENDBRANCH  27  28
ENDBRANCH  20  22
ENDBRANCH  19  20
ENDBRANCH  18  19
ENDBRANCH  17  18
ENDBRANCH  16  17
ENDBRANCH   1  16
TORSDOF 18
ENDMDL
MODEL 2
REMARK VINA RESULT:      -7.9      0.299      6.348
REMARK SMILES C[C@@H](C[NH3+])S/C=C/C(=O)OCCOCCOC(=O)c1ccc(-c2c3nc(c(-c4ccccc4)c4ccc([nH]4)c(-c4ccccc4)c4nc(c(-c5ccccc5)c5ccc2[nH]5)C=C4)C=C3)cc1
REMARK SMILES IDX 12 1 11 2 10 3 8 4 9 5 7 6 6 7 5 8 2 9 1 10 3 11 4 12 13 16
REMARK SMILES IDX 14 17 15 18 16 19 17 20 18 21 19 22 20 23 66 24 21 25 65 26
REMARK SMILES IDX 22 27 23 28 24 29 59 30 25 31 64 32 58 33 60 34 26 35 63 36
REMARK SMILES IDX 57 37 56 38 27 40 49 41 34 42 48 43 35 44 38 45 47 46 61 47
REMARK SMILES IDX 36 48 37 49 46 51 62 52 39 53 28 54 29 55 33 56 30 57 32 58
REMARK SMILES IDX 31 59 50 60 51 61 55 62 52 63 54 64 53 65 40 66 41 67 45 68
REMARK SMILES IDX 42 69 44 70 43 71
REMARK H PARENT 4 13 4 14 4 15 60 39 38 50
REMARK Flexibility Score: inf
ROOT
ATOM      1  C   UNL A   1      46.341  22.020  24.320  1.00  0.00     0.202 C 
ENDROOT
BRANCH   1   2
ATOM      2  C   UNL A   1      45.965  23.491  24.514  1.00  0.00     0.261 C 
BRANCH   2   3
ATOM      3  O   UNL A   1      47.074  24.250  25.020  1.00  0.00    -0.460 OA
BRANCH   3   4
ATOM      4  C   UNL A   1      46.927  25.593  24.938  1.00  0.00     0.331 C 
ATOM      5  O   UNL A   1      45.927  26.234  25.230  1.00  0.00    -0.247 OA
BRANCH   4   6
ATOM      6  C   UNL A   1      48.158  26.281  24.508  1.00  0.00     0.100 C 
ATOM      7  C   UNL A   1      48.630  26.357  23.260  1.00  0.00     0.048 C 
BRANCH   7   8
ATOM      8  S   UNL A   1      50.045  27.221  22.773  1.00  0.00    -0.125 SA
BRANCH   8   9
ATOM      9  C   UNL A   1      49.757  27.986  21.128  1.00  0.00     0.103 C 
ATOM     10  C   UNL A   1      50.222  29.438  21.013  1.00  0.00     0.026 C 
BRANCH   9  11
ATOM     11  C   UNL A   1      50.119  27.116  19.903  1.00  0.00     0.273 C 
BRANCH  11  12
ATOM     12  N   UNL A   1      49.619  25.740  19.895  1.00  0.00    -0.357 N 
ATOM     13  H   UNL A   1      49.880  25.288  19.019  1.00  0.00     0.344 HD
ATOM     14  H   UNL A   1      48.603  25.747  19.985  1.00  0.00     0.344 HD
ATOM     15  H   UNL A   1      50.026  25.227  20.677  1.00  0.00     0.344 HD
ENDBRANCH  11  12
ENDBRANCH   9  11
ENDBRANCH   8   9
ENDBRANCH   7   8
ENDBRANCH   4   6
ENDBRANCH   3   4
ENDBRANCH   2   3
ENDBRANCH   1   2
BRANCH   1  16
ATOM     16  O   UNL A   1      45.782  21.103  25.259  1.00  0.00    -0.374 OA
BRANCH  16  17
ATOM     17  C   UNL A   1      45.659  19.742  24.838  1.00  0.00     0.202 C 
BRANCH  17  18
ATOM     18  C   UNL A   1      44.396  19.008  25.307  1.00  0.00     0.261 C 
BRANCH  18  19
ATOM     19  O   UNL A   1      43.201  19.627  24.789  1.00  0.00    -0.460 OA
BRANCH  19  20
ATOM     20  C   UNL A   1      42.188  19.759  25.674  1.00  0.00     0.338 C 
ATOM     21  O   UNL A   1      41.413  18.890  26.056  1.00  0.00    -0.246 OA
BRANCH  20  22
ATOM     22  C   UNL A   1      42.243  21.095  26.296  1.00  0.00     0.060 A 
ATOM     23  C   UNL A   1      42.472  22.193  25.456  1.00  0.00     0.016 A 
ATOM     24  C   UNL A   1      42.130  21.268  27.677  1.00  0.00     0.016 A 
ATOM     25  C   UNL A   1      42.631  23.466  25.999  1.00  0.00     0.010 A 
ATOM     26  C   UNL A   1      42.302  22.546  28.221  1.00  0.00     0.010 A 
ATOM     27  C   UNL A   1      42.585  23.644  27.388  1.00  0.00    -0.014 A 
BRANCH  27  28
ATOM     28  C   UNL A   1      42.972  24.949  27.973  1.00  0.00     0.031 A 
ATOM     29  C   UNL A   1      41.906  25.980  28.227  1.00  0.00     0.074 A 
ATOM     30  C   UNL A   1      44.250  25.209  28.299  1.00  0.00     0.049 A 
ATOM     31  N   UNL A   1      42.021  27.193  28.705  1.00  0.00    -0.248 NA
ATOM     32  C   UNL A   1      40.524  25.590  27.897  1.00  0.00     0.031 C 
ATOM     33  C   UNL A   1      45.368  24.280  28.143  1.00  0.00     0.029 A 
ATOM     34  N   UNL A   1      44.820  26.340  28.827  1.00  0.00    -0.354 N 
ATOM     35  C   UNL A   1      40.733  27.711  28.730  1.00  0.00     0.074 A 
ATOM     36  C   UNL A   1      39.855  26.695  28.193  1.00  0.00     0.031 C 
ATOM     37  C   UNL A   1      46.496  24.885  28.559  1.00  0.00     0.029 A 
ATOM     38  C   UNL A   1      46.181  26.248  28.980  1.00  0.00     0.049 A 
ATOM     39  H   UNL A   1      44.302  27.141  29.073  1.00  0.00     0.167 HD
ATOM     40  C   UNL A   1      40.316  28.924  29.167  1.00  0.00     0.031 A 
ATOM     41  C   UNL A   1      47.074  27.167  29.394  1.00  0.00     0.031 A 
ATOM     42  C   UNL A   1      41.187  29.943  29.685  1.00  0.00     0.049 A 
ATOM     43  C   UNL A   1      46.595  28.536  29.800  1.00  0.00     0.074 A 
ATOM     44  C   UNL A   1      40.857  31.201  30.161  1.00  0.00     0.029 A 
ATOM     45  N   UNL A   1      42.564  29.824  29.789  1.00  0.00    -0.354 N 
ATOM     46  N   UNL A   1      45.372  29.006  29.841  1.00  0.00    -0.248 NA
ATOM     47  C   UNL A   1      47.624  29.498  30.222  1.00  0.00     0.031 C 
ATOM     48  C   UNL A   1      42.041  31.863  30.504  1.00  0.00     0.029 A 
ATOM     49  C   UNL A   1      43.102  30.995  30.296  1.00  0.00     0.049 A 
ATOM     50  H   UNL A   1      43.083  29.026  29.540  1.00  0.00     0.167 HD
ATOM     51  C   UNL A   1      45.480  30.306  30.319  1.00  0.00     0.074 A 
ATOM     52  C   UNL A   1      46.887  30.546  30.566  1.00  0.00     0.031 C 
ATOM     53  C   UNL A   1      44.503  31.219  30.537  1.00  0.00     0.031 A 
BRANCH  40  54
ATOM     54  C   UNL A   1      38.846  29.222  29.071  1.00  0.00    -0.014 A 
ATOM     55  C   UNL A   1      37.997  29.060  30.175  1.00  0.00     0.009 A 
ATOM     56  C   UNL A   1      38.311  29.702  27.865  1.00  0.00     0.009 A 
ATOM     57  C   UNL A   1      36.633  29.343  30.065  1.00  0.00     0.001 A 
ATOM     58  C   UNL A   1      36.953  30.008  27.766  1.00  0.00     0.001 A 
ATOM     59  C   UNL A   1      36.114  29.820  28.863  1.00  0.00     0.000 A 
ENDBRANCH  40  54
BRANCH  41  60
ATOM     60  C   UNL A   1      48.522  26.837  29.425  1.00  0.00    -0.014 A 
ATOM     61  C   UNL A   1      49.345  27.113  28.321  1.00  0.00     0.009 A 
ATOM     62  C   UNL A   1      49.086  26.221  30.554  1.00  0.00     0.009 A 
ATOM     63  C   UNL A   1      50.695  26.757  28.339  1.00  0.00     0.001 A 
ATOM     64  C   UNL A   1      50.442  25.891  30.579  1.00  0.00     0.001 A 
ATOM     65  C   UNL A   1      51.244  26.150  29.469  1.00  0.00     0.000 A 
ENDBRANCH  41  60
BRANCH  53  66
ATOM     66  C   UNL A   1      44.915  32.549  31.102  1.00  0.00    -0.014 A 
ATOM     67  C   UNL A   1      45.223  33.635  30.267  1.00  0.00     0.009 A 
ATOM     68  C   UNL A   1      44.953  32.729  32.494  1.00  0.00     0.009 A 
ATOM     69  C   UNL A   1      45.591  34.865  30.815  1.00  0.00     0.001 A 
ATOM     70  C   UNL A   1      45.295  33.968  33.039  1.00  0.00     0.001 A 
ATOM     71  C   UNL A   1      45.622  35.032  32.200  1.00  0.00     0.000 A 
ENDBRANCH  53  66
ENDBRANCH  27  28
ENDBRANCH  20  22
ENDBRANCH  19  20
ENDBRANCH  18  19
ENDBRANCH  17  18
ENDBRANCH  16  17
ENDBRANCH   1  16
TORSDOF 18
ENDMDL
MODEL 3
REMARK VINA RESULT:      -7.7      5.960     11.624
REMARK SMILES C[C@@H](C[NH3+])S/C=C/C(=O)OCCOCCOC(=O)c1ccc(-c2c3nc(c(-c4ccccc4)c4ccc([nH]4)c(-c4ccccc4)c4nc(c(-c5ccccc5)c5ccc2[nH]5)C=C4)C=C3)cc1
REMARK SMILES IDX 12 1 11 2 10 3 8 4 9 5 7 6 6 7 5 8 2 9 1 10 3 11 4 12 13 16
REMARK SMILES IDX 14 17 15 18 16 19 17 20 18 21 19 22 20 23 66 24 21 25 65 26
REMARK SMILES IDX 22 27 23 28 24 29 59 30 25 31 64 32 58 33 60 34 26 35 63 36
REMARK SMILES IDX 57 37 56 38 27 40 49 41 34 42 48 43 35 44 38 45 47 46 61 47
REMARK SMILES IDX 36 48 37 49 46 51 62 52 39 53 28 54 29 55 33 56 30 57 32 58
REMARK SMILES IDX 31 59 50 60 51 61 55 62 52 63 54 64 53 65 40 66 41 67 45 68
REMARK SMILES IDX 42 69 44 70 43 71
REMARK H PARENT 4 13 4 14 4 15 60 39 38 50
REMARK Flexibility Score: inf
ROOT
ATOM      1  C   UNL A   1      33.877  37.041  33.184  1.00  0.00     0.202 C 
ENDROOT
BRANCH   1   2
ATOM      2  C   UNL A   1      32.840  36.553  32.170  1.00  0.00     0.261 C 
BRANCH   2   3
ATOM      3  O   UNL A   1      32.955  37.260  30.925  1.00  0.00    -0.460 OA
BRANCH   3   4
ATOM      4  C   UNL A   1      32.914  36.477  29.822  1.00  0.00     0.331 C 
ATOM      5  O   UNL A   1      32.544  36.815  28.706  1.00  0.00    -0.247 OA
BRANCH   4   6
ATOM      6  C   UNL A   1      33.443  35.122  30.058  1.00  0.00     0.100 C 
ATOM      7  C   UNL A   1      33.779  34.228  29.124  1.00  0.00     0.048 C 
BRANCH   7   8
ATOM      8  S   UNL A   1      34.455  32.667  29.425  1.00  0.00    -0.125 SA
BRANCH   8   9
ATOM      9  C   UNL A   1      36.081  32.531  28.581  1.00  0.00     0.103 C 
ATOM     10  C   UNL A   1      37.093  33.608  28.977  1.00  0.00     0.026 C 
BRANCH   9  11
ATOM     11  C   UNL A   1      36.683  31.111  28.492  1.00  0.00     0.273 C 
BRANCH  11  12
ATOM     12  N   UNL A   1      36.156  30.108  29.419  1.00  0.00    -0.357 N 
ATOM     13  H   UNL A   1      36.508  30.293  30.358  1.00  0.00     0.344 HD
ATOM     14  H   UNL A   1      36.454  29.179  29.121  1.00  0.00     0.344 HD
ATOM     15  H   UNL A   1      35.136  30.152  29.423  1.00  0.00     0.344 HD
ENDBRANCH  11  12
ENDBRANCH   9  11
ENDBRANCH   8   9
ENDBRANCH   7   8
ENDBRANCH   4   6
ENDBRANCH   3   4
ENDBRANCH   2   3
ENDBRANCH   1   2
BRANCH   1  16
ATOM     16  O   UNL A   1      34.426  36.046  34.044  1.00  0.00    -0.374 OA
BRANCH  16  17
ATOM     17  C   UNL A   1      35.025  34.908  33.417  1.00  0.00     0.202 C 
BRANCH  17  18
ATOM     18  C   UNL A   1      35.582  33.838  34.365  1.00  0.00     0.261 C 
BRANCH  18  19
ATOM     19  O   UNL A   1      37.007  33.683  34.210  1.00  0.00    -0.460 OA
BRANCH  19  20
ATOM     20  C   UNL A   1      37.520  32.528  34.690  1.00  0.00     0.338 C 
ATOM     21  O   UNL A   1      37.288  32.003  35.772  1.00  0.00    -0.246 OA
BRANCH  20  22
ATOM     22  C   UNL A   1      38.287  31.847  33.631  1.00  0.00     0.060 A 
ATOM     23  C   UNL A   1      39.149  30.812  34.017  1.00  0.00     0.016 A 
ATOM     24  C   UNL A   1      38.209  32.246  32.295  1.00  0.00     0.016 A 
ATOM     25  C   UNL A   1      39.970  30.199  33.073  1.00  0.00     0.010 A 
ATOM     26  C   UNL A   1      39.043  31.636  31.351  1.00  0.00     0.010 A 
ATOM     27  C   UNL A   1      39.949  30.634  31.741  1.00  0.00    -0.014 A 
BRANCH  27  28
ATOM     28  C   UNL A   1      40.973  30.136  30.793  1.00  0.00     0.031 A 
ATOM     29  C   UNL A   1      42.218  30.951  30.568  1.00  0.00     0.074 A 
ATOM     30  C   UNL A   1      40.814  28.963  30.157  1.00  0.00     0.049 A 
ATOM     31  N   UNL A   1      43.228  30.721  29.768  1.00  0.00    -0.248 NA
ATOM     32  C   UNL A   1      42.339  32.192  31.351  1.00  0.00     0.031 C 
ATOM     33  C   UNL A   1      39.675  28.060  30.319  1.00  0.00     0.029 A 
ATOM     34  N   UNL A   1      41.617  28.333  29.240  1.00  0.00    -0.354 N 
ATOM     35  C   UNL A   1      44.100  31.786  29.948  1.00  0.00     0.074 A 
ATOM     36  C   UNL A   1      43.490  32.678  30.909  1.00  0.00     0.031 C 
ATOM     37  C   UNL A   1      39.849  26.993  29.519  1.00  0.00     0.029 A 
ATOM     38  C   UNL A   1      41.092  27.155  28.769  1.00  0.00     0.049 A 
ATOM     39  H   UNL A   1      42.486  28.692  28.947  1.00  0.00     0.167 HD
ATOM     40  C   UNL A   1      45.306  32.000  29.369  1.00  0.00     0.031 A 
ATOM     41  C   UNL A   1      41.554  26.313  27.824  1.00  0.00     0.031 A 
ATOM     42  C   UNL A   1      45.908  31.125  28.400  1.00  0.00     0.049 A 
ATOM     43  C   UNL A   1      42.859  26.614  27.136  1.00  0.00     0.074 A 
ATOM     44  C   UNL A   1      47.131  31.253  27.763  1.00  0.00     0.029 A 
ATOM     45  N   UNL A   1      45.328  29.961  27.923  1.00  0.00    -0.354 N 
ATOM     46  N   UNL A   1      43.686  27.612  27.332  1.00  0.00    -0.248 NA
ATOM     47  C   UNL A   1      43.296  25.666  26.101  1.00  0.00     0.031 C 
ATOM     48  C   UNL A   1      47.267  30.193  26.861  1.00  0.00     0.029 A 
ATOM     49  C   UNL A   1      46.154  29.374  26.979  1.00  0.00     0.049 A 
ATOM     50  H   UNL A   1      44.457  29.604  28.211  1.00  0.00     0.167 HD
ATOM     51  C   UNL A   1      44.752  27.398  26.466  1.00  0.00     0.074 A 
ATOM     52  C   UNL A   1      44.473  26.168  25.755  1.00  0.00     0.031 C 
ATOM     53  C   UNL A   1      45.864  28.151  26.280  1.00  0.00     0.031 A 
BRANCH  40  54
ATOM     54  C   UNL A   1      46.040  33.255  29.751  1.00  0.00    -0.014 A 
ATOM     55  C   UNL A   1      45.846  34.454  29.049  1.00  0.00     0.009 A 
ATOM     56  C   UNL A   1      46.914  33.243  30.848  1.00  0.00     0.009 A 
ATOM     57  C   UNL A   1      46.539  35.609  29.419  1.00  0.00     0.001 A 
ATOM     58  C   UNL A   1      47.584  34.404  31.233  1.00  0.00     0.001 A 
ATOM     59  C   UNL A   1      47.403  35.585  30.513  1.00  0.00     0.000 A 
ENDBRANCH  40  54
BRANCH  41  60
ATOM     60  C   UNL A   1      40.766  25.111  27.449  1.00  0.00    -0.014 A 
ATOM     61  C   UNL A   1      39.605  25.229  26.669  1.00  0.00     0.009 A 
ATOM     62  C   UNL A   1      41.160  23.837  27.890  1.00  0.00     0.009 A 
ATOM     63  C   UNL A   1      38.843  24.100  26.360  1.00  0.00     0.001 A 
ATOM     64  C   UNL A   1      40.412  22.708  27.557  1.00  0.00     0.001 A 
ATOM     65  C   UNL A   1      39.249  22.840  26.800  1.00  0.00     0.000 A 
ENDBRANCH  41  60
BRANCH  53  66
ATOM     66  C   UNL A   1      46.879  27.648  25.292  1.00  0.00    -0.014 A 
ATOM     67  C   UNL A   1      47.889  26.751  25.673  1.00  0.00     0.009 A 
ATOM     68  C   UNL A   1      46.796  28.048  23.948  1.00  0.00     0.009 A 
ATOM     69  C   UNL A   1      48.812  26.287  24.735  1.00  0.00     0.001 A 
ATOM     70  C   UNL A   1      47.704  27.561  23.007  1.00  0.00     0.001 A 
ATOM     71  C   UNL A   1      48.717  26.690  23.402  1.00  0.00     0.000 A 
ENDBRANCH  53  66
ENDBRANCH  27  28
ENDBRANCH  20  22
ENDBRANCH  19  20
ENDBRANCH  18  19
ENDBRANCH  17  18
ENDBRANCH  16  17
ENDBRANCH   1  16
TORSDOF 18
ENDMDL
