MODEL 1
REMARK VINA RESULT:      -9.1      0.000      0.000
REMARK SMILES CNC(=O)CC[NH+]1CCC(CC(=O)OCCOCCOC(=O)c2ccc(-c3c4nc(c(-c5ccccc5)c5ccc([nH]5)c(-c5ccccc5)c5nc(c(-c6ccccc6)c6ccc3[nH]6)C=C5)C=C4)cc2)CC1
REMARK SMILES IDX 16 1 15 2 14 3 12 4 13 5 11 6 10 7 7 8 8 9 72 10 9 12 71 13
REMARK SMILES IDX 6 14 5 15 3 16 1 17 2 18 4 20 17 21 18 22 19 23 20 24 21 25
REMARK SMILES IDX 22 26 23 27 24 28 70 29 25 30 69 31 26 32 27 33 28 34 63 35
REMARK SMILES IDX 29 36 68 37 62 38 64 39 30 40 67 41 61 42 60 43 31 45 53 46
REMARK SMILES IDX 38 47 52 48 39 49 42 50 51 51 65 52 40 53 41 54 50 56 66 57
REMARK SMILES IDX 43 58 32 59 33 60 37 61 34 62 36 63 35 64 54 65 55 66 59 67
REMARK SMILES IDX 56 68 58 69 57 70 44 71 45 72 49 73 46 74 48 75 47 76
REMARK H PARENT 7 11 2 19 64 44 42 55
REMARK Flexibility Score: inf
ROOT
ATOM      1  C   UNL A   1      35.407  33.801  28.498  1.00  0.00     0.202 C 
ENDROOT
BRANCH   1   2
ATOM      2  C   UNL A   1      34.696  32.483  28.819  1.00  0.00     0.261 C 
BRANCH   2   3
ATOM      3  O   UNL A   1      34.428  31.717  27.625  1.00  0.00    -0.463 OA
BRANCH   3   4
ATOM      4  C   UNL A   1      35.002  30.486  27.566  1.00  0.00     0.306 C 
ATOM      5  O   UNL A   1      36.200  30.287  27.404  1.00  0.00    -0.252 OA
BRANCH   4   6
ATOM      6  C   UNL A   1      34.020  29.332  27.707  1.00  0.00     0.126 C 
BRANCH   6   7
ATOM      7  C   UNL A   1      33.138  28.985  26.503  1.00  0.00     0.011 C 
ATOM      8  N   UNL A   1      31.945  29.288  23.801  1.00  0.00    -0.334 N 
ATOM      9  C   UNL A   1      31.257  29.637  25.036  1.00  0.00     0.262 C 
ATOM     10  C   UNL A   1      33.061  28.360  24.032  1.00  0.00     0.262 C 
ATOM     11  H   UNL A   1      32.364  30.134  23.415  1.00  0.00     0.348 HD
ATOM     12  C   UNL A   1      32.121  30.088  26.202  1.00  0.00     0.066 C 
ATOM     13  C   UNL A   1      33.959  28.773  25.215  1.00  0.00     0.066 C 
BRANCH   8  14
ATOM     14  C   UNL A   1      30.965  28.754  22.812  1.00  0.00     0.272 C 
BRANCH  14  15
ATOM     15  C   UNL A   1      30.155  29.767  21.961  1.00  0.00     0.161 C 
BRANCH  15  16
ATOM     16  C   UNL A   1      28.652  29.598  22.120  1.00  0.00     0.225 C 
ATOM     17  C   UNL A   1      27.949  31.569  20.651  1.00  0.00     0.142 C 
ATOM     18  N   UNL A   1      27.761  30.448  21.537  1.00  0.00    -0.359 N 
ATOM     19  H   UNL A   1      26.821  30.264  21.762  1.00  0.00     0.163 HD
ATOM     20  O   UNL A   1      28.195  28.677  22.799  1.00  0.00    -0.275 OA
ENDBRANCH  15  16
ENDBRANCH  14  15
ENDBRANCH   8  14
ENDBRANCH   6   7
ENDBRANCH   4   6
ENDBRANCH   3   4
ENDBRANCH   2   3
ENDBRANCH   1   2
BRANCH   1  21
ATOM     21  O   UNL A   1      34.753  34.973  28.982  1.00  0.00    -0.374 OA
BRANCH  21  22
ATOM     22  C   UNL A   1      33.336  34.881  29.124  1.00  0.00     0.202 C 
BRANCH  22  23
ATOM     23  C   UNL A   1      32.671  36.071  29.829  1.00  0.00     0.261 C 
BRANCH  23  24
ATOM     24  O   UNL A   1      33.283  36.372  31.097  1.00  0.00    -0.460 OA
BRANCH  24  25
ATOM     25  C   UNL A   1      32.978  35.507  32.105  1.00  0.00     0.338 C 
ATOM     26  O   UNL A   1      31.889  35.267  32.574  1.00  0.00    -0.246 OA
BRANCH  25  27
ATOM     27  C   UNL A   1      34.199  34.757  32.466  1.00  0.00     0.060 A 
ATOM     28  C   UNL A   1      35.436  35.403  32.366  1.00  0.00     0.016 A 
ATOM     29  C   UNL A   1      34.131  33.436  32.901  1.00  0.00     0.016 A 
ATOM     30  C   UNL A   1      36.612  34.724  32.703  1.00  0.00     0.010 A 
ATOM     31  C   UNL A   1      35.305  32.780  33.296  1.00  0.00     0.010 A 
ATOM     32  C   UNL A   1      36.563  33.400  33.166  1.00  0.00    -0.014 A 
BRANCH  32  33
ATOM     33  C   UNL A   1      37.811  32.602  33.341  1.00  0.00     0.031 A 
ATOM     34  C   UNL A   1      38.619  32.800  34.603  1.00  0.00     0.074 A 
ATOM     35  C   UNL A   1      38.232  31.703  32.427  1.00  0.00     0.049 A 
ATOM     36  N   UNL A   1      39.755  32.255  34.961  1.00  0.00    -0.248 NA
ATOM     37  C   UNL A   1      38.086  33.762  35.583  1.00  0.00     0.031 C 
ATOM     38  C   UNL A   1      37.565  31.391  31.162  1.00  0.00     0.029 A 
ATOM     39  N   UNL A   1      39.333  30.877  32.431  1.00  0.00    -0.354 N 
ATOM     40  C   UNL A   1      40.080  32.834  36.182  1.00  0.00     0.074 A 
ATOM     41  C   UNL A   1      39.062  33.818  36.471  1.00  0.00     0.031 C 
ATOM     42  C   UNL A   1      38.254  30.424  30.529  1.00  0.00     0.029 A 
ATOM     43  C   UNL A   1      39.431  30.071  31.320  1.00  0.00     0.049 A 
ATOM     44  H   UNL A   1      39.991  30.864  33.164  1.00  0.00     0.167 HD
ATOM     45  C   UNL A   1      41.108  32.557  37.016  1.00  0.00     0.031 A 
ATOM     46  C   UNL A   1      40.362  29.157  30.978  1.00  0.00     0.031 A 
ATOM     47  C   UNL A   1      42.107  31.558  36.765  1.00  0.00     0.049 A 
ATOM     48  C   UNL A   1      41.523  28.890  31.905  1.00  0.00     0.074 A 
ATOM     49  C   UNL A   1      43.160  31.173  37.575  1.00  0.00     0.029 A 
ATOM     50  N   UNL A   1      42.174  30.782  35.620  1.00  0.00    -0.354 N 
ATOM     51  N   UNL A   1      41.785  29.413  33.077  1.00  0.00    -0.248 NA
ATOM     52  C   UNL A   1      42.512  27.895  31.459  1.00  0.00     0.031 C 
ATOM     53  C   UNL A   1      43.899  30.201  36.895  1.00  0.00     0.029 A 
ATOM     54  C   UNL A   1      43.268  29.937  35.691  1.00  0.00     0.049 A 
ATOM     55  H   UNL A   1      41.539  30.826  34.869  1.00  0.00     0.167 HD
ATOM     56  C   UNL A   1      42.947  28.791  33.521  1.00  0.00     0.074 A 
ATOM     57  C   UNL A   1      43.330  27.838  32.501  1.00  0.00     0.031 C 
ATOM     58  C   UNL A   1      43.635  28.989  34.673  1.00  0.00     0.031 A 
BRANCH  45  59
ATOM     59  C   UNL A   1      41.202  33.365  38.281  1.00  0.00    -0.014 A 
ATOM     60  C   UNL A   1      40.581  32.940  39.467  1.00  0.00     0.009 A 
ATOM     61  C   UNL A   1      41.927  34.565  38.286  1.00  0.00     0.009 A 
ATOM     62  C   UNL A   1      40.647  33.725  40.620  1.00  0.00     0.001 A 
ATOM     63  C   UNL A   1      42.021  35.330  39.449  1.00  0.00     0.001 A 
ATOM     64  C   UNL A   1      41.370  34.916  40.610  1.00  0.00     0.000 A 
ENDBRANCH  45  59
BRANCH  46  65
ATOM     65  C   UNL A   1      40.252  28.410  29.694  1.00  0.00    -0.014 A 
ATOM     66  C   UNL A   1      39.662  27.136  29.653  1.00  0.00     0.009 A 
ATOM     67  C   UNL A   1      40.779  28.946  28.508  1.00  0.00     0.009 A 
ATOM     68  C   UNL A   1      39.630  26.404  28.463  1.00  0.00     0.001 A 
ATOM     69  C   UNL A   1      40.717  28.225  27.312  1.00  0.00     0.001 A 
ATOM     70  C   UNL A   1      40.153  26.951  27.292  1.00  0.00     0.000 A 
ENDBRANCH  46  65
BRANCH  58  71
ATOM     71  C   UNL A   1      44.849  28.134  34.918  1.00  0.00    -0.014 A 
ATOM     72  C   UNL A   1      46.127  28.545  34.513  1.00  0.00     0.009 A 
ATOM     73  C   UNL A   1      44.714  26.926  35.621  1.00  0.00     0.009 A 
ATOM     74  C   UNL A   1      47.242  27.746  34.778  1.00  0.00     0.001 A 
ATOM     75  C   UNL A   1      45.833  26.145  35.912  1.00  0.00     0.001 A 
ATOM     76  C   UNL A   1      47.095  26.551  35.481  1.00  0.00     0.000 A 
ENDBRANCH  58  71
ENDBRANCH  32  33
ENDBRANCH  25  27
ENDBRANCH  24  25
ENDBRANCH  23  24
ENDBRANCH  22  23
ENDBRANCH  21  22
ENDBRANCH   1  21
TORSDOF 18
ENDMDL
MODEL 2
REMARK VINA RESULT:      -9.0      1.508      6.402
REMARK SMILES CNC(=O)CC[NH+]1CCC(CC(=O)OCCOCCOC(=O)c2ccc(-c3c4nc(c(-c5ccccc5)c5ccc([nH]5)c(-c5ccccc5)c5nc(c(-c6ccccc6)c6ccc3[nH]6)C=C5)C=C4)cc2)CC1
REMARK SMILES IDX 16 1 15 2 14 3 12 4 13 5 11 6 10 7 7 8 8 9 72 10 9 12 71 13
REMARK SMILES IDX 6 14 5 15 3 16 1 17 2 18 4 20 17 21 18 22 19 23 20 24 21 25
REMARK SMILES IDX 22 26 23 27 24 28 70 29 25 30 69 31 26 32 27 33 28 34 63 35
REMARK SMILES IDX 29 36 68 37 62 38 64 39 30 40 67 41 61 42 60 43 31 45 53 46
REMARK SMILES IDX 38 47 52 48 39 49 42 50 51 51 65 52 40 53 41 54 50 56 66 57
REMARK SMILES IDX 43 58 32 59 33 60 37 61 34 62 36 63 35 64 54 65 55 66 59 67
REMARK SMILES IDX 56 68 58 69 57 70 44 71 45 72 49 73 46 74 48 75 47 76
REMARK H PARENT 7 11 2 19 64 44 42 55
REMARK Flexibility Score: inf
ROOT
ATOM      1  C   UNL A   1      35.073  33.975  28.415  1.00  0.00     0.202 C 
ENDROOT
BRANCH   1   2
ATOM      2  C   UNL A   1      34.490  32.753  29.131  1.00  0.00     0.261 C 
BRANCH   2   3
ATOM      3  O   UNL A   1      34.065  31.738  28.196  1.00  0.00    -0.463 OA
BRANCH   3   4
ATOM      4  C   UNL A   1      35.005  30.823  27.841  1.00  0.00     0.306 C 
ATOM      5  O   UNL A   1      36.189  31.081  27.654  1.00  0.00    -0.252 OA
BRANCH   4   6
ATOM      6  C   UNL A   1      34.468  29.409  27.674  1.00  0.00     0.126 C 
BRANCH   6   7
ATOM      7  C   UNL A   1      34.045  28.960  26.271  1.00  0.00     0.011 C 
ATOM      8  N   UNL A   1      32.293  27.786  24.181  1.00  0.00    -0.334 N 
ATOM      9  C   UNL A   1      33.425  27.089  24.777  1.00  0.00     0.262 C 
ATOM     10  C   UNL A   1      32.385  29.242  24.357  1.00  0.00     0.262 C 
ATOM     11  H   UNL A   1      31.445  27.501  24.669  1.00  0.00     0.348 HD
ATOM     12  C   UNL A   1      33.781  27.454  26.208  1.00  0.00     0.066 C 
ATOM     13  C   UNL A   1      32.756  29.658  25.794  1.00  0.00     0.066 C 
BRANCH   8  14
ATOM     14  C   UNL A   1      32.162  27.399  22.746  1.00  0.00     0.272 C 
BRANCH  14  15
ATOM     15  C   UNL A   1      33.355  26.674  22.070  1.00  0.00     0.161 C 
BRANCH  15  16
ATOM     16  C   UNL A   1      32.919  25.480  21.235  1.00  0.00     0.225 C 
ATOM     17  C   UNL A   1      32.287  23.942  23.179  1.00  0.00     0.142 C 
ATOM     18  N   UNL A   1      32.494  24.315  21.801  1.00  0.00    -0.359 N 
ATOM     19  H   UNL A   1      32.294  23.601  21.154  1.00  0.00     0.163 HD
ATOM     20  O   UNL A   1      32.947  25.533  20.004  1.00  0.00    -0.275 OA
ENDBRANCH  15  16
ENDBRANCH  14  15
ENDBRANCH   8  14
ENDBRANCH   6   7
ENDBRANCH   4   6
ENDBRANCH   3   4
ENDBRANCH   2   3
ENDBRANCH   1   2
BRANCH   1  21
ATOM     21  O   UNL A   1      34.452  35.218  28.742  1.00  0.00    -0.374 OA
BRANCH  21  22
ATOM     22  C   UNL A   1      33.089  35.143  29.156  1.00  0.00     0.202 C 
BRANCH  22  23
ATOM     23  C   UNL A   1      32.576  36.360  29.938  1.00  0.00     0.261 C 
BRANCH  23  24
ATOM     24  O   UNL A   1      33.216  36.499  31.220  1.00  0.00    -0.460 OA
BRANCH  24  25
ATOM     25  C   UNL A   1      32.946  35.504  32.111  1.00  0.00     0.338 C 
ATOM     26  O   UNL A   1      31.869  35.164  32.543  1.00  0.00    -0.246 OA
BRANCH  25  27
ATOM     27  C   UNL A   1      34.197  34.764  32.380  1.00  0.00     0.060 A 
ATOM     28  C   UNL A   1      34.110  33.463  32.888  1.00  0.00     0.016 A 
ATOM     29  C   UNL A   1      35.442  35.338  32.135  1.00  0.00     0.016 A 
ATOM     30  C   UNL A   1      35.274  32.733  33.151  1.00  0.00     0.010 A 
ATOM     31  C   UNL A   1      36.602  34.581  32.342  1.00  0.00     0.010 A 
ATOM     32  C   UNL A   1      36.537  33.285  32.889  1.00  0.00    -0.014 A 
BRANCH  32  33
ATOM     33  C   UNL A   1      37.783  32.602  33.344  1.00  0.00     0.031 A 
ATOM     34  C   UNL A   1      38.413  31.576  32.430  1.00  0.00     0.074 A 
ATOM     35  C   UNL A   1      38.371  32.878  34.526  1.00  0.00     0.049 A 
ATOM     36  N   UNL A   1      39.469  30.825  32.623  1.00  0.00    -0.248 NA
ATOM     37  C   UNL A   1      37.750  31.350  31.135  1.00  0.00     0.031 C 
ATOM     38  C   UNL A   1      37.893  33.843  35.517  1.00  0.00     0.029 A 
ATOM     39  N   UNL A   1      39.517  32.366  35.092  1.00  0.00    -0.354 N 
ATOM     40  C   UNL A   1      39.568  30.022  31.492  1.00  0.00     0.074 A 
ATOM     41  C   UNL A   1      38.432  30.327  30.652  1.00  0.00     0.031 C 
ATOM     42  C   UNL A   1      38.752  33.873  36.552  1.00  0.00     0.029 A 
ATOM     43  C   UNL A   1      39.822  32.905  36.320  1.00  0.00     0.049 A 
ATOM     44  H   UNL A   1      40.068  31.676  34.656  1.00  0.00     0.167 HD
ATOM     45  C   UNL A   1      40.529  29.133  31.152  1.00  0.00     0.031 A 
ATOM     46  C   UNL A   1      40.844  32.648  37.162  1.00  0.00     0.031 A 
ATOM     47  C   UNL A   1      41.683  28.843  31.955  1.00  0.00     0.049 A 
ATOM     48  C   UNL A   1      41.887  31.625  36.782  1.00  0.00     0.074 A 
ATOM     49  C   UNL A   1      42.737  27.993  31.670  1.00  0.00     0.029 A 
ATOM     50  N   UNL A   1      41.939  29.401  33.196  1.00  0.00    -0.354 N 
ATOM     51  N   UNL A   1      41.988  30.913  35.687  1.00  0.00    -0.248 NA
ATOM     52  C   UNL A   1      42.962  31.379  37.757  1.00  0.00     0.031 C 
ATOM     53  C   UNL A   1      43.603  27.992  32.766  1.00  0.00     0.029 A 
ATOM     54  C   UNL A   1      43.121  28.892  33.703  1.00  0.00     0.049 A 
ATOM     55  H   UNL A   1      41.365  30.059  33.649  1.00  0.00     0.167 HD
ATOM     56  C   UNL A   1      43.150  30.161  35.827  1.00  0.00     0.074 A 
ATOM     57  C   UNL A   1      43.729  30.517  37.105  1.00  0.00     0.031 C 
ATOM     58  C   UNL A   1      43.691  29.258  34.973  1.00  0.00     0.031 A 
BRANCH  45  59
ATOM     59  C   UNL A   1      40.357  28.401  29.850  1.00  0.00    -0.014 A 
ATOM     60  C   UNL A   1      40.894  28.904  28.653  1.00  0.00     0.009 A 
ATOM     61  C   UNL A   1      39.654  27.188  29.823  1.00  0.00     0.009 A 
ATOM     62  C   UNL A   1      40.688  28.229  27.448  1.00  0.00     0.001 A 
ATOM     63  C   UNL A   1      39.480  26.497  28.623  1.00  0.00     0.001 A 
ATOM     64  C   UNL A   1      39.986  27.025  27.436  1.00  0.00     0.000 A 
ENDBRANCH  45  59
BRANCH  46  65
ATOM     65  C   UNL A   1      40.952  33.367  38.463  1.00  0.00    -0.014 A 
ATOM     66  C   UNL A   1      41.807  34.473  38.603  1.00  0.00     0.009 A 
ATOM     67  C   UNL A   1      40.235  32.924  39.585  1.00  0.00     0.009 A 
ATOM     68  C   UNL A   1      41.965  35.097  39.844  1.00  0.00     0.001 A 
ATOM     69  C   UNL A   1      40.371  33.570  40.817  1.00  0.00     0.001 A 
ATOM     70  C   UNL A   1      41.243  34.649  40.949  1.00  0.00     0.000 A 
ENDBRANCH  46  65
BRANCH  58  71
ATOM     71  C   UNL A   1      44.995  28.618  35.364  1.00  0.00    -0.014 A 
ATOM     72  C   UNL A   1      45.033  27.427  36.103  1.00  0.00     0.009 A 
ATOM     73  C   UNL A   1      46.203  29.189  34.932  1.00  0.00     0.009 A 
ATOM     74  C   UNL A   1      46.258  26.839  36.431  1.00  0.00     0.001 A 
ATOM     75  C   UNL A   1      47.424  28.582  35.234  1.00  0.00     0.001 A 
ATOM     76  C   UNL A   1      47.449  27.413  35.991  1.00  0.00     0.000 A 
ENDBRANCH  58  71
ENDBRANCH  32  33
ENDBRANCH  25  27
ENDBRANCH  24  25
ENDBRANCH  23  24
ENDBRANCH  22  23
ENDBRANCH  21  22
ENDBRANCH   1  21
TORSDOF 18
ENDMDL
MODEL 3
REMARK VINA RESULT:      -9.0      5.098     10.154
REMARK SMILES CNC(=O)CC[NH+]1CCC(CC(=O)OCCOCCOC(=O)c2ccc(-c3c4nc(c(-c5ccccc5)c5ccc([nH]5)c(-c5ccccc5)c5nc(c(-c6ccccc6)c6ccc3[nH]6)C=C5)C=C4)cc2)CC1
REMARK SMILES IDX 16 1 15 2 14 3 12 4 13 5 11 6 10 7 7 8 8 9 72 10 9 12 71 13
REMARK SMILES IDX 6 14 5 15 3 16 1 17 2 18 4 20 17 21 18 22 19 23 20 24 21 25
REMARK SMILES IDX 22 26 23 27 24 28 70 29 25 30 69 31 26 32 27 33 28 34 63 35
REMARK SMILES IDX 29 36 68 37 62 38 64 39 30 40 67 41 61 42 60 43 31 45 53 46
REMARK SMILES IDX 38 47 52 48 39 49 42 50 51 51 65 52 40 53 41 54 50 56 66 57
REMARK SMILES IDX 43 58 32 59 33 60 37 61 34 62 36 63 35 64 54 65 55 66 59 67
REMARK SMILES IDX 56 68 58 69 57 70 44 71 45 72 49 73 46 74 48 75 47 76
REMARK H PARENT 7 11 2 19 64 44 42 55
REMARK Flexibility Score: inf
ROOT
ATOM      1  C   UNL A   1      34.801  22.930  26.292  1.00  0.00     0.202 C 
ENDROOT
BRANCH   1   2
ATOM      2  C   UNL A   1      35.316  24.038  25.367  1.00  0.00     0.261 C 
BRANCH   2   3
ATOM      3  O   UNL A   1      34.412  25.163  25.326  1.00  0.00    -0.463 OA
BRANCH   3   4
ATOM      4  C   UNL A   1      33.159  24.904  24.867  1.00  0.00     0.306 C 
ATOM      5  O   UNL A   1      32.912  24.335  23.810  1.00  0.00    -0.252 OA
BRANCH   4   6
ATOM      6  C   UNL A   1      32.046  25.397  25.780  1.00  0.00     0.126 C 
BRANCH   6   7
ATOM      7  C   UNL A   1      31.038  26.400  25.210  1.00  0.00     0.011 C 
ATOM      8  N   UNL A   1      29.479  27.840  23.132  1.00  0.00    -0.334 N 
ATOM      9  C   UNL A   1      30.647  28.396  23.801  1.00  0.00     0.262 C 
ATOM     10  C   UNL A   1      28.880  26.734  23.892  1.00  0.00     0.262 C 
ATOM     11  H   UNL A   1      29.776  27.437  22.244  1.00  0.00     0.348 HD
ATOM     12  C   UNL A   1      31.703  27.411  24.272  1.00  0.00     0.066 C 
ATOM     13  C   UNL A   1      29.919  25.714  24.400  1.00  0.00     0.066 C 
BRANCH   8  14
ATOM     14  C   UNL A   1      28.496  28.926  22.850  1.00  0.00     0.272 C 
BRANCH  14  15
ATOM     15  C   UNL A   1      28.930  30.393  23.101  1.00  0.00     0.161 C 
BRANCH  15  16
ATOM     16  C   UNL A   1      27.786  31.381  22.935  1.00  0.00     0.225 C 
ATOM     17  C   UNL A   1      28.242  31.995  20.495  1.00  0.00     0.142 C 
ATOM     18  N   UNL A   1      27.576  32.059  21.772  1.00  0.00    -0.359 N 
ATOM     19  H   UNL A   1      26.838  32.709  21.811  1.00  0.00     0.163 HD
ATOM     20  O   UNL A   1      27.012  31.604  23.868  1.00  0.00    -0.275 OA
ENDBRANCH  15  16
ENDBRANCH  14  15
ENDBRANCH   8  14
ENDBRANCH   6   7
ENDBRANCH   4   6
ENDBRANCH   3   4
ENDBRANCH   2   3
ENDBRANCH   1   2
BRANCH   1  21
ATOM     21  O   UNL A   1      35.626  21.768  26.358  1.00  0.00    -0.374 OA
BRANCH  21  22
ATOM     22  C   UNL A   1      35.881  21.115  25.116  1.00  0.00     0.202 C 
BRANCH  22  23
ATOM     23  C   UNL A   1      37.198  20.329  25.049  1.00  0.00     0.261 C 
BRANCH  23  24
ATOM     24  O   UNL A   1      38.351  21.190  25.023  1.00  0.00    -0.460 OA
BRANCH  24  25
ATOM     25  C   UNL A   1      39.265  20.962  26.008  1.00  0.00     0.338 C 
ATOM     26  O   UNL A   1      39.726  19.902  26.364  1.00  0.00    -0.246 OA
BRANCH  25  27
ATOM     27  C   UNL A   1      39.748  22.266  26.511  1.00  0.00     0.060 A 
ATOM     28  C   UNL A   1      39.057  23.424  26.140  1.00  0.00     0.016 A 
ATOM     29  C   UNL A   1      40.865  22.350  27.338  1.00  0.00     0.016 A 
ATOM     30  C   UNL A   1      39.486  24.675  26.600  1.00  0.00     0.010 A 
ATOM     31  C   UNL A   1      41.253  23.596  27.846  1.00  0.00     0.010 A 
ATOM     32  C   UNL A   1      40.595  24.778  27.454  1.00  0.00    -0.014 A 
BRANCH  32  33
ATOM     33  C   UNL A   1      41.180  26.108  27.793  1.00  0.00     0.031 A 
ATOM     34  C   UNL A   1      42.519  26.476  27.195  1.00  0.00     0.074 A 
ATOM     35  C   UNL A   1      40.553  26.993  28.595  1.00  0.00     0.049 A 
ATOM     36  N   UNL A   1      43.245  27.552  27.374  1.00  0.00    -0.248 NA
ATOM     37  C   UNL A   1      43.133  25.487  26.293  1.00  0.00     0.031 C 
ATOM     38  C   UNL A   1      39.258  26.793  29.245  1.00  0.00     0.029 A 
ATOM     39  N   UNL A   1      40.931  28.255  28.995  1.00  0.00    -0.354 N 
ATOM     40  C   UNL A   1      44.405  27.347  26.637  1.00  0.00     0.074 A 
ATOM     41  C   UNL A   1      44.319  26.023  26.066  1.00  0.00     0.031 C 
ATOM     42  C   UNL A   1      38.937  27.902  29.937  1.00  0.00     0.029 A 
ATOM     43  C   UNL A   1      40.017  28.878  29.813  1.00  0.00     0.049 A 
ATOM     44  H   UNL A   1      41.779  28.674  28.720  1.00  0.00     0.167 HD
ATOM     45  C   UNL A   1      45.441  28.189  26.416  1.00  0.00     0.031 A 
ATOM     46  C   UNL A   1      40.047  30.094  30.398  1.00  0.00     0.031 A 
ATOM     47  C   UNL A   1      45.528  29.521  26.943  1.00  0.00     0.049 A 
ATOM     48  C   UNL A   1      41.230  31.004  30.170  1.00  0.00     0.074 A 
ATOM     49  C   UNL A   1      46.517  30.465  26.733  1.00  0.00     0.029 A 
ATOM     50  N   UNL A   1      44.588  30.099  27.779  1.00  0.00    -0.354 N 
ATOM     51  N   UNL A   1      42.294  30.810  29.430  1.00  0.00    -0.248 NA
ATOM     52  C   UNL A   1      41.207  32.306  30.855  1.00  0.00     0.031 C 
ATOM     53  C   UNL A   1      46.203  31.598  27.489  1.00  0.00     0.029 A 
ATOM     54  C   UNL A   1      44.987  31.380  28.117  1.00  0.00     0.049 A 
ATOM     55  H   UNL A   1      43.761  29.664  28.087  1.00  0.00     0.167 HD
ATOM     56  C   UNL A   1      43.048  31.974  29.535  1.00  0.00     0.074 A 
ATOM     57  C   UNL A   1      42.312  32.875  30.395  1.00  0.00     0.031 C 
ATOM     58  C   UNL A   1      44.244  32.271  28.968  1.00  0.00     0.031 A 
BRANCH  45  59
ATOM     59  C   UNL A   1      46.573  27.676  25.568  1.00  0.00    -0.014 A 
ATOM     60  C   UNL A   1      47.565  26.838  26.103  1.00  0.00     0.009 A 
ATOM     61  C   UNL A   1      46.642  28.033  24.214  1.00  0.00     0.009 A 
ATOM     62  C   UNL A   1      48.629  26.407  25.309  1.00  0.00     0.001 A 
ATOM     63  C   UNL A   1      47.687  27.571  23.413  1.00  0.00     0.001 A 
ATOM     64  C   UNL A   1      48.686  26.770  23.965  1.00  0.00     0.000 A 
ENDBRANCH  45  59
BRANCH  46  65
ATOM     65  C   UNL A   1      38.923  30.544  31.265  1.00  0.00    -0.014 A 
ATOM     66  C   UNL A   1      38.940  30.299  32.648  1.00  0.00     0.009 A 
ATOM     67  C   UNL A   1      37.802  31.180  30.708  1.00  0.00     0.009 A 
ATOM     68  C   UNL A   1      37.848  30.653  33.447  1.00  0.00     0.001 A 
ATOM     69  C   UNL A   1      36.726  31.561  31.514  1.00  0.00     0.001 A 
ATOM     70  C   UNL A   1      36.744  31.288  32.880  1.00  0.00     0.000 A 
ENDBRANCH  46  65
BRANCH  58  71
ATOM     71  C   UNL A   1      44.817  33.639  29.220  1.00  0.00    -0.014 A 
ATOM     72  C   UNL A   1      45.685  33.882  30.294  1.00  0.00     0.009 A 
ATOM     73  C   UNL A   1      44.527  34.685  28.329  1.00  0.00     0.009 A 
ATOM     74  C   UNL A   1      46.225  35.156  30.489  1.00  0.00     0.001 A 
ATOM     75  C   UNL A   1      45.094  35.948  28.508  1.00  0.00     0.001 A 
ATOM     76  C   UNL A   1      45.934  36.184  29.594  1.00  0.00     0.000 A 
ENDBRANCH  58  71
ENDBRANCH  32  33
ENDBRANCH  25  27
ENDBRANCH  24  25
ENDBRANCH  23  24
ENDBRANCH  22  23
ENDBRANCH  21  22
ENDBRANCH   1  21
TORSDOF 18
ENDMDL
