MODEL 1
REMARK VINA RESULT:     -10.7      0.000      0.000
REMARK SMILES CCn1cc(S(=O)(=O)N2CCC(CCc3ccc(C(=O)OCCOCCOC(=O)c4ccc(-c5c6nc(c(-c7ccccc7)c7ccc([nH]7)c(-c7ccccc7)c7nc(c(-c8ccccc8)c8ccc5[nH]8)C=C7)C=C6)cc4)cc3)CC2)cn1
REMARK SMILES IDX 22 1 21 2 19 3 20 4 18 5 15 6 16 7 79 8 17 9 78 10 14 11
REMARK SMILES IDX 13 12 12 13 9 14 10 15 81 16 11 17 80 18 6 19 7 20 8 21 5 22
REMARK SMILES IDX 3 23 4 24 83 25 82 26 2 27 1 28 23 29 24 30 25 31 26 32
REMARK SMILES IDX 27 33 28 34 29 35 30 36 31 37 77 38 32 39 76 40 33 41 34 42
REMARK SMILES IDX 35 43 70 44 36 45 75 46 69 47 71 48 37 49 74 50 68 51 67 52
REMARK SMILES IDX 38 54 60 55 45 56 59 57 46 58 49 59 58 60 72 61 47 62 48 63
REMARK SMILES IDX 57 65 73 66 50 67 39 68 40 69 44 70 41 71 43 72 42 73 61 74
REMARK SMILES IDX 62 75 66 76 63 77 65 78 64 79 51 80 52 81 56 82 53 83 55 84
REMARK SMILES IDX 54 85
REMARK H PARENT 71 53 49 64
REMARK Flexibility Score: inf
ROOT
ATOM      1  C   UNL A   1      33.538  34.650  28.292  1.00  0.00     0.261 C 
ENDROOT
BRANCH   1   2
ATOM      2  O   UNL A   1      33.095  33.285  28.259  1.00  0.00    -0.460 OA
BRANCH   2   3
ATOM      3  C   UNL A   1      34.020  32.413  27.782  1.00  0.00     0.338 C 
ATOM      4  O   UNL A   1      35.233  32.522  27.839  1.00  0.00    -0.246 OA
BRANCH   3   5
ATOM      5  C   UNL A   1      33.355  31.186  27.305  1.00  0.00     0.060 A 
ATOM      6  C   UNL A   1      32.236  28.864  26.172  1.00  0.00    -0.048 A 
ATOM      7  C   UNL A   1      33.548  28.856  26.668  1.00  0.00     0.004 A 
ATOM      8  C   UNL A   1      31.498  30.055  26.282  1.00  0.00     0.004 A 
ATOM      9  C   UNL A   1      34.110  30.012  27.214  1.00  0.00     0.016 A 
ATOM     10  C   UNL A   1      32.032  31.199  26.878  1.00  0.00     0.016 A 
BRANCH   6  11
ATOM     11  C   UNL A   1      31.737  27.657  25.399  1.00  0.00     0.036 C 
BRANCH  11  12
ATOM     12  C   UNL A   1      32.702  26.943  24.433  1.00  0.00     0.008 C 
BRANCH  12  13
ATOM     13  C   UNL A   1      33.085  25.503  24.801  1.00  0.00    -0.008 C 
ATOM     14  N   UNL A   1      34.487  23.230  25.928  1.00  0.00    -0.198 NA
ATOM     15  C   UNL A   1      34.708  23.610  24.514  1.00  0.00     0.103 C 
ATOM     16  C   UNL A   1      33.261  23.760  26.582  1.00  0.00     0.103 C 
ATOM     17  C   UNL A   1      34.468  25.094  24.281  1.00  0.00     0.020 C 
ATOM     18  C   UNL A   1      33.072  25.253  26.311  1.00  0.00     0.020 C 
BRANCH  14  19
ATOM     19  S   UNL A   1      34.834  21.589  26.280  1.00  0.00     0.246 S 
ATOM     20  O   UNL A   1      34.333  21.283  27.594  1.00  0.00    -0.207 OA
ATOM     21  O   UNL A   1      36.206  21.317  25.892  1.00  0.00    -0.207 OA
BRANCH  19  22
ATOM     22  C   UNL A   1      33.921  20.560  25.251  1.00  0.00     0.120 A 
ATOM     23  N   UNL A   1      33.200  18.990  23.905  1.00  0.00    -0.272 N 
ATOM     24  C   UNL A   1      34.282  19.378  24.643  1.00  0.00     0.130 A 
ATOM     25  N   UNL A   1      32.159  19.841  24.013  1.00  0.00    -0.180 NA
ATOM     26  C   UNL A   1      32.602  20.794  24.843  1.00  0.00     0.156 A 
BRANCH  23  27
ATOM     27  C   UNL A   1      33.073  17.839  23.029  1.00  0.00     0.141 C 
ATOM     28  C   UNL A   1      33.888  16.616  23.428  1.00  0.00     0.029 C 
ENDBRANCH  23  27
ENDBRANCH  19  22
ENDBRANCH  14  19
ENDBRANCH  12  13
ENDBRANCH  11  12
ENDBRANCH   6  11
ENDBRANCH   3   5
ENDBRANCH   2   3
ENDBRANCH   1   2
BRANCH   1  29
ATOM     29  C   UNL A   1      32.911  35.456  29.432  1.00  0.00     0.202 C 
BRANCH  29  30
ATOM     30  O   UNL A   1      33.042  34.966  30.765  1.00  0.00    -0.374 OA
BRANCH  30  31
ATOM     31  C   UNL A   1      34.316  34.569  31.256  1.00  0.00     0.202 C 
BRANCH  31  32
ATOM     32  C   UNL A   1      34.527  33.108  31.617  1.00  0.00     0.261 C 
BRANCH  32  33
ATOM     33  O   UNL A   1      35.663  32.561  30.968  1.00  0.00    -0.460 OA
BRANCH  33  34
ATOM     34  C   UNL A   1      36.523  31.939  31.804  1.00  0.00     0.338 C 
ATOM     35  O   UNL A   1      36.642  32.098  33.006  1.00  0.00    -0.246 OA
BRANCH  34  36
ATOM     36  C   UNL A   1      37.454  31.157  30.990  1.00  0.00     0.060 A 
ATOM     37  C   UNL A   1      37.102  29.828  30.744  1.00  0.00     0.016 A 
ATOM     38  C   UNL A   1      38.763  31.633  30.820  1.00  0.00     0.016 A 
ATOM     39  C   UNL A   1      38.115  28.916  30.565  1.00  0.00     0.010 A 
ATOM     40  C   UNL A   1      39.770  30.721  30.678  1.00  0.00     0.010 A 
ATOM     41  C   UNL A   1      39.435  29.369  30.644  1.00  0.00    -0.014 A 
BRANCH  41  42
ATOM     42  C   UNL A   1      40.508  28.409  30.551  1.00  0.00     0.031 A 
ATOM     43  C   UNL A   1      41.139  28.199  31.867  1.00  0.00     0.074 A 
ATOM     44  C   UNL A   1      40.747  27.712  29.424  1.00  0.00     0.049 A 
ATOM     45  N   UNL A   1      42.269  28.669  32.275  1.00  0.00    -0.248 NA
ATOM     46  C   UNL A   1      40.299  27.630  32.941  1.00  0.00     0.031 C 
ATOM     47  C   UNL A   1      39.945  27.693  28.195  1.00  0.00     0.029 A 
ATOM     48  N   UNL A   1      41.698  26.773  29.181  1.00  0.00    -0.354 N 
ATOM     49  C   UNL A   1      42.389  28.206  33.579  1.00  0.00     0.074 A 
ATOM     50  C   UNL A   1      41.061  27.865  34.009  1.00  0.00     0.031 C 
ATOM     51  C   UNL A   1      40.304  26.623  27.445  1.00  0.00     0.029 A 
ATOM     52  C   UNL A   1      41.440  25.971  28.075  1.00  0.00     0.049 A 
ATOM     53  H   UNL A   1      42.501  26.669  29.740  1.00  0.00     0.167 HD
ATOM     54  C   UNL A   1      43.582  27.723  34.023  1.00  0.00     0.031 A 
ATOM     55  C   UNL A   1      42.085  24.824  27.746  1.00  0.00     0.031 A 
ATOM     56  C   UNL A   1      44.655  28.127  33.146  1.00  0.00     0.049 A 
ATOM     57  C   UNL A   1      43.369  24.817  28.480  1.00  0.00     0.074 A 
ATOM     58  C   UNL A   1      45.263  29.311  32.791  1.00  0.00     0.029 A 
ATOM     59  N   UNL A   1      44.947  27.209  32.168  1.00  0.00    -0.354 N 
ATOM     60  N   UNL A   1      44.335  25.654  28.229  1.00  0.00    -0.248 NA
ATOM     61  C   UNL A   1      43.445  24.151  29.773  1.00  0.00     0.031 C 
ATOM     62  C   UNL A   1      45.703  29.132  31.446  1.00  0.00     0.029 A 
ATOM     63  C   UNL A   1      45.409  27.828  31.041  1.00  0.00     0.049 A 
ATOM     64  H   UNL A   1      44.836  26.235  32.264  1.00  0.00     0.167 HD
ATOM     65  C   UNL A   1      44.861  25.958  29.474  1.00  0.00     0.074 A 
ATOM     66  C   UNL A   1      44.400  24.885  30.350  1.00  0.00     0.031 C 
ATOM     67  C   UNL A   1      45.345  27.208  29.732  1.00  0.00     0.031 A 
BRANCH  54  68
ATOM     68  C   UNL A   1      43.689  26.447  34.842  1.00  0.00    -0.014 A 
ATOM     69  C   UNL A   1      44.874  26.225  35.563  1.00  0.00     0.009 A 
ATOM     70  C   UNL A   1      42.832  25.337  34.697  1.00  0.00     0.009 A 
ATOM     71  C   UNL A   1      45.214  24.951  36.037  1.00  0.00     0.001 A 
ATOM     72  C   UNL A   1      43.149  24.072  35.197  1.00  0.00     0.001 A 
ATOM     73  C   UNL A   1      44.356  23.873  35.844  1.00  0.00     0.000 A 
ENDBRANCH  54  68
BRANCH  55  74
ATOM     74  C   UNL A   1      41.573  23.619  27.059  1.00  0.00    -0.014 A 
ATOM     75  C   UNL A   1      42.448  22.705  26.449  1.00  0.00     0.009 A 
ATOM     76  C   UNL A   1      40.239  23.219  27.248  1.00  0.00     0.009 A 
ATOM     77  C   UNL A   1      42.010  21.425  26.076  1.00  0.00     0.001 A 
ATOM     78  C   UNL A   1      39.802  21.941  26.879  1.00  0.00     0.001 A 
ATOM     79  C   UNL A   1      40.692  21.039  26.305  1.00  0.00     0.000 A 
ENDBRANCH  55  74
BRANCH  67  80
ATOM     80  C   UNL A   1      45.672  28.079  28.547  1.00  0.00    -0.014 A 
ATOM     81  C   UNL A   1      46.942  28.143  27.948  1.00  0.00     0.009 A 
ATOM     82  C   UNL A   1      44.618  28.791  27.957  1.00  0.00     0.009 A 
ATOM     83  C   UNL A   1      47.151  28.922  26.805  1.00  0.00     0.001 A 
ATOM     84  C   UNL A   1      44.822  29.549  26.804  1.00  0.00     0.001 A 
ATOM     85  C   UNL A   1      46.089  29.620  26.232  1.00  0.00     0.000 A 
ENDBRANCH  67  80
ENDBRANCH  41  42
ENDBRANCH  34  36
ENDBRANCH  33  34
ENDBRANCH  32  33
ENDBRANCH  31  32
ENDBRANCH  30  31
ENDBRANCH  29  30
ENDBRANCH   1  29
TORSDOF 20
ENDMDL
MODEL 2
REMARK VINA RESULT:     -10.6      2.979      4.684
REMARK SMILES CCn1cc(S(=O)(=O)N2CCC(CCc3ccc(C(=O)OCCOCCOC(=O)c4ccc(-c5c6nc(c(-c7ccccc7)c7ccc([nH]7)c(-c7ccccc7)c7nc(c(-c8ccccc8)c8ccc5[nH]8)C=C7)C=C6)cc4)cc3)CC2)cn1
REMARK SMILES IDX 22 1 21 2 19 3 20 4 18 5 15 6 16 7 79 8 17 9 78 10 14 11
REMARK SMILES IDX 13 12 12 13 9 14 10 15 81 16 11 17 80 18 6 19 7 20 8 21 5 22
REMARK SMILES IDX 3 23 4 24 83 25 82 26 2 27 1 28 23 29 24 30 25 31 26 32
REMARK SMILES IDX 27 33 28 34 29 35 30 36 31 37 77 38 32 39 76 40 33 41 34 42
REMARK SMILES IDX 35 43 70 44 36 45 75 46 69 47 71 48 37 49 74 50 68 51 67 52
REMARK SMILES IDX 38 54 60 55 45 56 59 57 46 58 49 59 58 60 72 61 47 62 48 63
REMARK SMILES IDX 57 65 73 66 50 67 39 68 40 69 44 70 41 71 43 72 42 73 61 74
REMARK SMILES IDX 62 75 66 76 63 77 65 78 64 79 51 80 52 81 56 82 53 83 55 84
REMARK SMILES IDX 54 85
REMARK H PARENT 71 53 49 64
REMARK Flexibility Score: inf
ROOT
ATOM      1  C   UNL A   1      33.215  34.121  28.035  1.00  0.00     0.261 C 
ENDROOT
BRANCH   1   2
ATOM      2  O   UNL A   1      33.877  33.015  28.666  1.00  0.00    -0.460 OA
BRANCH   2   3
ATOM      3  C   UNL A   1      34.647  32.276  27.827  1.00  0.00     0.338 C 
ATOM      4  O   UNL A   1      35.799  32.501  27.495  1.00  0.00    -0.246 OA
BRANCH   3   5
ATOM      5  C   UNL A   1      33.948  31.027  27.472  1.00  0.00     0.060 A 
ATOM      6  C   UNL A   1      32.488  28.660  27.031  1.00  0.00    -0.048 A 
ATOM      7  C   UNL A   1      31.858  29.912  26.964  1.00  0.00     0.004 A 
ATOM      8  C   UNL A   1      33.868  28.632  27.299  1.00  0.00     0.004 A 
ATOM      9  C   UNL A   1      32.578  31.085  27.200  1.00  0.00     0.016 A 
ATOM     10  C   UNL A   1      34.607  29.803  27.480  1.00  0.00     0.016 A 
BRANCH   6  11
ATOM     11  C   UNL A   1      31.636  27.406  26.978  1.00  0.00     0.036 C 
BRANCH  11  12
ATOM     12  C   UNL A   1      31.268  26.815  25.604  1.00  0.00     0.008 C 
BRANCH  12  13
ATOM     13  C   UNL A   1      32.173  25.689  25.088  1.00  0.00    -0.008 C 
ATOM     14  N   UNL A   1      34.445  23.920  24.751  1.00  0.00    -0.198 NA
ATOM     15  C   UNL A   1      34.249  25.059  23.824  1.00  0.00     0.103 C 
ATOM     16  C   UNL A   1      33.263  23.487  25.542  1.00  0.00     0.103 C 
ATOM     17  C   UNL A   1      33.486  26.199  24.481  1.00  0.00     0.020 C 
ATOM     18  C   UNL A   1      32.537  24.674  26.175  1.00  0.00     0.020 C 
BRANCH  14  19
ATOM     19  S   UNL A   1      35.383  22.639  24.104  1.00  0.00     0.246 S 
ATOM     20  O   UNL A   1      35.765  22.979  22.759  1.00  0.00    -0.207 OA
ATOM     21  O   UNL A   1      34.729  21.384  24.430  1.00  0.00    -0.207 OA
BRANCH  19  22
ATOM     22  C   UNL A   1      36.883  22.530  24.934  1.00  0.00     0.120 A 
ATOM     23  N   UNL A   1      38.775  21.901  25.840  1.00  0.00    -0.272 N 
ATOM     24  C   UNL A   1      37.757  21.470  25.037  1.00  0.00     0.130 A 
ATOM     25  N   UNL A   1      38.618  23.177  26.248  1.00  0.00    -0.180 NA
ATOM     26  C   UNL A   1      37.465  23.559  25.685  1.00  0.00     0.156 A 
BRANCH  23  27
ATOM     27  C   UNL A   1      39.928  21.154  26.311  1.00  0.00     0.141 C 
ATOM     28  C   UNL A   1      41.266  21.874  26.202  1.00  0.00     0.029 C 
ENDBRANCH  23  27
ENDBRANCH  19  22
ENDBRANCH  14  19
ENDBRANCH  12  13
ENDBRANCH  11  12
ENDBRANCH   6  11
ENDBRANCH   3   5
ENDBRANCH   2   3
ENDBRANCH   1   2
BRANCH   1  29
ATOM     29  C   UNL A   1      33.924  35.457  28.270  1.00  0.00     0.202 C 
BRANCH  29  30
ATOM     30  O   UNL A   1      33.518  36.258  29.378  1.00  0.00    -0.374 OA
BRANCH  30  31
ATOM     31  C   UNL A   1      33.767  35.815  30.706  1.00  0.00     0.202 C 
BRANCH  31  32
ATOM     32  C   UNL A   1      32.579  35.458  31.583  1.00  0.00     0.261 C 
BRANCH  32  33
ATOM     33  O   UNL A   1      32.947  34.604  32.652  1.00  0.00    -0.460 OA
BRANCH  33  34
ATOM     34  C   UNL A   1      33.908  35.115  33.454  1.00  0.00     0.338 C 
ATOM     35  O   UNL A   1      34.037  36.269  33.820  1.00  0.00    -0.246 OA
BRANCH  34  36
ATOM     36  C   UNL A   1      34.915  34.074  33.666  1.00  0.00     0.060 A 
ATOM     37  C   UNL A   1      36.046  34.443  34.398  1.00  0.00     0.016 A 
ATOM     38  C   UNL A   1      34.883  32.931  32.854  1.00  0.00     0.016 A 
ATOM     39  C   UNL A   1      37.230  33.799  34.122  1.00  0.00     0.010 A 
ATOM     40  C   UNL A   1      36.066  32.317  32.554  1.00  0.00     0.010 A 
ATOM     41  C   UNL A   1      37.233  32.821  33.124  1.00  0.00    -0.014 A 
BRANCH  41  42
ATOM     42  C   UNL A   1      38.485  32.203  32.759  1.00  0.00     0.031 A 
ATOM     43  C   UNL A   1      39.303  31.931  33.955  1.00  0.00     0.074 A 
ATOM     44  C   UNL A   1      38.744  31.804  31.500  1.00  0.00     0.049 A 
ATOM     45  N   UNL A   1      40.330  32.596  34.366  1.00  0.00    -0.248 NA
ATOM     46  C   UNL A   1      38.761  30.982  34.949  1.00  0.00     0.031 C 
ATOM     47  C   UNL A   1      37.826  31.798  30.354  1.00  0.00     0.029 A 
ATOM     48  N   UNL A   1      39.854  31.201  31.002  1.00  0.00    -0.354 N 
ATOM     49  C   UNL A   1      40.715  31.954  35.536  1.00  0.00     0.074 A 
ATOM     50  C   UNL A   1      39.570  31.210  35.983  1.00  0.00     0.031 C 
ATOM     51  C   UNL A   1      38.335  31.009  29.378  1.00  0.00     0.029 A 
ATOM     52  C   UNL A   1      39.662  30.571  29.777  1.00  0.00     0.049 A 
ATOM     53  H   UNL A   1      40.722  31.210  31.467  1.00  0.00     0.167 HD
ATOM     54  C   UNL A   1      42.034  31.724  35.784  1.00  0.00     0.031 A 
ATOM     55  C   UNL A   1      40.518  29.707  29.175  1.00  0.00     0.031 A 
ATOM     56  C   UNL A   1      42.864  32.541  34.932  1.00  0.00     0.049 A 
ATOM     57  C   UNL A   1      41.846  29.900  29.795  1.00  0.00     0.074 A 
ATOM     58  C   UNL A   1      43.123  33.885  34.782  1.00  0.00     0.029 A 
ATOM     59  N   UNL A   1      43.245  31.920  33.768  1.00  0.00    -0.354 N 
ATOM     60  N   UNL A   1      42.546  30.989  29.651  1.00  0.00    -0.248 NA
ATOM     61  C   UNL A   1      42.236  29.056  30.917  1.00  0.00     0.031 C 
ATOM     62  C   UNL A   1      43.426  34.069  33.399  1.00  0.00     0.029 A 
ATOM     63  C   UNL A   1      43.405  32.828  32.760  1.00  0.00     0.049 A 
ATOM     64  H   UNL A   1      43.382  30.949  33.672  1.00  0.00     0.167 HD
ATOM     65  C   UNL A   1      43.132  31.191  30.890  1.00  0.00     0.074 A 
ATOM     66  C   UNL A   1      43.052  29.897  31.560  1.00  0.00     0.031 C 
ATOM     67  C   UNL A   1      43.331  32.457  31.361  1.00  0.00     0.031 A 
BRANCH  54  68
ATOM     68  C   UNL A   1      42.542  30.394  36.316  1.00  0.00    -0.014 A 
ATOM     69  C   UNL A   1      43.696  30.402  37.117  1.00  0.00     0.009 A 
ATOM     70  C   UNL A   1      42.133  29.136  35.827  1.00  0.00     0.009 A 
ATOM     71  C   UNL A   1      44.437  29.235  37.344  1.00  0.00     0.001 A 
ATOM     72  C   UNL A   1      42.849  27.963  36.079  1.00  0.00     0.001 A 
ATOM     73  C   UNL A   1      44.018  28.018  36.816  1.00  0.00     0.000 A 
ENDBRANCH  54  68
BRANCH  55  74
ATOM     74  C   UNL A   1      40.228  28.554  28.296  1.00  0.00    -0.014 A 
ATOM     75  C   UNL A   1      40.849  28.424  27.042  1.00  0.00     0.009 A 
ATOM     76  C   UNL A   1      39.557  27.431  28.811  1.00  0.00     0.009 A 
ATOM     77  C   UNL A   1      40.827  27.204  26.349  1.00  0.00     0.001 A 
ATOM     78  C   UNL A   1      39.536  26.214  28.121  1.00  0.00     0.001 A 
ATOM     79  C   UNL A   1      40.184  26.097  26.895  1.00  0.00     0.000 A 
ENDBRANCH  55  74
BRANCH  67  80
ATOM     80  C   UNL A   1      43.294  33.580  30.357  1.00  0.00    -0.014 A 
ATOM     81  C   UNL A   1      44.407  34.000  29.609  1.00  0.00     0.009 A 
ATOM     82  C   UNL A   1      42.050  34.171  30.093  1.00  0.00     0.009 A 
ATOM     83  C   UNL A   1      44.277  35.004  28.643  1.00  0.00     0.001 A 
ATOM     84  C   UNL A   1      41.916  35.155  29.115  1.00  0.00     0.001 A 
ATOM     85  C   UNL A   1      43.030  35.577  28.394  1.00  0.00     0.000 A 
ENDBRANCH  67  80
ENDBRANCH  41  42
ENDBRANCH  34  36
ENDBRANCH  33  34
ENDBRANCH  32  33
ENDBRANCH  31  32
ENDBRANCH  30  31
ENDBRANCH  29  30
ENDBRANCH   1  29
TORSDOF 20
ENDMDL
MODEL 3
REMARK VINA RESULT:     -10.1      4.820      8.055
REMARK SMILES CCn1cc(S(=O)(=O)N2CCC(CCc3ccc(C(=O)OCCOCCOC(=O)c4ccc(-c5c6nc(c(-c7ccccc7)c7ccc([nH]7)c(-c7ccccc7)c7nc(c(-c8ccccc8)c8ccc5[nH]8)C=C7)C=C6)cc4)cc3)CC2)cn1
REMARK SMILES IDX 22 1 21 2 19 3 20 4 18 5 15 6 16 7 79 8 17 9 78 10 14 11
REMARK SMILES IDX 13 12 12 13 9 14 10 15 81 16 11 17 80 18 6 19 7 20 8 21 5 22
REMARK SMILES IDX 3 23 4 24 83 25 82 26 2 27 1 28 23 29 24 30 25 31 26 32
REMARK SMILES IDX 27 33 28 34 29 35 30 36 31 37 77 38 32 39 76 40 33 41 34 42
REMARK SMILES IDX 35 43 70 44 36 45 75 46 69 47 71 48 37 49 74 50 68 51 67 52
REMARK SMILES IDX 38 54 60 55 45 56 59 57 46 58 49 59 58 60 72 61 47 62 48 63
REMARK SMILES IDX 57 65 73 66 50 67 39 68 40 69 44 70 41 71 43 72 42 73 61 74
REMARK SMILES IDX 62 75 66 76 63 77 65 78 64 79 51 80 52 81 56 82 53 83 55 84
REMARK SMILES IDX 54 85
REMARK H PARENT 71 53 49 64
REMARK Flexibility Score: inf
ROOT
ATOM      1  C   UNL A   1      34.789  33.463  28.594  1.00  0.00     0.261 C 
ENDROOT
BRANCH   1   2
ATOM      2  O   UNL A   1      35.250  32.522  27.611  1.00  0.00    -0.460 OA
BRANCH   2   3
ATOM      3  C   UNL A   1      34.913  31.234  27.875  1.00  0.00     0.338 C 
ATOM      4  O   UNL A   1      33.863  30.677  27.600  1.00  0.00    -0.246 OA
BRANCH   3   5
ATOM      5  C   UNL A   1      36.077  30.510  28.417  1.00  0.00     0.060 A 
ATOM      6  C   UNL A   1      38.213  28.911  29.316  1.00  0.00    -0.048 A 
ATOM      7  C   UNL A   1      38.167  29.361  27.988  1.00  0.00     0.004 A 
ATOM      8  C   UNL A   1      37.177  29.304  30.180  1.00  0.00     0.004 A 
ATOM      9  C   UNL A   1      37.099  30.139  27.537  1.00  0.00     0.016 A 
ATOM     10  C   UNL A   1      36.135  30.129  29.753  1.00  0.00     0.016 A 
BRANCH   6  11
ATOM     11  C   UNL A   1      39.273  27.898  29.710  1.00  0.00     0.036 C 
BRANCH  11  12
ATOM     12  C   UNL A   1      39.295  26.532  28.998  1.00  0.00     0.008 C 
BRANCH  12  13
ATOM     13  C   UNL A   1      40.495  26.269  28.078  1.00  0.00    -0.008 C 
ATOM     14  N   UNL A   1      42.966  26.631  26.606  1.00  0.00    -0.198 NA
ATOM     15  C   UNL A   1      41.664  26.812  25.924  1.00  0.00     0.103 C 
ATOM     16  C   UNL A   1      42.954  25.872  27.885  1.00  0.00     0.103 C 
ATOM     17  C   UNL A   1      40.571  27.238  26.893  1.00  0.00     0.020 C 
ATOM     18  C   UNL A   1      41.836  26.342  28.815  1.00  0.00     0.020 C 
BRANCH  14  19
ATOM     19  S   UNL A   1      44.265  26.243  25.556  1.00  0.00     0.246 S 
ATOM     20  O   UNL A   1      44.756  27.458  24.963  1.00  0.00    -0.207 OA
ATOM     21  O   UNL A   1      43.882  25.091  24.760  1.00  0.00    -0.207 OA
BRANCH  19  22
ATOM     22  C   UNL A   1      45.605  25.668  26.464  1.00  0.00     0.120 A 
ATOM     23  N   UNL A   1      47.448  25.431  27.622  1.00  0.00    -0.272 N 
ATOM     24  C   UNL A   1      46.627  26.369  27.066  1.00  0.00     0.130 A 
ATOM     25  N   UNL A   1      47.011  24.169  27.429  1.00  0.00    -0.180 NA
ATOM     26  C   UNL A   1      45.880  24.320  26.728  1.00  0.00     0.156 A 
BRANCH  23  27
ATOM     27  C   UNL A   1      48.702  25.634  28.327  1.00  0.00     0.141 C 
ATOM     28  C   UNL A   1      49.935  25.041  27.659  1.00  0.00     0.029 C 
ENDBRANCH  23  27
ENDBRANCH  19  22
ENDBRANCH  14  19
ENDBRANCH  12  13
ENDBRANCH  11  12
ENDBRANCH   6  11
ENDBRANCH   3   5
ENDBRANCH   2   3
ENDBRANCH   1   2
BRANCH   1  29
ATOM     29  C   UNL A   1      33.512  34.193  28.171  1.00  0.00     0.202 C 
BRANCH  29  30
ATOM     30  O   UNL A   1      32.641  34.686  29.187  1.00  0.00    -0.374 OA
BRANCH  30  31
ATOM     31  C   UNL A   1      32.977  35.869  29.901  1.00  0.00     0.202 C 
BRANCH  31  32
ATOM     32  C   UNL A   1      33.018  35.809  31.418  1.00  0.00     0.261 C 
BRANCH  32  33
ATOM     33  O   UNL A   1      33.673  34.641  31.884  1.00  0.00    -0.460 OA
BRANCH  33  34
ATOM     34  C   UNL A   1      34.551  34.870  32.885  1.00  0.00     0.338 C 
ATOM     35  O   UNL A   1      34.608  35.838  33.621  1.00  0.00    -0.246 OA
BRANCH  34  36
ATOM     36  C   UNL A   1      35.580  33.831  32.826  1.00  0.00     0.060 A 
ATOM     37  C   UNL A   1      35.935  33.235  34.038  1.00  0.00     0.016 A 
ATOM     38  C   UNL A   1      36.388  33.748  31.682  1.00  0.00     0.016 A 
ATOM     39  C   UNL A   1      37.220  32.765  34.174  1.00  0.00     0.010 A 
ATOM     40  C   UNL A   1      37.675  33.315  31.829  1.00  0.00     0.010 A 
ATOM     41  C   UNL A   1      38.096  32.915  33.095  1.00  0.00    -0.014 A 
BRANCH  41  42
ATOM     42  C   UNL A   1      39.472  32.512  33.254  1.00  0.00     0.031 A 
ATOM     43  C   UNL A   1      40.305  33.650  33.686  1.00  0.00     0.074 A 
ATOM     44  C   UNL A   1      39.854  31.224  33.165  1.00  0.00     0.049 A 
ATOM     45  N   UNL A   1      41.118  34.342  32.961  1.00  0.00    -0.248 NA
ATOM     46  C   UNL A   1      40.001  34.255  34.998  1.00  0.00     0.031 C 
ATOM     47  C   UNL A   1      38.995  30.041  33.027  1.00  0.00     0.029 A 
ATOM     48  N   UNL A   1      41.093  30.684  33.301  1.00  0.00    -0.354 N 
ATOM     49  C   UNL A   1      41.627  35.301  33.828  1.00  0.00     0.074 A 
ATOM     50  C   UNL A   1      40.699  35.388  34.922  1.00  0.00     0.031 C 
ATOM     51  C   UNL A   1      39.711  28.932  33.327  1.00  0.00     0.029 A 
ATOM     52  C   UNL A   1      41.097  29.315  33.542  1.00  0.00     0.049 A 
ATOM     53  H   UNL A   1      41.918  31.217  33.235  1.00  0.00     0.167 HD
ATOM     54  C   UNL A   1      42.955  35.601  33.806  1.00  0.00     0.031 A 
ATOM     55  C   UNL A   1      42.159  28.574  33.946  1.00  0.00     0.031 A 
ATOM     56  C   UNL A   1      43.568  35.120  32.591  1.00  0.00     0.049 A 
ATOM     57  C   UNL A   1      43.379  29.355  33.650  1.00  0.00     0.074 A 
ATOM     58  C   UNL A   1      43.479  35.404  31.247  1.00  0.00     0.029 A 
ATOM     59  N   UNL A   1      44.122  33.869  32.709  1.00  0.00    -0.354 N 
ATOM     60  N   UNL A   1      43.780  29.613  32.439  1.00  0.00    -0.248 NA
ATOM     61  C   UNL A   1      43.945  30.207  34.686  1.00  0.00     0.031 C 
ATOM     62  C   UNL A   1      43.756  34.176  30.573  1.00  0.00     0.029 A 
ATOM     63  C   UNL A   1      44.067  33.198  31.519  1.00  0.00     0.049 A 
ATOM     64  H   UNL A   1      44.505  33.503  33.538  1.00  0.00     0.167 HD
ATOM     65  C   UNL A   1      44.266  30.908  32.503  1.00  0.00     0.074 A 
ATOM     66  C   UNL A   1      44.504  31.151  33.923  1.00  0.00     0.031 C 
ATOM     67  C   UNL A   1      44.124  31.752  31.439  1.00  0.00     0.031 A 
BRANCH  54  68
ATOM     68  C   UNL A   1      43.773  35.762  35.077  1.00  0.00    -0.014 A 
ATOM     69  C   UNL A   1      44.870  36.639  35.046  1.00  0.00     0.009 A 
ATOM     70  C   UNL A   1      43.708  34.884  36.178  1.00  0.00     0.009 A 
ATOM     71  C   UNL A   1      45.879  36.581  36.017  1.00  0.00     0.001 A 
ATOM     72  C   UNL A   1      44.693  34.846  37.168  1.00  0.00     0.001 A 
ATOM     73  C   UNL A   1      45.795  35.677  37.072  1.00  0.00     0.000 A 
ENDBRANCH  54  68
BRANCH  55  74
ATOM     74  C   UNL A   1      42.194  27.366  34.800  1.00  0.00    -0.014 A 
ATOM     75  C   UNL A   1      42.876  26.208  34.391  1.00  0.00     0.009 A 
ATOM     76  C   UNL A   1      41.796  27.448  36.146  1.00  0.00     0.009 A 
ATOM     77  C   UNL A   1      43.180  25.188  35.305  1.00  0.00     0.001 A 
ATOM     78  C   UNL A   1      42.100  26.432  37.059  1.00  0.00     0.001 A 
ATOM     79  C   UNL A   1      42.805  25.307  36.641  1.00  0.00     0.000 A 
ENDBRANCH  55  74
BRANCH  67  80
ATOM     80  C   UNL A   1      43.824  31.129  30.100  1.00  0.00    -0.014 A 
ATOM     81  C   UNL A   1      44.803  30.838  29.134  1.00  0.00     0.009 A 
ATOM     82  C   UNL A   1      42.502  30.735  29.852  1.00  0.00     0.009 A 
ATOM     83  C   UNL A   1      44.455  30.194  27.942  1.00  0.00     0.001 A 
ATOM     84  C   UNL A   1      42.160  30.072  28.674  1.00  0.00     0.001 A 
ATOM     85  C   UNL A   1      43.135  29.808  27.716  1.00  0.00     0.000 A 
ENDBRANCH  67  80
ENDBRANCH  41  42
ENDBRANCH  34  36
ENDBRANCH  33  34
ENDBRANCH  32  33
ENDBRANCH  31  32
ENDBRANCH  30  31
ENDBRANCH  29  30
ENDBRANCH   1  29
TORSDOF 20
ENDMDL
