MODEL 1
REMARK VINA RESULT:      -9.5      0.000      0.000
REMARK SMILES O=C(OCCOCCOC(=O)[C@H]1CS[C@H](c2nc3ccccc3s2)[NH2+]1)c1ccc(-c2c3nc(c(-c4ccccc4)c4ccc([nH]4)c(-c4ccccc4)c4nc(c(-c5ccccc5)c5ccc2[nH]5)C=C4)C=C3)cc1
REMARK SMILES IDX 5 1 4 2 3 3 2 4 1 5 26 6 27 7 73 8 28 9 72 10 29 11 30 12
REMARK SMILES IDX 31 13 66 14 32 15 71 16 65 17 67 18 33 19 70 20 64 21 63 22
REMARK SMILES IDX 34 24 56 25 41 26 55 27 42 28 45 29 54 30 68 31 43 32 44 33
REMARK SMILES IDX 53 35 69 36 46 37 35 38 36 39 40 40 37 41 39 42 38 43 57 44
REMARK SMILES IDX 58 45 62 46 59 47 61 48 60 49 47 50 48 51 52 52 49 53 51 54
REMARK SMILES IDX 50 55 6 56 7 57 8 58 9 59 10 60 11 61 12 62 13 63 25 64
REMARK SMILES IDX 14 65 15 66 16 69 17 70 24 71 18 72 23 73 19 74 22 75 20 76
REMARK SMILES IDX 21 77
REMARK H PARENT 67 23 45 34 25 67 25 68
REMARK Flexibility Score: inf
ROOT
ATOM      1  C   UNL A   1      41.354  19.679  26.117  1.00  0.00     0.202 C 
ENDROOT
BRANCH   1   2
ATOM      2  C   UNL A   1      40.877  20.843  26.993  1.00  0.00     0.261 C 
BRANCH   2   3
ATOM      3  O   UNL A   1      40.689  22.030  26.211  1.00  0.00    -0.460 OA
BRANCH   3   4
ATOM      4  C   UNL A   1      39.674  22.918  26.298  1.00  0.00     0.338 C 
ATOM      5  O   UNL A   1      38.596  22.638  25.777  1.00  0.00    -0.246 OA
BRANCH   4   6
ATOM      6  C   UNL A   1      39.801  24.242  26.978  1.00  0.00     0.060 A 
ATOM      7  C   UNL A   1      40.558  25.319  26.508  1.00  0.00     0.016 A 
ATOM      8  C   UNL A   1      39.017  24.439  28.125  1.00  0.00     0.016 A 
ATOM      9  C   UNL A   1      40.585  26.537  27.152  1.00  0.00     0.010 A 
ATOM     10  C   UNL A   1      39.024  25.667  28.783  1.00  0.00     0.010 A 
ATOM     11  C   UNL A   1      39.825  26.706  28.297  1.00  0.00    -0.014 A 
BRANCH  11  12
ATOM     12  C   UNL A   1      40.040  27.932  29.061  1.00  0.00     0.031 A 
ATOM     13  C   UNL A   1      41.272  28.006  29.896  1.00  0.00     0.074 A 
ATOM     14  C   UNL A   1      39.205  28.968  28.901  1.00  0.00     0.049 A 
ATOM     15  N   UNL A   1      41.628  28.908  30.763  1.00  0.00    -0.248 NA
ATOM     16  C   UNL A   1      42.240  26.906  29.724  1.00  0.00     0.031 C 
ATOM     17  C   UNL A   1      38.082  29.013  27.960  1.00  0.00     0.029 A 
ATOM     18  N   UNL A   1      39.178  30.183  29.521  1.00  0.00    -0.354 N 
ATOM     19  C   UNL A   1      42.835  28.460  31.281  1.00  0.00     0.074 A 
ATOM     20  C   UNL A   1      43.157  27.214  30.625  1.00  0.00     0.031 C 
ATOM     21  C   UNL A   1      37.460  30.197  28.085  1.00  0.00     0.029 A 
ATOM     22  C   UNL A   1      38.097  30.946  29.160  1.00  0.00     0.049 A 
ATOM     23  H   UNL A   1      39.864  30.481  30.161  1.00  0.00     0.167 HD
ATOM     24  C   UNL A   1      43.580  29.039  32.247  1.00  0.00     0.031 A 
ATOM     25  C   UNL A   1      37.648  32.092  29.700  1.00  0.00     0.031 A 
ATOM     26  C   UNL A   1      43.189  30.263  32.888  1.00  0.00     0.049 A 
ATOM     27  C   UNL A   1      38.426  32.665  30.852  1.00  0.00     0.074 A 
ATOM     28  C   UNL A   1      43.804  30.937  33.923  1.00  0.00     0.029 A 
ATOM     29  N   UNL A   1      42.054  30.991  32.541  1.00  0.00    -0.354 N 
ATOM     30  N   UNL A   1      39.527  32.209  31.408  1.00  0.00    -0.248 NA
ATOM     31  C   UNL A   1      37.906  33.893  31.459  1.00  0.00     0.031 C 
ATOM     32  C   UNL A   1      43.006  32.041  34.243  1.00  0.00     0.029 A 
ATOM     33  C   UNL A   1      41.936  32.097  33.358  1.00  0.00     0.049 A 
ATOM     34  H   UNL A   1      41.429  30.751  31.820  1.00  0.00     0.167 HD
ATOM     35  C   UNL A   1      39.850  33.109  32.413  1.00  0.00     0.074 A 
ATOM     36  C   UNL A   1      38.825  34.138  32.385  1.00  0.00     0.031 C 
ATOM     37  C   UNL A   1      40.896  33.095  33.277  1.00  0.00     0.031 A 
BRANCH  24  38
ATOM     38  C   UNL A   1      44.783  28.274  32.718  1.00  0.00    -0.014 A 
ATOM     39  C   UNL A   1      46.088  28.621  32.329  1.00  0.00     0.009 A 
ATOM     40  C   UNL A   1      44.595  27.123  33.500  1.00  0.00     0.009 A 
ATOM     41  C   UNL A   1      47.168  27.796  32.658  1.00  0.00     0.001 A 
ATOM     42  C   UNL A   1      45.679  26.320  33.856  1.00  0.00     0.001 A 
ATOM     43  C   UNL A   1      46.961  26.646  33.419  1.00  0.00     0.000 A 
ENDBRANCH  24  38
BRANCH  25  44
ATOM     44  C   UNL A   1      36.388  32.700  29.201  1.00  0.00    -0.014 A 
ATOM     45  C   UNL A   1      35.187  31.978  29.206  1.00  0.00     0.009 A 
ATOM     46  C   UNL A   1      36.371  34.035  28.763  1.00  0.00     0.009 A 
ATOM     47  C   UNL A   1      33.999  32.578  28.776  1.00  0.00     0.001 A 
ATOM     48  C   UNL A   1      35.179  34.642  28.363  1.00  0.00     0.001 A 
ATOM     49  C   UNL A   1      33.994  33.911  28.364  1.00  0.00     0.000 A 
ENDBRANCH  25  44
BRANCH  37  50
ATOM     50  C   UNL A   1      41.017  34.256  34.217  1.00  0.00    -0.014 A 
ATOM     51  C   UNL A   1      41.844  35.350  33.927  1.00  0.00     0.009 A 
ATOM     52  C   UNL A   1      40.202  34.293  35.360  1.00  0.00     0.009 A 
ATOM     53  C   UNL A   1      41.860  36.458  34.775  1.00  0.00     0.001 A 
ATOM     54  C   UNL A   1      40.198  35.413  36.187  1.00  0.00     0.001 A 
ATOM     55  C   UNL A   1      41.030  36.493  35.896  1.00  0.00     0.000 A 
ENDBRANCH  37  50
ENDBRANCH  11  12
ENDBRANCH   4   6
ENDBRANCH   3   4
ENDBRANCH   2   3
ENDBRANCH   1   2
BRANCH   1  56
ATOM     56  O   UNL A   1      42.617  19.803  25.456  1.00  0.00    -0.374 OA
BRANCH  56  57
ATOM     57  C   UNL A   1      43.581  18.759  25.656  1.00  0.00     0.202 C 
BRANCH  57  58
ATOM     58  C   UNL A   1      44.524  18.669  24.450  1.00  0.00     0.261 C 
BRANCH  58  59
ATOM     59  O   UNL A   1      44.807  20.004  24.015  1.00  0.00    -0.459 OA
BRANCH  59  60
ATOM     60  C   UNL A   1      45.924  20.534  24.583  1.00  0.00     0.365 C 
ATOM     61  O   UNL A   1      46.999  19.959  24.670  1.00  0.00    -0.245 OA
BRANCH  60  62
ATOM     62  C   UNL A   1      45.663  21.954  25.096  1.00  0.00     0.304 C 
ATOM     63  C   UNL A   1      45.072  22.912  24.046  1.00  0.00     0.153 C 
ATOM     64  N   UNL A   1      44.832  21.899  26.332  1.00  0.00    -0.317 N 
ATOM     65  S   UNL A   1      43.452  23.362  24.666  1.00  0.00    -0.085 SA
ATOM     66  C   UNL A   1      43.982  23.097  26.374  1.00  0.00     0.303 C 
ATOM     67  H   UNL A   1      45.438  21.876  27.153  1.00  0.00     0.348 HD
ATOM     68  H   UNL A   1      44.254  21.059  26.326  1.00  0.00     0.348 HD
BRANCH  66  69
ATOM     69  C   UNL A   1      44.611  24.351  26.963  1.00  0.00     0.163 A 
ATOM     70  N   UNL A   1      44.260  25.566  26.590  1.00  0.00    -0.234 NA
ATOM     71  S   UNL A   1      45.819  24.303  28.195  1.00  0.00    -0.112 S 
ATOM     72  C   UNL A   1      44.939  26.517  27.327  1.00  0.00     0.082 A 
ATOM     73  C   UNL A   1      45.839  26.017  28.264  1.00  0.00     0.055 A 
ATOM     74  C   UNL A   1      44.775  27.911  27.216  1.00  0.00     0.030 A 
ATOM     75  C   UNL A   1      46.589  26.862  29.099  1.00  0.00     0.021 A 
ATOM     76  C   UNL A   1      45.499  28.762  28.056  1.00  0.00     0.002 A 
ATOM     77  C   UNL A   1      46.393  28.241  28.986  1.00  0.00     0.002 A 
ENDBRANCH  66  69
ENDBRANCH  60  62
ENDBRANCH  59  60
ENDBRANCH  58  59
ENDBRANCH  57  58
ENDBRANCH  56  57
ENDBRANCH   1  56
TORSDOF 15
ENDMDL
MODEL 2
REMARK VINA RESULT:      -9.4      5.320     11.282
REMARK SMILES O=C(OCCOCCOC(=O)[C@H]1CS[C@H](c2nc3ccccc3s2)[NH2+]1)c1ccc(-c2c3nc(c(-c4ccccc4)c4ccc([nH]4)c(-c4ccccc4)c4nc(c(-c5ccccc5)c5ccc2[nH]5)C=C4)C=C3)cc1
REMARK SMILES IDX 5 1 4 2 3 3 2 4 1 5 26 6 27 7 73 8 28 9 72 10 29 11 30 12
REMARK SMILES IDX 31 13 66 14 32 15 71 16 65 17 67 18 33 19 70 20 64 21 63 22
REMARK SMILES IDX 34 24 56 25 41 26 55 27 42 28 45 29 54 30 68 31 43 32 44 33
REMARK SMILES IDX 53 35 69 36 46 37 35 38 36 39 40 40 37 41 39 42 38 43 57 44
REMARK SMILES IDX 58 45 62 46 59 47 61 48 60 49 47 50 48 51 52 52 49 53 51 54
REMARK SMILES IDX 50 55 6 56 7 57 8 58 9 59 10 60 11 61 12 62 13 63 25 64
REMARK SMILES IDX 14 65 15 66 16 69 17 70 24 71 18 72 23 73 19 74 22 75 20 76
REMARK SMILES IDX 21 77
REMARK H PARENT 67 23 45 34 25 67 25 68
REMARK Flexibility Score: inf
ROOT
ATOM      1  C   UNL A   1      34.093  34.779  30.021  1.00  0.00     0.202 C 
ENDROOT
BRANCH   1   2
ATOM      2  C   UNL A   1      34.162  34.427  31.512  1.00  0.00     0.261 C 
BRANCH   2   3
ATOM      3  O   UNL A   1      34.457  33.036  31.697  1.00  0.00    -0.460 OA
BRANCH   3   4
ATOM      4  C   UNL A   1      35.464  32.500  32.423  1.00  0.00     0.338 C 
ATOM      5  O   UNL A   1      35.420  32.587  33.648  1.00  0.00    -0.246 OA
BRANCH   4   6
ATOM      6  C   UNL A   1      36.646  31.825  31.809  1.00  0.00     0.060 A 
ATOM      7  C   UNL A   1      37.485  30.918  32.463  1.00  0.00     0.016 A 
ATOM      8  C   UNL A   1      36.861  32.053  30.441  1.00  0.00     0.016 A 
ATOM      9  C   UNL A   1      38.526  30.282  31.820  1.00  0.00     0.010 A 
ATOM     10  C   UNL A   1      37.901  31.410  29.773  1.00  0.00     0.010 A 
ATOM     11  C   UNL A   1      38.738  30.538  30.476  1.00  0.00    -0.014 A 
BRANCH  11  12
ATOM     12  C   UNL A   1      39.967  30.010  29.887  1.00  0.00     0.031 A 
ATOM     13  C   UNL A   1      41.154  30.912  29.868  1.00  0.00     0.074 A 
ATOM     14  C   UNL A   1      40.018  28.729  29.499  1.00  0.00     0.049 A 
ATOM     15  N   UNL A   1      42.307  30.744  29.290  1.00  0.00    -0.248 NA
ATOM     16  C   UNL A   1      41.019  32.180  30.609  1.00  0.00     0.031 C 
ATOM     17  C   UNL A   1      38.939  27.751  29.660  1.00  0.00     0.029 A 
ATOM     18  N   UNL A   1      41.024  28.029  28.898  1.00  0.00    -0.354 N 
ATOM     19  C   UNL A   1      43.018  31.906  29.551  1.00  0.00     0.074 A 
ATOM     20  C   UNL A   1      42.174  32.767  30.348  1.00  0.00     0.031 C 
ATOM     21  C   UNL A   1      39.337  26.577  29.145  1.00  0.00     0.029 A 
ATOM     22  C   UNL A   1      40.659  26.751  28.557  1.00  0.00     0.049 A 
ATOM     23  H   UNL A   1      41.917  28.403  28.726  1.00  0.00     0.167 HD
ATOM     24  C   UNL A   1      44.260  32.224  29.125  1.00  0.00     0.031 A 
ATOM     25  C   UNL A   1      41.310  25.858  27.793  1.00  0.00     0.031 A 
ATOM     26  C   UNL A   1      45.038  31.340  28.304  1.00  0.00     0.049 A 
ATOM     27  C   UNL A   1      42.643  26.269  27.231  1.00  0.00     0.074 A 
ATOM     28  C   UNL A   1      46.282  31.544  27.743  1.00  0.00     0.029 A 
ATOM     29  N   UNL A   1      44.622  30.067  27.925  1.00  0.00    -0.354 N 
ATOM     30  N   UNL A   1      43.293  27.399  27.402  1.00  0.00    -0.248 NA
ATOM     31  C   UNL A   1      43.325  25.302  26.367  1.00  0.00     0.031 C 
ATOM     32  C   UNL A   1      46.590  30.418  26.972  1.00  0.00     0.029 A 
ATOM     33  C   UNL A   1      45.573  29.481  27.115  1.00  0.00     0.049 A 
ATOM     34  H   UNL A   1      43.773  29.648  28.193  1.00  0.00     0.167 HD
ATOM     35  C   UNL A   1      44.477  27.270  26.691  1.00  0.00     0.074 A 
ATOM     36  C   UNL A   1      44.451  25.949  26.089  1.00  0.00     0.031 C 
ATOM     37  C   UNL A   1      45.497  28.154  26.551  1.00  0.00     0.031 A 
BRANCH  24  38
ATOM     38  C   UNL A   1      44.747  33.608  29.441  1.00  0.00    -0.014 A 
ATOM     39  C   UNL A   1      45.413  33.909  30.641  1.00  0.00     0.009 A 
ATOM     40  C   UNL A   1      44.450  34.653  28.553  1.00  0.00     0.009 A 
ATOM     41  C   UNL A   1      45.712  35.235  30.971  1.00  0.00     0.001 A 
ATOM     42  C   UNL A   1      44.780  35.972  28.869  1.00  0.00     0.001 A 
ATOM     43  C   UNL A   1      45.394  36.264  30.085  1.00  0.00     0.000 A 
ENDBRANCH  24  38
BRANCH  25  44
ATOM     44  C   UNL A   1      40.673  24.553  27.478  1.00  0.00    -0.014 A 
ATOM     45  C   UNL A   1      39.549  24.481  26.644  1.00  0.00     0.009 A 
ATOM     46  C   UNL A   1      41.225  23.358  27.972  1.00  0.00     0.009 A 
ATOM     47  C   UNL A   1      38.989  23.242  26.319  1.00  0.00     0.001 A 
ATOM     48  C   UNL A   1      40.683  22.121  27.622  1.00  0.00     0.001 A 
ATOM     49  C   UNL A   1      39.560  22.063  26.800  1.00  0.00     0.000 A 
ENDBRANCH  25  44
BRANCH  37  50
ATOM     50  C   UNL A   1      46.691  27.697  25.767  1.00  0.00    -0.014 A 
ATOM     51  C   UNL A   1      47.674  26.881  26.342  1.00  0.00     0.009 A 
ATOM     52  C   UNL A   1      46.766  28.008  24.399  1.00  0.00     0.009 A 
ATOM     53  C   UNL A   1      48.722  26.393  25.559  1.00  0.00     0.001 A 
ATOM     54  C   UNL A   1      47.795  27.494  23.615  1.00  0.00     0.001 A 
ATOM     55  C   UNL A   1      48.774  26.690  24.197  1.00  0.00     0.000 A 
ENDBRANCH  37  50
ENDBRANCH  11  12
ENDBRANCH   4   6
ENDBRANCH   3   4
ENDBRANCH   2   3
ENDBRANCH   1   2
BRANCH   1  56
ATOM     56  O   UNL A   1      33.184  34.045  29.195  1.00  0.00    -0.374 OA
BRANCH  56  57
ATOM     57  C   UNL A   1      33.726  33.342  28.067  1.00  0.00     0.202 C 
BRANCH  57  58
ATOM     58  C   UNL A   1      34.070  31.900  28.456  1.00  0.00     0.261 C 
BRANCH  58  59
ATOM     59  O   UNL A   1      34.122  31.122  27.255  1.00  0.00    -0.459 OA
BRANCH  59  60
ATOM     60  C   UNL A   1      34.517  29.835  27.459  1.00  0.00     0.365 C 
ATOM     61  O   UNL A   1      35.376  29.490  28.256  1.00  0.00    -0.245 OA
BRANCH  60  62
ATOM     62  C   UNL A   1      33.734  28.869  26.563  1.00  0.00     0.304 C 
ATOM     63  C   UNL A   1      32.204  28.954  26.718  1.00  0.00     0.153 C 
ATOM     64  N   UNL A   1      34.162  29.036  25.146  1.00  0.00    -0.317 N 
ATOM     65  S   UNL A   1      31.592  29.498  25.124  1.00  0.00    -0.085 SA
ATOM     66  C   UNL A   1      33.009  28.763  24.277  1.00  0.00     0.303 C 
ATOM     67  H   UNL A   1      34.916  28.383  24.935  1.00  0.00     0.348 HD
ATOM     68  H   UNL A   1      34.498  29.987  24.993  1.00  0.00     0.348 HD
BRANCH  66  69
ATOM     69  C   UNL A   1      32.756  27.303  23.931  1.00  0.00     0.163 A 
ATOM     70  N   UNL A   1      33.730  26.424  23.796  1.00  0.00    -0.234 NA
ATOM     71  S   UNL A   1      31.171  26.653  23.714  1.00  0.00    -0.112 S 
ATOM     72  C   UNL A   1      33.219  25.165  23.547  1.00  0.00     0.082 A 
ATOM     73  C   UNL A   1      31.830  25.088  23.469  1.00  0.00     0.055 A 
ATOM     74  C   UNL A   1      33.976  23.989  23.391  1.00  0.00     0.030 A 
ATOM     75  C   UNL A   1      31.165  23.872  23.239  1.00  0.00     0.021 A 
ATOM     76  C   UNL A   1      33.326  22.769  23.182  1.00  0.00     0.002 A 
ATOM     77  C   UNL A   1      31.937  22.714  23.109  1.00  0.00     0.002 A 
ENDBRANCH  66  69
ENDBRANCH  60  62
ENDBRANCH  59  60
ENDBRANCH  58  59
ENDBRANCH  57  58
ENDBRANCH  56  57
ENDBRANCH   1  56
TORSDOF 15
ENDMDL
MODEL 3
REMARK VINA RESULT:      -9.4      4.992     10.239
REMARK SMILES O=C(OCCOCCOC(=O)[C@H]1CS[C@H](c2nc3ccccc3s2)[NH2+]1)c1ccc(-c2c3nc(c(-c4ccccc4)c4ccc([nH]4)c(-c4ccccc4)c4nc(c(-c5ccccc5)c5ccc2[nH]5)C=C4)C=C3)cc1
REMARK SMILES IDX 5 1 4 2 3 3 2 4 1 5 26 6 27 7 73 8 28 9 72 10 29 11 30 12
REMARK SMILES IDX 31 13 66 14 32 15 71 16 65 17 67 18 33 19 70 20 64 21 63 22
REMARK SMILES IDX 34 24 56 25 41 26 55 27 42 28 45 29 54 30 68 31 43 32 44 33
REMARK SMILES IDX 53 35 69 36 46 37 35 38 36 39 40 40 37 41 39 42 38 43 57 44
REMARK SMILES IDX 58 45 62 46 59 47 61 48 60 49 47 50 48 51 52 52 49 53 51 54
REMARK SMILES IDX 50 55 6 56 7 57 8 58 9 59 10 60 11 61 12 62 13 63 25 64
REMARK SMILES IDX 14 65 15 66 16 69 17 70 24 71 18 72 23 73 19 74 22 75 20 76
REMARK SMILES IDX 21 77
REMARK H PARENT 67 23 45 34 25 67 25 68
REMARK Flexibility Score: inf
ROOT
ATOM      1  C   UNL A   1      31.922  29.077  26.052  1.00  0.00     0.202 C 
ENDROOT
BRANCH   1   2
ATOM      2  C   UNL A   1      33.390  29.027  26.490  1.00  0.00     0.261 C 
BRANCH   2   3
ATOM      3  O   UNL A   1      33.900  30.346  26.726  1.00  0.00    -0.460 OA
BRANCH   3   4
ATOM      4  C   UNL A   1      34.552  30.789  27.825  1.00  0.00     0.338 C 
ATOM      5  O   UNL A   1      34.048  31.695  28.484  1.00  0.00    -0.246 OA
BRANCH   4   6
ATOM      6  C   UNL A   1      35.871  30.248  28.268  1.00  0.00     0.060 A 
ATOM      7  C   UNL A   1      36.130  29.682  29.520  1.00  0.00     0.016 A 
ATOM      8  C   UNL A   1      36.896  30.224  27.309  1.00  0.00     0.016 A 
ATOM      9  C   UNL A   1      37.357  29.144  29.845  1.00  0.00     0.010 A 
ATOM     10  C   UNL A   1      38.138  29.675  27.617  1.00  0.00     0.010 A 
ATOM     11  C   UNL A   1      38.364  29.151  28.894  1.00  0.00    -0.014 A 
BRANCH  11  12
ATOM     12  C   UNL A   1      39.700  28.766  29.342  1.00  0.00     0.031 A 
ATOM     13  C   UNL A   1      40.238  27.470  28.840  1.00  0.00     0.074 A 
ATOM     14  C   UNL A   1      40.425  29.621  30.076  1.00  0.00     0.049 A 
ATOM     15  N   UNL A   1      41.322  26.838  29.184  1.00  0.00    -0.248 NA
ATOM     16  C   UNL A   1      39.441  26.794  27.798  1.00  0.00     0.031 C 
ATOM     17  C   UNL A   1      40.015  30.978  30.446  1.00  0.00     0.029 A 
ATOM     18  N   UNL A   1      41.663  29.475  30.633  1.00  0.00    -0.354 N 
ATOM     19  C   UNL A   1      41.312  25.665  28.443  1.00  0.00     0.074 A 
ATOM     20  C   UNL A   1      40.123  25.676  27.623  1.00  0.00     0.031 C 
ATOM     21  C   UNL A   1      40.982  31.534  31.194  1.00  0.00     0.029 A 
ATOM     22  C   UNL A   1      42.030  30.545  31.410  1.00  0.00     0.049 A 
ATOM     23  H   UNL A   1      42.231  28.685  30.492  1.00  0.00     0.167 HD
ATOM     24  C   UNL A   1      42.212  24.659  28.483  1.00  0.00     0.031 A 
ATOM     25  C   UNL A   1      43.072  30.665  32.251  1.00  0.00     0.031 A 
ATOM     26  C   UNL A   1      43.359  24.690  29.348  1.00  0.00     0.049 A 
ATOM     27  C   UNL A   1      44.003  29.491  32.370  1.00  0.00     0.074 A 
ATOM     28  C   UNL A   1      44.323  23.724  29.546  1.00  0.00     0.029 A 
ATOM     29  N   UNL A   1      43.680  25.766  30.170  1.00  0.00    -0.354 N 
ATOM     30  N   UNL A   1      43.960  28.340  31.735  1.00  0.00    -0.248 NA
ATOM     31  C   UNL A   1      45.112  29.618  33.319  1.00  0.00     0.031 C 
ATOM     32  C   UNL A   1      45.194  24.192  30.537  1.00  0.00     0.029 A 
ATOM     33  C   UNL A   1      44.817  25.480  30.899  1.00  0.00     0.049 A 
ATOM     34  H   UNL A   1      43.171  26.606  30.225  1.00  0.00     0.167 HD
ATOM     35  C   UNL A   1      45.054  27.614  32.186  1.00  0.00     0.074 A 
ATOM     36  C   UNL A   1      45.738  28.460  33.147  1.00  0.00     0.031 C 
ATOM     37  C   UNL A   1      45.461  26.368  31.837  1.00  0.00     0.031 A 
BRANCH  24  38
ATOM     38  C   UNL A   1      41.894  23.437  27.672  1.00  0.00    -0.014 A 
ATOM     39  C   UNL A   1      41.081  22.403  28.167  1.00  0.00     0.009 A 
ATOM     40  C   UNL A   1      42.497  23.279  26.414  1.00  0.00     0.009 A 
ATOM     41  C   UNL A   1      40.934  21.213  27.447  1.00  0.00     0.001 A 
ATOM     42  C   UNL A   1      42.321  22.104  25.682  1.00  0.00     0.001 A 
ATOM     43  C   UNL A   1      41.555  21.065  26.208  1.00  0.00     0.000 A 
ENDBRANCH  24  38
BRANCH  25  44
ATOM     44  C   UNL A   1      43.221  31.896  33.069  1.00  0.00    -0.014 A 
ATOM     45  C   UNL A   1      43.814  33.049  32.538  1.00  0.00     0.009 A 
ATOM     46  C   UNL A   1      42.717  31.939  34.380  1.00  0.00     0.009 A 
ATOM     47  C   UNL A   1      43.905  34.215  33.305  1.00  0.00     0.001 A 
ATOM     48  C   UNL A   1      42.782  33.112  35.134  1.00  0.00     0.001 A 
ATOM     49  C   UNL A   1      43.382  34.248  34.598  1.00  0.00     0.000 A 
ENDBRANCH  25  44
BRANCH  37  50
ATOM     50  C   UNL A   1      46.736  25.872  32.451  1.00  0.00    -0.014 A 
ATOM     51  C   UNL A   1      46.735  25.134  33.643  1.00  0.00     0.009 A 
ATOM     52  C   UNL A   1      47.943  26.061  31.759  1.00  0.00     0.009 A 
ATOM     53  C   UNL A   1      47.927  24.604  34.137  1.00  0.00     0.001 A 
ATOM     54  C   UNL A   1      49.125  25.504  32.239  1.00  0.00     0.001 A 
ATOM     55  C   UNL A   1      49.116  24.779  33.429  1.00  0.00     0.000 A 
ENDBRANCH  37  50
ENDBRANCH  11  12
ENDBRANCH   4   6
ENDBRANCH   3   4
ENDBRANCH   2   3
ENDBRANCH   1   2
BRANCH   1  56
ATOM     56  O   UNL A   1      31.505  28.222  24.983  1.00  0.00    -0.374 OA
BRANCH  56  57
ATOM     57  C   UNL A   1      31.616  28.725  23.643  1.00  0.00     0.202 C 
BRANCH  57  58
ATOM     58  C   UNL A   1      32.688  27.948  22.871  1.00  0.00     0.261 C 
BRANCH  58  59
ATOM     59  O   UNL A   1      32.617  26.577  23.281  1.00  0.00    -0.459 OA
BRANCH  59  60
ATOM     60  C   UNL A   1      33.209  25.719  22.407  1.00  0.00     0.365 C 
ATOM     61  O   UNL A   1      33.498  25.992  21.252  1.00  0.00    -0.245 OA
BRANCH  60  62
ATOM     62  C   UNL A   1      33.477  24.360  23.064  1.00  0.00     0.304 C 
ATOM     63  C   UNL A   1      34.671  24.347  24.036  1.00  0.00     0.153 C 
ATOM     64  N   UNL A   1      32.231  23.854  23.704  1.00  0.00    -0.317 N 
ATOM     65  S   UNL A   1      33.974  23.970  25.644  1.00  0.00    -0.085 SA
ATOM     66  C   UNL A   1      32.602  23.068  24.889  1.00  0.00     0.303 C 
ATOM     67  H   UNL A   1      31.720  23.266  23.045  1.00  0.00     0.348 HD
ATOM     68  H   UNL A   1      31.636  24.637  23.975  1.00  0.00     0.348 HD
BRANCH  66  69
ATOM     69  C   UNL A   1      32.959  21.610  24.647  1.00  0.00     0.163 A 
ATOM     70  N   UNL A   1      32.249  20.824  23.861  1.00  0.00    -0.234 NA
ATOM     71  S   UNL A   1      34.342  20.854  25.351  1.00  0.00    -0.112 S 
ATOM     72  C   UNL A   1      32.830  19.574  23.768  1.00  0.00     0.082 A 
ATOM     73  C   UNL A   1      33.993  19.398  24.515  1.00  0.00     0.055 A 
ATOM     74  C   UNL A   1      32.357  18.506  22.982  1.00  0.00     0.030 A 
ATOM     75  C   UNL A   1      34.705  18.187  24.507  1.00  0.00     0.021 A 
ATOM     76  C   UNL A   1      33.068  17.303  22.949  1.00  0.00     0.002 A 
ATOM     77  C   UNL A   1      34.228  17.149  23.702  1.00  0.00     0.002 A 
ENDBRANCH  66  69
ENDBRANCH  60  62
ENDBRANCH  59  60
ENDBRANCH  58  59
ENDBRANCH  57  58
ENDBRANCH  56  57
ENDBRANCH   1  56
TORSDOF 15
ENDMDL
