MODEL 1
REMARK VINA RESULT:      -9.8      0.000      0.000
REMARK SMILES CCC[C@@H]1SC[C@H](C(=O)OCCOCCOC(=O)c2ccc(-c3c4nc(c(-c5ccccc5)c5ccc([nH]5)c(-c5ccccc5)c5nc(c(-c6ccccc6)c6ccc3[nH]6)C=C5)C=C4)cc2)N1C(=O)C[NH+]1CCC([NH3+])CC1
REMARK SMILES IDX 12 1 11 2 10 3 8 4 9 5 7 6 4 7 5 8 67 9 6 10 3 11 2 12 1 13
REMARK SMILES IDX 68 14 69 15 70 16 71 17 72 18 77 19 73 21 76 22 74 23 75 24
REMARK SMILES IDX 13 28 14 29 15 30 16 31 17 32 18 33 19 34 20 35 66 36 21 37
REMARK SMILES IDX 65 38 22 39 23 40 24 41 59 42 25 43 64 44 58 45 60 46 26 47
REMARK SMILES IDX 63 48 57 49 56 50 27 52 49 53 34 54 48 55 35 56 38 57 47 58
REMARK SMILES IDX 61 59 36 60 37 61 46 63 62 64 39 65 28 66 29 67 33 68 30 69
REMARK SMILES IDX 32 70 31 71 50 72 51 73 55 74 52 75 54 76 53 77 40 78 41 79
REMARK SMILES IDX 45 80 42 81 44 82 43 83
REMARK H PARENT 71 20 75 25 75 26 75 27 60 51 38 62
REMARK Flexibility Score: inf
ROOT
ATOM      1  C   UNL A   1      34.891  24.238  24.502  1.00  0.00     0.202 C 
ENDROOT
BRANCH   1   2
ATOM      2  C   UNL A   1      34.273  24.824  23.232  1.00  0.00     0.261 C 
BRANCH   2   3
ATOM      3  O   UNL A   1      32.844  24.795  23.348  1.00  0.00    -0.462 OA
BRANCH   3   4
ATOM      4  C   UNL A   1      32.190  25.933  22.999  1.00  0.00     0.329 C 
ATOM      5  O   UNL A   1      32.241  26.444  21.889  1.00  0.00    -0.250 OA
BRANCH   4   6
ATOM      6  C   UNL A   1      31.357  26.469  24.169  1.00  0.00     0.206 C 
ATOM      7  C   UNL A   1      31.644  27.437  26.335  1.00  0.00     0.144 C 
ATOM      8  S   UNL A   1      31.851  25.660  26.631  1.00  0.00    -0.134 SA
ATOM      9  N   UNL A   1      31.975  27.603  24.924  1.00  0.00    -0.311 N 
ATOM     10  C   UNL A   1      30.929  25.333  25.135  1.00  0.00     0.109 C 
BRANCH   7  11
ATOM     11  C   UNL A   1      32.256  28.201  27.486  1.00  0.00     0.036 C 
BRANCH  11  12
ATOM     12  C   UNL A   1      33.732  28.542  27.301  1.00  0.00    -0.000 C 
ATOM     13  C   UNL A   1      34.092  30.030  27.320  1.00  0.00     0.004 C 
ENDBRANCH  11  12
ENDBRANCH   7  11
BRANCH   9  14
ATOM     14  C   UNL A   1      32.041  28.829  24.235  1.00  0.00     0.279 C 
ATOM     15  O   UNL A   1      33.069  29.109  23.607  1.00  0.00    -0.268 OA
BRANCH  14  16
ATOM     16  C   UNL A   1      30.925  29.911  24.437  1.00  0.00     0.363 C 
BRANCH  16  17
ATOM     17  N   UNL A   1      30.213  30.209  23.161  1.00  0.00    -0.327 N 
ATOM     18  C   UNL A   1      29.888  29.087  22.287  1.00  0.00     0.268 C 
ATOM     19  C   UNL A   1      29.038  31.084  23.273  1.00  0.00     0.268 C 
ATOM     20  H   UNL A   1      30.965  30.724  22.704  1.00  0.00     0.348 HD
ATOM     21  C   UNL A   1      28.718  28.245  22.795  1.00  0.00     0.126 C 
ATOM     22  C   UNL A   1      27.715  30.375  23.625  1.00  0.00     0.126 C 
ATOM     23  C   UNL A   1      27.472  29.124  22.768  1.00  0.00     0.192 C 
BRANCH  23  24
ATOM     24  N   UNL A   1      26.289  28.387  23.214  1.00  0.00    -0.355 N 
ATOM     25  H   UNL A   1      26.184  28.491  24.223  1.00  0.00     0.344 HD
ATOM     26  H   UNL A   1      26.397  27.399  22.984  1.00  0.00     0.344 HD
ATOM     27  H   UNL A   1      25.462  28.756  22.745  1.00  0.00     0.344 HD
ENDBRANCH  23  24
ENDBRANCH  16  17
ENDBRANCH  14  16
ENDBRANCH   9  14
ENDBRANCH   4   6
ENDBRANCH   3   4
ENDBRANCH   2   3
ENDBRANCH   1   2
BRANCH   1  28
ATOM     28  O   UNL A   1      36.110  23.512  24.359  1.00  0.00    -0.374 OA
BRANCH  28  29
ATOM     29  C   UNL A   1      36.046  22.117  24.070  1.00  0.00     0.202 C 
BRANCH  29  30
ATOM     30  C   UNL A   1      37.201  21.223  24.561  1.00  0.00     0.261 C 
BRANCH  30  31
ATOM     31  O   UNL A   1      37.610  21.508  25.912  1.00  0.00    -0.460 OA
BRANCH  31  32
ATOM     32  C   UNL A   1      38.937  21.376  26.137  1.00  0.00     0.338 C 
ATOM     33  O   UNL A   1      39.667  20.464  25.752  1.00  0.00    -0.246 OA
BRANCH  32  34
ATOM     34  C   UNL A   1      39.479  22.598  26.752  1.00  0.00     0.060 A 
ATOM     35  C   UNL A   1      38.894  23.818  26.383  1.00  0.00     0.016 A 
ATOM     36  C   UNL A   1      40.585  22.569  27.602  1.00  0.00     0.016 A 
ATOM     37  C   UNL A   1      39.446  25.019  26.814  1.00  0.00     0.010 A 
ATOM     38  C   UNL A   1      41.149  23.777  28.023  1.00  0.00     0.010 A 
ATOM     39  C   UNL A   1      40.608  25.005  27.595  1.00  0.00    -0.014 A 
BRANCH  39  40
ATOM     40  C   UNL A   1      41.357  26.267  27.800  1.00  0.00     0.031 A 
ATOM     41  C   UNL A   1      40.744  27.339  28.656  1.00  0.00     0.074 A 
ATOM     42  C   UNL A   1      42.576  26.445  27.263  1.00  0.00     0.049 A 
ATOM     43  N   UNL A   1      41.193  28.534  28.942  1.00  0.00    -0.248 NA
ATOM     44  C   UNL A   1      39.445  27.020  29.272  1.00  0.00     0.031 C 
ATOM     45  C   UNL A   1      43.300  25.460  26.463  1.00  0.00     0.029 A 
ATOM     46  N   UNL A   1      43.415  27.529  27.312  1.00  0.00    -0.354 N 
ATOM     47  C   UNL A   1      40.225  29.116  29.752  1.00  0.00     0.074 A 
ATOM     48  C   UNL A   1      39.155  28.153  29.891  1.00  0.00     0.031 C 
ATOM     49  C   UNL A   1      44.475  25.992  26.082  1.00  0.00     0.029 A 
ATOM     50  C   UNL A   1      44.565  27.362  26.581  1.00  0.00     0.049 A 
ATOM     51  H   UNL A   1      43.212  28.347  27.820  1.00  0.00     0.167 HD
ATOM     52  C   UNL A   1      40.229  30.340  30.330  1.00  0.00     0.031 A 
ATOM     53  C   UNL A   1      45.564  28.229  26.322  1.00  0.00     0.031 A 
ATOM     54  C   UNL A   1      41.289  31.300  30.177  1.00  0.00     0.049 A 
ATOM     55  C   UNL A   1      45.511  29.613  26.909  1.00  0.00     0.074 A 
ATOM     56  C   UNL A   1      41.398  32.561  30.737  1.00  0.00     0.029 A 
ATOM     57  N   UNL A   1      42.418  31.109  29.397  1.00  0.00    -0.354 N 
ATOM     58  N   UNL A   1      44.603  30.146  27.691  1.00  0.00    -0.248 NA
ATOM     59  C   UNL A   1      46.627  30.512  26.584  1.00  0.00     0.031 C 
ATOM     60  C   UNL A   1      42.562  33.158  30.242  1.00  0.00     0.029 A 
ATOM     61  C   UNL A   1      43.214  32.242  29.431  1.00  0.00     0.049 A 
ATOM     62  H   UNL A   1      42.624  30.289  28.892  1.00  0.00     0.167 HD
ATOM     63  C   UNL A   1      45.050  31.432  27.973  1.00  0.00     0.074 A 
ATOM     64  C   UNL A   1      46.317  31.592  27.288  1.00  0.00     0.031 C 
ATOM     65  C   UNL A   1      44.469  32.390  28.736  1.00  0.00     0.031 A 
BRANCH  52  66
ATOM     66  C   UNL A   1      39.017  30.724  31.135  1.00  0.00    -0.014 A 
ATOM     67  C   UNL A   1      37.918  31.373  30.552  1.00  0.00     0.009 A 
ATOM     68  C   UNL A   1      38.976  30.424  32.507  1.00  0.00     0.009 A 
ATOM     69  C   UNL A   1      36.824  31.755  31.334  1.00  0.00     0.001 A 
ATOM     70  C   UNL A   1      37.869  30.777  33.279  1.00  0.00     0.001 A 
ATOM     71  C   UNL A   1      36.800  31.454  32.695  1.00  0.00     0.000 A 
ENDBRANCH  52  66
BRANCH  53  72
ATOM     72  C   UNL A   1      46.688  27.812  25.445  1.00  0.00    -0.014 A 
ATOM     73  C   UNL A   1      47.804  27.147  25.974  1.00  0.00     0.009 A 
ATOM     74  C   UNL A   1      46.642  28.067  24.064  1.00  0.00     0.009 A 
ATOM     75  C   UNL A   1      48.855  26.758  25.141  1.00  0.00     0.001 A 
ATOM     76  C   UNL A   1      47.681  27.653  23.230  1.00  0.00     0.001 A 
ATOM     77  C   UNL A   1      48.790  27.004  23.770  1.00  0.00     0.000 A 
ENDBRANCH  53  72
BRANCH  65  78
ATOM     78  C   UNL A   1      45.211  33.688  28.901  1.00  0.00    -0.014 A 
ATOM     79  C   UNL A   1      44.987  34.776  28.042  1.00  0.00     0.009 A 
ATOM     80  C   UNL A   1      46.115  33.838  29.965  1.00  0.00     0.009 A 
ATOM     81  C   UNL A   1      45.680  35.974  28.227  1.00  0.00     0.001 A 
ATOM     82  C   UNL A   1      46.781  35.048  30.166  1.00  0.00     0.001 A 
ATOM     83  C   UNL A   1      46.571  36.111  29.290  1.00  0.00     0.000 A 
ENDBRANCH  65  78
ENDBRANCH  39  40
ENDBRANCH  32  34
ENDBRANCH  31  32
ENDBRANCH  30  31
ENDBRANCH  29  30
ENDBRANCH  28  29
ENDBRANCH   1  28
TORSDOF 20
ENDMDL
MODEL 2
REMARK VINA RESULT:      -9.5      2.815      6.484
REMARK SMILES CCC[C@@H]1SC[C@H](C(=O)OCCOCCOC(=O)c2ccc(-c3c4nc(c(-c5ccccc5)c5ccc([nH]5)c(-c5ccccc5)c5nc(c(-c6ccccc6)c6ccc3[nH]6)C=C5)C=C4)cc2)N1C(=O)C[NH+]1CCC([NH3+])CC1
REMARK SMILES IDX 12 1 11 2 10 3 8 4 9 5 7 6 4 7 5 8 67 9 6 10 3 11 2 12 1 13
REMARK SMILES IDX 68 14 69 15 70 16 71 17 72 18 77 19 73 21 76 22 74 23 75 24
REMARK SMILES IDX 13 28 14 29 15 30 16 31 17 32 18 33 19 34 20 35 66 36 21 37
REMARK SMILES IDX 65 38 22 39 23 40 24 41 59 42 25 43 64 44 58 45 60 46 26 47
REMARK SMILES IDX 63 48 57 49 56 50 27 52 49 53 34 54 48 55 35 56 38 57 47 58
REMARK SMILES IDX 61 59 36 60 37 61 46 63 62 64 39 65 28 66 29 67 33 68 30 69
REMARK SMILES IDX 32 70 31 71 50 72 51 73 55 74 52 75 54 76 53 77 40 78 41 79
REMARK SMILES IDX 45 80 42 81 44 82 43 83
REMARK H PARENT 71 20 75 25 75 26 75 27 60 51 38 62
REMARK Flexibility Score: inf
ROOT
ATOM      1  C   UNL A   1      37.558  23.396  25.788  1.00  0.00     0.202 C 
ENDROOT
BRANCH   1   2
ATOM      2  C   UNL A   1      36.121  23.690  26.223  1.00  0.00     0.261 C 
BRANCH   2   3
ATOM      3  O   UNL A   1      35.411  22.453  26.363  1.00  0.00    -0.462 OA
BRANCH   3   4
ATOM      4  C   UNL A   1      34.452  22.200  25.435  1.00  0.00     0.329 C 
ATOM      5  O   UNL A   1      33.952  21.101  25.243  1.00  0.00    -0.250 OA
BRANCH   4   6
ATOM      6  C   UNL A   1      34.061  23.481  24.687  1.00  0.00     0.206 C 
ATOM      7  C   UNL A   1      32.186  24.455  23.573  1.00  0.00     0.144 C 
ATOM      8  S   UNL A   1      32.884  23.334  22.331  1.00  0.00    -0.134 SA
ATOM      9  N   UNL A   1      32.634  23.900  24.846  1.00  0.00    -0.311 N 
ATOM     10  C   UNL A   1      34.451  23.408  23.187  1.00  0.00     0.109 C 
BRANCH   7  11
ATOM     11  C   UNL A   1      30.756  24.774  23.198  1.00  0.00     0.036 C 
BRANCH  11  12
ATOM     12  C   UNL A   1      30.509  26.237  22.843  1.00  0.00    -0.000 C 
ATOM     13  C   UNL A   1      29.425  26.957  23.647  1.00  0.00     0.004 C 
ENDBRANCH  11  12
ENDBRANCH   7  11
BRANCH   9  14
ATOM     14  C   UNL A   1      32.277  24.377  26.121  1.00  0.00     0.279 C 
ATOM     15  O   UNL A   1      32.377  23.620  27.094  1.00  0.00    -0.268 OA
BRANCH  14  16
ATOM     16  C   UNL A   1      31.564  25.764  26.275  1.00  0.00     0.363 C 
BRANCH  16  17
ATOM     17  N   UNL A   1      32.516  26.826  26.709  1.00  0.00    -0.327 N 
ATOM     18  C   UNL A   1      33.822  26.872  26.061  1.00  0.00     0.268 C 
ATOM     19  C   UNL A   1      31.969  28.188  26.780  1.00  0.00     0.268 C 
ATOM     20  H   UNL A   1      32.676  26.485  27.657  1.00  0.00     0.348 HD
ATOM     21  C   UNL A   1      33.772  27.435  24.640  1.00  0.00     0.126 C 
ATOM     22  C   UNL A   1      31.986  28.978  25.456  1.00  0.00     0.126 C 
ATOM     23  C   UNL A   1      33.342  28.895  24.739  1.00  0.00     0.192 C 
BRANCH  23  24
ATOM     24  N   UNL A   1      33.295  29.528  23.420  1.00  0.00    -0.355 N 
ATOM     25  H   UNL A   1      32.387  29.349  22.990  1.00  0.00     0.344 HD
ATOM     26  H   UNL A   1      34.032  29.141  22.831  1.00  0.00     0.344 HD
ATOM     27  H   UNL A   1      33.432  30.533  23.520  1.00  0.00     0.344 HD
ENDBRANCH  23  24
ENDBRANCH  16  17
ENDBRANCH  14  16
ENDBRANCH   9  14
ENDBRANCH   4   6
ENDBRANCH   3   4
ENDBRANCH   2   3
ENDBRANCH   1   2
BRANCH   1  28
ATOM     28  O   UNL A   1      38.073  22.098  26.075  1.00  0.00    -0.374 OA
BRANCH  28  29
ATOM     29  C   UNL A   1      38.003  21.095  25.063  1.00  0.00     0.202 C 
BRANCH  29  30
ATOM     30  C   UNL A   1      38.833  19.811  25.261  1.00  0.00     0.261 C 
BRANCH  30  31
ATOM     31  O   UNL A   1      39.664  19.842  26.435  1.00  0.00    -0.460 OA
BRANCH  31  32
ATOM     32  C   UNL A   1      40.993  19.792  26.186  1.00  0.00     0.338 C 
ATOM     33  O   UNL A   1      41.590  18.947  25.521  1.00  0.00    -0.246 OA
BRANCH  32  34
ATOM     34  C   UNL A   1      41.651  21.022  26.650  1.00  0.00     0.060 A 
ATOM     35  C   UNL A   1      41.606  21.297  28.025  1.00  0.00     0.016 A 
ATOM     36  C   UNL A   1      42.224  21.934  25.763  1.00  0.00     0.016 A 
ATOM     37  C   UNL A   1      42.083  22.509  28.513  1.00  0.00     0.010 A 
ATOM     38  C   UNL A   1      42.690  23.158  26.252  1.00  0.00     0.010 A 
ATOM     39  C   UNL A   1      42.580  23.467  27.622  1.00  0.00    -0.014 A 
BRANCH  39  40
ATOM     40  C   UNL A   1      42.804  24.852  28.098  1.00  0.00     0.031 A 
ATOM     41  C   UNL A   1      44.199  25.269  28.474  1.00  0.00     0.074 A 
ATOM     42  C   UNL A   1      41.794  25.735  28.164  1.00  0.00     0.049 A 
ATOM     43  N   UNL A   1      44.625  26.409  28.953  1.00  0.00    -0.248 NA
ATOM     44  C   UNL A   1      45.254  24.260  28.287  1.00  0.00     0.031 C 
ATOM     45  C   UNL A   1      40.411  25.469  27.775  1.00  0.00     0.029 A 
ATOM     46  N   UNL A   1      41.783  27.039  28.592  1.00  0.00    -0.354 N 
ATOM     47  C   UNL A   1      45.993  26.248  29.142  1.00  0.00     0.074 A 
ATOM     48  C   UNL A   1      46.319  24.895  28.752  1.00  0.00     0.031 C 
ATOM     49  C   UNL A   1      39.679  26.575  27.995  1.00  0.00     0.029 A 
ATOM     50  C   UNL A   1      40.535  27.609  28.573  1.00  0.00     0.049 A 
ATOM     51  H   UNL A   1      42.591  27.517  28.885  1.00  0.00     0.167 HD
ATOM     52  C   UNL A   1      46.896  27.149  29.598  1.00  0.00     0.031 A 
ATOM     53  C   UNL A   1      40.126  28.820  29.000  1.00  0.00     0.031 A 
ATOM     54  C   UNL A   1      46.565  28.490  29.999  1.00  0.00     0.049 A 
ATOM     55  C   UNL A   1      41.132  29.778  29.577  1.00  0.00     0.074 A 
ATOM     56  C   UNL A   1      47.409  29.486  30.456  1.00  0.00     0.029 A 
ATOM     57  N   UNL A   1      45.283  29.018  30.003  1.00  0.00    -0.354 N 
ATOM     58  N   UNL A   1      42.426  29.625  29.733  1.00  0.00    -0.248 NA
ATOM     59  C   UNL A   1      40.622  31.079  30.031  1.00  0.00     0.031 C 
ATOM     60  C   UNL A   1      46.629  30.595  30.798  1.00  0.00     0.029 A 
ATOM     61  C   UNL A   1      45.307  30.314  30.487  1.00  0.00     0.049 A 
ATOM     62  H   UNL A   1      44.475  28.540  29.704  1.00  0.00     0.167 HD
ATOM     63  C   UNL A   1      42.887  30.818  30.275  1.00  0.00     0.074 A 
ATOM     64  C   UNL A   1      41.737  31.688  30.410  1.00  0.00     0.031 C 
ATOM     65  C   UNL A   1      44.151  31.165  30.624  1.00  0.00     0.031 A 
BRANCH  52  66
ATOM     66  C   UNL A   1      48.320  26.683  29.737  1.00  0.00    -0.014 A 
ATOM     67  C   UNL A   1      49.261  26.870  28.713  1.00  0.00     0.009 A 
ATOM     68  C   UNL A   1      48.726  26.045  30.921  1.00  0.00     0.009 A 
ATOM     69  C   UNL A   1      50.566  26.388  28.853  1.00  0.00     0.001 A 
ATOM     70  C   UNL A   1      50.037  25.594  31.071  1.00  0.00     0.001 A 
ATOM     71  C   UNL A   1      50.953  25.754  30.033  1.00  0.00     0.000 A 
ENDBRANCH  52  66
BRANCH  53  72
ATOM     72  C   UNL A   1      38.688  29.180  28.914  1.00  0.00    -0.014 A 
ATOM     73  C   UNL A   1      37.846  29.047  30.029  1.00  0.00     0.009 A 
ATOM     74  C   UNL A   1      38.150  29.675  27.715  1.00  0.00     0.009 A 
ATOM     75  C   UNL A   1      36.495  29.390  29.939  1.00  0.00     0.001 A 
ATOM     76  C   UNL A   1      36.807  30.043  27.635  1.00  0.00     0.001 A 
ATOM     77  C   UNL A   1      35.978  29.894  28.746  1.00  0.00     0.000 A 
ENDBRANCH  53  72
BRANCH  65  78
ATOM     78  C   UNL A   1      44.366  32.557  31.154  1.00  0.00    -0.014 A 
ATOM     79  C   UNL A   1      44.322  32.833  32.529  1.00  0.00     0.009 A 
ATOM     80  C   UNL A   1      44.664  33.599  30.261  1.00  0.00     0.009 A 
ATOM     81  C   UNL A   1      44.538  34.132  32.995  1.00  0.00     0.001 A 
ATOM     82  C   UNL A   1      44.911  34.889  30.732  1.00  0.00     0.001 A 
ATOM     83  C   UNL A   1      44.838  35.157  32.098  1.00  0.00     0.000 A 
ENDBRANCH  65  78
ENDBRANCH  39  40
ENDBRANCH  32  34
ENDBRANCH  31  32
ENDBRANCH  30  31
ENDBRANCH  29  30
ENDBRANCH  28  29
ENDBRANCH   1  28
TORSDOF 20
ENDMDL
MODEL 3
REMARK VINA RESULT:      -9.4      3.555      5.478
REMARK SMILES CCC[C@@H]1SC[C@H](C(=O)OCCOCCOC(=O)c2ccc(-c3c4nc(c(-c5ccccc5)c5ccc([nH]5)c(-c5ccccc5)c5nc(c(-c6ccccc6)c6ccc3[nH]6)C=C5)C=C4)cc2)N1C(=O)C[NH+]1CCC([NH3+])CC1
REMARK SMILES IDX 12 1 11 2 10 3 8 4 9 5 7 6 4 7 5 8 67 9 6 10 3 11 2 12 1 13
REMARK SMILES IDX 68 14 69 15 70 16 71 17 72 18 77 19 73 21 76 22 74 23 75 24
REMARK SMILES IDX 13 28 14 29 15 30 16 31 17 32 18 33 19 34 20 35 66 36 21 37
REMARK SMILES IDX 65 38 22 39 23 40 24 41 59 42 25 43 64 44 58 45 60 46 26 47
REMARK SMILES IDX 63 48 57 49 56 50 27 52 49 53 34 54 48 55 35 56 38 57 47 58
REMARK SMILES IDX 61 59 36 60 37 61 46 63 62 64 39 65 28 66 29 67 33 68 30 69
REMARK SMILES IDX 32 70 31 71 50 72 51 73 55 74 52 75 54 76 53 77 40 78 41 79
REMARK SMILES IDX 45 80 42 81 44 82 43 83
REMARK H PARENT 71 20 75 25 75 26 75 27 60 51 38 62
REMARK Flexibility Score: inf
ROOT
ATOM      1  C   UNL A   1      39.040  24.060  26.584  1.00  0.00     0.202 C 
ENDROOT
BRANCH   1   2
ATOM      2  C   UNL A   1      37.639  23.699  26.087  1.00  0.00     0.261 C 
BRANCH   2   3
ATOM      3  O   UNL A   1      37.739  23.120  24.780  1.00  0.00    -0.462 OA
BRANCH   3   4
ATOM      4  C   UNL A   1      36.646  23.240  23.983  1.00  0.00     0.329 C 
ATOM      5  O   UNL A   1      36.650  23.055  22.774  1.00  0.00    -0.250 OA
BRANCH   4   6
ATOM      6  C   UNL A   1      35.405  23.607  24.805  1.00  0.00     0.206 C 
ATOM      7  C   UNL A   1      33.049  23.207  24.850  1.00  0.00     0.144 C 
ATOM      8  S   UNL A   1      33.237  24.512  23.604  1.00  0.00    -0.134 SA
ATOM      9  N   UNL A   1      34.350  22.547  24.873  1.00  0.00    -0.311 N 
ATOM     10  C   UNL A   1      34.797  24.960  24.352  1.00  0.00     0.109 C 
BRANCH   7  11
ATOM     11  C   UNL A   1      31.713  22.528  24.652  1.00  0.00     0.036 C 
BRANCH  11  12
ATOM     12  C   UNL A   1      30.698  22.803  25.757  1.00  0.00    -0.000 C 
ATOM     13  C   UNL A   1      31.259  22.954  27.173  1.00  0.00     0.004 C 
ENDBRANCH  11  12
ENDBRANCH   7  11
BRANCH   9  14
ATOM     14  C   UNL A   1      34.679  21.408  25.630  1.00  0.00     0.279 C 
ATOM     15  O   UNL A   1      34.715  21.497  26.863  1.00  0.00    -0.268 OA
BRANCH  14  16
ATOM     16  C   UNL A   1      35.202  20.111  24.922  1.00  0.00     0.363 C 
BRANCH  16  17
ATOM     17  N   UNL A   1      34.398  18.915  25.303  1.00  0.00    -0.327 N 
ATOM     18  C   UNL A   1      32.948  19.066  25.371  1.00  0.00     0.268 C 
ATOM     19  C   UNL A   1      34.716  17.673  24.585  1.00  0.00     0.268 C 
ATOM     20  H   UNL A   1      34.725  18.833  26.265  1.00  0.00     0.348 HD
ATOM     21  C   UNL A   1      32.283  19.131  23.996  1.00  0.00     0.126 C 
ATOM     22  C   UNL A   1      34.001  17.489  23.232  1.00  0.00     0.126 C 
ATOM     23  C   UNL A   1      32.496  17.782  23.317  1.00  0.00     0.192 C 
BRANCH  23  24
ATOM     24  N   UNL A   1      31.863  17.743  21.998  1.00  0.00    -0.355 N 
ATOM     25  H   UNL A   1      30.880  17.489  22.101  1.00  0.00     0.344 HD
ATOM     26  H   UNL A   1      32.333  17.050  21.416  1.00  0.00     0.344 HD
ATOM     27  H   UNL A   1      31.933  18.660  21.560  1.00  0.00     0.344 HD
ENDBRANCH  23  24
ENDBRANCH  16  17
ENDBRANCH  14  16
ENDBRANCH   9  14
ENDBRANCH   4   6
ENDBRANCH   3   4
ENDBRANCH   2   3
ENDBRANCH   1   2
BRANCH   1  28
ATOM     28  O   UNL A   1      40.055  23.069  26.446  1.00  0.00    -0.374 OA
BRANCH  28  29
ATOM     29  C   UNL A   1      39.880  21.813  27.099  1.00  0.00     0.202 C 
BRANCH  29  30
ATOM     30  C   UNL A   1      40.313  20.540  26.346  1.00  0.00     0.261 C 
BRANCH  30  31
ATOM     31  O   UNL A   1      41.572  20.008  26.799  1.00  0.00    -0.460 OA
BRANCH  31  32
ATOM     32  C   UNL A   1      42.578  20.102  25.900  1.00  0.00     0.338 C 
ATOM     33  O   UNL A   1      42.796  19.352  24.950  1.00  0.00    -0.246 OA
BRANCH  32  34
ATOM     34  C   UNL A   1      43.303  21.371  26.069  1.00  0.00     0.060 A 
ATOM     35  C   UNL A   1      43.768  21.680  27.356  1.00  0.00     0.016 A 
ATOM     36  C   UNL A   1      43.455  22.280  25.022  1.00  0.00     0.016 A 
ATOM     37  C   UNL A   1      44.335  22.923  27.616  1.00  0.00     0.010 A 
ATOM     38  C   UNL A   1      44.011  23.535  25.287  1.00  0.00     0.010 A 
ATOM     39  C   UNL A   1      44.412  23.876  26.593  1.00  0.00    -0.014 A 
BRANCH  39  40
ATOM     40  C   UNL A   1      44.733  25.281  26.936  1.00  0.00     0.031 A 
ATOM     41  C   UNL A   1      43.630  26.172  27.438  1.00  0.00     0.074 A 
ATOM     42  C   UNL A   1      45.988  25.751  26.836  1.00  0.00     0.049 A 
ATOM     43  N   UNL A   1      43.666  27.440  27.759  1.00  0.00    -0.248 NA
ATOM     44  C   UNL A   1      42.308  25.547  27.596  1.00  0.00     0.031 C 
ATOM     45  C   UNL A   1      47.151  24.972  26.417  1.00  0.00     0.029 A 
ATOM     46  N   UNL A   1      46.487  27.006  27.078  1.00  0.00    -0.354 N 
ATOM     47  C   UNL A   1      42.370  27.768  28.137  1.00  0.00     0.074 A 
ATOM     48  C   UNL A   1      41.568  26.575  27.981  1.00  0.00     0.031 C 
ATOM     49  C   UNL A   1      48.231  25.773  26.418  1.00  0.00     0.029 A 
ATOM     50  C   UNL A   1      47.826  27.123  26.801  1.00  0.00     0.049 A 
ATOM     51  H   UNL A   1      45.937  27.749  27.416  1.00  0.00     0.167 HD
ATOM     52  C   UNL A   1      41.891  28.956  28.577  1.00  0.00     0.031 A 
ATOM     53  C   UNL A   1      48.627  28.207  26.828  1.00  0.00     0.031 A 
ATOM     54  C   UNL A   1      42.690  30.144  28.716  1.00  0.00     0.049 A 
ATOM     55  C   UNL A   1      48.058  29.536  27.244  1.00  0.00     0.074 A 
ATOM     56  C   UNL A   1      42.305  31.393  29.172  1.00  0.00     0.029 A 
ATOM     57  N   UNL A   1      44.033  30.234  28.388  1.00  0.00    -0.354 N 
ATOM     58  N   UNL A   1      46.836  29.832  27.620  1.00  0.00    -0.248 NA
ATOM     59  C   UNL A   1      48.981  30.679  27.246  1.00  0.00     0.031 C 
ATOM     60  C   UNL A   1      43.400  32.255  29.057  1.00  0.00     0.029 A 
ATOM     61  C   UNL A   1      44.486  31.525  28.598  1.00  0.00     0.049 A 
ATOM     62  H   UNL A   1      44.584  29.489  28.055  1.00  0.00     0.167 HD
ATOM     63  C   UNL A   1      46.851  31.187  27.929  1.00  0.00     0.074 A 
ATOM     64  C   UNL A   1      48.205  31.650  27.709  1.00  0.00     0.031 C 
ATOM     65  C   UNL A   1      45.836  31.975  28.364  1.00  0.00     0.031 A 
BRANCH  52  66
ATOM     66  C   UNL A   1      40.420  29.033  28.883  1.00  0.00    -0.014 A 
ATOM     67  C   UNL A   1      39.474  29.338  27.893  1.00  0.00     0.009 A 
ATOM     68  C   UNL A   1      39.974  28.790  30.193  1.00  0.00     0.009 A 
ATOM     69  C   UNL A   1      38.119  29.445  28.217  1.00  0.00     0.001 A 
ATOM     70  C   UNL A   1      38.617  28.866  30.507  1.00  0.00     0.001 A 
ATOM     71  C   UNL A   1      37.692  29.205  29.522  1.00  0.00     0.000 A 
ENDBRANCH  52  66
BRANCH  53  72
ATOM     72  C   UNL A   1      50.051  28.076  26.427  1.00  0.00    -0.014 A 
ATOM     73  C   UNL A   1      51.047  27.824  27.382  1.00  0.00     0.009 A 
ATOM     74  C   UNL A   1      50.420  28.190  25.076  1.00  0.00     0.009 A 
ATOM     75  C   UNL A   1      52.383  27.702  26.994  1.00  0.00     0.001 A 
ATOM     76  C   UNL A   1      51.752  28.040  24.688  1.00  0.00     0.001 A 
ATOM     77  C   UNL A   1      52.734  27.802  25.649  1.00  0.00     0.000 A 
ENDBRANCH  53  72
BRANCH  65  78
ATOM     78  C   UNL A   1      46.157  33.413  28.664  1.00  0.00    -0.014 A 
ATOM     79  C   UNL A   1      46.006  34.417  27.694  1.00  0.00     0.009 A 
ATOM     80  C   UNL A   1      46.573  33.775  29.955  1.00  0.00     0.009 A 
ATOM     81  C   UNL A   1      46.297  35.747  28.003  1.00  0.00     0.001 A 
ATOM     82  C   UNL A   1      46.832  35.110  30.270  1.00  0.00     0.001 A 
ATOM     83  C   UNL A   1      46.704  36.093  29.291  1.00  0.00     0.000 A 
ENDBRANCH  65  78
ENDBRANCH  39  40
ENDBRANCH  32  34
ENDBRANCH  31  32
ENDBRANCH  30  31
ENDBRANCH  29  30
ENDBRANCH  28  29
ENDBRANCH   1  28
TORSDOF 20
ENDMDL
