MODEL 1
REMARK VINA RESULT:     -12.3      0.000      0.000
REMARK SMILES O=C(OCCOCCOC(=O)c1ccc(-c2c3nc(c(-c4ccccc4)c4ccc([nH]4)c(-c4ccccc4)c4nc(c(-c5ccccc5)c5ccc2[nH]5)C=C4)C=C3)cc1)C1=Cc2cc(Cl)cc(-c3ccccc3)c2O[C@@H]1C(F)(F)F
REMARK SMILES IDX 7 1 6 2 5 3 4 4 3 5 2 6 1 7 60 8 61 9 76 10 62 11 75 12
REMARK SMILES IDX 63 13 74 14 64 15 67 16 65 17 66 18 77 19 78 20 79 21 80 22
REMARK SMILES IDX 68 23 69 24 73 25 70 26 72 27 71 28 8 29 9 30 10 31 11 32
REMARK SMILES IDX 12 33 13 34 59 35 14 36 58 37 15 38 16 39 17 40 52 41 18 42
REMARK SMILES IDX 57 43 51 44 53 45 19 46 56 47 50 48 49 49 20 51 42 52 27 53
REMARK SMILES IDX 41 54 28 55 31 56 40 57 54 58 29 59 30 60 39 62 55 63 32 64
REMARK SMILES IDX 21 65 22 66 26 67 23 68 25 69 24 70 43 71 44 72 48 73 45 74
REMARK SMILES IDX 47 75 46 76 33 77 34 78 38 79 35 80 37 81 36 82
REMARK H PARENT 53 50 31 61
REMARK Flexibility Score: inf
ROOT
ATOM      1  C   UNL A   1      33.538  32.952  28.326  1.00  0.00     0.202 C 
ENDROOT
BRANCH   1   2
ATOM      2  O   UNL A   1      33.765  31.572  27.946  1.00  0.00    -0.374 OA
BRANCH   2   3
ATOM      3  C   UNL A   1      33.029  30.592  26.867  1.00  0.00     0.202 C 
BRANCH   3   4
ATOM      4  C   UNL A   1      32.206  28.597  27.150  1.00  0.00     0.261 C 
BRANCH   4   5
ATOM      5  O   UNL A   1      31.848  27.591  25.995  1.00  0.00    -0.460 OA
BRANCH   5   6
ATOM      6  C   UNL A   1      32.034  26.307  26.323  1.00  0.00     0.338 C 
ATOM      7  O   UNL A   1      31.993  25.743  27.384  1.00  0.00    -0.246 OA
BRANCH   6   8
ATOM      8  C   UNL A   1      32.572  25.939  25.042  1.00  0.00     0.087 C 
ATOM      9  C   UNL A   1      34.034  25.827  25.116  1.00  0.00     0.027 C 
ATOM     10  C   UNL A   1      31.367  24.472  24.653  1.00  0.00     0.316 C 
ATOM     11  C   UNL A   1      34.914  24.250  25.071  1.00  0.00     0.019 A 
ATOM     12  O   UNL A   1      32.304  22.763  24.603  1.00  0.00    -0.475 OA
ATOM     13  C   UNL A   1      36.226  24.316  25.458  1.00  0.00     0.032 A 
ATOM     14  C   UNL A   1      34.116  22.700  24.874  1.00  0.00     0.135 A 
ATOM     15  C   UNL A   1      36.804  23.088  25.756  1.00  0.00     0.042 A 
ATOM     16  C   UNL A   1      34.849  21.497  25.086  1.00  0.00     0.026 A 
ATOM     17  Cl  UNL A   1      38.437  23.102  26.337  1.00  0.00    -0.084 Cl
ATOM     18  C   UNL A   1      36.150  21.804  25.623  1.00  0.00     0.033 A 
BRANCH  10  19
ATOM     19  C   UNL A   1      30.468  25.272  23.593  1.00  0.00     0.430 C 
ATOM     20  F   UNL A   1      31.165  25.941  22.653  1.00  0.00    -0.167 F 
ATOM     21  F   UNL A   1      29.733  24.360  22.889  1.00  0.00    -0.167 F 
ATOM     22  F   UNL A   1      29.546  26.102  24.132  1.00  0.00    -0.167 F 
ENDBRANCH  10  19
BRANCH  16  23
ATOM     23  C   UNL A   1      34.495  19.944  24.825  1.00  0.00    -0.015 A 
ATOM     24  C   UNL A   1      32.861  19.967  24.038  1.00  0.00     0.009 A 
ATOM     25  C   UNL A   1      35.480  18.165  24.770  1.00  0.00     0.009 A 
ATOM     26  C   UNL A   1      32.258  18.500  23.263  1.00  0.00     0.001 A 
ATOM     27  C   UNL A   1      34.737  16.759  23.932  1.00  0.00     0.001 A 
ATOM     28  C   UNL A   1      33.161  16.974  23.209  1.00  0.00     0.000 A 
ENDBRANCH  16  23
ENDBRANCH   6   8
ENDBRANCH   5   6
ENDBRANCH   4   5
ENDBRANCH   3   4
ENDBRANCH   2   3
ENDBRANCH   1   2
BRANCH   1  29
ATOM     29  C   UNL A   1      34.289  33.441  29.565  1.00  0.00     0.261 C 
BRANCH  29  30
ATOM     30  O   UNL A   1      35.592  32.912  29.558  1.00  0.00    -0.460 OA
BRANCH  30  31
ATOM     31  C   UNL A   1      35.798  32.046  30.568  1.00  0.00     0.338 C 
ATOM     32  O   UNL A   1      35.172  31.879  31.596  1.00  0.00    -0.246 OA
BRANCH  31  33
ATOM     33  C   UNL A   1      36.919  31.252  30.135  1.00  0.00     0.060 A 
ATOM     34  C   UNL A   1      38.305  30.979  31.212  1.00  0.00     0.016 A 
ATOM     35  C   UNL A   1      37.018  30.661  28.427  1.00  0.00     0.016 A 
ATOM     36  C   UNL A   1      39.812  30.181  30.667  1.00  0.00     0.010 A 
ATOM     37  C   UNL A   1      38.731  29.749  27.874  1.00  0.00     0.010 A 
ATOM     38  C   UNL A   1      40.062  29.567  29.042  1.00  0.00    -0.014 A 
BRANCH  38  39
ATOM     39  C   UNL A   1      41.336  29.133  28.399  1.00  0.00     0.031 A 
ATOM     40  C   UNL A   1      41.589  27.670  28.085  1.00  0.00     0.074 A 
ATOM     41  C   UNL A   1      42.398  29.955  28.519  1.00  0.00     0.049 A 
ATOM     42  N   UNL A   1      42.717  27.060  27.800  1.00  0.00    -0.248 NA
ATOM     43  C   UNL A   1      40.438  26.760  28.166  1.00  0.00     0.031 C 
ATOM     44  C   UNL A   1      42.342  31.329  29.013  1.00  0.00     0.029 A 
ATOM     45  N   UNL A   1      43.741  29.725  28.331  1.00  0.00    -0.354 N 
ATOM     46  C   UNL A   1      42.409  25.705  27.684  1.00  0.00     0.074 A 
ATOM     47  C   UNL A   1      41.003  25.572  27.993  1.00  0.00     0.031 C 
ATOM     48  C   UNL A   1      43.590  31.808  29.131  1.00  0.00     0.029 A 
ATOM     49  C   UNL A   1      44.536  30.774  28.730  1.00  0.00     0.049 A 
ATOM     50  H   UNL A   1      44.097  28.890  27.949  1.00  0.00     0.167 HD
ATOM     51  C   UNL A   1      43.211  24.667  27.332  1.00  0.00     0.031 A 
ATOM     52  C   UNL A   1      45.876  30.895  28.787  1.00  0.00     0.031 A 
ATOM     53  C   UNL A   1      44.615  24.796  27.040  1.00  0.00     0.049 A 
ATOM     54  C   UNL A   1      46.744  29.756  28.331  1.00  0.00     0.074 A 
ATOM     55  C   UNL A   1      45.477  23.856  26.498  1.00  0.00     0.029 A 
ATOM     56  N   UNL A   1      45.370  25.927  27.298  1.00  0.00    -0.354 N 
ATOM     57  N   UNL A   1      46.398  28.548  27.963  1.00  0.00    -0.248 NA
ATOM     58  C   UNL A   1      48.191  30.013  28.260  1.00  0.00     0.031 C 
ATOM     59  C   UNL A   1      46.766  24.396  26.494  1.00  0.00     0.029 A 
ATOM     60  C   UNL A   1      46.694  25.694  26.968  1.00  0.00     0.049 A 
ATOM     61  H   UNL A   1      45.018  26.772  27.660  1.00  0.00     0.167 HD
ATOM     62  C   UNL A   1      47.575  27.920  27.575  1.00  0.00     0.074 A 
ATOM     63  C   UNL A   1      48.641  28.883  27.734  1.00  0.00     0.031 C 
ATOM     64  C   UNL A   1      47.753  26.655  27.123  1.00  0.00     0.031 A 
BRANCH  51  65
ATOM     65  C   UNL A   1      42.599  23.295  27.175  1.00  0.00    -0.014 A 
ATOM     66  C   UNL A   1      42.294  22.791  25.900  1.00  0.00     0.009 A 
ATOM     67  C   UNL A   1      42.457  22.443  28.284  1.00  0.00     0.009 A 
ATOM     68  C   UNL A   1      41.840  21.479  25.740  1.00  0.00     0.001 A 
ATOM     69  C   UNL A   1      42.032  21.122  28.119  1.00  0.00     0.001 A 
ATOM     70  C   UNL A   1      41.719  20.643  26.848  1.00  0.00     0.000 A 
ENDBRANCH  51  65
BRANCH  52  71
ATOM     71  C   UNL A   1      46.493  32.174  29.228  1.00  0.00    -0.014 A 
ATOM     72  C   UNL A   1      46.742  32.391  30.592  1.00  0.00     0.009 A 
ATOM     73  C   UNL A   1      46.808  33.189  28.312  1.00  0.00     0.009 A 
ATOM     74  C   UNL A   1      47.237  33.617  31.038  1.00  0.00     0.001 A 
ATOM     75  C   UNL A   1      47.338  34.403  28.757  1.00  0.00     0.001 A 
ATOM     76  C   UNL A   1      47.536  34.622  30.120  1.00  0.00     0.000 A 
ENDBRANCH  52  71
BRANCH  64  77
ATOM     77  C   UNL A   1      49.145  26.245  26.734  1.00  0.00    -0.014 A 
ATOM     78  C   UNL A   1      50.007  25.622  27.650  1.00  0.00     0.009 A 
ATOM     79  C   UNL A   1      49.585  26.442  25.415  1.00  0.00     0.009 A 
ATOM     80  C   UNL A   1      51.291  25.234  27.262  1.00  0.00     0.001 A 
ATOM     81  C   UNL A   1      50.856  26.021  25.020  1.00  0.00     0.001 A 
ATOM     82  C   UNL A   1      51.711  25.427  25.946  1.00  0.00     0.000 A 
ENDBRANCH  64  77
ENDBRANCH  38  39
ENDBRANCH  31  33
ENDBRANCH  30  31
ENDBRANCH  29  30
ENDBRANCH   1  29
TORSDOF 16
ENDMDL
MODEL 2
REMARK VINA RESULT:     -12.1      3.858      9.137
REMARK SMILES O=C(OCCOCCOC(=O)c1ccc(-c2c3nc(c(-c4ccccc4)c4ccc([nH]4)c(-c4ccccc4)c4nc(c(-c5ccccc5)c5ccc2[nH]5)C=C4)C=C3)cc1)C1=Cc2cc(Cl)cc(-c3ccccc3)c2O[C@@H]1C(F)(F)F
REMARK SMILES IDX 7 1 6 2 5 3 4 4 3 5 2 6 1 7 60 8 61 9 76 10 62 11 75 12
REMARK SMILES IDX 63 13 74 14 64 15 67 16 65 17 66 18 77 19 78 20 79 21 80 22
REMARK SMILES IDX 68 23 69 24 73 25 70 26 72 27 71 28 8 29 9 30 10 31 11 32
REMARK SMILES IDX 12 33 13 34 59 35 14 36 58 37 15 38 16 39 17 40 52 41 18 42
REMARK SMILES IDX 57 43 51 44 53 45 19 46 56 47 50 48 49 49 20 51 42 52 27 53
REMARK SMILES IDX 41 54 28 55 31 56 40 57 54 58 29 59 30 60 39 62 55 63 32 64
REMARK SMILES IDX 21 65 22 66 26 67 23 68 25 69 24 70 43 71 44 72 48 73 45 74
REMARK SMILES IDX 47 75 46 76 33 77 34 78 38 79 35 80 37 81 36 82
REMARK H PARENT 53 50 31 61
REMARK Flexibility Score: inf
ROOT
ATOM      1  C   UNL A   1      39.846  22.211  26.154  1.00  0.00     0.202 C 
ENDROOT
BRANCH   1   2
ATOM      2  O   UNL A   1      38.397  22.174  26.124  1.00  0.00    -0.374 OA
BRANCH   2   3
ATOM      3  C   UNL A   1      37.332  21.701  24.981  1.00  0.00     0.202 C 
BRANCH   3   4
ATOM      4  C   UNL A   1      35.876  22.883  23.875  1.00  0.00     0.261 C 
BRANCH   4   5
ATOM      5  O   UNL A   1      34.544  23.471  24.470  1.00  0.00    -0.460 OA
BRANCH   5   6
ATOM      6  C   UNL A   1      34.135  24.594  23.869  1.00  0.00     0.338 C 
ATOM      7  O   UNL A   1      34.693  25.331  23.099  1.00  0.00    -0.246 OA
BRANCH   6   8
ATOM      8  C   UNL A   1      32.959  24.738  24.681  1.00  0.00     0.087 C 
ATOM      9  C   UNL A   1      33.173  25.763  25.711  1.00  0.00     0.027 C 
ATOM     10  C   UNL A   1      31.656  24.858  23.252  1.00  0.00     0.316 C 
ATOM     11  C   UNL A   1      32.398  27.393  25.666  1.00  0.00     0.019 A 
ATOM     12  O   UNL A   1      30.811  26.614  23.192  1.00  0.00    -0.475 OA
ATOM     13  C   UNL A   1      32.944  28.310  26.524  1.00  0.00     0.032 A 
ATOM     14  C   UNL A   1      31.266  27.895  24.423  1.00  0.00     0.135 A 
ATOM     15  C   UNL A   1      32.599  29.630  26.259  1.00  0.00     0.042 A 
ATOM     16  C   UNL A   1      30.886  29.265  24.326  1.00  0.00     0.026 A 
ATOM     17  Cl  UNL A   1      33.324  30.853  27.249  1.00  0.00    -0.084 Cl
ATOM     18  C   UNL A   1      31.687  30.060  25.220  1.00  0.00     0.033 A 
BRANCH  10  19
ATOM     19  C   UNL A   1      31.093  23.366  23.416  1.00  0.00     0.430 C 
ATOM     20  F   UNL A   1      30.813  23.003  24.683  1.00  0.00    -0.167 F 
ATOM     21  F   UNL A   1      29.891  23.294  22.767  1.00  0.00    -0.167 F 
ATOM     22  F   UNL A   1      31.844  22.402  22.838  1.00  0.00    -0.167 F 
ENDBRANCH  10  19
BRANCH  16  23
ATOM     23  C   UNL A   1      29.765  30.026  23.448  1.00  0.00    -0.015 A 
ATOM     24  C   UNL A   1      29.644  31.679  24.184  1.00  0.00     0.009 A 
ATOM     25  C   UNL A   1      28.845  29.787  21.650  1.00  0.00     0.009 A 
ATOM     26  C   UNL A   1      28.793  32.952  23.306  1.00  0.00     0.001 A 
ATOM     27  C   UNL A   1      28.024  31.185  20.874  1.00  0.00     0.001 A 
ATOM     28  C   UNL A   1      28.028  32.712  21.723  1.00  0.00     0.000 A 
ENDBRANCH  16  23
ENDBRANCH   6   8
ENDBRANCH   5   6
ENDBRANCH   4   5
ENDBRANCH   3   4
ENDBRANCH   2   3
ENDBRANCH   1   2
BRANCH   1  29
ATOM     29  C   UNL A   1      40.523  21.277  27.157  1.00  0.00     0.261 C 
BRANCH  29  30
ATOM     30  O   UNL A   1      41.637  21.927  27.718  1.00  0.00    -0.460 OA
BRANCH  30  31
ATOM     31  C   UNL A   1      42.708  21.904  26.901  1.00  0.00     0.338 C 
ATOM     32  O   UNL A   1      43.099  21.034  26.148  1.00  0.00    -0.246 OA
BRANCH  31  33
ATOM     33  C   UNL A   1      43.289  23.215  27.036  1.00  0.00     0.060 A 
ATOM     34  C   UNL A   1      43.592  24.222  25.605  1.00  0.00     0.016 A 
ATOM     35  C   UNL A   1      43.881  23.793  28.646  1.00  0.00     0.016 A 
ATOM     36  C   UNL A   1      44.496  25.766  25.682  1.00  0.00     0.010 A 
ATOM     37  C   UNL A   1      44.872  25.551  28.677  1.00  0.00     0.010 A 
ATOM     38  C   UNL A   1      45.141  26.450  27.165  1.00  0.00    -0.014 A 
BRANCH  38  39
ATOM     39  C   UNL A   1      46.120  27.564  27.324  1.00  0.00     0.031 A 
ATOM     40  C   UNL A   1      45.681  29.010  27.179  1.00  0.00     0.074 A 
ATOM     41  C   UNL A   1      47.423  27.271  27.147  1.00  0.00     0.049 A 
ATOM     42  N   UNL A   1      46.408  30.089  26.999  1.00  0.00    -0.248 NA
ATOM     43  C   UNL A   1      44.235  29.272  27.170  1.00  0.00     0.031 C 
ATOM     44  C   UNL A   1      47.971  25.919  27.050  1.00  0.00     0.029 A 
ATOM     45  N   UNL A   1      48.507  28.085  26.916  1.00  0.00    -0.354 N 
ATOM     46  C   UNL A   1      45.508  31.143  26.841  1.00  0.00     0.074 A 
ATOM     47  C   UNL A   1      44.184  30.566  26.883  1.00  0.00     0.031 C 
ATOM     48  C   UNL A   1      49.275  25.992  26.739  1.00  0.00     0.029 A 
ATOM     49  C   UNL A   1      49.654  27.392  26.605  1.00  0.00     0.049 A 
ATOM     50  H   UNL A   1      48.465  29.068  26.968  1.00  0.00     0.167 HD
ATOM     51  C   UNL A   1      45.754  32.471  26.699  1.00  0.00     0.031 A 
ATOM     52  C   UNL A   1      50.875  27.826  26.236  1.00  0.00     0.031 A 
ATOM     53  C   UNL A   1      47.074  33.044  26.641  1.00  0.00     0.049 A 
ATOM     54  C   UNL A   1      51.143  29.302  26.147  1.00  0.00     0.074 A 
ATOM     55  C   UNL A   1      47.440  34.380  26.683  1.00  0.00     0.029 A 
ATOM     56  N   UNL A   1      48.241  32.315  26.493  1.00  0.00    -0.354 N 
ATOM     57  N   UNL A   1      50.308  30.304  26.273  1.00  0.00    -0.248 NA
ATOM     58  C   UNL A   1      52.536  29.709  25.904  1.00  0.00     0.031 C 
ATOM     59  C   UNL A   1      48.823  34.461  26.492  1.00  0.00     0.029 A 
ATOM     60  C   UNL A   1      49.323  33.174  26.399  1.00  0.00     0.049 A 
ATOM     61  H   UNL A   1      48.294  31.333  26.460  1.00  0.00     0.167 HD
ATOM     62  C   UNL A   1      51.081  31.454  26.171  1.00  0.00     0.074 A 
ATOM     63  C   UNL A   1      52.451  31.029  25.992  1.00  0.00     0.031 C 
ATOM     64  C   UNL A   1      50.687  32.749  26.224  1.00  0.00     0.031 A 
BRANCH  51  65
ATOM     65  C   UNL A   1      44.586  33.427  26.654  1.00  0.00    -0.014 A 
ATOM     66  C   UNL A   1      44.133  34.056  27.827  1.00  0.00     0.009 A 
ATOM     67  C   UNL A   1      44.025  33.816  25.426  1.00  0.00     0.009 A 
ATOM     68  C   UNL A   1      43.133  35.031  27.773  1.00  0.00     0.001 A 
ATOM     69  C   UNL A   1      43.047  34.813  25.372  1.00  0.00     0.001 A 
ATOM     70  C   UNL A   1      42.598  35.415  26.546  1.00  0.00     0.000 A 
ENDBRANCH  51  65
BRANCH  52  71
ATOM     71  C   UNL A   1      51.972  26.852  25.991  1.00  0.00    -0.014 A 
ATOM     72  C   UNL A   1      52.180  26.353  24.695  1.00  0.00     0.009 A 
ATOM     73  C   UNL A   1      52.789  26.393  27.034  1.00  0.00     0.009 A 
ATOM     74  C   UNL A   1      53.144  25.373  24.458  1.00  0.00     0.001 A 
ATOM     75  C   UNL A   1      53.778  25.437  26.787  1.00  0.00     0.001 A 
ATOM     76  C   UNL A   1      53.944  24.916  25.504  1.00  0.00     0.000 A 
ENDBRANCH  52  71
BRANCH  64  77
ATOM     77  C   UNL A   1      51.750  33.805  26.123  1.00  0.00    -0.014 A 
ATOM     78  C   UNL A   1      52.019  34.457  24.909  1.00  0.00     0.009 A 
ATOM     79  C   UNL A   1      52.462  34.188  27.271  1.00  0.00     0.009 A 
ATOM     80  C   UNL A   1      53.002  35.447  24.842  1.00  0.00     0.001 A 
ATOM     81  C   UNL A   1      53.418  35.203  27.209  1.00  0.00     0.001 A 
ATOM     82  C   UNL A   1      53.694  35.824  25.992  1.00  0.00     0.000 A 
ENDBRANCH  64  77
ENDBRANCH  38  39
ENDBRANCH  31  33
ENDBRANCH  30  31
ENDBRANCH  29  30
ENDBRANCH   1  29
TORSDOF 16
ENDMDL
MODEL 3
REMARK VINA RESULT:     -11.9      2.622      6.673
REMARK SMILES O=C(OCCOCCOC(=O)c1ccc(-c2c3nc(c(-c4ccccc4)c4ccc([nH]4)c(-c4ccccc4)c4nc(c(-c5ccccc5)c5ccc2[nH]5)C=C4)C=C3)cc1)C1=Cc2cc(Cl)cc(-c3ccccc3)c2O[C@@H]1C(F)(F)F
REMARK SMILES IDX 7 1 6 2 5 3 4 4 3 5 2 6 1 7 60 8 61 9 76 10 62 11 75 12
REMARK SMILES IDX 63 13 74 14 64 15 67 16 65 17 66 18 77 19 78 20 79 21 80 22
REMARK SMILES IDX 68 23 69 24 73 25 70 26 72 27 71 28 8 29 9 30 10 31 11 32
REMARK SMILES IDX 12 33 13 34 59 35 14 36 58 37 15 38 16 39 17 40 52 41 18 42
REMARK SMILES IDX 57 43 51 44 53 45 19 46 56 47 50 48 49 49 20 51 42 52 27 53
REMARK SMILES IDX 41 54 28 55 31 56 40 57 54 58 29 59 30 60 39 62 55 63 32 64
REMARK SMILES IDX 21 65 22 66 26 67 23 68 25 69 24 70 43 71 44 72 48 73 45 74
REMARK SMILES IDX 47 75 46 76 33 77 34 78 38 79 35 80 37 81 36 82
REMARK H PARENT 53 50 31 61
REMARK Flexibility Score: inf
ROOT
ATOM      1  C   UNL A   1      31.588  31.851  26.268  1.00  0.00     0.202 C 
ENDROOT
BRANCH   1   2
ATOM      2  O   UNL A   1      31.017  30.850  25.389  1.00  0.00    -0.374 OA
BRANCH   2   3
ATOM      3  C   UNL A   1      29.938  30.946  24.167  1.00  0.00     0.202 C 
BRANCH   3   4
ATOM      4  C   UNL A   1      29.533  29.526  22.567  1.00  0.00     0.261 C 
BRANCH   4   5
ATOM      5  O   UNL A   1      29.541  27.961  22.719  1.00  0.00    -0.460 OA
BRANCH   5   6
ATOM      6  C   UNL A   1      30.714  27.396  22.412  1.00  0.00     0.338 C 
ATOM      7  O   UNL A   1      31.044  26.700  21.488  1.00  0.00    -0.246 OA
BRANCH   6   8
ATOM      8  C   UNL A   1      31.311  27.670  23.690  1.00  0.00     0.087 C 
ATOM      9  C   UNL A   1      30.599  26.947  24.751  1.00  0.00     0.027 C 
ATOM     10  C   UNL A   1      33.161  27.371  23.195  1.00  0.00     0.316 C 
ATOM     11  C   UNL A   1      31.284  25.512  25.608  1.00  0.00     0.019 A 
ATOM     12  O   UNL A   1      33.912  25.824  24.112  1.00  0.00    -0.475 OA
ATOM     13  C   UNL A   1      30.374  24.791  26.334  1.00  0.00     0.032 A 
ATOM     14  C   UNL A   1      32.890  24.875  25.302  1.00  0.00     0.135 A 
ATOM     15  C   UNL A   1      30.802  23.522  26.704  1.00  0.00     0.042 A 
ATOM     16  C   UNL A   1      33.262  23.610  25.842  1.00  0.00     0.026 A 
ATOM     17  Cl  UNL A   1      29.670  22.518  27.548  1.00  0.00    -0.084 Cl
ATOM     18  C   UNL A   1      32.115  22.973  26.435  1.00  0.00     0.033 A 
BRANCH  10  19
ATOM     19  C   UNL A   1      33.567  28.921  23.126  1.00  0.00     0.430 C 
ATOM     20  F   UNL A   1      33.509  29.572  24.305  1.00  0.00    -0.167 F 
ATOM     21  F   UNL A   1      34.881  28.997  22.758  1.00  0.00    -0.167 F 
ATOM     22  F   UNL A   1      32.913  29.645  22.190  1.00  0.00    -0.167 F 
ENDBRANCH  10  19
BRANCH  16  23
ATOM     23  C   UNL A   1      34.672  22.825  25.910  1.00  0.00    -0.015 A 
ATOM     24  C   UNL A   1      34.309  21.165  25.276  1.00  0.00     0.009 A 
ATOM     25  C   UNL A   1      36.643  23.288  26.106  1.00  0.00     0.009 A 
ATOM     26  C   UNL A   1      35.646  20.097  24.846  1.00  0.00     0.001 A 
ATOM     27  C   UNL A   1      37.893  22.093  25.615  1.00  0.00     0.001 A 
ATOM     28  C   UNL A   1      37.356  20.549  25.003  1.00  0.00     0.000 A 
ENDBRANCH  16  23
ENDBRANCH   6   8
ENDBRANCH   5   6
ENDBRANCH   4   5
ENDBRANCH   3   4
ENDBRANCH   2   3
ENDBRANCH   1   2
BRANCH   1  29
ATOM     29  C   UNL A   1      32.252  31.329  27.543  1.00  0.00     0.261 C 
BRANCH  29  30
ATOM     30  O   UNL A   1      33.587  30.987  27.264  1.00  0.00    -0.460 OA
BRANCH  30  31
ATOM     31  C   UNL A   1      33.841  29.684  27.491  1.00  0.00     0.338 C 
ATOM     32  O   UNL A   1      33.144  28.707  27.302  1.00  0.00    -0.246 OA
BRANCH  31  33
ATOM     33  C   UNL A   1      35.206  29.661  27.951  1.00  0.00     0.060 A 
ATOM     34  C   UNL A   1      36.552  29.743  26.794  1.00  0.00     0.016 A 
ATOM     35  C   UNL A   1      35.579  29.371  29.698  1.00  0.00     0.016 A 
ATOM     36  C   UNL A   1      38.259  29.510  27.279  1.00  0.00     0.010 A 
ATOM     37  C   UNL A   1      37.522  29.140  30.191  1.00  0.00     0.010 A 
ATOM     38  C   UNL A   1      38.776  29.210  28.930  1.00  0.00    -0.014 A 
BRANCH  38  39
ATOM     39  C   UNL A   1      40.107  28.744  29.416  1.00  0.00     0.031 A 
ATOM     40  C   UNL A   1      41.170  29.739  29.843  1.00  0.00     0.074 A 
ATOM     41  C   UNL A   1      40.499  27.508  29.050  1.00  0.00     0.049 A 
ATOM     42  N   UNL A   1      42.460  29.560  30.019  1.00  0.00    -0.248 NA
ATOM     43  C   UNL A   1      40.744  31.133  30.035  1.00  0.00     0.031 C 
ATOM     44  C   UNL A   1      39.637  26.507  28.425  1.00  0.00     0.029 A 
ATOM     45  N   UNL A   1      41.741  26.917  29.056  1.00  0.00    -0.354 N 
ATOM     46  C   UNL A   1      42.989  30.813  30.324  1.00  0.00     0.074 A 
ATOM     47  C   UNL A   1      41.896  31.755  30.248  1.00  0.00     0.031 C 
ATOM     48  C   UNL A   1      40.376  25.445  28.069  1.00  0.00     0.029 A 
ATOM     49  C   UNL A   1      41.766  25.692  28.431  1.00  0.00     0.049 A 
ATOM     50  H   UNL A   1      42.534  27.332  29.467  1.00  0.00     0.167 HD
ATOM     51  C   UNL A   1      44.261  31.152  30.661  1.00  0.00     0.031 A 
ATOM     52  C   UNL A   1      42.790  24.860  28.160  1.00  0.00     0.031 A 
ATOM     53  C   UNL A   1      45.355  30.217  30.723  1.00  0.00     0.049 A 
ATOM     54  C   UNL A   1      44.180  25.225  28.599  1.00  0.00     0.074 A 
ATOM     55  C   UNL A   1      46.631  30.409  31.225  1.00  0.00     0.029 A 
ATOM     56  N   UNL A   1      45.310  28.923  30.233  1.00  0.00    -0.354 N 
ATOM     57  N   UNL A   1      44.611  26.336  29.143  1.00  0.00    -0.248 NA
ATOM     58  C   UNL A   1      45.222  24.201  28.422  1.00  0.00     0.031 C 
ATOM     59  C   UNL A   1      47.378  29.254  30.977  1.00  0.00     0.029 A 
ATOM     60  C   UNL A   1      46.547  28.320  30.383  1.00  0.00     0.049 A 
ATOM     61  H   UNL A   1      44.516  28.494  29.839  1.00  0.00     0.167 HD
ATOM     62  C   UNL A   1      45.957  26.126  29.414  1.00  0.00     0.074 A 
ATOM     63  C   UNL A   1      46.269  24.779  28.993  1.00  0.00     0.031 C 
ATOM     64  C   UNL A   1      46.854  26.978  29.967  1.00  0.00     0.031 A 
BRANCH  51  65
ATOM     65  C   UNL A   1      44.554  32.580  31.055  1.00  0.00    -0.014 A 
ATOM     66  C   UNL A   1      44.931  33.525  30.086  1.00  0.00     0.009 A 
ATOM     67  C   UNL A   1      44.318  33.024  32.367  1.00  0.00     0.009 A 
ATOM     68  C   UNL A   1      45.087  34.872  30.425  1.00  0.00     0.001 A 
ATOM     69  C   UNL A   1      44.445  34.377  32.697  1.00  0.00     0.001 A 
ATOM     70  C   UNL A   1      44.834  35.298  31.727  1.00  0.00     0.000 A 
ENDBRANCH  51  65
BRANCH  52  71
ATOM     71  C   UNL A   1      42.537  23.554  27.496  1.00  0.00    -0.014 A 
ATOM     72  C   UNL A   1      42.149  22.446  28.266  1.00  0.00     0.009 A 
ATOM     73  C   UNL A   1      42.706  23.392  26.112  1.00  0.00     0.009 A 
ATOM     74  C   UNL A   1      41.992  21.191  27.677  1.00  0.00     0.001 A 
ATOM     75  C   UNL A   1      42.513  22.141  25.520  1.00  0.00     0.001 A 
ATOM     76  C   UNL A   1      42.173  21.039  26.304  1.00  0.00     0.000 A 
ENDBRANCH  52  71
BRANCH  64  77
ATOM     77  C   UNL A   1      48.252  26.472  30.183  1.00  0.00    -0.014 A 
ATOM     78  C   UNL A   1      49.249  26.638  29.208  1.00  0.00     0.009 A 
ATOM     79  C   UNL A   1      48.590  25.861  31.402  1.00  0.00     0.009 A 
ATOM     80  C   UNL A   1      50.545  26.173  29.438  1.00  0.00     0.001 A 
ATOM     81  C   UNL A   1      49.895  25.430  31.642  1.00  0.00     0.001 A 
ATOM     82  C   UNL A   1      50.870  25.578  30.656  1.00  0.00     0.000 A 
ENDBRANCH  64  77
ENDBRANCH  38  39
ENDBRANCH  31  33
ENDBRANCH  30  31
ENDBRANCH  29  30
ENDBRANCH   1  29
TORSDOF 16
ENDMDL
