MODEL 1
REMARK VINA RESULT:     -10.5      0.000      0.000
REMARK SMILES C[C@@H](C(=O)OCCOCCOC(=O)c1ccc(-c2c3nc(c(-c4ccccc4)c4ccc([nH]4)c(-c4ccccc4)c4nc(c(-c5ccccc5)c5ccc2[nH]5)C=C4)C=C3)cc1)c1ccc(C[C@@H]2CCC[C@@H]2O)cc1Br
REMARK SMILES IDX 7 1 6 2 5 3 3 4 4 5 2 6 1 7 62 8 63 9 74 10 64 11 73 12
REMARK SMILES IDX 75 13 65 14 66 15 67 16 68 17 71 18 69 19 70 20 72 21 8 23
REMARK SMILES IDX 9 24 10 25 11 26 12 27 13 28 14 29 15 30 61 31 16 32 60 33
REMARK SMILES IDX 17 34 18 35 19 36 54 37 20 38 59 39 53 40 55 41 21 42 58 43
REMARK SMILES IDX 52 44 51 45 22 47 44 48 29 49 43 50 30 51 33 52 42 53 56 54
REMARK SMILES IDX 31 55 32 56 41 58 57 59 34 60 23 61 24 62 28 63 25 64 27 65
REMARK SMILES IDX 26 66 45 67 46 68 50 69 47 70 49 71 48 72 35 73 36 74 40 75
REMARK SMILES IDX 37 76 39 77 38 78
REMARK H PARENT 72 22 55 46 33 57
REMARK Flexibility Score: inf
ROOT
ATOM      1  C   UNL A   1      33.301  28.604  27.090  1.00  0.00     0.202 C 
ENDROOT
BRANCH   1   2
ATOM      2  C   UNL A   1      33.526  27.843  25.780  1.00  0.00     0.261 C 
BRANCH   2   3
ATOM      3  O   UNL A   1      33.302  26.431  25.980  1.00  0.00    -0.463 OA
BRANCH   3   4
ATOM      4  C   UNL A   1      32.676  25.776  24.964  1.00  0.00     0.313 C 
ATOM      5  O   UNL A   1      31.466  25.582  24.918  1.00  0.00    -0.252 OA
BRANCH   4   6
ATOM      6  C   UNL A   1      33.650  25.314  23.866  1.00  0.00     0.127 C 
ATOM      7  C   UNL A   1      33.500  26.026  22.516  1.00  0.00     0.025 C 
BRANCH   6   8
ATOM      8  C   UNL A   1      33.571  23.791  23.737  1.00  0.00    -0.020 A 
ATOM      9  C   UNL A   1      32.651  23.219  22.835  1.00  0.00     0.006 A 
ATOM     10  C   UNL A   1      34.270  22.918  24.586  1.00  0.00     0.022 A 
ATOM     11  C   UNL A   1      32.362  21.852  22.848  1.00  0.00     0.004 A 
ATOM     12  C   UNL A   1      33.988  21.545  24.585  1.00  0.00     0.019 A 
ATOM     13  Br  UNL A   1      35.599  23.506  25.811  1.00  0.00    -0.050 Br
ATOM     14  C   UNL A   1      32.990  21.008  23.762  1.00  0.00    -0.047 A 
BRANCH  14  15
ATOM     15  C   UNL A   1      32.592  19.558  23.889  1.00  0.00     0.041 C 
BRANCH  15  16
ATOM     16  C   UNL A   1      33.654  18.558  24.406  1.00  0.00     0.022 C 
ATOM     17  C   UNL A   1      34.033  17.442  23.424  1.00  0.00     0.007 C 
ATOM     18  C   UNL A   1      33.341  17.789  25.694  1.00  0.00     0.117 C 
ATOM     19  C   UNL A   1      33.347  16.162  23.910  1.00  0.00     0.003 C 
ATOM     20  C   UNL A   1      32.672  16.500  25.231  1.00  0.00     0.032 C 
BRANCH  18  21
ATOM     21  O   UNL A   1      32.570  18.532  26.617  1.00  0.00    -0.393 OA
ATOM     22  H   UNL A   1      32.751  19.478  26.502  1.00  0.00     0.210 HD
ENDBRANCH  18  21
ENDBRANCH  15  16
ENDBRANCH  14  15
ENDBRANCH   6   8
ENDBRANCH   4   6
ENDBRANCH   3   4
ENDBRANCH   2   3
ENDBRANCH   1   2
BRANCH   1  23
ATOM     23  O   UNL A   1      32.070  29.328  27.185  1.00  0.00    -0.374 OA
BRANCH  23  24
ATOM     24  C   UNL A   1      32.095  30.693  26.780  1.00  0.00     0.202 C 
BRANCH  24  25
ATOM     25  C   UNL A   1      33.002  31.624  27.592  1.00  0.00     0.261 C 
BRANCH  25  26
ATOM     26  O   UNL A   1      32.831  33.001  27.220  1.00  0.00    -0.460 OA
BRANCH  26  27
ATOM     27  C   UNL A   1      33.137  33.881  28.201  1.00  0.00     0.338 C 
ATOM     28  O   UNL A   1      32.417  34.756  28.666  1.00  0.00    -0.246 OA
BRANCH  27  29
ATOM     29  C   UNL A   1      34.443  33.549  28.792  1.00  0.00     0.060 A 
ATOM     30  C   UNL A   1      35.575  33.757  27.995  1.00  0.00     0.016 A 
ATOM     31  C   UNL A   1      34.563  32.986  30.066  1.00  0.00     0.016 A 
ATOM     32  C   UNL A   1      36.828  33.349  28.443  1.00  0.00     0.010 A 
ATOM     33  C   UNL A   1      35.822  32.569  30.511  1.00  0.00     0.010 A 
ATOM     34  C   UNL A   1      36.951  32.714  29.685  1.00  0.00    -0.014 A 
BRANCH  34  35
ATOM     35  C   UNL A   1      38.236  32.063  30.036  1.00  0.00     0.031 A 
ATOM     36  C   UNL A   1      39.165  32.760  30.992  1.00  0.00     0.074 A 
ATOM     37  C   UNL A   1      38.547  30.847  29.555  1.00  0.00     0.049 A 
ATOM     38  N   UNL A   1      40.324  32.367  31.454  1.00  0.00    -0.248 NA
ATOM     39  C   UNL A   1      38.726  34.071  31.499  1.00  0.00     0.031 C 
ATOM     40  C   UNL A   1      37.708  30.050  28.662  1.00  0.00     0.029 A 
ATOM     41  N   UNL A   1      39.657  30.069  29.761  1.00  0.00    -0.354 N 
ATOM     42  C   UNL A   1      40.755  33.383  32.299  1.00  0.00     0.074 A 
ATOM     43  C   UNL A   1      39.747  34.420  32.266  1.00  0.00     0.031 C 
ATOM     44  C   UNL A   1      38.335  28.891  28.397  1.00  0.00     0.029 A 
ATOM     45  C   UNL A   1      39.628  28.879  29.078  1.00  0.00     0.049 A 
ATOM     46  H   UNL A   1      40.404  30.338  30.344  1.00  0.00     0.167 HD
ATOM     47  C   UNL A   1      41.886  33.445  33.041  1.00  0.00     0.031 A 
ATOM     48  C   UNL A   1      40.548  27.898  29.003  1.00  0.00     0.031 A 
ATOM     49  C   UNL A   1      42.894  32.420  33.068  1.00  0.00     0.049 A 
ATOM     50  C   UNL A   1      41.833  28.027  29.774  1.00  0.00     0.074 A 
ATOM     51  C   UNL A   1      44.067  32.383  33.802  1.00  0.00     0.029 A 
ATOM     52  N   UNL A   1      42.852  31.254  32.320  1.00  0.00    -0.354 N 
ATOM     53  N   UNL A   1      42.215  28.979  30.591  1.00  0.00    -0.248 NA
ATOM     54  C   UNL A   1      42.812  26.942  29.617  1.00  0.00     0.031 C 
ATOM     55  C   UNL A   1      44.761  31.220  33.457  1.00  0.00     0.029 A 
ATOM     56  C   UNL A   1      43.993  30.506  32.551  1.00  0.00     0.049 A 
ATOM     57  H   UNL A   1      42.120  30.997  31.714  1.00  0.00     0.167 HD
ATOM     58  C   UNL A   1      43.463  28.594  31.066  1.00  0.00     0.074 A 
ATOM     59  C   UNL A   1      43.768  27.316  30.455  1.00  0.00     0.031 C 
ATOM     60  C   UNL A   1      44.282  29.237  31.933  1.00  0.00     0.031 A 
BRANCH  47  61
ATOM     61  C   UNL A   1      42.107  34.685  33.860  1.00  0.00    -0.014 A 
ATOM     62  C   UNL A   1      41.686  34.762  35.197  1.00  0.00     0.009 A 
ATOM     63  C   UNL A   1      42.772  35.782  33.292  1.00  0.00     0.009 A 
ATOM     64  C   UNL A   1      41.901  35.926  35.938  1.00  0.00     0.001 A 
ATOM     65  C   UNL A   1      43.009  36.934  34.043  1.00  0.00     0.001 A 
ATOM     66  C   UNL A   1      42.565  37.008  35.363  1.00  0.00     0.000 A 
ENDBRANCH  47  61
BRANCH  48  67
ATOM     67  C   UNL A   1      40.299  26.706  28.149  1.00  0.00    -0.014 A 
ATOM     68  C   UNL A   1      40.846  26.622  26.860  1.00  0.00     0.009 A 
ATOM     69  C   UNL A   1      39.492  25.657  28.614  1.00  0.00     0.009 A 
ATOM     70  C   UNL A   1      40.569  25.522  26.046  1.00  0.00     0.001 A 
ATOM     71  C   UNL A   1      39.239  24.546  27.807  1.00  0.00     0.001 A 
ATOM     72  C   UNL A   1      39.771  24.483  26.521  1.00  0.00     0.000 A 
ENDBRANCH  48  67
BRANCH  60  73
ATOM     73  C   UNL A   1      45.570  28.556  32.299  1.00  0.00    -0.014 A 
ATOM     74  C   UNL A   1      46.752  28.799  31.582  1.00  0.00     0.009 A 
ATOM     75  C   UNL A   1      45.610  27.694  33.405  1.00  0.00     0.009 A 
ATOM     76  C   UNL A   1      47.941  28.164  31.947  1.00  0.00     0.001 A 
ATOM     77  C   UNL A   1      46.805  27.083  33.785  1.00  0.00     0.001 A 
ATOM     78  C   UNL A   1      47.968  27.311  33.051  1.00  0.00     0.000 A 
ENDBRANCH  60  73
ENDBRANCH  34  35
ENDBRANCH  27  29
ENDBRANCH  26  27
ENDBRANCH  25  26
ENDBRANCH  24  25
ENDBRANCH  23  24
ENDBRANCH   1  23
TORSDOF 18
ENDMDL
MODEL 2
REMARK VINA RESULT:     -10.2      2.885      5.063
REMARK SMILES C[C@@H](C(=O)OCCOCCOC(=O)c1ccc(-c2c3nc(c(-c4ccccc4)c4ccc([nH]4)c(-c4ccccc4)c4nc(c(-c5ccccc5)c5ccc2[nH]5)C=C4)C=C3)cc1)c1ccc(C[C@@H]2CCC[C@@H]2O)cc1Br
REMARK SMILES IDX 7 1 6 2 5 3 3 4 4 5 2 6 1 7 62 8 63 9 74 10 64 11 73 12
REMARK SMILES IDX 75 13 65 14 66 15 67 16 68 17 71 18 69 19 70 20 72 21 8 23
REMARK SMILES IDX 9 24 10 25 11 26 12 27 13 28 14 29 15 30 61 31 16 32 60 33
REMARK SMILES IDX 17 34 18 35 19 36 54 37 20 38 59 39 53 40 55 41 21 42 58 43
REMARK SMILES IDX 52 44 51 45 22 47 44 48 29 49 43 50 30 51 33 52 42 53 56 54
REMARK SMILES IDX 31 55 32 56 41 58 57 59 34 60 23 61 24 62 28 63 25 64 27 65
REMARK SMILES IDX 26 66 45 67 46 68 50 69 47 70 49 71 48 72 35 73 36 74 40 75
REMARK SMILES IDX 37 76 39 77 38 78
REMARK H PARENT 72 22 55 46 33 57
REMARK Flexibility Score: inf
ROOT
ATOM      1  C   UNL A   1      33.566  27.443  24.888  1.00  0.00     0.202 C 
ENDROOT
BRANCH   1   2
ATOM      2  C   UNL A   1      34.092  26.156  25.530  1.00  0.00     0.261 C 
BRANCH   2   3
ATOM      3  O   UNL A   1      34.319  25.152  24.519  1.00  0.00    -0.463 OA
BRANCH   3   4
ATOM      4  C   UNL A   1      33.939  23.885  24.840  1.00  0.00     0.313 C 
ATOM      5  O   UNL A   1      34.399  23.251  25.785  1.00  0.00    -0.252 OA
BRANCH   4   6
ATOM      6  C   UNL A   1      32.856  23.332  23.897  1.00  0.00     0.127 C 
ATOM      7  C   UNL A   1      33.347  22.927  22.502  1.00  0.00     0.025 C 
BRANCH   6   8
ATOM      8  C   UNL A   1      31.689  24.320  23.843  1.00  0.00    -0.020 A 
ATOM      9  C   UNL A   1      31.573  25.196  22.744  1.00  0.00     0.006 A 
ATOM     10  C   UNL A   1      30.800  24.508  24.913  1.00  0.00     0.022 A 
ATOM     11  C   UNL A   1      30.682  26.272  22.753  1.00  0.00     0.004 A 
ATOM     12  C   UNL A   1      29.897  25.580  24.912  1.00  0.00     0.019 A 
ATOM     13  Br  UNL A   1      30.765  23.377  26.442  1.00  0.00    -0.050 Br
ATOM     14  C   UNL A   1      29.872  26.508  23.862  1.00  0.00    -0.047 A 
BRANCH  14  15
ATOM     15  C   UNL A   1      29.008  27.741  23.952  1.00  0.00     0.041 C 
BRANCH  15  16
ATOM     16  C   UNL A   1      28.794  28.571  22.662  1.00  0.00     0.022 C 
ATOM     17  C   UNL A   1      29.831  29.673  22.415  1.00  0.00     0.007 C 
ATOM     18  C   UNL A   1      27.462  29.312  22.507  1.00  0.00     0.117 C 
ATOM     19  C   UNL A   1      29.163  31.007  22.761  1.00  0.00     0.003 C 
ATOM     20  C   UNL A   1      27.710  30.697  23.093  1.00  0.00     0.032 C 
BRANCH  18  21
ATOM     21  O   UNL A   1      26.369  28.632  23.092  1.00  0.00    -0.393 OA
ATOM     22  H   UNL A   1      26.682  28.106  23.844  1.00  0.00     0.210 HD
ENDBRANCH  18  21
ENDBRANCH  15  16
ENDBRANCH  14  15
ENDBRANCH   6   8
ENDBRANCH   4   6
ENDBRANCH   3   4
ENDBRANCH   2   3
ENDBRANCH   1   2
BRANCH   1  23
ATOM     23  O   UNL A   1      32.788  28.290  25.741  1.00  0.00    -0.374 OA
BRANCH  23  24
ATOM     24  C   UNL A   1      32.107  29.376  25.119  1.00  0.00     0.202 C 
BRANCH  24  25
ATOM     25  C   UNL A   1      31.898  30.626  25.980  1.00  0.00     0.261 C 
BRANCH  25  26
ATOM     26  O   UNL A   1      32.631  30.558  27.214  1.00  0.00    -0.460 OA
BRANCH  26  27
ATOM     27  C   UNL A   1      33.394  31.647  27.465  1.00  0.00     0.338 C 
ATOM     28  O   UNL A   1      33.029  32.815  27.517  1.00  0.00    -0.246 OA
BRANCH  27  29
ATOM     29  C   UNL A   1      34.755  31.236  27.847  1.00  0.00     0.060 A 
ATOM     30  C   UNL A   1      34.990  29.863  27.990  1.00  0.00     0.016 A 
ATOM     31  C   UNL A   1      35.763  32.163  28.124  1.00  0.00     0.016 A 
ATOM     32  C   UNL A   1      36.216  29.411  28.469  1.00  0.00     0.010 A 
ATOM     33  C   UNL A   1      36.992  31.707  28.613  1.00  0.00     0.010 A 
ATOM     34  C   UNL A   1      37.208  30.334  28.824  1.00  0.00    -0.014 A 
BRANCH  34  35
ATOM     35  C   UNL A   1      38.401  29.859  29.563  1.00  0.00     0.031 A 
ATOM     36  C   UNL A   1      38.581  30.276  30.997  1.00  0.00     0.074 A 
ATOM     37  C   UNL A   1      39.283  29.023  28.986  1.00  0.00     0.049 A 
ATOM     38  N   UNL A   1      39.533  29.963  31.838  1.00  0.00    -0.248 NA
ATOM     39  C   UNL A   1      37.547  31.160  31.560  1.00  0.00     0.031 C 
ATOM     40  C   UNL A   1      39.191  28.508  27.621  1.00  0.00     0.029 A 
ATOM     41  N   UNL A   1      40.428  28.459  29.486  1.00  0.00    -0.354 N 
ATOM     42  C   UNL A   1      39.217  30.615  33.024  1.00  0.00     0.074 A 
ATOM     43  C   UNL A   1      38.001  31.362  32.787  1.00  0.00     0.031 C 
ATOM     44  C   UNL A   1      40.240  27.698  27.392  1.00  0.00     0.029 A 
ATOM     45  C   UNL A   1      41.088  27.663  28.583  1.00  0.00     0.049 A 
ATOM     46  H   UNL A   1      40.747  28.609  30.405  1.00  0.00     0.167 HD
ATOM     47  C   UNL A   1      39.876  30.590  34.206  1.00  0.00     0.031 A 
ATOM     48  C   UNL A   1      42.250  26.993  28.701  1.00  0.00     0.031 A 
ATOM     49  C   UNL A   1      41.090  29.857  34.441  1.00  0.00     0.049 A 
ATOM     50  C   UNL A   1      43.006  27.047  30.001  1.00  0.00     0.074 A 
ATOM     51  C   UNL A   1      41.824  29.755  35.610  1.00  0.00     0.029 A 
ATOM     52  N   UNL A   1      41.755  29.107  33.483  1.00  0.00    -0.354 N 
ATOM     53  N   UNL A   1      42.681  27.643  31.122  1.00  0.00    -0.248 NA
ATOM     54  C   UNL A   1      44.287  26.328  30.052  1.00  0.00     0.031 C 
ATOM     55  C   UNL A   1      42.962  28.986  35.345  1.00  0.00     0.029 A 
ATOM     56  C   UNL A   1      42.907  28.565  34.027  1.00  0.00     0.049 A 
ATOM     57  H   UNL A   1      41.453  28.979  32.555  1.00  0.00     0.167 HD
ATOM     58  C   UNL A   1      43.702  27.349  32.019  1.00  0.00     0.074 A 
ATOM     59  C   UNL A   1      44.649  26.511  31.313  1.00  0.00     0.031 C 
ATOM     60  C   UNL A   1      43.840  27.734  33.310  1.00  0.00     0.031 A 
BRANCH  47  61
ATOM     61  C   UNL A   1      39.311  31.412  35.329  1.00  0.00    -0.014 A 
ATOM     62  C   UNL A   1      38.344  30.891  36.201  1.00  0.00     0.009 A 
ATOM     63  C   UNL A   1      39.776  32.720  35.532  1.00  0.00     0.009 A 
ATOM     64  C   UNL A   1      37.831  31.675  37.237  1.00  0.00     0.001 A 
ATOM     65  C   UNL A   1      39.282  33.493  36.584  1.00  0.00     0.001 A 
ATOM     66  C   UNL A   1      38.303  32.972  37.431  1.00  0.00     0.000 A 
ENDBRANCH  47  61
BRANCH  48  67
ATOM     67  C   UNL A   1      42.787  26.223  27.548  1.00  0.00    -0.014 A 
ATOM     68  C   UNL A   1      43.621  26.838  26.602  1.00  0.00     0.009 A 
ATOM     69  C   UNL A   1      42.448  24.872  27.379  1.00  0.00     0.009 A 
ATOM     70  C   UNL A   1      44.084  26.121  25.497  1.00  0.00     0.001 A 
ATOM     71  C   UNL A   1      42.934  24.151  26.287  1.00  0.00     0.001 A 
ATOM     72  C   UNL A   1      43.745  24.778  25.342  1.00  0.00     0.000 A 
ENDBRANCH  48  67
BRANCH  60  73
ATOM     73  C   UNL A   1      45.042  27.226  34.056  1.00  0.00    -0.014 A 
ATOM     74  C   UNL A   1      44.936  26.174  34.978  1.00  0.00     0.009 A 
ATOM     75  C   UNL A   1      46.306  27.779  33.795  1.00  0.00     0.009 A 
ATOM     76  C   UNL A   1      46.069  25.710  35.650  1.00  0.00     0.001 A 
ATOM     77  C   UNL A   1      47.439  27.294  34.448  1.00  0.00     0.001 A 
ATOM     78  C   UNL A   1      47.319  26.266  35.381  1.00  0.00     0.000 A 
ENDBRANCH  60  73
ENDBRANCH  34  35
ENDBRANCH  27  29
ENDBRANCH  26  27
ENDBRANCH  25  26
ENDBRANCH  24  25
ENDBRANCH  23  24
ENDBRANCH   1  23
TORSDOF 18
ENDMDL
MODEL 3
REMARK VINA RESULT:     -10.2      0.483      5.937
REMARK SMILES C[C@@H](C(=O)OCCOCCOC(=O)c1ccc(-c2c3nc(c(-c4ccccc4)c4ccc([nH]4)c(-c4ccccc4)c4nc(c(-c5ccccc5)c5ccc2[nH]5)C=C4)C=C3)cc1)c1ccc(C[C@@H]2CCC[C@@H]2O)cc1Br
REMARK SMILES IDX 7 1 6 2 5 3 3 4 4 5 2 6 1 7 62 8 63 9 74 10 64 11 73 12
REMARK SMILES IDX 75 13 65 14 66 15 67 16 68 17 71 18 69 19 70 20 72 21 8 23
REMARK SMILES IDX 9 24 10 25 11 26 12 27 13 28 14 29 15 30 61 31 16 32 60 33
REMARK SMILES IDX 17 34 18 35 19 36 54 37 20 38 59 39 53 40 55 41 21 42 58 43
REMARK SMILES IDX 52 44 51 45 22 47 44 48 29 49 43 50 30 51 33 52 42 53 56 54
REMARK SMILES IDX 31 55 32 56 41 58 57 59 34 60 23 61 24 62 28 63 25 64 27 65
REMARK SMILES IDX 26 66 45 67 46 68 50 69 47 70 49 71 48 72 35 73 36 74 40 75
REMARK SMILES IDX 37 76 39 77 38 78
REMARK H PARENT 72 22 55 46 33 57
REMARK Flexibility Score: inf
ROOT
ATOM      1  C   UNL A   1      33.541  28.377  27.194  1.00  0.00     0.202 C 
ENDROOT
BRANCH   1   2
ATOM      2  C   UNL A   1      33.645  27.363  26.050  1.00  0.00     0.261 C 
BRANCH   2   3
ATOM      3  O   UNL A   1      32.672  26.312  26.229  1.00  0.00    -0.463 OA
BRANCH   3   4
ATOM      4  C   UNL A   1      32.217  25.720  25.090  1.00  0.00     0.313 C 
ATOM      5  O   UNL A   1      31.030  25.530  24.845  1.00  0.00    -0.252 OA
BRANCH   4   6
ATOM      6  C   UNL A   1      33.354  25.325  24.131  1.00  0.00     0.127 C 
ATOM      7  C   UNL A   1      33.376  26.081  22.797  1.00  0.00     0.025 C 
BRANCH   6   8
ATOM      8  C   UNL A   1      33.345  23.807  23.944  1.00  0.00    -0.020 A 
ATOM      9  C   UNL A   1      32.489  23.231  22.983  1.00  0.00     0.006 A 
ATOM     10  C   UNL A   1      34.043  22.931  24.791  1.00  0.00     0.022 A 
ATOM     11  C   UNL A   1      32.258  21.854  22.934  1.00  0.00     0.004 A 
ATOM     12  C   UNL A   1      33.820  21.549  24.729  1.00  0.00     0.019 A 
ATOM     13  Br  UNL A   1      35.292  23.526  26.094  1.00  0.00    -0.050 Br
ATOM     14  C   UNL A   1      32.881  21.003  23.844  1.00  0.00    -0.047 A 
BRANCH  14  15
ATOM     15  C   UNL A   1      32.540  19.534  23.901  1.00  0.00     0.041 C 
BRANCH  15  16
ATOM     16  C   UNL A   1      33.626  18.557  24.412  1.00  0.00     0.022 C 
ATOM     17  C   UNL A   1      34.024  17.450  23.428  1.00  0.00     0.007 C 
ATOM     18  C   UNL A   1      33.337  17.782  25.702  1.00  0.00     0.117 C 
ATOM     19  C   UNL A   1      33.369  16.155  23.917  1.00  0.00     0.003 C 
ATOM     20  C   UNL A   1      32.693  16.479  25.242  1.00  0.00     0.032 C 
BRANCH  18  21
ATOM     21  O   UNL A   1      32.555  18.508  26.629  1.00  0.00    -0.393 OA
ATOM     22  H   UNL A   1      32.122  19.249  26.177  1.00  0.00     0.210 HD
ENDBRANCH  18  21
ENDBRANCH  15  16
ENDBRANCH  14  15
ENDBRANCH   6   8
ENDBRANCH   4   6
ENDBRANCH   3   4
ENDBRANCH   2   3
ENDBRANCH   1   2
BRANCH   1  23
ATOM     23  O   UNL A   1      32.413  29.256  27.145  1.00  0.00    -0.374 OA
BRANCH  23  24
ATOM     24  C   UNL A   1      32.651  30.581  26.678  1.00  0.00     0.202 C 
BRANCH  24  25
ATOM     25  C   UNL A   1      33.357  31.526  27.655  1.00  0.00     0.261 C 
BRANCH  25  26
ATOM     26  O   UNL A   1      33.196  32.905  27.282  1.00  0.00    -0.460 OA
BRANCH  26  27
ATOM     27  C   UNL A   1      33.365  33.777  28.303  1.00  0.00     0.338 C 
ATOM     28  O   UNL A   1      32.560  34.603  28.716  1.00  0.00    -0.246 OA
BRANCH  27  29
ATOM     29  C   UNL A   1      34.629  33.500  29.004  1.00  0.00     0.060 A 
ATOM     30  C   UNL A   1      35.815  33.796  28.322  1.00  0.00     0.016 A 
ATOM     31  C   UNL A   1      34.664  32.904  30.268  1.00  0.00     0.016 A 
ATOM     32  C   UNL A   1      37.043  33.445  28.874  1.00  0.00     0.010 A 
ATOM     33  C   UNL A   1      35.900  32.544  30.817  1.00  0.00     0.010 A 
ATOM     34  C   UNL A   1      37.089  32.778  30.105  1.00  0.00    -0.014 A 
BRANCH  34  35
ATOM     35  C   UNL A   1      38.372  32.189  30.557  1.00  0.00     0.031 A 
ATOM     36  C   UNL A   1      38.822  30.884  29.959  1.00  0.00     0.074 A 
ATOM     37  C   UNL A   1      39.152  32.833  31.443  1.00  0.00     0.049 A 
ATOM     38  N   UNL A   1      39.914  30.201  30.189  1.00  0.00    -0.248 NA
ATOM     39  C   UNL A   1      37.924  30.270  28.967  1.00  0.00     0.031 C 
ATOM     40  C   UNL A   1      38.849  34.126  32.054  1.00  0.00     0.029 A 
ATOM     41  N   UNL A   1      40.365  32.481  31.976  1.00  0.00    -0.354 N 
ATOM     42  C   UNL A   1      39.831  29.077  29.376  1.00  0.00     0.074 A 
ATOM     43  C   UNL A   1      38.572  29.154  28.669  1.00  0.00     0.031 C 
ATOM     44  C   UNL A   1      39.856  34.460  32.881  1.00  0.00     0.029 A 
ATOM     45  C   UNL A   1      40.855  33.393  32.877  1.00  0.00     0.049 A 
ATOM     46  H   UNL A   1      40.840  31.652  31.736  1.00  0.00     0.167 HD
ATOM     47  C   UNL A   1      40.726  28.071  29.228  1.00  0.00     0.031 A 
ATOM     48  C   UNL A   1      41.976  33.363  33.623  1.00  0.00     0.031 A 
ATOM     49  C   UNL A   1      41.973  27.986  29.938  1.00  0.00     0.049 A 
ATOM     50  C   UNL A   1      42.916  32.194  33.499  1.00  0.00     0.074 A 
ATOM     51  C   UNL A   1      42.955  27.015  29.843  1.00  0.00     0.029 A 
ATOM     52  N   UNL A   1      42.407  28.904  30.881  1.00  0.00    -0.354 N 
ATOM     53  N   UNL A   1      42.839  31.152  32.707  1.00  0.00    -0.248 NA
ATOM     54  C   UNL A   1      44.100  32.202  34.370  1.00  0.00     0.031 C 
ATOM     55  C   UNL A   1      43.958  27.317  30.769  1.00  0.00     0.029 A 
ATOM     56  C   UNL A   1      43.627  28.505  31.399  1.00  0.00     0.049 A 
ATOM     57  H   UNL A   1      41.919  29.717  31.145  1.00  0.00     0.167 HD
ATOM     58  C   UNL A   1      43.977  30.396  32.963  1.00  0.00     0.074 A 
ATOM     59  C   UNL A   1      44.732  31.106  33.975  1.00  0.00     0.031 C 
ATOM     60  C   UNL A   1      44.364  29.222  32.408  1.00  0.00     0.031 A 
BRANCH  47  61
ATOM     61  C   UNL A   1      40.366  26.960  28.283  1.00  0.00    -0.014 A 
ATOM     62  C   UNL A   1      40.822  26.954  26.956  1.00  0.00     0.009 A 
ATOM     63  C   UNL A   1      39.581  25.890  28.737  1.00  0.00     0.009 A 
ATOM     64  C   UNL A   1      40.473  25.912  26.094  1.00  0.00     0.001 A 
ATOM     65  C   UNL A   1      39.255  24.836  27.882  1.00  0.00     0.001 A 
ATOM     66  C   UNL A   1      39.694  24.853  26.559  1.00  0.00     0.000 A 
ENDBRANCH  47  61
BRANCH  48  67
ATOM     67  C   UNL A   1      42.270  34.468  34.572  1.00  0.00    -0.014 A 
ATOM     68  C   UNL A   1      41.797  34.424  35.892  1.00  0.00     0.009 A 
ATOM     69  C   UNL A   1      43.008  35.585  34.152  1.00  0.00     0.009 A 
ATOM     70  C   UNL A   1      42.038  35.487  36.765  1.00  0.00     0.001 A 
ATOM     71  C   UNL A   1      43.269  36.635  35.035  1.00  0.00     0.001 A 
ATOM     72  C   UNL A   1      42.777  36.589  36.338  1.00  0.00     0.000 A 
ENDBRANCH  48  67
BRANCH  60  73
ATOM     73  C   UNL A   1      45.678  28.648  32.857  1.00  0.00    -0.014 A 
ATOM     74  C   UNL A   1      46.881  29.002  32.228  1.00  0.00     0.009 A 
ATOM     75  C   UNL A   1      45.715  27.775  33.955  1.00  0.00     0.009 A 
ATOM     76  C   UNL A   1      48.092  28.466  32.670  1.00  0.00     0.001 A 
ATOM     77  C   UNL A   1      46.930  27.262  34.412  1.00  0.00     0.001 A 
ATOM     78  C   UNL A   1      48.116  27.601  33.764  1.00  0.00     0.000 A 
ENDBRANCH  60  73
ENDBRANCH  34  35
ENDBRANCH  27  29
ENDBRANCH  26  27
ENDBRANCH  25  26
ENDBRANCH  24  25
ENDBRANCH  23  24
ENDBRANCH   1  23
TORSDOF 18
ENDMDL
