MODEL 1
REMARK VINA RESULT:     -11.7      0.000      0.000
REMARK SMILES C[C@H]1c2ccc(O)cc2OC(=O)[C@@H]1CC(=O)N[C@@H](CC1=c2ccccc2=NC1)C(=O)OCCOCCOC(=O)c1ccc(-c2c3nc(c(-c4ccccc4)c4ccc([nH]4)c(-c4ccccc4)c4nc(c(-c5ccccc5)c5ccc2[nH]5)C=C4)C=C3)cc1
REMARK SMILES IDX 33 1 32 2 31 3 29 4 30 5 18 6 17 7 15 8 16 9 14 11 13 12
REMARK SMILES IDX 1 13 2 14 3 15 4 16 9 17 11 18 5 19 8 20 10 21 12 22 6 23
REMARK SMILES IDX 7 24 19 26 20 27 21 28 28 29 22 30 26 31 27 32 23 33 25 34
REMARK SMILES IDX 24 35 34 36 35 37 36 38 37 39 38 40 39 41 40 42 41 43 87 44
REMARK SMILES IDX 42 45 86 46 43 47 44 48 45 49 80 50 46 51 85 52 79 53 81 54
REMARK SMILES IDX 47 55 84 56 78 57 77 58 48 60 70 61 55 62 69 63 56 64 59 65
REMARK SMILES IDX 68 66 82 67 57 68 58 69 67 71 83 72 60 73 49 74 50 75 54 76
REMARK SMILES IDX 51 77 53 78 52 79 71 80 72 81 76 82 73 83 75 84 74 85 61 86
REMARK SMILES IDX 62 87 66 88 63 89 65 90 64 91
REMARK H PARENT 17 10 7 25 81 59 59 70
REMARK Flexibility Score: inf
ROOT
ATOM      1  C   UNL A   1      38.439  22.424  25.996  1.00  0.00     0.202 C 
ENDROOT
BRANCH   1   2
ATOM      2  C   UNL A   1      37.181  23.276  25.798  1.00  0.00     0.261 C 
BRANCH   2   3
ATOM      3  O   UNL A   1      35.981  22.588  26.185  1.00  0.00    -0.462 OA
BRANCH   3   4
ATOM      4  C   UNL A   1      35.274  22.092  25.140  1.00  0.00     0.329 C 
ATOM      5  O   UNL A   1      35.460  22.390  23.963  1.00  0.00    -0.250 OA
BRANCH   4   6
ATOM      6  C   UNL A   1      34.185  21.102  25.544  1.00  0.00     0.196 C 
BRANCH   6   7
ATOM      7  N   UNL A   1      33.258  21.335  26.661  1.00  0.00    -0.342 N 
ATOM      8  C   UNL A   1      32.882  22.538  27.203  1.00  0.00     0.221 C 
ATOM      9  O   UNL A   1      32.517  22.570  28.378  1.00  0.00    -0.275 OA
ATOM     10  H   UNL A   1      32.860  20.533  27.068  1.00  0.00     0.164 HD
BRANCH   8  11
ATOM     11  C   UNL A   1      32.767  23.779  26.322  1.00  0.00     0.116 C 
BRANCH  11  12
ATOM     12  C   UNL A   1      31.423  24.039  25.600  1.00  0.00     0.116 C 
ATOM     13  C   UNL A   1      30.278  24.938  23.484  1.00  0.00     0.014 C 
ATOM     14  C   UNL A   1      31.598  24.795  24.256  1.00  0.00     0.034 C 
ATOM     15  C   UNL A   1      32.170  26.164  24.547  1.00  0.00    -0.001 A 
ATOM     16  C   UNL A   1      33.005  26.840  23.655  1.00  0.00     0.011 A 
ATOM     17  C   UNL A   1      31.872  26.768  25.773  1.00  0.00     0.138 A 
ATOM     18  C   UNL A   1      30.490  24.899  26.413  1.00  0.00     0.315 C 
ATOM     19  C   UNL A   1      33.575  28.064  24.023  1.00  0.00     0.047 A 
ATOM     20  C   UNL A   1      32.460  27.962  26.170  1.00  0.00     0.093 A 
ATOM     21  O   UNL A   1      30.930  26.195  26.645  1.00  0.00    -0.426 OA
ATOM     22  O   UNL A   1      29.432  24.487  26.873  1.00  0.00    -0.251 OA
ATOM     23  C   UNL A   1      33.318  28.599  25.286  1.00  0.00     0.119 A 
BRANCH  23  24
ATOM     24  O   UNL A   1      33.886  29.770  25.693  1.00  0.00    -0.508 OA
ATOM     25  H   UNL A   1      33.881  30.002  26.601  1.00  0.00     0.293 HD
ENDBRANCH  23  24
ENDBRANCH  11  12
ENDBRANCH   8  11
ENDBRANCH   6   7
BRANCH   6  26
ATOM     26  C   UNL A   1      33.423  20.725  24.258  1.00  0.00     0.070 C 
BRANCH  26  27
ATOM     27  C   UNL A   1      32.559  19.459  24.197  1.00  0.00    -0.037 C 
ATOM     28  C   UNL A   1      33.019  18.300  24.684  1.00  0.00     0.001 A 
ATOM     29  C   UNL A   1      32.152  19.209  22.753  1.00  0.00     0.174 C 
ATOM     30  C   UNL A   1      32.529  17.451  25.738  1.00  0.00     0.010 A 
ATOM     31  C   UNL A   1      33.400  17.590  23.438  1.00  0.00     0.065 A 
ATOM     32  N   UNL A   1      32.986  18.071  22.310  1.00  0.00    -0.280 NA
ATOM     33  C   UNL A   1      32.983  16.182  25.759  1.00  0.00     0.001 A 
ATOM     34  C   UNL A   1      34.211  16.378  23.658  1.00  0.00     0.028 A 
ATOM     35  C   UNL A   1      33.998  15.732  24.817  1.00  0.00     0.002 A 
ENDBRANCH  26  27
ENDBRANCH   6  26
ENDBRANCH   4   6
ENDBRANCH   3   4
ENDBRANCH   2   3
ENDBRANCH   1   2
BRANCH   1  36
ATOM     36  O   UNL A   1      38.706  21.416  25.029  1.00  0.00    -0.374 OA
BRANCH  36  37
ATOM     37  C   UNL A   1      38.302  20.075  25.303  1.00  0.00     0.202 C 
BRANCH  37  38
ATOM     38  C   UNL A   1      39.368  19.066  25.762  1.00  0.00     0.261 C 
BRANCH  38  39
ATOM     39  O   UNL A   1      40.675  19.320  25.210  1.00  0.00    -0.460 OA
BRANCH  39  40
ATOM     40  C   UNL A   1      41.667  19.471  26.127  1.00  0.00     0.338 C 
ATOM     41  O   UNL A   1      42.519  18.658  26.438  1.00  0.00    -0.246 OA
BRANCH  40  42
ATOM     42  C   UNL A   1      41.698  20.860  26.615  1.00  0.00     0.060 A 
ATOM     43  C   UNL A   1      41.430  21.143  27.950  1.00  0.00     0.016 A 
ATOM     44  C   UNL A   1      42.149  21.866  25.751  1.00  0.00     0.016 A 
ATOM     45  C   UNL A   1      41.642  22.440  28.427  1.00  0.00     0.010 A 
ATOM     46  C   UNL A   1      42.340  23.165  26.226  1.00  0.00     0.010 A 
ATOM     47  C   UNL A   1      42.101  23.460  27.574  1.00  0.00    -0.014 A 
BRANCH  47  48
ATOM     48  C   UNL A   1      42.469  24.788  28.127  1.00  0.00     0.031 A 
ATOM     49  C   UNL A   1      43.875  25.113  28.538  1.00  0.00     0.074 A 
ATOM     50  C   UNL A   1      41.496  25.707  28.281  1.00  0.00     0.049 A 
ATOM     51  N   UNL A   1      44.358  26.250  28.968  1.00  0.00    -0.248 NA
ATOM     52  C   UNL A   1      44.866  24.028  28.465  1.00  0.00     0.031 C 
ATOM     53  C   UNL A   1      40.084  25.492  27.955  1.00  0.00     0.029 A 
ATOM     54  N   UNL A   1      41.539  26.998  28.743  1.00  0.00    -0.354 N 
ATOM     55  C   UNL A   1      45.709  26.028  29.202  1.00  0.00     0.074 A 
ATOM     56  C   UNL A   1      45.962  24.633  28.908  1.00  0.00     0.031 C 
ATOM     57  C   UNL A   1      39.402  26.621  28.201  1.00  0.00     0.029 A 
ATOM     58  C   UNL A   1      40.318  27.628  28.729  1.00  0.00     0.049 A 
ATOM     59  H   UNL A   1      42.367  27.432  29.053  1.00  0.00     0.167 HD
ATOM     60  C   UNL A   1      46.649  26.913  29.612  1.00  0.00     0.031 A 
ATOM     61  C   UNL A   1      39.967  28.876  29.095  1.00  0.00     0.031 A 
ATOM     62  C   UNL A   1      46.385  28.295  29.923  1.00  0.00     0.049 A 
ATOM     63  C   UNL A   1      41.027  29.827  29.574  1.00  0.00     0.074 A 
ATOM     64  C   UNL A   1      47.289  29.276  30.293  1.00  0.00     0.029 A 
ATOM     65  N   UNL A   1      45.133  28.888  29.918  1.00  0.00    -0.354 N 
ATOM     66  N   UNL A   1      42.316  29.627  29.694  1.00  0.00    -0.248 NA
ATOM     67  C   UNL A   1      40.589  31.178  29.952  1.00  0.00     0.031 C 
ATOM     68  C   UNL A   1      46.578  30.441  30.582  1.00  0.00     0.029 A 
ATOM     69  C   UNL A   1      45.238  30.210  30.316  1.00  0.00     0.049 A 
ATOM     70  H   UNL A   1      44.295  28.437  29.669  1.00  0.00     0.167 HD
ATOM     71  C   UNL A   1      42.847  30.831  30.138  1.00  0.00     0.074 A 
ATOM     72  C   UNL A   1      41.744  31.762  30.249  1.00  0.00     0.031 C 
ATOM     73  C   UNL A   1      44.137  31.134  30.427  1.00  0.00     0.031 A 
BRANCH  60  74
ATOM     74  C   UNL A   1      48.071  26.438  29.742  1.00  0.00    -0.014 A 
ATOM     75  C   UNL A   1      48.888  26.348  28.603  1.00  0.00     0.009 A 
ATOM     76  C   UNL A   1      48.554  25.943  30.964  1.00  0.00     0.009 A 
ATOM     77  C   UNL A   1      50.148  25.753  28.679  1.00  0.00     0.001 A 
ATOM     78  C   UNL A   1      49.827  25.373  31.043  1.00  0.00     0.001 A 
ATOM     79  C   UNL A   1      50.618  25.268  29.899  1.00  0.00     0.000 A 
ENDBRANCH  60  74
BRANCH  61  80
ATOM     80  C   UNL A   1      38.545  29.296  28.979  1.00  0.00    -0.014 A 
ATOM     81  C   UNL A   1      37.691  29.238  30.093  1.00  0.00     0.009 A 
ATOM     82  C   UNL A   1      38.021  29.709  27.745  1.00  0.00     0.009 A 
ATOM     83  C   UNL A   1      36.339  29.560  29.968  1.00  0.00     0.001 A 
ATOM     84  C   UNL A   1      36.675  30.062  27.631  1.00  0.00     0.001 A 
ATOM     85  C   UNL A   1      35.832  29.977  28.739  1.00  0.00     0.000 A 
ENDBRANCH  61  80
BRANCH  73  86
ATOM     86  C   UNL A   1      44.452  32.532  30.885  1.00  0.00    -0.014 A 
ATOM     87  C   UNL A   1      44.819  33.507  29.943  1.00  0.00     0.009 A 
ATOM     88  C   UNL A   1      44.503  32.853  32.249  1.00  0.00     0.009 A 
ATOM     89  C   UNL A   1      45.252  34.767  30.358  1.00  0.00     0.001 A 
ATOM     90  C   UNL A   1      44.906  34.126  32.661  1.00  0.00     0.001 A 
ATOM     91  C   UNL A   1      45.293  35.076  31.716  1.00  0.00     0.000 A 
ENDBRANCH  73  86
ENDBRANCH  47  48
ENDBRANCH  40  42
ENDBRANCH  39  40
ENDBRANCH  38  39
ENDBRANCH  37  38
ENDBRANCH  36  37
ENDBRANCH   1  36
TORSDOF 20
ENDMDL
MODEL 2
REMARK VINA RESULT:     -11.6      3.348      6.712
REMARK SMILES C[C@H]1c2ccc(O)cc2OC(=O)[C@@H]1CC(=O)N[C@@H](CC1=c2ccccc2=NC1)C(=O)OCCOCCOC(=O)c1ccc(-c2c3nc(c(-c4ccccc4)c4ccc([nH]4)c(-c4ccccc4)c4nc(c(-c5ccccc5)c5ccc2[nH]5)C=C4)C=C3)cc1
REMARK SMILES IDX 33 1 32 2 31 3 29 4 30 5 18 6 17 7 15 8 16 9 14 11 13 12
REMARK SMILES IDX 1 13 2 14 3 15 4 16 9 17 11 18 5 19 8 20 10 21 12 22 6 23
REMARK SMILES IDX 7 24 19 26 20 27 21 28 28 29 22 30 26 31 27 32 23 33 25 34
REMARK SMILES IDX 24 35 34 36 35 37 36 38 37 39 38 40 39 41 40 42 41 43 87 44
REMARK SMILES IDX 42 45 86 46 43 47 44 48 45 49 80 50 46 51 85 52 79 53 81 54
REMARK SMILES IDX 47 55 84 56 78 57 77 58 48 60 70 61 55 62 69 63 56 64 59 65
REMARK SMILES IDX 68 66 82 67 57 68 58 69 67 71 83 72 60 73 49 74 50 75 54 76
REMARK SMILES IDX 51 77 53 78 52 79 71 80 72 81 76 82 73 83 75 84 74 85 61 86
REMARK SMILES IDX 62 87 66 88 63 89 65 90 64 91
REMARK H PARENT 17 10 7 25 81 59 59 70
REMARK Flexibility Score: inf
ROOT
ATOM      1  C   UNL A   1      39.112  22.273  26.377  1.00  0.00     0.202 C 
ENDROOT
BRANCH   1   2
ATOM      2  C   UNL A   1      37.871  22.600  25.541  1.00  0.00     0.261 C 
BRANCH   2   3
ATOM      3  O   UNL A   1      36.688  21.952  26.030  1.00  0.00    -0.462 OA
BRANCH   3   4
ATOM      4  C   UNL A   1      35.738  21.756  25.082  1.00  0.00     0.329 C 
ATOM      5  O   UNL A   1      35.783  22.210  23.942  1.00  0.00    -0.250 OA
BRANCH   4   6
ATOM      6  C   UNL A   1      34.564  20.902  25.549  1.00  0.00     0.196 C 
BRANCH   6   7
ATOM      7  N   UNL A   1      33.765  21.215  26.743  1.00  0.00    -0.342 N 
ATOM      8  C   UNL A   1      33.453  22.452  27.245  1.00  0.00     0.221 C 
ATOM      9  O   UNL A   1      33.219  22.563  28.448  1.00  0.00    -0.275 OA
ATOM     10  H   UNL A   1      33.413  20.443  27.243  1.00  0.00     0.164 HD
BRANCH   8  11
ATOM     11  C   UNL A   1      33.242  23.635  26.303  1.00  0.00     0.116 C 
BRANCH  11  12
ATOM     12  C   UNL A   1      31.861  23.789  25.622  1.00  0.00     0.116 C 
ATOM     13  C   UNL A   1      30.585  24.611  23.550  1.00  0.00     0.014 C 
ATOM     14  C   UNL A   1      31.934  24.573  24.284  1.00  0.00     0.034 C 
ATOM     15  C   UNL A   1      32.396  25.981  24.578  1.00  0.00    -0.001 A 
ATOM     16  C   UNL A   1      33.146  26.735  23.673  1.00  0.00     0.011 A 
ATOM     17  C   UNL A   1      32.083  26.543  25.820  1.00  0.00     0.138 A 
ATOM     18  C   UNL A   1      30.882  24.558  26.471  1.00  0.00     0.315 C 
ATOM     19  C   UNL A   1      33.620  27.999  24.042  1.00  0.00     0.047 A 
ATOM     20  C   UNL A   1      32.580  27.779  26.217  1.00  0.00     0.093 A 
ATOM     21  O   UNL A   1      31.218  25.883  26.709  1.00  0.00    -0.426 OA
ATOM     22  O   UNL A   1      29.876  24.052  26.954  1.00  0.00    -0.251 OA
ATOM     23  C   UNL A   1      33.355  28.496  25.319  1.00  0.00     0.119 A 
BRANCH  23  24
ATOM     24  O   UNL A   1      33.833  29.706  25.726  1.00  0.00    -0.508 OA
ATOM     25  H   UNL A   1      34.332  29.771  26.518  1.00  0.00     0.293 HD
ENDBRANCH  23  24
ENDBRANCH  11  12
ENDBRANCH   8  11
ENDBRANCH   6   7
BRANCH   6  26
ATOM     26  C   UNL A   1      33.660  20.673  24.321  1.00  0.00     0.070 C 
BRANCH  26  27
ATOM     27  C   UNL A   1      32.686  19.490  24.270  1.00  0.00    -0.037 C 
ATOM     28  C   UNL A   1      33.067  18.279  24.695  1.00  0.00     0.001 A 
ATOM     29  C   UNL A   1      32.182  19.327  22.844  1.00  0.00     0.174 C 
ATOM     30  C   UNL A   1      32.560  17.439  25.749  1.00  0.00     0.010 A 
ATOM     31  C   UNL A   1      33.316  17.582  23.410  1.00  0.00     0.065 A 
ATOM     32  N   UNL A   1      32.888  18.136  22.321  1.00  0.00    -0.280 NA
ATOM     33  C   UNL A   1      32.900  16.136  25.706  1.00  0.00     0.001 A 
ATOM     34  C   UNL A   1      34.028  16.298  23.546  1.00  0.00     0.028 A 
ATOM     35  C   UNL A   1      33.820  15.632  24.696  1.00  0.00     0.002 A 
ENDBRANCH  26  27
ENDBRANCH   6  26
ENDBRANCH   4   6
ENDBRANCH   3   4
ENDBRANCH   2   3
ENDBRANCH   1   2
BRANCH   1  36
ATOM     36  O   UNL A   1      39.838  21.098  26.038  1.00  0.00    -0.374 OA
BRANCH  36  37
ATOM     37  C   UNL A   1      41.184  20.965  26.495  1.00  0.00     0.202 C 
BRANCH  37  38
ATOM     38  C   UNL A   1      42.295  21.708  25.733  1.00  0.00     0.261 C 
BRANCH  38  39
ATOM     39  O   UNL A   1      42.921  22.754  26.502  1.00  0.00    -0.460 OA
BRANCH  39  40
ATOM     40  C   UNL A   1      43.027  23.950  25.867  1.00  0.00     0.338 C 
ATOM     41  O   UNL A   1      43.404  24.154  24.727  1.00  0.00    -0.246 OA
BRANCH  40  42
ATOM     42  C   UNL A   1      42.453  25.019  26.702  1.00  0.00     0.060 A 
ATOM     43  C   UNL A   1      41.345  24.767  27.505  1.00  0.00     0.016 A 
ATOM     44  C   UNL A   1      43.132  26.241  26.789  1.00  0.00     0.016 A 
ATOM     45  C   UNL A   1      40.932  25.740  28.420  1.00  0.00     0.010 A 
ATOM     46  C   UNL A   1      42.704  27.218  27.691  1.00  0.00     0.010 A 
ATOM     47  C   UNL A   1      41.608  26.970  28.525  1.00  0.00    -0.014 A 
BRANCH  47  48
ATOM     48  C   UNL A   1      41.256  27.926  29.605  1.00  0.00     0.031 A 
ATOM     49  C   UNL A   1      40.136  28.913  29.455  1.00  0.00     0.074 A 
ATOM     50  C   UNL A   1      41.990  27.911  30.735  1.00  0.00     0.049 A 
ATOM     51  N   UNL A   1      39.668  29.758  30.338  1.00  0.00    -0.248 NA
ATOM     52  C   UNL A   1      39.455  28.967  28.152  1.00  0.00     0.031 C 
ATOM     53  C   UNL A   1      43.131  27.025  30.979  1.00  0.00     0.029 A 
ATOM     54  N   UNL A   1      41.890  28.652  31.886  1.00  0.00    -0.354 N 
ATOM     55  C   UNL A   1      38.630  30.433  29.709  1.00  0.00     0.074 A 
ATOM     56  C   UNL A   1      38.563  29.930  28.353  1.00  0.00     0.031 C 
ATOM     57  C   UNL A   1      43.606  27.254  32.212  1.00  0.00     0.029 A 
ATOM     58  C   UNL A   1      42.828  28.321  32.834  1.00  0.00     0.049 A 
ATOM     59  H   UNL A   1      41.211  29.352  32.019  1.00  0.00     0.167 HD
ATOM     60  C   UNL A   1      37.803  31.374  30.224  1.00  0.00     0.031 A 
ATOM     61  C   UNL A   1      43.041  28.814  34.070  1.00  0.00     0.031 A 
ATOM     62  C   UNL A   1      37.890  31.884  31.569  1.00  0.00     0.049 A 
ATOM     63  C   UNL A   1      42.127  29.880  34.604  1.00  0.00     0.074 A 
ATOM     64  C   UNL A   1      37.058  32.800  32.191  1.00  0.00     0.029 A 
ATOM     65  N   UNL A   1      38.865  31.541  32.491  1.00  0.00    -0.354 N 
ATOM     66  N   UNL A   1      41.089  30.436  34.030  1.00  0.00    -0.248 NA
ATOM     67  C   UNL A   1      42.400  30.375  35.961  1.00  0.00     0.031 C 
ATOM     68  C   UNL A   1      37.571  33.066  33.462  1.00  0.00     0.029 A 
ATOM     69  C   UNL A   1      38.677  32.256  33.662  1.00  0.00     0.049 A 
ATOM     70  H   UNL A   1      39.584  30.887  32.337  1.00  0.00     0.167 HD
ATOM     71  C   UNL A   1      40.571  31.327  34.960  1.00  0.00     0.074 A 
ATOM     72  C   UNL A   1      41.398  31.226  36.144  1.00  0.00     0.031 C 
ATOM     73  C   UNL A   1      39.504  32.154  34.839  1.00  0.00     0.031 A 
BRANCH  60  74
ATOM     74  C   UNL A   1      36.709  31.923  29.349  1.00  0.00    -0.014 A 
ATOM     75  C   UNL A   1      36.847  33.196  28.770  1.00  0.00     0.009 A 
ATOM     76  C   UNL A   1      35.487  31.246  29.217  1.00  0.00     0.009 A 
ATOM     77  C   UNL A   1      35.777  33.788  28.096  1.00  0.00     0.001 A 
ATOM     78  C   UNL A   1      34.428  31.830  28.518  1.00  0.00     0.001 A 
ATOM     79  C   UNL A   1      34.570  33.104  27.970  1.00  0.00     0.000 A 
ENDBRANCH  60  74
BRANCH  61  80
ATOM     80  C   UNL A   1      44.152  28.265  34.891  1.00  0.00    -0.014 A 
ATOM     81  C   UNL A   1      45.436  28.834  34.828  1.00  0.00     0.009 A 
ATOM     82  C   UNL A   1      43.951  27.139  35.704  1.00  0.00     0.009 A 
ATOM     83  C   UNL A   1      46.497  28.273  35.540  1.00  0.00     0.001 A 
ATOM     84  C   UNL A   1      45.008  26.601  36.441  1.00  0.00     0.001 A 
ATOM     85  C   UNL A   1      46.281  27.160  36.351  1.00  0.00     0.000 A 
ENDBRANCH  61  80
BRANCH  73  86
ATOM     86  C   UNL A   1      39.143  33.022  36.013  1.00  0.00    -0.014 A 
ATOM     87  C   UNL A   1      39.691  34.311  36.121  1.00  0.00     0.009 A 
ATOM     88  C   UNL A   1      38.362  32.527  37.068  1.00  0.00     0.009 A 
ATOM     89  C   UNL A   1      39.483  35.078  37.269  1.00  0.00     0.001 A 
ATOM     90  C   UNL A   1      38.129  33.309  38.202  1.00  0.00     0.001 A 
ATOM     91  C   UNL A   1      38.700  34.576  38.307  1.00  0.00     0.000 A 
ENDBRANCH  73  86
ENDBRANCH  47  48
ENDBRANCH  40  42
ENDBRANCH  39  40
ENDBRANCH  38  39
ENDBRANCH  37  38
ENDBRANCH  36  37
ENDBRANCH   1  36
TORSDOF 20
ENDMDL
MODEL 3
REMARK VINA RESULT:     -11.5      1.269      5.617
REMARK SMILES C[C@H]1c2ccc(O)cc2OC(=O)[C@@H]1CC(=O)N[C@@H](CC1=c2ccccc2=NC1)C(=O)OCCOCCOC(=O)c1ccc(-c2c3nc(c(-c4ccccc4)c4ccc([nH]4)c(-c4ccccc4)c4nc(c(-c5ccccc5)c5ccc2[nH]5)C=C4)C=C3)cc1
REMARK SMILES IDX 33 1 32 2 31 3 29 4 30 5 18 6 17 7 15 8 16 9 14 11 13 12
REMARK SMILES IDX 1 13 2 14 3 15 4 16 9 17 11 18 5 19 8 20 10 21 12 22 6 23
REMARK SMILES IDX 7 24 19 26 20 27 21 28 28 29 22 30 26 31 27 32 23 33 25 34
REMARK SMILES IDX 24 35 34 36 35 37 36 38 37 39 38 40 39 41 40 42 41 43 87 44
REMARK SMILES IDX 42 45 86 46 43 47 44 48 45 49 80 50 46 51 85 52 79 53 81 54
REMARK SMILES IDX 47 55 84 56 78 57 77 58 48 60 70 61 55 62 69 63 56 64 59 65
REMARK SMILES IDX 68 66 82 67 57 68 58 69 67 71 83 72 60 73 49 74 50 75 54 76
REMARK SMILES IDX 51 77 53 78 52 79 71 80 72 81 76 82 73 83 75 84 74 85 61 86
REMARK SMILES IDX 62 87 66 88 63 89 65 90 64 91
REMARK H PARENT 17 10 7 25 81 59 59 70
REMARK Flexibility Score: inf
ROOT
ATOM      1  C   UNL A   1      38.237  23.409  26.187  1.00  0.00     0.202 C 
ENDROOT
BRANCH   1   2
ATOM      2  C   UNL A   1      37.108  23.147  25.185  1.00  0.00     0.261 C 
BRANCH   2   3
ATOM      3  O   UNL A   1      36.100  22.267  25.706  1.00  0.00    -0.462 OA
BRANCH   3   4
ATOM      4  C   UNL A   1      35.067  22.054  24.854  1.00  0.00     0.329 C 
ATOM      5  O   UNL A   1      34.921  22.619  23.774  1.00  0.00    -0.250 OA
BRANCH   4   6
ATOM      6  C   UNL A   1      34.056  21.025  25.352  1.00  0.00     0.196 C 
BRANCH   6   7
ATOM      7  N   UNL A   1      33.277  21.193  26.588  1.00  0.00    -0.342 N 
ATOM      8  C   UNL A   1      33.019  22.357  27.266  1.00  0.00     0.221 C 
ATOM      9  O   UNL A   1      32.796  22.302  28.475  1.00  0.00    -0.275 OA
ATOM     10  H   UNL A   1      32.896  20.372  26.975  1.00  0.00     0.164 HD
BRANCH   8  11
ATOM     11  C   UNL A   1      32.853  23.671  26.507  1.00  0.00     0.116 C 
BRANCH  11  12
ATOM     12  C   UNL A   1      31.569  23.873  25.668  1.00  0.00     0.116 C 
ATOM     13  C   UNL A   1      30.590  24.598  23.407  1.00  0.00     0.014 C 
ATOM     14  C   UNL A   1      31.848  24.518  24.285  1.00  0.00     0.034 C 
ATOM     15  C   UNL A   1      32.405  25.905  24.506  1.00  0.00    -0.001 A 
ATOM     16  C   UNL A   1      33.309  26.506  23.628  1.00  0.00     0.011 A 
ATOM     17  C   UNL A   1      32.021  26.606  25.654  1.00  0.00     0.138 A 
ATOM     18  C   UNL A   1      30.583  24.796  26.337  1.00  0.00     0.315 C 
ATOM     19  C   UNL A   1      33.858  27.756  23.937  1.00  0.00     0.047 A 
ATOM     20  C   UNL A   1      32.586  27.829  25.996  1.00  0.00     0.093 A 
ATOM     21  O   UNL A   1      31.013  26.106  26.496  1.00  0.00    -0.426 OA
ATOM     22  O   UNL A   1      29.491  24.423  26.749  1.00  0.00    -0.251 OA
ATOM     23  C   UNL A   1      33.511  28.392  25.130  1.00  0.00     0.119 A 
BRANCH  23  24
ATOM     24  O   UNL A   1      34.055  29.591  25.483  1.00  0.00    -0.508 OA
ATOM     25  H   UNL A   1      33.498  30.299  25.744  1.00  0.00     0.293 HD
ENDBRANCH  23  24
ENDBRANCH  11  12
ENDBRANCH   8  11
ENDBRANCH   6   7
BRANCH   6  26
ATOM     26  C   UNL A   1      33.141  20.683  24.160  1.00  0.00     0.070 C 
BRANCH  26  27
ATOM     27  C   UNL A   1      32.367  19.359  24.116  1.00  0.00    -0.037 C 
ATOM     28  C   UNL A   1      32.906  18.242  24.619  1.00  0.00     0.001 A 
ATOM     29  C   UNL A   1      31.981  19.062  22.675  1.00  0.00     0.174 C 
ATOM     30  C   UNL A   1      32.475  17.375  25.684  1.00  0.00     0.010 A 
ATOM     31  C   UNL A   1      33.337  17.542  23.384  1.00  0.00     0.065 A 
ATOM     32  N   UNL A   1      32.893  17.978  22.248  1.00  0.00    -0.280 NA
ATOM     33  C   UNL A   1      33.015  16.141  25.723  1.00  0.00     0.001 A 
ATOM     34  C   UNL A   1      34.231  16.393  23.620  1.00  0.00     0.028 A 
ATOM     35  C   UNL A   1      34.061  15.750  24.788  1.00  0.00     0.002 A 
ENDBRANCH  26  27
ENDBRANCH   6  26
ENDBRANCH   4   6
ENDBRANCH   3   4
ENDBRANCH   2   3
ENDBRANCH   1   2
BRANCH   1  36
ATOM     36  O   UNL A   1      39.273  22.438  26.273  1.00  0.00    -0.374 OA
BRANCH  36  37
ATOM     37  C   UNL A   1      39.118  21.202  25.576  1.00  0.00     0.202 C 
BRANCH  37  38
ATOM     38  C   UNL A   1      39.719  19.929  26.196  1.00  0.00     0.261 C 
BRANCH  38  39
ATOM     39  O   UNL A   1      40.741  19.320  25.384  1.00  0.00    -0.460 OA
BRANCH  39  40
ATOM     40  C   UNL A   1      41.920  19.090  26.019  1.00  0.00     0.338 C 
ATOM     41  O   UNL A   1      42.482  18.021  26.175  1.00  0.00    -0.246 OA
BRANCH  40  42
ATOM     42  C   UNL A   1      42.557  20.367  26.382  1.00  0.00     0.060 A 
ATOM     43  C   UNL A   1      43.149  21.161  25.405  1.00  0.00     0.016 A 
ATOM     44  C   UNL A   1      42.422  20.836  27.695  1.00  0.00     0.016 A 
ATOM     45  C   UNL A   1      43.584  22.446  25.744  1.00  0.00     0.010 A 
ATOM     46  C   UNL A   1      42.877  22.112  28.034  1.00  0.00     0.010 A 
ATOM     47  C   UNL A   1      43.449  22.935  27.057  1.00  0.00    -0.014 A 
BRANCH  47  48
ATOM     48  C   UNL A   1      43.771  24.351  27.364  1.00  0.00     0.031 A 
ATOM     49  C   UNL A   1      42.706  25.349  27.708  1.00  0.00     0.074 A 
ATOM     50  C   UNL A   1      45.060  24.740  27.301  1.00  0.00     0.049 A 
ATOM     51  N   UNL A   1      42.843  26.599  28.070  1.00  0.00    -0.248 NA
ATOM     52  C   UNL A   1      41.309  24.895  27.636  1.00  0.00     0.031 C 
ATOM     53  C   UNL A   1      46.180  23.869  26.936  1.00  0.00     0.029 A 
ATOM     54  N   UNL A   1      45.648  25.956  27.544  1.00  0.00    -0.354 N 
ATOM     55  C   UNL A   1      41.558  27.080  28.284  1.00  0.00     0.074 A 
ATOM     56  C   UNL A   1      40.648  25.998  27.970  1.00  0.00     0.031 C 
ATOM     57  C   UNL A   1      47.320  24.572  27.006  1.00  0.00     0.029 A 
ATOM     58  C   UNL A   1      47.013  25.946  27.389  1.00  0.00     0.049 A 
ATOM     59  H   UNL A   1      45.140  26.758  27.804  1.00  0.00     0.167 HD
ATOM     60  C   UNL A   1      41.178  28.306  28.715  1.00  0.00     0.031 A 
ATOM     61  C   UNL A   1      47.923  26.928  27.541  1.00  0.00     0.031 A 
ATOM     62  C   UNL A   1      42.089  29.384  29.005  1.00  0.00     0.049 A 
ATOM     63  C   UNL A   1      47.470  28.288  27.992  1.00  0.00     0.074 A 
ATOM     64  C   UNL A   1      41.794  30.643  29.500  1.00  0.00     0.029 A 
ATOM     65  N   UNL A   1      43.461  29.342  28.816  1.00  0.00    -0.354 N 
ATOM     66  N   UNL A   1      46.259  28.694  28.285  1.00  0.00    -0.248 NA
ATOM     67  C   UNL A   1      48.506  29.319  28.150  1.00  0.00     0.031 C 
ATOM     68  C   UNL A   1      42.974  31.387  29.540  1.00  0.00     0.029 A 
ATOM     69  C   UNL A   1      44.019  30.565  29.147  1.00  0.00     0.049 A 
ATOM     70  H   UNL A   1      43.963  28.559  28.494  1.00  0.00     0.167 HD
ATOM     71  C   UNL A   1      46.389  30.019  28.683  1.00  0.00     0.074 A 
ATOM     72  C   UNL A   1      47.799  30.342  28.613  1.00  0.00     0.031 C 
ATOM     73  C   UNL A   1      45.423  30.885  29.074  1.00  0.00     0.031 A 
BRANCH  60  74
ATOM     74  C   UNL A   1      39.711  28.570  28.922  1.00  0.00    -0.014 A 
ATOM     75  C   UNL A   1      38.951  29.147  27.891  1.00  0.00     0.009 A 
ATOM     76  C   UNL A   1      39.118  28.383  30.180  1.00  0.00     0.009 A 
ATOM     77  C   UNL A   1      37.635  29.552  28.122  1.00  0.00     0.001 A 
ATOM     78  C   UNL A   1      37.792  28.764  30.400  1.00  0.00     0.001 A 
ATOM     79  C   UNL A   1      37.056  29.358  29.375  1.00  0.00     0.000 A 
ENDBRANCH  60  74
BRANCH  61  80
ATOM     80  C   UNL A   1      49.360  26.634  27.298  1.00  0.00    -0.014 A 
ATOM     81  C   UNL A   1      49.899  26.728  26.003  1.00  0.00     0.009 A 
ATOM     82  C   UNL A   1      50.189  26.206  28.346  1.00  0.00     0.009 A 
ATOM     83  C   UNL A   1      51.228  26.379  25.760  1.00  0.00     0.001 A 
ATOM     84  C   UNL A   1      51.528  25.890  28.105  1.00  0.00     0.001 A 
ATOM     85  C   UNL A   1      52.044  25.965  26.812  1.00  0.00     0.000 A 
ENDBRANCH  61  80
BRANCH  73  86
ATOM     86  C   UNL A   1      45.835  32.276  29.470  1.00  0.00    -0.014 A 
ATOM     87  C   UNL A   1      45.933  33.279  28.490  1.00  0.00     0.009 A 
ATOM     88  C   UNL A   1      46.241  32.567  30.781  1.00  0.00     0.009 A 
ATOM     89  C   UNL A   1      46.449  34.536  28.810  1.00  0.00     0.001 A 
ATOM     90  C   UNL A   1      46.727  33.835  31.105  1.00  0.00     0.001 A 
ATOM     91  C   UNL A   1      46.843  34.813  30.118  1.00  0.00     0.000 A 
ENDBRANCH  73  86
ENDBRANCH  47  48
ENDBRANCH  40  42
ENDBRANCH  39  40
ENDBRANCH  38  39
ENDBRANCH  37  38
ENDBRANCH  36  37
ENDBRANCH   1  36
TORSDOF 20
ENDMDL
