MODEL 1
REMARK VINA RESULT:     -12.4      0.000      0.000
REMARK SMILES CC(C)(CC(=O)OCCOCCOC(=O)c1ccc(-c2c3nc(c(-c4ccccc4)c4ccc([nH]4)c(-c4ccccc4)c4nc(c(-c5ccccc5)c5ccc2[nH]5)C=C4)C=C3)cc1)CC(=O)N1CCN(c2nc3ccc(Cl)cc3s2)CC1
REMARK SMILES IDX 9 1 8 2 7 3 5 4 6 5 4 6 2 7 1 8 3 9 64 10 65 11 66 12 67 13
REMARK SMILES IDX 68 14 82 15 69 16 81 17 70 18 71 19 72 20 80 21 73 22 79 23
REMARK SMILES IDX 74 24 78 25 75 26 76 27 77 28 10 29 11 30 12 31 13 32 14 33
REMARK SMILES IDX 15 34 16 35 17 36 63 37 18 38 62 39 19 40 20 41 21 42 56 43
REMARK SMILES IDX 22 44 61 45 55 46 57 47 23 48 60 49 54 50 53 51 24 53 46 54
REMARK SMILES IDX 31 55 45 56 32 57 35 58 44 59 58 60 33 61 34 62 43 64 59 65
REMARK SMILES IDX 36 66 25 67 26 68 30 69 27 70 29 71 28 72 47 73 48 74 52 75
REMARK SMILES IDX 49 76 51 77 50 78 37 79 38 80 42 81 39 82 41 83 40 84
REMARK H PARENT 57 52 35 63
REMARK Flexibility Score: inf
ROOT
ATOM      1  C   UNL A   1      33.448  29.141  23.981  1.00  0.00     0.202 C 
ENDROOT
BRANCH   1   2
ATOM      2  C   UNL A   1      33.296  28.441  22.585  1.00  0.00     0.261 C 
BRANCH   2   3
ATOM      3  O   UNL A   1      32.699  27.134  22.526  1.00  0.00    -0.463 OA
BRANCH   3   4
ATOM      4  C   UNL A   1      31.357  27.079  22.586  1.00  0.00     0.306 C 
ATOM      5  O   UNL A   1      30.616  27.916  22.076  1.00  0.00    -0.252 OA
BRANCH   4   6
ATOM      6  C   UNL A   1      30.769  25.843  23.246  1.00  0.00     0.129 C 
BRANCH   6   7
ATOM      7  C   UNL A   1      30.853  25.404  24.741  1.00  0.00    -0.016 C 
ATOM      8  C   UNL A   1      31.816  26.319  25.517  1.00  0.00     0.012 C 
ATOM      9  C   UNL A   1      29.424  25.643  25.328  1.00  0.00     0.012 C 
BRANCH   7  10
ATOM     10  C   UNL A   1      31.181  23.946  25.093  1.00  0.00     0.107 C 
BRANCH  10  11
ATOM     11  C   UNL A   1      32.045  23.153  24.135  1.00  0.00     0.223 C 
ATOM     12  O   UNL A   1      31.582  22.524  23.190  1.00  0.00    -0.275 OA
ATOM     13  N   UNL A   1      33.399  23.288  24.376  1.00  0.00    -0.339 N 
ATOM     14  C   UNL A   1      34.700  23.035  23.010  1.00  0.00     0.141 C 
ATOM     15  C   UNL A   1      33.952  23.538  26.146  1.00  0.00     0.141 C 
ATOM     16  C   UNL A   1      36.578  23.192  23.499  1.00  0.00     0.140 C 
ATOM     17  C   UNL A   1      35.815  23.803  26.505  1.00  0.00     0.140 C 
ATOM     18  N   UNL A   1      37.066  23.591  25.216  1.00  0.00    -0.345 N 
BRANCH  18  19
ATOM     19  C   UNL A   1      37.988  22.687  25.694  1.00  0.00     0.186 A 
ATOM     20  N   UNL A   1      38.981  23.045  26.473  1.00  0.00    -0.220 NA
ATOM     21  S   UNL A   1      38.045  21.042  25.193  1.00  0.00    -0.097 S 
ATOM     22  C   UNL A   1      39.874  22.024  26.665  1.00  0.00     0.084 A 
ATOM     23  C   UNL A   1      39.547  20.829  26.029  1.00  0.00     0.058 A 
ATOM     24  C   UNL A   1      41.061  22.117  27.416  1.00  0.00     0.031 A 
ATOM     25  C   UNL A   1      40.388  19.705  26.117  1.00  0.00     0.042 A 
ATOM     26  C   UNL A   1      41.906  21.011  27.510  1.00  0.00     0.023 A 
ATOM     27  C   UNL A   1      41.568  19.826  26.864  1.00  0.00     0.042 A 
ATOM     28  Cl  UNL A   1      42.633  18.477  26.983  1.00  0.00    -0.084 Cl
ENDBRANCH  18  19
ENDBRANCH  10  11
ENDBRANCH   7  10
ENDBRANCH   6   7
ENDBRANCH   4   6
ENDBRANCH   3   4
ENDBRANCH   2   3
ENDBRANCH   1   2
BRANCH   1  29
ATOM     29  O   UNL A   1      32.334  29.699  24.922  1.00  0.00    -0.374 OA
BRANCH  29  30
ATOM     30  C   UNL A   1      31.844  30.603  26.540  1.00  0.00     0.202 C 
BRANCH  30  31
ATOM     31  C   UNL A   1      31.472  32.263  26.972  1.00  0.00     0.261 C 
BRANCH  31  32
ATOM     32  O   UNL A   1      32.411  33.403  26.865  1.00  0.00    -0.460 OA
BRANCH  32  33
ATOM     33  C   UNL A   1      33.088  33.854  27.969  1.00  0.00     0.338 C 
ATOM     34  O   UNL A   1      32.600  34.596  28.815  1.00  0.00    -0.246 OA
BRANCH  33  35
ATOM     35  C   UNL A   1      34.393  33.136  28.238  1.00  0.00     0.060 A 
ATOM     36  C   UNL A   1      34.357  31.757  28.522  1.00  0.00     0.016 A 
ATOM     37  C   UNL A   1      35.637  33.772  28.287  1.00  0.00     0.016 A 
ATOM     38  C   UNL A   1      35.522  31.033  28.873  1.00  0.00     0.010 A 
ATOM     39  C   UNL A   1      36.808  33.042  28.641  1.00  0.00     0.010 A 
ATOM     40  C   UNL A   1      36.767  31.671  28.976  1.00  0.00    -0.014 A 
BRANCH  40  41
ATOM     41  C   UNL A   1      37.942  30.977  29.635  1.00  0.00     0.031 A 
ATOM     42  C   UNL A   1      38.193  31.217  31.114  1.00  0.00     0.074 A 
ATOM     43  C   UNL A   1      38.777  30.109  29.018  1.00  0.00     0.049 A 
ATOM     44  N   UNL A   1      39.123  30.723  31.901  1.00  0.00    -0.248 NA
ATOM     45  C   UNL A   1      37.269  32.138  31.790  1.00  0.00     0.031 C 
ATOM     46  C   UNL A   1      38.711  29.695  27.620  1.00  0.00     0.029 A 
ATOM     47  N   UNL A   1      39.869  29.413  29.513  1.00  0.00    -0.354 N 
ATOM     48  C   UNL A   1      38.896  31.276  33.156  1.00  0.00     0.074 A 
ATOM     49  C   UNL A   1      37.766  32.172  33.017  1.00  0.00     0.031 C 
ATOM     50  C   UNL A   1      39.710  28.824  27.370  1.00  0.00     0.029 A 
ATOM     51  C   UNL A   1      40.509  28.624  28.583  1.00  0.00     0.049 A 
ATOM     52  H   UNL A   1      40.161  29.476  30.451  1.00  0.00     0.167 HD
ATOM     53  C   UNL A   1      39.537  31.063  34.332  1.00  0.00     0.031 A 
ATOM     54  C   UNL A   1      41.607  27.837  28.677  1.00  0.00     0.031 A 
ATOM     55  C   UNL A   1      40.660  30.189  34.541  1.00  0.00     0.049 A 
ATOM     56  C   UNL A   1      42.368  27.685  29.978  1.00  0.00     0.074 A 
ATOM     57  C   UNL A   1      41.325  29.916  35.727  1.00  0.00     0.029 A 
ATOM     58  N   UNL A   1      41.294  29.458  33.555  1.00  0.00    -0.354 N 
ATOM     59  N   UNL A   1      42.100  28.177  31.161  1.00  0.00    -0.248 NA
ATOM     60  C   UNL A   1      43.588  26.852  29.950  1.00  0.00     0.031 C 
ATOM     61  C   UNL A   1      42.395  29.060  35.450  1.00  0.00     0.029 A 
ATOM     62  C   UNL A   1      42.361  28.758  34.101  1.00  0.00     0.049 A 
ATOM     63  H   UNL A   1      41.030  29.437  32.608  1.00  0.00     0.167 HD
ATOM     64  C   UNL A   1      43.085  27.683  32.015  1.00  0.00     0.074 A 
ATOM     65  C   UNL A   1      43.956  26.847  31.224  1.00  0.00     0.031 C 
ATOM     66  C   UNL A   1      43.237  27.905  33.343  1.00  0.00     0.031 A 
BRANCH  53  67
ATOM     67  C   UNL A   1      39.033  31.822  35.527  1.00  0.00    -0.014 A 
ATOM     68  C   UNL A   1      38.174  31.217  36.457  1.00  0.00     0.009 A 
ATOM     69  C   UNL A   1      39.461  33.140  35.747  1.00  0.00     0.009 A 
ATOM     70  C   UNL A   1      37.724  31.931  37.568  1.00  0.00     0.001 A 
ATOM     71  C   UNL A   1      39.031  33.842  36.873  1.00  0.00     0.001 A 
ATOM     72  C   UNL A   1      38.157  33.241  37.777  1.00  0.00     0.000 A 
ENDBRANCH  53  67
BRANCH  54  73
ATOM     73  C   UNL A   1      42.117  27.101  27.483  1.00  0.00    -0.014 A 
ATOM     74  C   UNL A   1      43.068  27.690  26.633  1.00  0.00     0.009 A 
ATOM     75  C   UNL A   1      41.574  25.856  27.129  1.00  0.00     0.009 A 
ATOM     76  C   UNL A   1      43.440  27.063  25.439  1.00  0.00     0.001 A 
ATOM     77  C   UNL A   1      41.967  25.220  25.950  1.00  0.00     0.001 A 
ATOM     78  C   UNL A   1      42.890  25.828  25.100  1.00  0.00     0.000 A 
ENDBRANCH  54  73
BRANCH  66  79
ATOM     79  C   UNL A   1      44.357  27.203  34.067  1.00  0.00    -0.014 A 
ATOM     80  C   UNL A   1      45.486  27.896  34.530  1.00  0.00     0.009 A 
ATOM     81  C   UNL A   1      44.252  25.829  34.345  1.00  0.00     0.009 A 
ATOM     82  C   UNL A   1      46.494  27.226  35.231  1.00  0.00     0.001 A 
ATOM     83  C   UNL A   1      45.249  25.166  35.066  1.00  0.00     0.001 A 
ATOM     84  C   UNL A   1      46.373  25.864  35.504  1.00  0.00     0.000 A 
ENDBRANCH  66  79
ENDBRANCH  40  41
ENDBRANCH  33  35
ENDBRANCH  32  33
ENDBRANCH  31  32
ENDBRANCH  30  31
ENDBRANCH  29  30
ENDBRANCH   1  29
TORSDOF 18
ENDMDL
MODEL 2
REMARK VINA RESULT:     -11.5      4.186      6.300
REMARK SMILES CC(C)(CC(=O)OCCOCCOC(=O)c1ccc(-c2c3nc(c(-c4ccccc4)c4ccc([nH]4)c(-c4ccccc4)c4nc(c(-c5ccccc5)c5ccc2[nH]5)C=C4)C=C3)cc1)CC(=O)N1CCN(c2nc3ccc(Cl)cc3s2)CC1
REMARK SMILES IDX 9 1 8 2 7 3 5 4 6 5 4 6 2 7 1 8 3 9 64 10 65 11 66 12 67 13
REMARK SMILES IDX 68 14 82 15 69 16 81 17 70 18 71 19 72 20 80 21 73 22 79 23
REMARK SMILES IDX 74 24 78 25 75 26 76 27 77 28 10 29 11 30 12 31 13 32 14 33
REMARK SMILES IDX 15 34 16 35 17 36 63 37 18 38 62 39 19 40 20 41 21 42 56 43
REMARK SMILES IDX 22 44 61 45 55 46 57 47 23 48 60 49 54 50 53 51 24 53 46 54
REMARK SMILES IDX 31 55 45 56 32 57 35 58 44 59 58 60 33 61 34 62 43 64 59 65
REMARK SMILES IDX 36 66 25 67 26 68 30 69 27 70 29 71 28 72 47 73 48 74 52 75
REMARK SMILES IDX 49 76 51 77 50 78 37 79 38 80 42 81 39 82 41 83 40 84
REMARK H PARENT 57 52 35 63
REMARK Flexibility Score: inf
ROOT
ATOM      1  C   UNL A   1      31.448  29.590  25.405  1.00  0.00     0.202 C 
ENDROOT
BRANCH   1   2
ATOM      2  C   UNL A   1      30.922  29.437  23.936  1.00  0.00     0.261 C 
BRANCH   2   3
ATOM      3  O   UNL A   1      30.339  28.185  23.535  1.00  0.00    -0.463 OA
BRANCH   3   4
ATOM      4  C   UNL A   1      31.191  27.217  23.154  1.00  0.00     0.306 C 
ATOM      5  O   UNL A   1      32.200  27.421  22.483  1.00  0.00    -0.252 OA
BRANCH   4   6
ATOM      6  C   UNL A   1      30.902  25.826  23.693  1.00  0.00     0.129 C 
BRANCH   6   7
ATOM      7  C   UNL A   1      31.031  25.303  25.157  1.00  0.00    -0.016 C 
ATOM      8  C   UNL A   1      32.072  26.127  25.933  1.00  0.00     0.012 C 
ATOM      9  C   UNL A   1      29.644  25.575  25.823  1.00  0.00     0.012 C 
BRANCH   7  10
ATOM     10  C   UNL A   1      31.303  23.813  25.417  1.00  0.00     0.107 C 
BRANCH  10  11
ATOM     11  C   UNL A   1      32.138  23.051  24.410  1.00  0.00     0.223 C 
ATOM     12  O   UNL A   1      31.648  22.440  23.468  1.00  0.00    -0.275 OA
ATOM     13  N   UNL A   1      33.499  23.191  24.607  1.00  0.00    -0.339 N 
ATOM     14  C   UNL A   1      34.753  22.980  23.192  1.00  0.00     0.141 C 
ATOM     15  C   UNL A   1      34.111  23.404  26.362  1.00  0.00     0.141 C 
ATOM     16  C   UNL A   1      36.646  23.142  23.619  1.00  0.00     0.140 C 
ATOM     17  C   UNL A   1      35.984  23.676  26.663  1.00  0.00     0.140 C 
ATOM     18  N   UNL A   1      37.191  23.505  25.327  1.00  0.00    -0.345 N 
BRANCH  18  19
ATOM     19  C   UNL A   1      38.135  22.598  25.751  1.00  0.00     0.186 A 
ATOM     20  N   UNL A   1      39.203  22.961  26.421  1.00  0.00    -0.220 NA
ATOM     21  S   UNL A   1      38.114  20.935  25.309  1.00  0.00    -0.097 S 
ATOM     22  C   UNL A   1      40.090  21.927  26.568  1.00  0.00     0.084 A 
ATOM     23  C   UNL A   1      39.683  20.718  26.010  1.00  0.00     0.058 A 
ATOM     24  C   UNL A   1      41.344  22.020  27.203  1.00  0.00     0.031 A 
ATOM     25  C   UNL A   1      40.507  19.579  26.062  1.00  0.00     0.042 A 
ATOM     26  C   UNL A   1      42.173  20.898  27.259  1.00  0.00     0.023 A 
ATOM     27  C   UNL A   1      41.753  19.700  26.692  1.00  0.00     0.042 A 
ATOM     28  Cl  UNL A   1      42.799  18.332  26.763  1.00  0.00    -0.084 Cl
ENDBRANCH  18  19
ENDBRANCH  10  11
ENDBRANCH   7  10
ENDBRANCH   6   7
ENDBRANCH   4   6
ENDBRANCH   3   4
ENDBRANCH   2   3
ENDBRANCH   1   2
BRANCH   1  29
ATOM     29  O   UNL A   1      32.894  29.912  25.898  1.00  0.00    -0.374 OA
BRANCH  29  30
ATOM     30  C   UNL A   1      34.175  29.967  27.323  1.00  0.00     0.202 C 
BRANCH  30  31
ATOM     31  C   UNL A   1      35.577  30.955  27.697  1.00  0.00     0.261 C 
BRANCH  31  32
ATOM     32  O   UNL A   1      36.193  31.087  29.037  1.00  0.00    -0.460 OA
BRANCH  32  33
ATOM     33  C   UNL A   1      36.688  29.986  29.688  1.00  0.00     0.338 C 
ATOM     34  O   UNL A   1      36.048  29.328  30.503  1.00  0.00    -0.246 OA
BRANCH  33  35
ATOM     35  C   UNL A   1      37.982  29.450  29.114  1.00  0.00     0.060 A 
ATOM     36  C   UNL A   1      38.874  28.781  29.975  1.00  0.00     0.016 A 
ATOM     37  C   UNL A   1      38.381  29.634  27.788  1.00  0.00     0.016 A 
ATOM     38  C   UNL A   1      40.143  28.331  29.535  1.00  0.00     0.010 A 
ATOM     39  C   UNL A   1      39.658  29.181  27.348  1.00  0.00     0.010 A 
ATOM     40  C   UNL A   1      40.576  28.556  28.221  1.00  0.00    -0.014 A 
BRANCH  40  41
ATOM     41  C   UNL A   1      42.027  28.350  27.836  1.00  0.00     0.031 A 
ATOM     42  C   UNL A   1      43.008  29.489  28.060  1.00  0.00     0.074 A 
ATOM     43  C   UNL A   1      42.543  27.201  27.342  1.00  0.00     0.049 A 
ATOM     44  N   UNL A   1      44.300  29.544  27.826  1.00  0.00    -0.248 NA
ATOM     45  C   UNL A   1      42.450  30.727  28.622  1.00  0.00     0.031 C 
ATOM     46  C   UNL A   1      41.809  25.968  27.079  1.00  0.00     0.029 A 
ATOM     47  N   UNL A   1      43.842  26.894  26.965  1.00  0.00    -0.354 N 
ATOM     48  C   UNL A   1      44.704  30.819  28.209  1.00  0.00     0.074 A 
ATOM     49  C   UNL A   1      43.514  31.515  28.652  1.00  0.00     0.031 C 
ATOM     50  C   UNL A   1      42.659  25.044  26.588  1.00  0.00     0.029 A 
ATOM     51  C   UNL A   1      44.005  25.616  26.478  1.00  0.00     0.049 A 
ATOM     52  H   UNL A   1      44.585  27.535  27.041  1.00  0.00     0.167 HD
ATOM     53  C   UNL A   1      45.941  31.375  28.219  1.00  0.00     0.031 A 
ATOM     54  C   UNL A   1      45.093  24.973  25.993  1.00  0.00     0.031 A 
ATOM     55  C   UNL A   1      47.160  30.742  27.795  1.00  0.00     0.049 A 
ATOM     56  C   UNL A   1      46.449  25.644  25.923  1.00  0.00     0.074 A 
ATOM     57  C   UNL A   1      48.448  31.258  27.818  1.00  0.00     0.029 A 
ATOM     58  N   UNL A   1      47.255  29.469  27.265  1.00  0.00    -0.354 N 
ATOM     59  N   UNL A   1      46.813  26.830  26.341  1.00  0.00    -0.248 NA
ATOM     60  C   UNL A   1      47.552  24.869  25.316  1.00  0.00     0.031 C 
ATOM     61  C   UNL A   1      49.314  30.319  27.252  1.00  0.00     0.029 A 
ATOM     62  C   UNL A   1      48.573  29.197  26.930  1.00  0.00     0.049 A 
ATOM     63  H   UNL A   1      46.500  28.850  27.144  1.00  0.00     0.167 HD
ATOM     64  C   UNL A   1      48.180  26.923  26.087  1.00  0.00     0.074 A 
ATOM     65  C   UNL A   1      48.590  25.676  25.485  1.00  0.00     0.031 C 
ATOM     66  C   UNL A   1      49.015  27.959  26.344  1.00  0.00     0.031 A 
BRANCH  53  67
ATOM     67  C   UNL A   1      46.042  32.793  28.707  1.00  0.00    -0.014 A 
ATOM     68  C   UNL A   1      45.544  33.857  27.941  1.00  0.00     0.009 A 
ATOM     69  C   UNL A   1      46.599  33.058  29.967  1.00  0.00     0.009 A 
ATOM     70  C   UNL A   1      45.634  35.167  28.413  1.00  0.00     0.001 A 
ATOM     71  C   UNL A   1      46.663  34.366  30.449  1.00  0.00     0.001 A 
ATOM     72  C   UNL A   1      46.189  35.419  29.668  1.00  0.00     0.000 A 
ENDBRANCH  53  67
BRANCH  54  73
ATOM     73  C   UNL A   1      44.983  23.571  25.489  1.00  0.00    -0.014 A 
ATOM     74  C   UNL A   1      45.444  22.495  26.266  1.00  0.00     0.009 A 
ATOM     75  C   UNL A   1      44.521  23.317  24.189  1.00  0.00     0.009 A 
ATOM     76  C   UNL A   1      45.474  21.200  25.739  1.00  0.00     0.001 A 
ATOM     77  C   UNL A   1      44.527  22.018  23.675  1.00  0.00     0.001 A 
ATOM     78  C   UNL A   1      45.013  20.963  24.445  1.00  0.00     0.000 A 
ENDBRANCH  54  73
BRANCH  66  79
ATOM     79  C   UNL A   1      50.481  27.797  26.031  1.00  0.00    -0.014 A 
ATOM     80  C   UNL A   1      51.019  28.185  24.794  1.00  0.00     0.009 A 
ATOM     81  C   UNL A   1      51.353  27.303  27.016  1.00  0.00     0.009 A 
ATOM     82  C   UNL A   1      52.389  28.058  24.542  1.00  0.00     0.001 A 
ATOM     83  C   UNL A   1      52.725  27.199  26.772  1.00  0.00     0.001 A 
ATOM     84  C   UNL A   1      53.242  27.570  25.533  1.00  0.00     0.000 A 
ENDBRANCH  66  79
ENDBRANCH  40  41
ENDBRANCH  33  35
ENDBRANCH  32  33
ENDBRANCH  31  32
ENDBRANCH  30  31
ENDBRANCH  29  30
ENDBRANCH   1  29
TORSDOF 18
ENDMDL
MODEL 3
REMARK VINA RESULT:     -11.5      3.663      6.385
REMARK SMILES CC(C)(CC(=O)OCCOCCOC(=O)c1ccc(-c2c3nc(c(-c4ccccc4)c4ccc([nH]4)c(-c4ccccc4)c4nc(c(-c5ccccc5)c5ccc2[nH]5)C=C4)C=C3)cc1)CC(=O)N1CCN(c2nc3ccc(Cl)cc3s2)CC1
REMARK SMILES IDX 9 1 8 2 7 3 5 4 6 5 4 6 2 7 1 8 3 9 64 10 65 11 66 12 67 13
REMARK SMILES IDX 68 14 82 15 69 16 81 17 70 18 71 19 72 20 80 21 73 22 79 23
REMARK SMILES IDX 74 24 78 25 75 26 76 27 77 28 10 29 11 30 12 31 13 32 14 33
REMARK SMILES IDX 15 34 16 35 17 36 63 37 18 38 62 39 19 40 20 41 21 42 56 43
REMARK SMILES IDX 22 44 61 45 55 46 57 47 23 48 60 49 54 50 53 51 24 53 46 54
REMARK SMILES IDX 31 55 45 56 32 57 35 58 44 59 58 60 33 61 34 62 43 64 59 65
REMARK SMILES IDX 36 66 25 67 26 68 30 69 27 70 29 71 28 72 47 73 48 74 52 75
REMARK SMILES IDX 49 76 51 77 50 78 37 79 38 80 42 81 39 82 41 83 40 84
REMARK H PARENT 57 52 35 63
REMARK Flexibility Score: inf
ROOT
ATOM      1  C   UNL A   1      32.947  30.461  27.231  1.00  0.00     0.202 C 
ENDROOT
BRANCH   1   2
ATOM      2  C   UNL A   1      32.440  30.138  25.783  1.00  0.00     0.261 C 
BRANCH   2   3
ATOM      3  O   UNL A   1      31.045  30.317  25.480  1.00  0.00    -0.463 OA
BRANCH   3   4
ATOM      4  C   UNL A   1      30.611  31.583  25.361  1.00  0.00     0.306 C 
ATOM      5  O   UNL A   1      30.875  32.474  26.166  1.00  0.00    -0.252 OA
BRANCH   4   6
ATOM      6  C   UNL A   1      29.837  31.907  24.094  1.00  0.00     0.129 C 
BRANCH   6   7
ATOM      7  C   UNL A   1      28.737  31.060  23.382  1.00  0.00    -0.016 C 
ATOM      8  C   UNL A   1      27.381  31.240  24.084  1.00  0.00     0.012 C 
ATOM      9  C   UNL A   1      28.597  31.673  21.952  1.00  0.00     0.012 C 
BRANCH   7  10
ATOM     10  C   UNL A   1      28.962  29.559  23.143  1.00  0.00     0.107 C 
BRANCH  10  11
ATOM     11  C   UNL A   1      30.204  29.131  22.390  1.00  0.00     0.223 C 
ATOM     12  O   UNL A   1      30.521  29.608  21.307  1.00  0.00    -0.275 OA
ATOM     13  N   UNL A   1      30.984  28.227  23.087  1.00  0.00    -0.339 N 
ATOM     14  C   UNL A   1      32.853  28.050  22.774  1.00  0.00     0.141 C 
ATOM     15  C   UNL A   1      30.119  27.023  24.228  1.00  0.00     0.141 C 
ATOM     16  C   UNL A   1      33.822  26.693  23.779  1.00  0.00     0.140 C 
ATOM     17  C   UNL A   1      31.176  25.806  25.264  1.00  0.00     0.140 C 
ATOM     18  N   UNL A   1      32.957  25.640  24.999  1.00  0.00    -0.345 N 
BRANCH  18  19
ATOM     19  C   UNL A   1      33.208  24.306  24.770  1.00  0.00     0.186 A 
ATOM     20  N   UNL A   1      32.459  23.579  23.975  1.00  0.00    -0.220 NA
ATOM     21  S   UNL A   1      34.405  23.410  25.622  1.00  0.00    -0.097 S 
ATOM     22  C   UNL A   1      32.777  22.248  24.049  1.00  0.00     0.084 A 
ATOM     23  C   UNL A   1      33.821  21.939  24.917  1.00  0.00     0.058 A 
ATOM     24  C   UNL A   1      32.121  21.219  23.346  1.00  0.00     0.031 A 
ATOM     25  C   UNL A   1      34.234  20.609  25.114  1.00  0.00     0.042 A 
ATOM     26  C   UNL A   1      32.519  19.894  23.534  1.00  0.00     0.023 A 
ATOM     27  C   UNL A   1      33.560  19.603  24.409  1.00  0.00     0.042 A 
ATOM     28  Cl  UNL A   1      34.025  17.959  24.634  1.00  0.00    -0.084 Cl
ENDBRANCH  18  19
ENDBRANCH  10  11
ENDBRANCH   7  10
ENDBRANCH   6   7
ENDBRANCH   4   6
ENDBRANCH   3   4
ENDBRANCH   2   3
ENDBRANCH   1   2
BRANCH   1  29
ATOM     29  O   UNL A   1      33.859  31.634  27.710  1.00  0.00    -0.374 OA
BRANCH  29  30
ATOM     30  C   UNL A   1      34.082  33.228  28.752  1.00  0.00     0.202 C 
BRANCH  30  31
ATOM     31  C   UNL A   1      34.423  33.574  30.438  1.00  0.00     0.261 C 
BRANCH  31  32
ATOM     32  O   UNL A   1      34.300  32.602  31.549  1.00  0.00    -0.460 OA
BRANCH  32  33
ATOM     33  C   UNL A   1      35.384  32.299  32.332  1.00  0.00     0.338 C 
ATOM     34  O   UNL A   1      35.435  32.510  33.540  1.00  0.00    -0.246 OA
BRANCH  33  35
ATOM     35  C   UNL A   1      36.407  31.406  31.664  1.00  0.00     0.060 A 
ATOM     36  C   UNL A   1      37.433  30.850  32.453  1.00  0.00     0.016 A 
ATOM     37  C   UNL A   1      36.438  31.149  30.290  1.00  0.00     0.016 A 
ATOM     38  C   UNL A   1      38.479  30.080  31.887  1.00  0.00     0.010 A 
ATOM     39  C   UNL A   1      37.490  30.375  29.724  1.00  0.00     0.010 A 
ATOM     40  C   UNL A   1      38.549  29.858  30.504  1.00  0.00    -0.014 A 
BRANCH  40  41
ATOM     41  C   UNL A   1      39.807  29.302  29.871  1.00  0.00     0.031 A 
ATOM     42  C   UNL A   1      41.018  30.210  29.736  1.00  0.00     0.074 A 
ATOM     43  C   UNL A   1      39.964  28.026  29.446  1.00  0.00     0.049 A 
ATOM     44  N   UNL A   1      42.210  29.957  29.245  1.00  0.00    -0.248 NA
ATOM     45  C   UNL A   1      40.855  31.587  30.223  1.00  0.00     0.031 C 
ATOM     46  C   UNL A   1      38.961  26.967  29.506  1.00  0.00     0.029 A 
ATOM     47  N   UNL A   1      41.060  27.406  28.864  1.00  0.00    -0.354 N 
ATOM     48  C   UNL A   1      42.932  31.139  29.361  1.00  0.00     0.074 A 
ATOM     49  C   UNL A   1      42.032  32.120  29.932  1.00  0.00     0.031 C 
ATOM     50  C   UNL A   1      39.482  25.837  28.987  1.00  0.00     0.029 A 
ATOM     51  C   UNL A   1      40.855  26.085  28.534  1.00  0.00     0.049 A 
ATOM     52  H   UNL A   1      41.912  27.871  28.702  1.00  0.00     0.167 HD
ATOM     53  C   UNL A   1      44.224  31.407  29.049  1.00  0.00     0.031 A 
ATOM     54  C   UNL A   1      41.658  25.174  27.935  1.00  0.00     0.031 A 
ATOM     55  C   UNL A   1      45.170  30.483  28.482  1.00  0.00     0.049 A 
ATOM     56  C   UNL A   1      43.070  25.519  27.506  1.00  0.00     0.074 A 
ATOM     57  C   UNL A   1      46.505  30.701  28.177  1.00  0.00     0.029 A 
ATOM     58  N   UNL A   1      44.891  29.178  28.124  1.00  0.00    -0.354 N 
ATOM     59  N   UNL A   1      43.744  26.628  27.676  1.00  0.00    -0.248 NA
ATOM     60  C   UNL A   1      43.835  24.467  26.804  1.00  0.00     0.031 C 
ATOM     61  C   UNL A   1      47.021  29.545  27.585  1.00  0.00     0.029 A 
ATOM     62  C   UNL A   1      46.021  28.590  27.573  1.00  0.00     0.049 A 
ATOM     63  H   UNL A   1      44.022  28.732  28.241  1.00  0.00     0.167 HD
ATOM     64  C   UNL A   1      45.011  26.392  27.146  1.00  0.00     0.074 A 
ATOM     65  C   UNL A   1      45.023  25.036  26.651  1.00  0.00     0.031 C 
ATOM     66  C   UNL A   1      46.069  27.237  27.087  1.00  0.00     0.031 A 
BRANCH  53  67
ATOM     67  C   UNL A   1      44.709  32.805  29.308  1.00  0.00    -0.014 A 
ATOM     68  C   UNL A   1      44.573  33.808  28.335  1.00  0.00     0.009 A 
ATOM     69  C   UNL A   1      45.263  33.131  30.555  1.00  0.00     0.009 A 
ATOM     70  C   UNL A   1      45.017  35.104  28.596  1.00  0.00     0.001 A 
ATOM     71  C   UNL A   1      45.680  34.436  30.822  1.00  0.00     0.001 A 
ATOM     72  C   UNL A   1      45.565  35.418  29.840  1.00  0.00     0.000 A 
ENDBRANCH  53  67
BRANCH  54  73
ATOM     73  C   UNL A   1      41.166  23.792  27.661  1.00  0.00    -0.014 A 
ATOM     74  C   UNL A   1      41.752  22.684  28.298  1.00  0.00     0.009 A 
ATOM     75  C   UNL A   1      40.187  23.567  26.681  1.00  0.00     0.009 A 
ATOM     76  C   UNL A   1      41.390  21.383  27.936  1.00  0.00     0.001 A 
ATOM     77  C   UNL A   1      39.809  22.266  26.341  1.00  0.00     0.001 A 
ATOM     78  C   UNL A   1      40.417  21.176  26.959  1.00  0.00     0.000 A 
ENDBRANCH  54  73
BRANCH  66  79
ATOM     79  C   UNL A   1      47.366  26.727  26.513  1.00  0.00    -0.014 A 
ATOM     80  C   UNL A   1      47.660  26.828  25.145  1.00  0.00     0.009 A 
ATOM     81  C   UNL A   1      48.342  26.188  27.371  1.00  0.00     0.009 A 
ATOM     82  C   UNL A   1      48.887  26.380  24.645  1.00  0.00     0.001 A 
ATOM     83  C   UNL A   1      49.576  25.763  26.873  1.00  0.00     0.001 A 
ATOM     84  C   UNL A   1      49.846  25.852  25.509  1.00  0.00     0.000 A 
ENDBRANCH  66  79
ENDBRANCH  40  41
ENDBRANCH  33  35
ENDBRANCH  32  33
ENDBRANCH  31  32
ENDBRANCH  30  31
ENDBRANCH  29  30
ENDBRANCH   1  29
TORSDOF 18
ENDMDL
