MODEL 1
REMARK VINA RESULT:     -10.1      0.000      0.000
REMARK SMILES CCN1CCN([C@H](C)c2ccc(C(=O)OCCOCCOC(=O)c3ccc(-c4c5nc(c(-c6ccccc6)c6ccc([nH]6)c(-c6ccccc6)c6nc(c(-c7ccccc7)c7ccc4[nH]7)C=C6)C=C5)cc3)o2)C(=O)C1=O
REMARK SMILES IDX 17 1 16 2 15 3 13 4 14 5 12 6 9 7 10 8 72 9 11 10 7 11 8 12
REMARK SMILES IDX 6 13 3 14 4 15 75 16 5 17 73 18 76 19 74 20 2 21 1 22 18 23
REMARK SMILES IDX 19 24 20 25 21 26 22 27 23 28 24 29 25 30 71 31 26 32 70 33
REMARK SMILES IDX 27 34 28 35 29 36 64 37 30 38 69 39 63 40 65 41 31 42 68 43
REMARK SMILES IDX 62 44 61 45 32 47 54 48 39 49 53 50 40 51 43 52 52 53 66 54
REMARK SMILES IDX 41 55 42 56 51 58 67 59 44 60 33 61 34 62 38 63 35 64 37 65
REMARK SMILES IDX 36 66 55 67 56 68 60 69 57 70 59 71 58 72 45 73 46 74 50 75
REMARK SMILES IDX 47 76 49 77 48 78
REMARK H PARENT 65 46 43 57
REMARK Flexibility Score: inf
ROOT
ATOM      1  C   UNL A   1      40.366  20.708  26.678  1.00  0.00     0.202 C 
ENDROOT
BRANCH   1   2
ATOM      2  C   UNL A   1      39.635  21.957  26.175  1.00  0.00     0.261 C 
BRANCH   2   3
ATOM      3  O   UNL A   1      38.375  21.592  25.585  1.00  0.00    -0.457 OA
BRANCH   3   4
ATOM      4  C   UNL A   1      37.405  22.553  25.610  1.00  0.00     0.374 C 
ATOM      5  O   UNL A   1      37.602  23.736  25.849  1.00  0.00    -0.242 OA
BRANCH   4   6
ATOM      6  C   UNL A   1      36.148  21.972  25.194  1.00  0.00     0.211 A 
ATOM      7  C   UNL A   1      34.260  21.957  24.047  1.00  0.00     0.127 A 
ATOM      8  C   UNL A   1      34.374  20.709  24.626  1.00  0.00     0.049 A 
ATOM      9  O   UNL A   1      35.322  22.731  24.409  1.00  0.00    -0.452 OA
ATOM     10  C   UNL A   1      35.587  20.717  25.356  1.00  0.00     0.058 A 
BRANCH   7  11
ATOM     11  C   UNL A   1      33.227  22.580  23.145  1.00  0.00     0.149 C 
ATOM     12  C   UNL A   1      32.212  21.505  22.755  1.00  0.00     0.040 C 
BRANCH  11  13
ATOM     13  N   UNL A   1      32.715  23.836  23.738  1.00  0.00    -0.323 N 
ATOM     14  N   UNL A   1      32.002  26.159  25.303  1.00  0.00    -0.333 N 
ATOM     15  C   UNL A   1      32.139  24.849  25.914  1.00  0.00     0.141 C 
ATOM     16  C   UNL A   1      32.372  26.327  23.962  1.00  0.00     0.312 C 
ATOM     17  C   UNL A   1      31.838  23.747  24.902  1.00  0.00     0.142 C 
ATOM     18  C   UNL A   1      33.052  25.110  23.262  1.00  0.00     0.312 C 
ATOM     19  O   UNL A   1      32.189  27.365  23.336  1.00  0.00    -0.263 OA
ATOM     20  O   UNL A   1      33.857  25.338  22.368  1.00  0.00    -0.263 OA
BRANCH  14  21
ATOM     21  C   UNL A   1      31.385  27.277  26.013  1.00  0.00     0.116 C 
ATOM     22  C   UNL A   1      32.312  28.072  26.920  1.00  0.00     0.027 C 
ENDBRANCH  14  21
ENDBRANCH  11  13
ENDBRANCH   7  11
ENDBRANCH   4   6
ENDBRANCH   3   4
ENDBRANCH   2   3
ENDBRANCH   1   2
BRANCH   1  23
ATOM     23  O   UNL A   1      41.755  20.901  26.954  1.00  0.00    -0.374 OA
BRANCH  23  24
ATOM     24  C   UNL A   1      42.675  20.418  25.974  1.00  0.00     0.202 C 
BRANCH  24  25
ATOM     25  C   UNL A   1      43.587  21.485  25.358  1.00  0.00     0.261 C 
BRANCH  25  26
ATOM     26  O   UNL A   1      42.908  22.751  25.249  1.00  0.00    -0.460 OA
BRANCH  26  27
ATOM     27  C   UNL A   1      43.723  23.832  25.221  1.00  0.00     0.338 C 
ATOM     28  O   UNL A   1      44.469  24.175  24.320  1.00  0.00    -0.246 OA
BRANCH  27  29
ATOM     29  C   UNL A   1      43.472  24.678  26.405  1.00  0.00     0.060 A 
ATOM     30  C   UNL A   1      42.652  24.153  27.411  1.00  0.00     0.016 A 
ATOM     31  C   UNL A   1      43.972  25.979  26.504  1.00  0.00     0.016 A 
ATOM     32  C   UNL A   1      42.289  24.943  28.500  1.00  0.00     0.010 A 
ATOM     33  C   UNL A   1      43.601  26.773  27.596  1.00  0.00     0.010 A 
ATOM     34  C   UNL A   1      42.732  26.269  28.582  1.00  0.00    -0.014 A 
BRANCH  34  35
ATOM     35  C   UNL A   1      42.181  27.165  29.627  1.00  0.00     0.031 A 
ATOM     36  C   UNL A   1      42.872  27.251  30.960  1.00  0.00     0.074 A 
ATOM     37  C   UNL A   1      41.089  27.913  29.386  1.00  0.00     0.049 A 
ATOM     38  N   UNL A   1      42.546  27.948  32.018  1.00  0.00    -0.248 NA
ATOM     39  C   UNL A   1      44.092  26.443  31.122  1.00  0.00     0.031 C 
ATOM     40  C   UNL A   1      40.351  27.953  28.125  1.00  0.00     0.029 A 
ATOM     41  N   UNL A   1      40.411  28.785  30.202  1.00  0.00    -0.354 N 
ATOM     42  C   UNL A   1      43.515  27.661  32.972  1.00  0.00     0.074 A 
ATOM     43  C   UNL A   1      44.424  26.705  32.377  1.00  0.00     0.031 C 
ATOM     44  C   UNL A   1      39.317  28.803  28.253  1.00  0.00     0.029 A 
ATOM     45  C   UNL A   1      39.303  29.340  29.612  1.00  0.00     0.049 A 
ATOM     46  H   UNL A   1      40.693  28.991  31.123  1.00  0.00     0.167 HD
ATOM     47  C   UNL A   1      43.641  28.151  34.228  1.00  0.00     0.031 A 
ATOM     48  C   UNL A   1      38.373  30.173  30.118  1.00  0.00     0.031 A 
ATOM     49  C   UNL A   1      42.736  29.096  34.826  1.00  0.00     0.049 A 
ATOM     50  C   UNL A   1      38.495  30.645  31.541  1.00  0.00     0.074 A 
ATOM     51  C   UNL A   1      42.794  29.664  36.087  1.00  0.00     0.029 A 
ATOM     52  N   UNL A   1      41.606  29.605  34.208  1.00  0.00    -0.354 N 
ATOM     53  N   UNL A   1      39.431  30.387  32.422  1.00  0.00    -0.248 NA
ATOM     54  C   UNL A   1      37.431  31.532  32.037  1.00  0.00     0.031 C 
ATOM     55  C   UNL A   1      41.668  30.478  36.251  1.00  0.00     0.029 A 
ATOM     56  C   UNL A   1      40.941  30.460  35.071  1.00  0.00     0.049 A 
ATOM     57  H   UNL A   1      41.318  29.392  33.291  1.00  0.00     0.167 HD
ATOM     58  C   UNL A   1      39.086  31.101  33.563  1.00  0.00     0.074 A 
ATOM     59  C   UNL A   1      37.861  31.812  33.260  1.00  0.00     0.031 C 
ATOM     60  C   UNL A   1      39.726  31.163  34.756  1.00  0.00     0.031 A 
BRANCH  47  61
ATOM     61  C   UNL A   1      44.790  27.651  35.055  1.00  0.00    -0.014 A 
ATOM     62  C   UNL A   1      44.703  26.449  35.774  1.00  0.00     0.009 A 
ATOM     63  C   UNL A   1      45.995  28.372  35.080  1.00  0.00     0.009 A 
ATOM     64  C   UNL A   1      45.790  25.992  36.523  1.00  0.00     0.001 A 
ATOM     65  C   UNL A   1      47.088  27.901  35.810  1.00  0.00     0.001 A 
ATOM     66  C   UNL A   1      46.981  26.716  36.536  1.00  0.00     0.000 A 
ENDBRANCH  47  61
BRANCH  48  67
ATOM     67  C   UNL A   1      37.221  30.602  29.281  1.00  0.00    -0.014 A 
ATOM     68  C   UNL A   1      36.203  29.698  28.944  1.00  0.00     0.009 A 
ATOM     69  C   UNL A   1      37.153  31.916  28.789  1.00  0.00     0.009 A 
ATOM     70  C   UNL A   1      35.157  30.091  28.106  1.00  0.00     0.001 A 
ATOM     71  C   UNL A   1      36.090  32.314  27.976  1.00  0.00     0.001 A 
ATOM     72  C   UNL A   1      35.100  31.398  27.626  1.00  0.00     0.000 A 
ENDBRANCH  48  67
BRANCH  60  73
ATOM     73  C   UNL A   1      39.138  32.058  35.809  1.00  0.00    -0.014 A 
ATOM     74  C   UNL A   1      38.192  31.581  36.728  1.00  0.00     0.009 A 
ATOM     75  C   UNL A   1      39.572  33.391  35.908  1.00  0.00     0.009 A 
ATOM     76  C   UNL A   1      37.667  32.430  37.706  1.00  0.00     0.001 A 
ATOM     77  C   UNL A   1      39.066  34.229  36.903  1.00  0.00     0.001 A 
ATOM     78  C   UNL A   1      38.109  33.750  37.796  1.00  0.00     0.000 A 
ENDBRANCH  60  73
ENDBRANCH  34  35
ENDBRANCH  27  29
ENDBRANCH  26  27
ENDBRANCH  25  26
ENDBRANCH  24  25
ENDBRANCH  23  24
ENDBRANCH   1  23
TORSDOF 17
ENDMDL
MODEL 2
REMARK VINA RESULT:      -9.8      3.688      7.654
REMARK SMILES CCN1CCN([C@H](C)c2ccc(C(=O)OCCOCCOC(=O)c3ccc(-c4c5nc(c(-c6ccccc6)c6ccc([nH]6)c(-c6ccccc6)c6nc(c(-c7ccccc7)c7ccc4[nH]7)C=C6)C=C5)cc3)o2)C(=O)C1=O
REMARK SMILES IDX 17 1 16 2 15 3 13 4 14 5 12 6 9 7 10 8 72 9 11 10 7 11 8 12
REMARK SMILES IDX 6 13 3 14 4 15 75 16 5 17 73 18 76 19 74 20 2 21 1 22 18 23
REMARK SMILES IDX 19 24 20 25 21 26 22 27 23 28 24 29 25 30 71 31 26 32 70 33
REMARK SMILES IDX 27 34 28 35 29 36 64 37 30 38 69 39 63 40 65 41 31 42 68 43
REMARK SMILES IDX 62 44 61 45 32 47 54 48 39 49 53 50 40 51 43 52 52 53 66 54
REMARK SMILES IDX 41 55 42 56 51 58 67 59 44 60 33 61 34 62 38 63 35 64 37 65
REMARK SMILES IDX 36 66 55 67 56 68 60 69 57 70 59 71 58 72 45 73 46 74 50 75
REMARK SMILES IDX 47 76 49 77 48 78
REMARK H PARENT 65 46 43 57
REMARK Flexibility Score: inf
ROOT
ATOM      1  C   UNL A   1      35.763  21.765  24.636  1.00  0.00     0.202 C 
ENDROOT
BRANCH   1   2
ATOM      2  C   UNL A   1      34.331  21.255  24.819  1.00  0.00     0.261 C 
BRANCH   2   3
ATOM      3  O   UNL A   1      33.396  22.341  24.694  1.00  0.00    -0.457 OA
BRANCH   3   4
ATOM      4  C   UNL A   1      32.758  22.442  23.491  1.00  0.00     0.374 C 
ATOM      5  O   UNL A   1      32.407  21.490  22.806  1.00  0.00    -0.242 OA
BRANCH   4   6
ATOM      6  C   UNL A   1      32.460  23.831  23.224  1.00  0.00     0.211 A 
ATOM      7  C   UNL A   1      31.751  25.845  23.789  1.00  0.00     0.127 A 
ATOM      8  C   UNL A   1      32.291  25.963  22.525  1.00  0.00     0.049 A 
ATOM      9  O   UNL A   1      31.831  24.549  24.205  1.00  0.00    -0.452 OA
ATOM     10  C   UNL A   1      32.752  24.673  22.165  1.00  0.00     0.058 A 
BRANCH   7  11
ATOM     11  C   UNL A   1      31.119  26.835  24.733  1.00  0.00     0.149 C 
ATOM     12  C   UNL A   1      32.212  27.412  25.633  1.00  0.00     0.040 C 
BRANCH  11  13
ATOM     13  N   UNL A   1      30.261  27.783  23.987  1.00  0.00    -0.323 N 
ATOM     14  N   UNL A   1      28.898  29.532  22.134  1.00  0.00    -0.333 N 
ATOM     15  C   UNL A   1      30.346  29.424  22.145  1.00  0.00     0.141 C 
ATOM     16  C   UNL A   1      28.143  28.660  22.929  1.00  0.00     0.312 C 
ATOM     17  C   UNL A   1      30.847  29.041  23.535  1.00  0.00     0.142 C 
ATOM     18  C   UNL A   1      28.922  27.525  23.663  1.00  0.00     0.312 C 
ATOM     19  O   UNL A   1      26.929  28.750  23.065  1.00  0.00    -0.263 OA
ATOM     20  O   UNL A   1      28.335  26.473  23.881  1.00  0.00    -0.263 OA
BRANCH  14  21
ATOM     21  C   UNL A   1      28.213  30.597  21.404  1.00  0.00     0.116 C 
ATOM     22  C   UNL A   1      28.439  32.006  21.931  1.00  0.00     0.027 C 
ENDBRANCH  14  21
ENDBRANCH  11  13
ENDBRANCH   7  11
ENDBRANCH   4   6
ENDBRANCH   3   4
ENDBRANCH   2   3
ENDBRANCH   1   2
BRANCH   1  23
ATOM     23  O   UNL A   1      36.761  20.999  25.315  1.00  0.00    -0.374 OA
BRANCH  23  24
ATOM     24  C   UNL A   1      37.382  19.952  24.569  1.00  0.00     0.202 C 
BRANCH  24  25
ATOM     25  C   UNL A   1      38.640  19.356  25.210  1.00  0.00     0.261 C 
BRANCH  25  26
ATOM     26  O   UNL A   1      39.371  20.353  25.949  1.00  0.00    -0.460 OA
BRANCH  26  27
ATOM     27  C   UNL A   1      40.684  20.074  26.135  1.00  0.00     0.338 C 
ATOM     28  O   UNL A   1      41.272  19.049  25.837  1.00  0.00    -0.246 OA
BRANCH  27  29
ATOM     29  C   UNL A   1      41.387  21.278  26.619  1.00  0.00     0.060 A 
ATOM     30  C   UNL A   1      41.403  21.503  28.001  1.00  0.00     0.016 A 
ATOM     31  C   UNL A   1      41.963  22.201  25.743  1.00  0.00     0.016 A 
ATOM     32  C   UNL A   1      41.956  22.678  28.511  1.00  0.00     0.010 A 
ATOM     33  C   UNL A   1      42.512  23.383  26.257  1.00  0.00     0.010 A 
ATOM     34  C   UNL A   1      42.481  23.640  27.640  1.00  0.00    -0.014 A 
BRANCH  34  35
ATOM     35  C   UNL A   1      42.877  24.968  28.167  1.00  0.00     0.031 A 
ATOM     36  C   UNL A   1      41.823  26.019  28.381  1.00  0.00     0.074 A 
ATOM     37  C   UNL A   1      44.160  25.232  28.474  1.00  0.00     0.049 A 
ATOM     38  N   UNL A   1      41.953  27.249  28.807  1.00  0.00    -0.248 NA
ATOM     39  C   UNL A   1      40.436  25.631  28.074  1.00  0.00     0.031 C 
ATOM     40  C   UNL A   1      45.272  24.289  28.352  1.00  0.00     0.029 A 
ATOM     41  N   UNL A   1      44.742  26.379  28.953  1.00  0.00    -0.354 N 
ATOM     42  C   UNL A   1      40.670  27.783  28.814  1.00  0.00     0.074 A 
ATOM     43  C   UNL A   1      39.780  26.754  28.324  1.00  0.00     0.031 C 
ATOM     44  C   UNL A   1      46.404  24.900  28.741  1.00  0.00     0.029 A 
ATOM     45  C   UNL A   1      46.103  26.282  29.109  1.00  0.00     0.049 A 
ATOM     46  H   UNL A   1      44.232  27.195  29.164  1.00  0.00     0.167 HD
ATOM     47  C   UNL A   1      40.267  29.018  29.199  1.00  0.00     0.031 A 
ATOM     48  C   UNL A   1      47.005  27.209  29.486  1.00  0.00     0.031 A 
ATOM     49  C   UNL A   1      41.150  30.047  29.680  1.00  0.00     0.049 A 
ATOM     50  C   UNL A   1      46.540  28.596  29.837  1.00  0.00     0.074 A 
ATOM     51  C   UNL A   1      40.830  31.323  30.111  1.00  0.00     0.029 A 
ATOM     52  N   UNL A   1      42.525  29.920  29.787  1.00  0.00    -0.354 N 
ATOM     53  N   UNL A   1      45.321  29.079  29.865  1.00  0.00    -0.248 NA
ATOM     54  C   UNL A   1      47.580  29.566  30.215  1.00  0.00     0.031 C 
ATOM     55  C   UNL A   1      42.019  31.987  30.430  1.00  0.00     0.029 A 
ATOM     56  C   UNL A   1      43.073  31.105  30.251  1.00  0.00     0.049 A 
ATOM     57  H   UNL A   1      43.037  29.109  29.568  1.00  0.00     0.167 HD
ATOM     58  C   UNL A   1      45.444  30.396  30.292  1.00  0.00     0.074 A 
ATOM     59  C   UNL A   1      46.855  30.633  30.522  1.00  0.00     0.031 C 
ATOM     60  C   UNL A   1      44.477  31.326  30.478  1.00  0.00     0.031 A 
BRANCH  47  61
ATOM     61  C   UNL A   1      38.804  29.335  29.088  1.00  0.00    -0.014 A 
ATOM     62  C   UNL A   1      38.246  29.791  27.884  1.00  0.00     0.009 A 
ATOM     63  C   UNL A   1      37.963  29.133  30.194  1.00  0.00     0.009 A 
ATOM     64  C   UNL A   1      36.879  30.064  27.797  1.00  0.00     0.001 A 
ATOM     65  C   UNL A   1      36.592  29.383  30.098  1.00  0.00     0.001 A 
ATOM     66  C   UNL A   1      36.054  29.854  28.902  1.00  0.00     0.000 A 
ENDBRANCH  47  61
BRANCH  48  67
ATOM     67  C   UNL A   1      48.451  26.868  29.531  1.00  0.00    -0.014 A 
ATOM     68  C   UNL A   1      49.268  27.055  28.405  1.00  0.00     0.009 A 
ATOM     69  C   UNL A   1      49.015  26.323  30.696  1.00  0.00     0.009 A 
ATOM     70  C   UNL A   1      50.611  26.675  28.436  1.00  0.00     0.001 A 
ATOM     71  C   UNL A   1      50.365  25.971  30.732  1.00  0.00     0.001 A 
ATOM     72  C   UNL A   1      51.159  26.137  29.599  1.00  0.00     0.000 A 
ENDBRANCH  48  67
BRANCH  60  73
ATOM     73  C   UNL A   1      44.902  32.672  30.990  1.00  0.00    -0.014 A 
ATOM     74  C   UNL A   1      45.220  33.720  30.114  1.00  0.00     0.009 A 
ATOM     75  C   UNL A   1      44.943  32.907  32.375  1.00  0.00     0.009 A 
ATOM     76  C   UNL A   1      45.603  34.967  30.614  1.00  0.00     0.001 A 
ATOM     77  C   UNL A   1      45.299  34.162  32.871  1.00  0.00     0.001 A 
ATOM     78  C   UNL A   1      45.637  35.188  31.990  1.00  0.00     0.000 A 
ENDBRANCH  60  73
ENDBRANCH  34  35
ENDBRANCH  27  29
ENDBRANCH  26  27
ENDBRANCH  25  26
ENDBRANCH  24  25
ENDBRANCH  23  24
ENDBRANCH   1  23
TORSDOF 17
ENDMDL
MODEL 3
REMARK VINA RESULT:      -9.8      3.878      5.098
REMARK SMILES CCN1CCN([C@H](C)c2ccc(C(=O)OCCOCCOC(=O)c3ccc(-c4c5nc(c(-c6ccccc6)c6ccc([nH]6)c(-c6ccccc6)c6nc(c(-c7ccccc7)c7ccc4[nH]7)C=C6)C=C5)cc3)o2)C(=O)C1=O
REMARK SMILES IDX 17 1 16 2 15 3 13 4 14 5 12 6 9 7 10 8 72 9 11 10 7 11 8 12
REMARK SMILES IDX 6 13 3 14 4 15 75 16 5 17 73 18 76 19 74 20 2 21 1 22 18 23
REMARK SMILES IDX 19 24 20 25 21 26 22 27 23 28 24 29 25 30 71 31 26 32 70 33
REMARK SMILES IDX 27 34 28 35 29 36 64 37 30 38 69 39 63 40 65 41 31 42 68 43
REMARK SMILES IDX 62 44 61 45 32 47 54 48 39 49 53 50 40 51 43 52 52 53 66 54
REMARK SMILES IDX 41 55 42 56 51 58 67 59 44 60 33 61 34 62 38 63 35 64 37 65
REMARK SMILES IDX 36 66 55 67 56 68 60 69 57 70 59 71 58 72 45 73 46 74 50 75
REMARK SMILES IDX 47 76 49 77 48 78
REMARK H PARENT 65 46 43 57
REMARK Flexibility Score: inf
ROOT
ATOM      1  C   UNL A   1      42.122  19.150  27.198  1.00  0.00     0.202 C 
ENDROOT
BRANCH   1   2
ATOM      2  C   UNL A   1      41.752  20.422  26.430  1.00  0.00     0.261 C 
BRANCH   2   3
ATOM      3  O   UNL A   1      40.440  20.870  26.813  1.00  0.00    -0.457 OA
BRANCH   3   4
ATOM      4  C   UNL A   1      40.328  22.198  27.113  1.00  0.00     0.374 C 
ATOM      5  O   UNL A   1      41.162  22.845  27.731  1.00  0.00    -0.242 OA
BRANCH   4   6
ATOM      6  C   UNL A   1      39.140  22.730  26.485  1.00  0.00     0.211 A 
ATOM      7  C   UNL A   1      37.247  22.549  25.361  1.00  0.00     0.127 A 
ATOM      8  C   UNL A   1      37.325  23.861  25.782  1.00  0.00     0.049 A 
ATOM      9  O   UNL A   1      38.356  21.868  25.766  1.00  0.00    -0.452 OA
ATOM     10  C   UNL A   1      38.536  23.976  26.508  1.00  0.00     0.058 A 
BRANCH   7  11
ATOM     11  C   UNL A   1      36.216  21.782  24.573  1.00  0.00     0.149 C 
ATOM     12  C   UNL A   1      36.312  20.305  24.959  1.00  0.00     0.040 C 
BRANCH  11  13
ATOM     13  N   UNL A   1      34.895  22.441  24.674  1.00  0.00    -0.323 N 
ATOM     14  N   UNL A   1      32.537  24.016  25.234  1.00  0.00    -0.333 N 
ATOM     15  C   UNL A   1      33.423  23.577  26.298  1.00  0.00     0.141 C 
ATOM     16  C   UNL A   1      32.914  23.803  23.902  1.00  0.00     0.312 C 
ATOM     17  C   UNL A   1      34.132  22.283  25.909  1.00  0.00     0.142 C 
ATOM     18  C   UNL A   1      34.348  23.236  23.658  1.00  0.00     0.312 C 
ATOM     19  O   UNL A   1      32.184  24.041  22.947  1.00  0.00    -0.263 OA
ATOM     20  O   UNL A   1      34.918  23.543  22.620  1.00  0.00    -0.263 OA
BRANCH  14  21
ATOM     21  C   UNL A   1      31.215  24.570  25.515  1.00  0.00     0.116 C 
ATOM     22  C   UNL A   1      31.201  25.982  26.084  1.00  0.00     0.027 C 
ENDBRANCH  14  21
ENDBRANCH  11  13
ENDBRANCH   7  11
ENDBRANCH   4   6
ENDBRANCH   3   4
ENDBRANCH   2   3
ENDBRANCH   1   2
BRANCH   1  23
ATOM     23  O   UNL A   1      43.193  18.397  26.625  1.00  0.00    -0.374 OA
BRANCH  23  24
ATOM     24  C   UNL A   1      43.548  18.712  25.278  1.00  0.00     0.202 C 
BRANCH  24  25
ATOM     25  C   UNL A   1      45.017  19.092  25.065  1.00  0.00     0.261 C 
BRANCH  25  26
ATOM     26  O   UNL A   1      45.267  20.453  25.466  1.00  0.00    -0.460 OA
BRANCH  26  27
ATOM     27  C   UNL A   1      44.821  21.392  24.598  1.00  0.00     0.338 C 
ATOM     28  O   UNL A   1      44.583  21.251  23.411  1.00  0.00    -0.246 OA
BRANCH  27  29
ATOM     29  C   UNL A   1      44.487  22.631  25.330  1.00  0.00     0.060 A 
ATOM     30  C   UNL A   1      44.106  23.745  24.572  1.00  0.00     0.016 A 
ATOM     31  C   UNL A   1      44.604  22.724  26.719  1.00  0.00     0.016 A 
ATOM     32  C   UNL A   1      43.885  24.971  25.196  1.00  0.00     0.010 A 
ATOM     33  C   UNL A   1      44.388  23.959  27.342  1.00  0.00     0.010 A 
ATOM     34  C   UNL A   1      44.059  25.095  26.579  1.00  0.00    -0.014 A 
BRANCH  34  35
ATOM     35  C   UNL A   1      44.025  26.438  27.207  1.00  0.00     0.031 A 
ATOM     36  C   UNL A   1      45.316  27.174  27.438  1.00  0.00     0.074 A 
ATOM     37  C   UNL A   1      42.856  27.009  27.547  1.00  0.00     0.049 A 
ATOM     38  N   UNL A   1      45.516  28.343  27.992  1.00  0.00    -0.248 NA
ATOM     39  C   UNL A   1      46.546  26.503  26.986  1.00  0.00     0.031 C 
ATOM     40  C   UNL A   1      41.533  26.421  27.339  1.00  0.00     0.029 A 
ATOM     41  N   UNL A   1      42.597  28.218  28.144  1.00  0.00    -0.354 N 
ATOM     42  C   UNL A   1      46.890  28.545  27.960  1.00  0.00     0.074 A 
ATOM     43  C   UNL A   1      47.478  27.368  27.358  1.00  0.00     0.031 C 
ATOM     44  C   UNL A   1      40.601  27.269  27.807  1.00  0.00     0.029 A 
ATOM     45  C   UNL A   1      41.262  28.443  28.374  1.00  0.00     0.049 A 
ATOM     46  H   UNL A   1      43.302  28.863  28.383  1.00  0.00     0.167 HD
ATOM     47  C   UNL A   1      47.600  29.616  28.387  1.00  0.00     0.031 A 
ATOM     48  C   UNL A   1      40.646  29.470  28.990  1.00  0.00     0.031 A 
ATOM     49  C   UNL A   1      47.021  30.785  28.993  1.00  0.00     0.049 A 
ATOM     50  C   UNL A   1      41.465  30.614  29.524  1.00  0.00     0.074 A 
ATOM     51  C   UNL A   1      47.660  31.929  29.441  1.00  0.00     0.029 A 
ATOM     52  N   UNL A   1      45.670  30.957  29.242  1.00  0.00    -0.354 N 
ATOM     53  N   UNL A   1      42.760  30.805  29.461  1.00  0.00    -0.248 NA
ATOM     54  C   UNL A   1      40.731  31.690  30.208  1.00  0.00     0.031 C 
ATOM     55  C   UNL A   1      46.699  32.772  30.009  1.00  0.00     0.029 A 
ATOM     56  C   UNL A   1      45.456  32.177  29.863  1.00  0.00     0.049 A 
ATOM     57  H   UNL A   1      44.965  30.310  29.011  1.00  0.00     0.167 HD
ATOM     58  C   UNL A   1      42.993  32.033  30.070  1.00  0.00     0.074 A 
ATOM     59  C   UNL A   1      41.704  32.548  30.484  1.00  0.00     0.031 C 
ATOM     60  C   UNL A   1      44.168  32.677  30.267  1.00  0.00     0.031 A 
BRANCH  47  61
ATOM     61  C   UNL A   1      49.093  29.561  28.240  1.00  0.00    -0.014 A 
ATOM     62  C   UNL A   1      49.734  30.076  27.103  1.00  0.00     0.009 A 
ATOM     63  C   UNL A   1      49.874  29.024  29.276  1.00  0.00     0.009 A 
ATOM     64  C   UNL A   1      51.126  30.030  26.994  1.00  0.00     0.001 A 
ATOM     65  C   UNL A   1      51.267  29.002  29.176  1.00  0.00     0.001 A 
ATOM     66  C   UNL A   1      51.890  29.499  28.032  1.00  0.00     0.000 A 
ENDBRANCH  47  61
BRANCH  48  67
ATOM     67  C   UNL A   1      39.170  29.460  29.162  1.00  0.00    -0.014 A 
ATOM     68  C   UNL A   1      38.326  29.941  28.149  1.00  0.00     0.009 A 
ATOM     69  C   UNL A   1      38.598  28.996  30.358  1.00  0.00     0.009 A 
ATOM     70  C   UNL A   1      36.944  29.986  28.342  1.00  0.00     0.001 A 
ATOM     71  C   UNL A   1      37.213  29.016  30.536  1.00  0.00     0.001 A 
ATOM     72  C   UNL A   1      36.389  29.521  29.533  1.00  0.00     0.000 A 
ENDBRANCH  48  67
BRANCH  60  73
ATOM     73  C   UNL A   1      44.114  34.027  30.925  1.00  0.00    -0.014 A 
ATOM     74  C   UNL A   1      44.257  34.169  32.313  1.00  0.00     0.009 A 
ATOM     75  C   UNL A   1      43.960  35.179  30.135  1.00  0.00     0.009 A 
ATOM     76  C   UNL A   1      44.213  35.435  32.902  1.00  0.00     0.001 A 
ATOM     77  C   UNL A   1      43.945  36.444  30.723  1.00  0.00     0.001 A 
ATOM     78  C   UNL A   1      44.063  36.570  32.106  1.00  0.00     0.000 A 
ENDBRANCH  60  73
ENDBRANCH  34  35
ENDBRANCH  27  29
ENDBRANCH  26  27
ENDBRANCH  25  26
ENDBRANCH  24  25
ENDBRANCH  23  24
ENDBRANCH   1  23
TORSDOF 17
ENDMDL
