MODEL 1
REMARK VINA RESULT:     -10.1      0.000      0.000
REMARK SMILES CC[C@H](CNC(=O)[C@H]1CSc2ccccc21)C(=O)OCCOCCOC(=O)c1ccc(-c2c3nc(c(-c4ccccc4)c4ccc([nH]4)c(-c4ccccc4)c4nc(c(-c5ccccc5)c5ccc2[nH]5)C=C4)C=C3)cc1
REMARK SMILES IDX 21 1 20 2 19 3 17 4 18 5 3 6 2 7 1 8 4 9 5 10 6 11 7 13 8 14
REMARK SMILES IDX 9 15 16 16 10 17 11 18 15 19 12 20 14 21 13 22 22 23 23 24
REMARK SMILES IDX 24 25 25 26 26 27 27 28 28 29 29 30 75 31 30 32 74 33 31 34
REMARK SMILES IDX 32 35 33 36 68 37 34 38 73 39 67 40 69 41 35 42 72 43 66 44
REMARK SMILES IDX 65 45 36 47 58 48 43 49 57 50 44 51 47 52 56 53 70 54 45 55
REMARK SMILES IDX 46 56 55 58 71 59 48 60 37 61 38 62 42 63 39 64 41 65 40 66
REMARK SMILES IDX 59 67 60 68 64 69 61 70 63 71 62 72 49 73 50 74 54 75 51 76
REMARK SMILES IDX 53 77 52 78
REMARK H PARENT 5 12 69 46 47 57
REMARK Flexibility Score: inf
ROOT
ATOM      1  C   UNL A   1      36.655  22.886  24.397  1.00  0.00     0.202 C 
ENDROOT
BRANCH   1   2
ATOM      2  C   UNL A   1      35.396  23.678  24.039  1.00  0.00     0.261 C 
BRANCH   2   3
ATOM      3  O   UNL A   1      34.788  23.260  22.798  1.00  0.00    -0.463 OA
BRANCH   3   4
ATOM      4  C   UNL A   1      33.555  23.782  22.552  1.00  0.00     0.310 C 
ATOM      5  O   UNL A   1      33.332  24.711  21.784  1.00  0.00    -0.252 OA
BRANCH   4   6
ATOM      6  C   UNL A   1      32.447  23.147  23.377  1.00  0.00     0.118 C 
BRANCH   6   7
ATOM      7  C   UNL A   1      32.415  21.663  22.976  1.00  0.00     0.014 C 
ATOM      8  C   UNL A   1      32.623  20.700  24.130  1.00  0.00     0.005 C 
ENDBRANCH   6   7
BRANCH   6   9
ATOM      9  C   UNL A   1      31.092  23.872  23.288  1.00  0.00     0.131 C 
BRANCH   9  10
ATOM     10  N   UNL A   1      30.550  24.209  24.612  1.00  0.00    -0.355 N 
ATOM     11  C   UNL A   1      30.353  25.417  25.233  1.00  0.00     0.228 C 
ATOM     12  H   UNL A   1      30.279  23.430  25.150  1.00  0.00     0.163 HD
ATOM     13  O   UNL A   1      29.772  25.415  26.319  1.00  0.00    -0.274 OA
BRANCH  11  14
ATOM     14  C   UNL A   1      30.879  26.690  24.599  1.00  0.00     0.120 C 
ATOM     15  C   UNL A   1      29.813  27.419  23.766  1.00  0.00     0.093 C 
ATOM     16  C   UNL A   1      31.387  27.726  25.585  1.00  0.00    -0.021 A 
ATOM     17  S   UNL A   1      30.449  29.116  23.544  1.00  0.00    -0.125 SA
ATOM     18  C   UNL A   1      31.343  29.033  25.070  1.00  0.00     0.011 A 
ATOM     19  C   UNL A   1      32.046  27.479  26.787  1.00  0.00     0.006 A 
ATOM     20  C   UNL A   1      32.023  30.074  25.685  1.00  0.00     0.015 A 
ATOM     21  C   UNL A   1      32.710  28.531  27.426  1.00  0.00     0.000 A 
ATOM     22  C   UNL A   1      32.724  29.813  26.862  1.00  0.00     0.001 A 
ENDBRANCH  11  14
ENDBRANCH   9  10
ENDBRANCH   6   9
ENDBRANCH   4   6
ENDBRANCH   3   4
ENDBRANCH   2   3
ENDBRANCH   1   2
BRANCH   1  23
ATOM     23  O   UNL A   1      36.654  21.494  24.102  1.00  0.00    -0.374 OA
BRANCH  23  24
ATOM     24  C   UNL A   1      37.316  20.622  25.010  1.00  0.00     0.202 C 
BRANCH  24  25
ATOM     25  C   UNL A   1      38.742  20.997  25.410  1.00  0.00     0.261 C 
BRANCH  25  26
ATOM     26  O   UNL A   1      39.325  20.083  26.338  1.00  0.00    -0.460 OA
BRANCH  26  27
ATOM     27  C   UNL A   1      40.662  19.948  26.202  1.00  0.00     0.338 C 
ATOM     28  O   UNL A   1      41.283  19.062  25.636  1.00  0.00    -0.246 OA
BRANCH  27  29
ATOM     29  C   UNL A   1      41.280  21.190  26.665  1.00  0.00     0.060 A 
ATOM     30  C   UNL A   1      41.951  22.040  25.783  1.00  0.00     0.016 A 
ATOM     31  C   UNL A   1      41.163  21.491  28.025  1.00  0.00     0.016 A 
ATOM     32  C   UNL A   1      42.487  23.227  26.275  1.00  0.00     0.010 A 
ATOM     33  C   UNL A   1      41.695  22.675  28.511  1.00  0.00     0.010 A 
ATOM     34  C   UNL A   1      42.337  23.559  27.634  1.00  0.00    -0.014 A 
BRANCH  34  35
ATOM     35  C   UNL A   1      42.712  24.900  28.126  1.00  0.00     0.031 A 
ATOM     36  C   UNL A   1      44.123  25.223  28.496  1.00  0.00     0.074 A 
ATOM     37  C   UNL A   1      41.725  25.799  28.300  1.00  0.00     0.049 A 
ATOM     38  N   UNL A   1      44.612  26.351  28.941  1.00  0.00    -0.248 NA
ATOM     39  C   UNL A   1      45.114  24.144  28.360  1.00  0.00     0.031 C 
ATOM     40  C   UNL A   1      40.311  25.555  28.004  1.00  0.00     0.029 A 
ATOM     41  N   UNL A   1      41.753  27.087  28.764  1.00  0.00    -0.354 N 
ATOM     42  C   UNL A   1      45.967  26.125  29.128  1.00  0.00     0.074 A 
ATOM     43  C   UNL A   1      46.217  24.738  28.796  1.00  0.00     0.031 C 
ATOM     44  C   UNL A   1      39.613  26.670  28.258  1.00  0.00     0.029 A 
ATOM     45  C   UNL A   1      40.518  27.688  28.779  1.00  0.00     0.049 A 
ATOM     46  H   UNL A   1      42.577  27.538  29.057  1.00  0.00     0.167 HD
ATOM     47  C   UNL A   1      46.912  27.009  29.527  1.00  0.00     0.031 A 
ATOM     48  C   UNL A   1      40.153  28.923  29.171  1.00  0.00     0.031 A 
ATOM     49  C   UNL A   1      46.631  28.377  29.878  1.00  0.00     0.049 A 
ATOM     50  C   UNL A   1      41.215  29.869  29.651  1.00  0.00     0.074 A 
ATOM     51  C   UNL A   1      47.522  29.364  30.258  1.00  0.00     0.029 A 
ATOM     52  N   UNL A   1      45.365  28.946  29.907  1.00  0.00    -0.354 N 
ATOM     53  N   UNL A   1      42.509  29.671  29.745  1.00  0.00    -0.248 NA
ATOM     54  C   UNL A   1      40.779  31.209  30.063  1.00  0.00     0.031 C 
ATOM     55  C   UNL A   1      46.790  30.503  30.596  1.00  0.00     0.029 A 
ATOM     56  C   UNL A   1      45.450  30.260  30.337  1.00  0.00     0.049 A 
ATOM     57  H   UNL A   1      44.531  28.486  29.660  1.00  0.00     0.167 HD
ATOM     58  C   UNL A   1      43.044  30.867  30.205  1.00  0.00     0.074 A 
ATOM     59  C   UNL A   1      41.937  31.790  30.351  1.00  0.00     0.031 C 
ATOM     60  C   UNL A   1      44.337  31.168  30.481  1.00  0.00     0.031 A 
BRANCH  47  61
ATOM     61  C   UNL A   1      48.340  26.539  29.604  1.00  0.00    -0.014 A 
ATOM     62  C   UNL A   1      48.847  26.022  30.807  1.00  0.00     0.009 A 
ATOM     63  C   UNL A   1      49.218  26.709  28.520  1.00  0.00     0.009 A 
ATOM     64  C   UNL A   1      50.202  25.707  30.933  1.00  0.00     0.001 A 
ATOM     65  C   UNL A   1      50.566  26.360  28.637  1.00  0.00     0.001 A 
ATOM     66  C   UNL A   1      51.058  25.873  29.847  1.00  0.00     0.000 A 
ENDBRANCH  47  61
BRANCH  48  67
ATOM     67  C   UNL A   1      38.725  29.323  29.064  1.00  0.00    -0.014 A 
ATOM     68  C   UNL A   1      37.858  29.194  30.162  1.00  0.00     0.009 A 
ATOM     69  C   UNL A   1      38.197  29.746  27.835  1.00  0.00     0.009 A 
ATOM     70  C   UNL A   1      36.491  29.441  30.023  1.00  0.00     0.001 A 
ATOM     71  C   UNL A   1      36.834  30.027  27.708  1.00  0.00     0.001 A 
ATOM     72  C   UNL A   1      35.981  29.861  28.797  1.00  0.00     0.000 A 
ENDBRANCH  48  67
BRANCH  60  73
ATOM     73  C   UNL A   1      44.650  32.559  30.965  1.00  0.00    -0.014 A 
ATOM     74  C   UNL A   1      44.997  33.556  30.038  1.00  0.00     0.009 A 
ATOM     75  C   UNL A   1      44.728  32.850  32.335  1.00  0.00     0.009 A 
ATOM     76  C   UNL A   1      45.447  34.804  30.472  1.00  0.00     0.001 A 
ATOM     77  C   UNL A   1      45.142  34.112  32.767  1.00  0.00     0.001 A 
ATOM     78  C   UNL A   1      45.515  35.082  31.836  1.00  0.00     0.000 A 
ENDBRANCH  60  73
ENDBRANCH  34  35
ENDBRANCH  27  29
ENDBRANCH  26  27
ENDBRANCH  25  26
ENDBRANCH  24  25
ENDBRANCH  23  24
ENDBRANCH   1  23
TORSDOF 18
ENDMDL
MODEL 2
REMARK VINA RESULT:     -10.1      3.450      8.650
REMARK SMILES CC[C@H](CNC(=O)[C@H]1CSc2ccccc21)C(=O)OCCOCCOC(=O)c1ccc(-c2c3nc(c(-c4ccccc4)c4ccc([nH]4)c(-c4ccccc4)c4nc(c(-c5ccccc5)c5ccc2[nH]5)C=C4)C=C3)cc1
REMARK SMILES IDX 21 1 20 2 19 3 17 4 18 5 3 6 2 7 1 8 4 9 5 10 6 11 7 13 8 14
REMARK SMILES IDX 9 15 16 16 10 17 11 18 15 19 12 20 14 21 13 22 22 23 23 24
REMARK SMILES IDX 24 25 25 26 26 27 27 28 28 29 29 30 75 31 30 32 74 33 31 34
REMARK SMILES IDX 32 35 33 36 68 37 34 38 73 39 67 40 69 41 35 42 72 43 66 44
REMARK SMILES IDX 65 45 36 47 58 48 43 49 57 50 44 51 47 52 56 53 70 54 45 55
REMARK SMILES IDX 46 56 55 58 71 59 48 60 37 61 38 62 42 63 39 64 41 65 40 66
REMARK SMILES IDX 59 67 60 68 64 69 61 70 63 71 62 72 49 73 50 74 54 75 51 76
REMARK SMILES IDX 53 77 52 78
REMARK H PARENT 5 12 69 46 47 57
REMARK Flexibility Score: inf
ROOT
ATOM      1  C   UNL A   1      32.130  29.761  25.942  1.00  0.00     0.202 C 
ENDROOT
BRANCH   1   2
ATOM      2  C   UNL A   1      31.371  29.674  24.616  1.00  0.00     0.261 C 
BRANCH   2   3
ATOM      3  O   UNL A   1      32.071  28.918  23.603  1.00  0.00    -0.463 OA
BRANCH   3   4
ATOM      4  C   UNL A   1      31.504  27.724  23.279  1.00  0.00     0.310 C 
ATOM      5  O   UNL A   1      30.704  27.556  22.365  1.00  0.00    -0.252 OA
BRANCH   4   6
ATOM      6  C   UNL A   1      31.906  26.586  24.204  1.00  0.00     0.118 C 
BRANCH   6   7
ATOM      7  C   UNL A   1      33.427  26.707  24.393  1.00  0.00     0.014 C 
ATOM      8  C   UNL A   1      33.987  25.849  25.512  1.00  0.00     0.005 C 
ENDBRANCH   6   7
BRANCH   6   9
ATOM      9  C   UNL A   1      31.417  25.198  23.755  1.00  0.00     0.131 C 
BRANCH   9  10
ATOM     10  N   UNL A   1      32.176  24.682  22.606  1.00  0.00    -0.355 N 
ATOM     11  C   UNL A   1      32.943  23.554  22.456  1.00  0.00     0.228 C 
ATOM     12  H   UNL A   1      32.125  25.246  21.801  1.00  0.00     0.163 HD
ATOM     13  O   UNL A   1      33.385  23.307  21.333  1.00  0.00    -0.274 OA
BRANCH  11  14
ATOM     14  C   UNL A   1      33.251  22.682  23.657  1.00  0.00     0.120 C 
ATOM     15  C   UNL A   1      32.652  21.273  23.534  1.00  0.00     0.093 C 
ATOM     16  C   UNL A   1      34.731  22.462  23.916  1.00  0.00    -0.021 A 
ATOM     17  S   UNL A   1      33.546  20.258  24.761  1.00  0.00    -0.125 SA
ATOM     18  C   UNL A   1      34.987  21.278  24.628  1.00  0.00     0.011 A 
ATOM     19  C   UNL A   1      35.759  23.379  23.710  1.00  0.00     0.006 A 
ATOM     20  C   UNL A   1      36.221  21.040  25.215  1.00  0.00     0.015 A 
ATOM     21  C   UNL A   1      37.013  23.132  24.276  1.00  0.00     0.000 A 
ATOM     22  C   UNL A   1      37.234  21.985  25.048  1.00  0.00     0.001 A 
ENDBRANCH  11  14
ENDBRANCH   9  10
ENDBRANCH   6   9
ENDBRANCH   4   6
ENDBRANCH   3   4
ENDBRANCH   2   3
ENDBRANCH   1   2
BRANCH   1  23
ATOM     23  O   UNL A   1      31.699  30.744  26.875  1.00  0.00    -0.374 OA
BRANCH  23  24
ATOM     24  C   UNL A   1      31.111  31.934  26.362  1.00  0.00     0.202 C 
BRANCH  24  25
ATOM     25  C   UNL A   1      31.683  33.258  26.865  1.00  0.00     0.261 C 
BRANCH  25  26
ATOM     26  O   UNL A   1      33.036  33.155  27.308  1.00  0.00    -0.460 OA
BRANCH  26  27
ATOM     27  C   UNL A   1      33.359  34.039  28.277  1.00  0.00     0.338 C 
ATOM     28  O   UNL A   1      32.695  34.967  28.712  1.00  0.00    -0.246 OA
BRANCH  27  29
ATOM     29  C   UNL A   1      34.590  33.568  28.910  1.00  0.00     0.060 A 
ATOM     30  C   UNL A   1      34.560  32.803  30.078  1.00  0.00     0.016 A 
ATOM     31  C   UNL A   1      35.796  33.913  28.292  1.00  0.00     0.016 A 
ATOM     32  C   UNL A   1      35.763  32.352  30.615  1.00  0.00     0.010 A 
ATOM     33  C   UNL A   1      36.993  33.460  28.827  1.00  0.00     0.010 A 
ATOM     34  C   UNL A   1      36.979  32.657  29.976  1.00  0.00    -0.014 A 
BRANCH  34  35
ATOM     35  C   UNL A   1      38.237  32.017  30.409  1.00  0.00     0.031 A 
ATOM     36  C   UNL A   1      38.679  30.710  29.835  1.00  0.00     0.074 A 
ATOM     37  C   UNL A   1      38.935  32.616  31.392  1.00  0.00     0.049 A 
ATOM     38  N   UNL A   1      39.756  30.022  30.109  1.00  0.00    -0.248 NA
ATOM     39  C   UNL A   1      37.800  30.088  28.833  1.00  0.00     0.031 C 
ATOM     40  C   UNL A   1      38.555  33.874  32.040  1.00  0.00     0.029 A 
ATOM     41  N   UNL A   1      40.098  32.255  32.018  1.00  0.00    -0.354 N 
ATOM     42  C   UNL A   1      39.693  28.891  29.308  1.00  0.00     0.074 A 
ATOM     43  C   UNL A   1      38.448  28.960  28.573  1.00  0.00     0.031 C 
ATOM     44  C   UNL A   1      39.488  34.198  32.946  1.00  0.00     0.029 A 
ATOM     45  C   UNL A   1      40.503  33.151  32.977  1.00  0.00     0.049 A 
ATOM     46  H   UNL A   1      40.596  31.433  31.801  1.00  0.00     0.167 HD
ATOM     47  C   UNL A   1      40.607  27.900  29.192  1.00  0.00     0.031 A 
ATOM     48  C   UNL A   1      41.574  33.132  33.793  1.00  0.00     0.031 A 
ATOM     49  C   UNL A   1      41.826  27.843  29.957  1.00  0.00     0.049 A 
ATOM     50  C   UNL A   1      42.549  31.997  33.675  1.00  0.00     0.074 A 
ATOM     51  C   UNL A   1      42.837  26.900  29.888  1.00  0.00     0.029 A 
ATOM     52  N   UNL A   1      42.193  28.754  30.938  1.00  0.00    -0.354 N 
ATOM     53  N   UNL A   1      42.522  30.974  32.854  1.00  0.00    -0.248 NA
ATOM     54  C   UNL A   1      43.707  32.016  34.577  1.00  0.00     0.031 C 
ATOM     55  C   UNL A   1      43.772  27.194  30.881  1.00  0.00     0.029 A 
ATOM     56  C   UNL A   1      43.397  28.372  31.508  1.00  0.00     0.049 A 
ATOM     57  H   UNL A   1      41.676  29.552  31.192  1.00  0.00     0.167 HD
ATOM     58  C   UNL A   1      43.669  30.239  33.124  1.00  0.00     0.074 A 
ATOM     59  C   UNL A   1      44.379  30.946  34.171  1.00  0.00     0.031 C 
ATOM     60  C   UNL A   1      44.092  29.084  32.554  1.00  0.00     0.031 A 
BRANCH  47  61
ATOM     61  C   UNL A   1      40.339  26.795  28.206  1.00  0.00    -0.014 A 
ATOM     62  C   UNL A   1      39.654  25.639  28.613  1.00  0.00     0.009 A 
ATOM     63  C   UNL A   1      40.861  26.845  26.902  1.00  0.00     0.009 A 
ATOM     64  C   UNL A   1      39.515  24.551  27.749  1.00  0.00     0.001 A 
ATOM     65  C   UNL A   1      40.690  25.769  26.027  1.00  0.00     0.001 A 
ATOM     66  C   UNL A   1      40.029  24.619  26.456  1.00  0.00     0.000 A 
ENDBRANCH  47  61
BRANCH  48  67
ATOM     67  C   UNL A   1      41.779  34.259  34.741  1.00  0.00    -0.014 A 
ATOM     68  C   UNL A   1      41.281  34.195  36.053  1.00  0.00     0.009 A 
ATOM     69  C   UNL A   1      42.392  35.445  34.310  1.00  0.00     0.009 A 
ATOM     70  C   UNL A   1      41.356  35.304  36.898  1.00  0.00     0.001 A 
ATOM     71  C   UNL A   1      42.497  36.542  35.170  1.00  0.00     0.001 A 
ATOM     72  C   UNL A   1      41.967  36.475  36.457  1.00  0.00     0.000 A 
ENDBRANCH  48  67
BRANCH  60  73
ATOM     73  C   UNL A   1      45.391  28.495  33.033  1.00  0.00    -0.014 A 
ATOM     74  C   UNL A   1      46.587  28.815  32.369  1.00  0.00     0.009 A 
ATOM     75  C   UNL A   1      45.419  27.529  34.050  1.00  0.00     0.009 A 
ATOM     76  C   UNL A   1      47.776  28.159  32.690  1.00  0.00     0.001 A 
ATOM     77  C   UNL A   1      46.617  26.901  34.396  1.00  0.00     0.001 A 
ATOM     78  C   UNL A   1      47.790  27.205  33.706  1.00  0.00     0.000 A 
ENDBRANCH  60  73
ENDBRANCH  34  35
ENDBRANCH  27  29
ENDBRANCH  26  27
ENDBRANCH  25  26
ENDBRANCH  24  25
ENDBRANCH  23  24
ENDBRANCH   1  23
TORSDOF 18
ENDMDL
MODEL 3
REMARK VINA RESULT:     -10.0      6.232     11.754
REMARK SMILES CC[C@H](CNC(=O)[C@H]1CSc2ccccc21)C(=O)OCCOCCOC(=O)c1ccc(-c2c3nc(c(-c4ccccc4)c4ccc([nH]4)c(-c4ccccc4)c4nc(c(-c5ccccc5)c5ccc2[nH]5)C=C4)C=C3)cc1
REMARK SMILES IDX 21 1 20 2 19 3 17 4 18 5 3 6 2 7 1 8 4 9 5 10 6 11 7 13 8 14
REMARK SMILES IDX 9 15 16 16 10 17 11 18 15 19 12 20 14 21 13 22 22 23 23 24
REMARK SMILES IDX 24 25 25 26 26 27 27 28 28 29 29 30 75 31 30 32 74 33 31 34
REMARK SMILES IDX 32 35 33 36 68 37 34 38 73 39 67 40 69 41 35 42 72 43 66 44
REMARK SMILES IDX 65 45 36 47 58 48 43 49 57 50 44 51 47 52 56 53 70 54 45 55
REMARK SMILES IDX 46 56 55 58 71 59 48 60 37 61 38 62 42 63 39 64 41 65 40 66
REMARK SMILES IDX 59 67 60 68 64 69 61 70 63 71 62 72 49 73 50 74 54 75 51 76
REMARK SMILES IDX 53 77 52 78
REMARK H PARENT 5 12 69 46 47 57
REMARK Flexibility Score: inf
ROOT
ATOM      1  C   UNL A   1      33.680  34.161  33.073  1.00  0.00     0.202 C 
ENDROOT
BRANCH   1   2
ATOM      2  C   UNL A   1      34.882  34.946  33.604  1.00  0.00     0.261 C 
BRANCH   2   3
ATOM      3  O   UNL A   1      36.143  34.274  33.396  1.00  0.00    -0.463 OA
BRANCH   3   4
ATOM      4  C   UNL A   1      36.596  33.553  34.458  1.00  0.00     0.310 C 
ATOM      5  O   UNL A   1      36.036  33.490  35.547  1.00  0.00    -0.252 OA
BRANCH   4   6
ATOM      6  C   UNL A   1      37.924  32.858  34.203  1.00  0.00     0.118 C 
BRANCH   6   7
ATOM      7  C   UNL A   1      37.666  31.357  34.414  1.00  0.00     0.014 C 
ATOM      8  C   UNL A   1      37.854  30.511  33.169  1.00  0.00     0.005 C 
ENDBRANCH   6   7
BRANCH   6   9
ATOM      9  C   UNL A   1      39.106  33.432  35.005  1.00  0.00     0.131 C 
BRANCH   9  10
ATOM     10  N   UNL A   1      39.107  32.977  36.404  1.00  0.00    -0.355 N 
ATOM     11  C   UNL A   1      40.123  32.546  37.218  1.00  0.00     0.228 C 
ATOM     12  H   UNL A   1      38.221  32.984  36.832  1.00  0.00     0.163 HD
ATOM     13  O   UNL A   1      39.855  32.324  38.400  1.00  0.00    -0.274 OA
BRANCH  11  14
ATOM     14  C   UNL A   1      41.509  32.321  36.647  1.00  0.00     0.120 C 
ATOM     15  C   UNL A   1      42.621  32.571  37.677  1.00  0.00     0.093 C 
ATOM     16  C   UNL A   1      41.760  30.916  36.127  1.00  0.00    -0.021 A 
ATOM     17  S   UNL A   1      44.107  31.763  36.991  1.00  0.00    -0.125 SA
ATOM     18  C   UNL A   1      43.122  30.574  36.126  1.00  0.00     0.011 A 
ATOM     19  C   UNL A   1      40.837  30.085  35.495  1.00  0.00     0.006 A 
ATOM     20  C   UNL A   1      43.588  29.469  35.428  1.00  0.00     0.015 A 
ATOM     21  C   UNL A   1      41.298  28.955  34.814  1.00  0.00     0.000 A 
ATOM     22  C   UNL A   1      42.667  28.665  34.755  1.00  0.00     0.001 A 
ENDBRANCH  11  14
ENDBRANCH   9  10
ENDBRANCH   6   9
ENDBRANCH   4   6
ENDBRANCH   3   4
ENDBRANCH   2   3
ENDBRANCH   1   2
BRANCH   1  23
ATOM     23  O   UNL A   1      32.604  34.911  32.523  1.00  0.00    -0.374 OA
BRANCH  23  24
ATOM     24  C   UNL A   1      32.913  36.142  31.879  1.00  0.00     0.202 C 
BRANCH  24  25
ATOM     25  C   UNL A   1      32.491  36.280  30.418  1.00  0.00     0.261 C 
BRANCH  25  26
ATOM     26  O   UNL A   1      33.523  35.924  29.498  1.00  0.00    -0.460 OA
BRANCH  26  27
ATOM     27  C   UNL A   1      33.368  34.696  28.958  1.00  0.00     0.338 C 
ATOM     28  O   UNL A   1      32.435  34.269  28.296  1.00  0.00    -0.246 OA
BRANCH  27  29
ATOM     29  C   UNL A   1      34.639  33.987  29.103  1.00  0.00     0.060 A 
ATOM     30  C   UNL A   1      35.709  34.231  28.242  1.00  0.00     0.016 A 
ATOM     31  C   UNL A   1      34.734  33.060  30.146  1.00  0.00     0.016 A 
ATOM     32  C   UNL A   1      36.907  33.552  28.452  1.00  0.00     0.010 A 
ATOM     33  C   UNL A   1      35.929  32.388  30.356  1.00  0.00     0.010 A 
ATOM     34  C   UNL A   1      37.027  32.650  29.525  1.00  0.00    -0.014 A 
BRANCH  34  35
ATOM     35  C   UNL A   1      38.342  32.084  29.888  1.00  0.00     0.031 A 
ATOM     36  C   UNL A   1      39.323  32.863  30.702  1.00  0.00     0.074 A 
ATOM     37  C   UNL A   1      38.655  30.870  29.398  1.00  0.00     0.049 A 
ATOM     38  N   UNL A   1      40.515  32.506  31.104  1.00  0.00    -0.248 NA
ATOM     39  C   UNL A   1      38.925  34.219  31.111  1.00  0.00     0.031 C 
ATOM     40  C   UNL A   1      37.772  30.054  28.559  1.00  0.00     0.029 A 
ATOM     41  N   UNL A   1      39.788  30.112  29.528  1.00  0.00    -0.354 N 
ATOM     42  C   UNL A   1      41.008  33.586  31.822  1.00  0.00     0.074 A 
ATOM     43  C   UNL A   1      40.006  34.630  31.760  1.00  0.00     0.031 C 
ATOM     44  C   UNL A   1      38.383  28.895  28.281  1.00  0.00     0.029 A 
ATOM     45  C   UNL A   1      39.714  28.904  28.879  1.00  0.00     0.049 A 
ATOM     46  H   UNL A   1      40.578  30.404  30.037  1.00  0.00     0.167 HD
ATOM     47  C   UNL A   1      42.184  33.679  32.484  1.00  0.00     0.031 A 
ATOM     48  C   UNL A   1      40.618  27.912  28.774  1.00  0.00     0.031 A 
ATOM     49  C   UNL A   1      43.175  32.633  32.506  1.00  0.00     0.049 A 
ATOM     50  C   UNL A   1      41.933  28.059  29.481  1.00  0.00     0.074 A 
ATOM     51  C   UNL A   1      44.385  32.613  33.177  1.00  0.00     0.029 A 
ATOM     52  N   UNL A   1      43.079  31.432  31.816  1.00  0.00    -0.354 N 
ATOM     53  N   UNL A   1      42.357  29.051  30.229  1.00  0.00    -0.248 NA
ATOM     54  C   UNL A   1      42.890  26.954  29.350  1.00  0.00     0.031 C 
ATOM     55  C   UNL A   1      45.054  31.440  32.829  1.00  0.00     0.029 A 
ATOM     56  C   UNL A   1      44.226  30.682  32.016  1.00  0.00     0.049 A 
ATOM     57  H   UNL A   1      42.311  31.155  31.267  1.00  0.00     0.167 HD
ATOM     58  C   UNL A   1      43.619  28.681  30.675  1.00  0.00     0.074 A 
ATOM     59  C   UNL A   1      43.882  27.364  30.130  1.00  0.00     0.031 C 
ATOM     60  C   UNL A   1      44.477  29.372  31.464  1.00  0.00     0.031 A 
BRANCH  47  61
ATOM     61  C   UNL A   1      42.476  34.944  33.245  1.00  0.00    -0.014 A 
ATOM     62  C   UNL A   1      41.952  35.125  34.536  1.00  0.00     0.009 A 
ATOM     63  C   UNL A   1      43.175  36.005  32.647  1.00  0.00     0.009 A 
ATOM     64  C   UNL A   1      42.101  36.344  35.201  1.00  0.00     0.001 A 
ATOM     65  C   UNL A   1      43.353  37.212  33.328  1.00  0.00     0.001 A 
ATOM     66  C   UNL A   1      42.805  37.384  34.598  1.00  0.00     0.000 A 
ENDBRANCH  47  61
BRANCH  48  67
ATOM     67  C   UNL A   1      40.262  26.687  28.010  1.00  0.00    -0.014 A 
ATOM     68  C   UNL A   1      39.532  25.649  28.615  1.00  0.00     0.009 A 
ATOM     69  C   UNL A   1      40.732  26.505  26.701  1.00  0.00     0.009 A 
ATOM     70  C   UNL A   1      39.315  24.445  27.942  1.00  0.00     0.001 A 
ATOM     71  C   UNL A   1      40.483  25.312  26.017  1.00  0.00     0.001 A 
ATOM     72  C   UNL A   1      39.788  24.279  26.643  1.00  0.00     0.000 A 
ENDBRANCH  48  67
BRANCH  60  73
ATOM     73  C   UNL A   1      45.794  28.729  31.806  1.00  0.00    -0.014 A 
ATOM     74  C   UNL A   1      45.894  27.914  32.947  1.00  0.00     0.009 A 
ATOM     75  C   UNL A   1      46.958  29.028  31.084  1.00  0.00     0.009 A 
ATOM     76  C   UNL A   1      47.134  27.439  33.375  1.00  0.00     0.001 A 
ATOM     77  C   UNL A   1      48.194  28.521  31.492  1.00  0.00     0.001 A 
ATOM     78  C   UNL A   1      48.283  27.740  32.644  1.00  0.00     0.000 A 
ENDBRANCH  60  73
ENDBRANCH  34  35
ENDBRANCH  27  29
ENDBRANCH  26  27
ENDBRANCH  25  26
ENDBRANCH  24  25
ENDBRANCH  23  24
ENDBRANCH   1  23
TORSDOF 18
ENDMDL
