MODEL 1
REMARK VINA RESULT:     -12.3      0.000      0.000
REMARK SMILES CC1=C(C)C[C@@H](C(=O)OCCOCCOC(=O)c2ccc(-c3c4nc(c(-c5ccccc5)c5ccc([nH]5)c(-c5ccccc5)c5nc(c(-c6ccccc6)c6ccc3[nH]6)C=C5)C=C4)cc2)[C@@H](C(=O)N2CCN(c3cccc(C(F)(F)F)c3)CC2)C1
REMARK SMILES IDX 11 1 10 2 9 3 7 4 8 5 6 6 1 7 2 8 3 9 85 10 4 11 5 12 66 13
REMARK SMILES IDX 67 14 68 15 69 16 70 17 84 18 71 19 83 20 72 21 73 22 74 23
REMARK SMILES IDX 82 24 75 25 77 26 76 27 78 28 79 29 80 30 81 31 12 32 13 33
REMARK SMILES IDX 14 34 15 35 16 36 17 37 18 38 19 39 65 40 20 41 64 42 21 43
REMARK SMILES IDX 22 44 23 45 58 46 24 47 63 48 57 49 59 50 25 51 62 52 56 53
REMARK SMILES IDX 55 54 26 56 48 57 33 58 47 59 34 60 37 61 46 62 60 63 35 64
REMARK SMILES IDX 36 65 45 67 61 68 38 69 27 70 28 71 32 72 29 73 31 74 30 75
REMARK SMILES IDX 49 76 50 77 54 78 51 79 53 80 52 81 39 82 40 83 44 84 41 85
REMARK SMILES IDX 43 86 42 87
REMARK H PARENT 59 55 37 66
REMARK Flexibility Score: inf
ROOT
ATOM      1  C   UNL A   1      34.011  28.553  27.042  1.00  0.00     0.202 C 
ENDROOT
BRANCH   1   2
ATOM      2  C   UNL A   1      33.506  27.910  25.742  1.00  0.00     0.261 C 
BRANCH   2   3
ATOM      3  O   UNL A   1      33.260  28.827  24.654  1.00  0.00    -0.463 OA
BRANCH   3   4
ATOM      4  C   UNL A   1      31.945  29.069  24.424  1.00  0.00     0.310 C 
ATOM      5  O   UNL A   1      31.255  29.829  25.100  1.00  0.00    -0.252 OA
BRANCH   4   6
ATOM      6  C   UNL A   1      31.319  28.233  23.322  1.00  0.00     0.116 C 
ATOM      7  C   UNL A   1      26.912  28.699  23.092  1.00  0.00     0.039 C 
ATOM      8  C   UNL A   1      28.418  28.589  23.025  1.00  0.00    -0.074 C 
ATOM      9  C   UNL A   1      29.229  29.414  22.337  1.00  0.00    -0.073 C 
ATOM     10  C   UNL A   1      28.955  27.427  23.831  1.00  0.00     0.045 C 
ATOM     11  C   UNL A   1      28.791  30.625  21.553  1.00  0.00     0.039 C 
ATOM     12  C   UNL A   1      30.715  29.175  22.269  1.00  0.00     0.046 C 
ATOM     13  C   UNL A   1      30.445  27.019  23.648  1.00  0.00     0.097 C 
BRANCH  13  14
ATOM     14  C   UNL A   1      30.764  25.965  24.752  1.00  0.00     0.227 C 
ATOM     15  O   UNL A   1      30.395  26.228  25.909  1.00  0.00    -0.275 OA
ATOM     16  N   UNL A   1      31.318  24.714  24.524  1.00  0.00    -0.339 N 
ATOM     17  C   UNL A   1      31.362  23.775  25.676  1.00  0.00     0.141 C 
ATOM     18  C   UNL A   1      32.263  24.359  23.454  1.00  0.00     0.141 C 
ATOM     19  C   UNL A   1      31.307  22.293  25.285  1.00  0.00     0.138 C 
ATOM     20  C   UNL A   1      32.295  22.867  23.092  1.00  0.00     0.138 C 
ATOM     21  N   UNL A   1      32.350  22.041  24.294  1.00  0.00    -0.368 N 
BRANCH  21  22
ATOM     22  C   UNL A   1      33.248  21.011  24.421  1.00  0.00     0.037 A 
ATOM     23  C   UNL A   1      34.566  21.245  24.827  1.00  0.00     0.026 A 
ATOM     24  C   UNL A   1      32.876  19.690  24.135  1.00  0.00     0.039 A 
ATOM     25  C   UNL A   1      35.477  20.199  24.974  1.00  0.00     0.003 A 
ATOM     26  C   UNL A   1      33.786  18.625  24.247  1.00  0.00     0.058 A 
ATOM     27  C   UNL A   1      35.090  18.894  24.686  1.00  0.00     0.013 A 
BRANCH  26  28
ATOM     28  C   UNL A   1      33.384  17.213  23.909  1.00  0.00     0.416 C 
ATOM     29  F   UNL A   1      32.764  17.121  22.699  1.00  0.00    -0.166 F 
ATOM     30  F   UNL A   1      34.455  16.372  23.840  1.00  0.00    -0.166 F 
ATOM     31  F   UNL A   1      32.529  16.650  24.808  1.00  0.00    -0.166 F 
ENDBRANCH  26  28
ENDBRANCH  21  22
ENDBRANCH  13  14
ENDBRANCH   4   6
ENDBRANCH   3   4
ENDBRANCH   2   3
ENDBRANCH   1   2
BRANCH   1  32
ATOM     32  O   UNL A   1      33.257  29.645  27.562  1.00  0.00    -0.374 OA
BRANCH  32  33
ATOM     33  C   UNL A   1      33.935  30.898  27.461  1.00  0.00     0.202 C 
BRANCH  33  34
ATOM     34  C   UNL A   1      32.955  32.071  27.376  1.00  0.00     0.261 C 
BRANCH  34  35
ATOM     35  O   UNL A   1      33.654  33.306  27.255  1.00  0.00    -0.460 OA
BRANCH  35  36
ATOM     36  C   UNL A   1      33.425  34.112  28.304  1.00  0.00     0.338 C 
ATOM     37  O   UNL A   1      32.410  34.754  28.520  1.00  0.00    -0.246 OA
BRANCH  36  38
ATOM     38  C   UNL A   1      34.551  33.952  29.241  1.00  0.00     0.060 A 
ATOM     39  C   UNL A   1      35.785  34.450  28.825  1.00  0.00     0.016 A 
ATOM     40  C   UNL A   1      34.398  33.355  30.507  1.00  0.00     0.016 A 
ATOM     41  C   UNL A   1      36.901  34.205  29.598  1.00  0.00     0.010 A 
ATOM     42  C   UNL A   1      35.512  33.137  31.301  1.00  0.00     0.010 A 
ATOM     43  C   UNL A   1      36.767  33.469  30.784  1.00  0.00    -0.014 A 
BRANCH  43  44
ATOM     44  C   UNL A   1      37.971  32.802  31.289  1.00  0.00     0.031 A 
ATOM     45  C   UNL A   1      38.485  33.223  32.636  1.00  0.00     0.074 A 
ATOM     46  C   UNL A   1      38.472  31.764  30.610  1.00  0.00     0.049 A 
ATOM     47  N   UNL A   1      39.422  32.685  33.369  1.00  0.00    -0.248 NA
ATOM     48  C   UNL A   1      37.854  34.409  33.247  1.00  0.00     0.031 C 
ATOM     49  C   UNL A   1      37.984  31.295  29.313  1.00  0.00     0.029 A 
ATOM     50  N   UNL A   1      39.476  30.900  30.935  1.00  0.00    -0.354 N 
ATOM     51  C   UNL A   1      39.494  33.470  34.515  1.00  0.00     0.074 A 
ATOM     52  C   UNL A   1      38.541  34.542  34.368  1.00  0.00     0.031 C 
ATOM     53  C   UNL A   1      38.681  30.204  28.958  1.00  0.00     0.029 A 
ATOM     54  C   UNL A   1      39.675  29.927  29.992  1.00  0.00     0.049 A 
ATOM     55  H   UNL A   1      40.004  30.968  31.763  1.00  0.00     0.167 HD
ATOM     56  C   UNL A   1      40.285  33.297  35.597  1.00  0.00     0.031 A 
ATOM     57  C   UNL A   1      40.573  28.928  29.975  1.00  0.00     0.031 A 
ATOM     58  C   UNL A   1      41.234  32.223  35.695  1.00  0.00     0.049 A 
ATOM     59  C   UNL A   1      41.465  28.769  31.172  1.00  0.00     0.074 A 
ATOM     60  C   UNL A   1      42.097  31.917  36.729  1.00  0.00     0.029 A 
ATOM     61  N   UNL A   1      41.447  31.279  34.697  1.00  0.00    -0.354 N 
ATOM     62  N   UNL A   1      41.510  29.495  32.267  1.00  0.00    -0.248 NA
ATOM     63  C   UNL A   1      42.409  27.651  31.144  1.00  0.00     0.031 C 
ATOM     64  C   UNL A   1      42.879  30.829  36.327  1.00  0.00     0.029 A 
ATOM     65  C   UNL A   1      42.453  30.409  35.074  1.00  0.00     0.049 A 
ATOM     66  H   UNL A   1      40.953  31.236  33.846  1.00  0.00     0.167 HD
ATOM     67  C   UNL A   1      42.482  28.915  33.068  1.00  0.00     0.074 A 
ATOM     68  C   UNL A   1      42.978  27.761  32.337  1.00  0.00     0.031 C 
ATOM     69  C   UNL A   1      42.929  29.292  34.295  1.00  0.00     0.031 A 
BRANCH  56  70
ATOM     70  C   UNL A   1      40.195  34.326  36.692  1.00  0.00    -0.014 A 
ATOM     71  C   UNL A   1      39.290  34.203  37.762  1.00  0.00     0.009 A 
ATOM     72  C   UNL A   1      41.009  35.468  36.631  1.00  0.00     0.009 A 
ATOM     73  C   UNL A   1      39.169  35.222  38.712  1.00  0.00     0.001 A 
ATOM     74  C   UNL A   1      40.910  36.469  37.601  1.00  0.00     0.001 A 
ATOM     75  C   UNL A   1      39.980  36.352  38.632  1.00  0.00     0.000 A 
ENDBRANCH  56  70
BRANCH  57  76
ATOM     76  C   UNL A   1      40.647  28.045  28.785  1.00  0.00    -0.014 A 
ATOM     77  C   UNL A   1      39.881  26.876  28.693  1.00  0.00     0.009 A 
ATOM     78  C   UNL A   1      41.437  28.426  27.686  1.00  0.00     0.009 A 
ATOM     79  C   UNL A   1      39.907  26.105  27.525  1.00  0.00     0.001 A 
ATOM     80  C   UNL A   1      41.438  27.673  26.512  1.00  0.00     0.001 A 
ATOM     81  C   UNL A   1      40.676  26.510  26.434  1.00  0.00     0.000 A 
ENDBRANCH  57  76
BRANCH  69  82
ATOM     82  C   UNL A   1      43.996  28.432  34.908  1.00  0.00    -0.014 A 
ATOM     83  C   UNL A   1      43.669  27.302  35.675  1.00  0.00     0.009 A 
ATOM     84  C   UNL A   1      45.346  28.743  34.687  1.00  0.00     0.009 A 
ATOM     85  C   UNL A   1      44.677  26.528  36.248  1.00  0.00     0.001 A 
ATOM     86  C   UNL A   1      46.351  27.946  35.232  1.00  0.00     0.001 A 
ATOM     87  C   UNL A   1      46.016  26.848  36.023  1.00  0.00     0.000 A 
ENDBRANCH  69  82
ENDBRANCH  43  44
ENDBRANCH  36  38
ENDBRANCH  35  36
ENDBRANCH  34  35
ENDBRANCH  33  34
ENDBRANCH  32  33
ENDBRANCH   1  32
TORSDOF 17
ENDMDL
MODEL 2
REMARK VINA RESULT:     -12.2      3.871      8.645
REMARK SMILES CC1=C(C)C[C@@H](C(=O)OCCOCCOC(=O)c2ccc(-c3c4nc(c(-c5ccccc5)c5ccc([nH]5)c(-c5ccccc5)c5nc(c(-c6ccccc6)c6ccc3[nH]6)C=C5)C=C4)cc2)[C@@H](C(=O)N2CCN(c3cccc(C(F)(F)F)c3)CC2)C1
REMARK SMILES IDX 11 1 10 2 9 3 7 4 8 5 6 6 1 7 2 8 3 9 85 10 4 11 5 12 66 13
REMARK SMILES IDX 67 14 68 15 69 16 70 17 84 18 71 19 83 20 72 21 73 22 74 23
REMARK SMILES IDX 82 24 75 25 77 26 76 27 78 28 79 29 80 30 81 31 12 32 13 33
REMARK SMILES IDX 14 34 15 35 16 36 17 37 18 38 19 39 65 40 20 41 64 42 21 43
REMARK SMILES IDX 22 44 23 45 58 46 24 47 63 48 57 49 59 50 25 51 62 52 56 53
REMARK SMILES IDX 55 54 26 56 48 57 33 58 47 59 34 60 37 61 46 62 60 63 35 64
REMARK SMILES IDX 36 65 45 67 61 68 38 69 27 70 28 71 32 72 29 73 31 74 30 75
REMARK SMILES IDX 49 76 50 77 54 78 51 79 53 80 52 81 39 82 40 83 44 84 41 85
REMARK SMILES IDX 43 86 42 87
REMARK H PARENT 59 55 37 66
REMARK Flexibility Score: inf
ROOT
ATOM      1  C   UNL A   1      37.963  21.005  25.027  1.00  0.00     0.202 C 
ENDROOT
BRANCH   1   2
ATOM      2  C   UNL A   1      36.577  21.452  24.535  1.00  0.00     0.261 C 
BRANCH   2   3
ATOM      3  O   UNL A   1      35.478  20.608  24.936  1.00  0.00    -0.463 OA
BRANCH   3   4
ATOM      4  C   UNL A   1      34.624  21.194  25.813  1.00  0.00     0.310 C 
ATOM      5  O   UNL A   1      34.976  21.747  26.853  1.00  0.00    -0.252 OA
BRANCH   4   6
ATOM      6  C   UNL A   1      33.150  21.024  25.490  1.00  0.00     0.116 C 
ATOM      7  C   UNL A   1      32.409  17.965  22.362  1.00  0.00     0.039 C 
ATOM      8  C   UNL A   1      32.572  18.923  23.519  1.00  0.00    -0.074 C 
ATOM      9  C   UNL A   1      32.625  18.574  24.819  1.00  0.00    -0.073 C 
ATOM     10  C   UNL A   1      32.675  20.365  23.074  1.00  0.00     0.045 C 
ATOM     11  C   UNL A   1      32.584  17.164  25.351  1.00  0.00     0.039 C 
ATOM     12  C   UNL A   1      32.712  19.612  25.907  1.00  0.00     0.046 C 
ATOM     13  C   UNL A   1      32.576  21.486  24.148  1.00  0.00     0.097 C 
BRANCH  13  14
ATOM     14  C   UNL A   1      32.941  22.826  23.438  1.00  0.00     0.227 C 
ATOM     15  O   UNL A   1      33.936  22.819  22.695  1.00  0.00    -0.275 OA
ATOM     16  N   UNL A   1      32.178  23.984  23.480  1.00  0.00    -0.339 N 
ATOM     17  C   UNL A   1      32.587  25.094  22.579  1.00  0.00     0.141 C 
ATOM     18  C   UNL A   1      31.324  24.428  24.592  1.00  0.00     0.141 C 
ATOM     19  C   UNL A   1      31.434  26.002  22.134  1.00  0.00     0.138 C 
ATOM     20  C   UNL A   1      30.208  25.405  24.196  1.00  0.00     0.138 C 
ATOM     21  N   UNL A   1      30.722  26.457  23.325  1.00  0.00    -0.368 N 
BRANCH  21  22
ATOM     22  C   UNL A   1      30.441  27.781  23.550  1.00  0.00     0.037 A 
ATOM     23  C   UNL A   1      31.282  28.578  24.334  1.00  0.00     0.026 A 
ATOM     24  C   UNL A   1      29.291  28.377  23.011  1.00  0.00     0.039 A 
ATOM     25  C   UNL A   1      31.009  29.929  24.551  1.00  0.00     0.003 A 
ATOM     26  C   UNL A   1      28.982  29.728  23.241  1.00  0.00     0.058 A 
ATOM     27  C   UNL A   1      29.864  30.503  24.007  1.00  0.00     0.013 A 
BRANCH  26  28
ATOM     28  C   UNL A   1      27.729  30.350  22.681  1.00  0.00     0.416 C 
ATOM     29  F   UNL A   1      26.612  29.623  22.965  1.00  0.00    -0.166 F 
ATOM     30  F   UNL A   1      27.498  31.594  23.187  1.00  0.00    -0.166 F 
ATOM     31  F   UNL A   1      27.742  30.498  21.327  1.00  0.00    -0.166 F 
ENDBRANCH  26  28
ENDBRANCH  21  22
ENDBRANCH  13  14
ENDBRANCH   4   6
ENDBRANCH   3   4
ENDBRANCH   2   3
ENDBRANCH   1   2
BRANCH   1  32
ATOM     32  O   UNL A   1      38.530  21.728  26.117  1.00  0.00    -0.374 OA
BRANCH  32  33
ATOM     33  C   UNL A   1      39.940  21.544  26.244  1.00  0.00     0.202 C 
BRANCH  33  34
ATOM     34  C   UNL A   1      40.606  22.722  26.959  1.00  0.00     0.261 C 
BRANCH  34  35
ATOM     35  O   UNL A   1      40.009  23.954  26.567  1.00  0.00    -0.460 OA
BRANCH  35  36
ATOM     36  C   UNL A   1      40.916  24.940  26.478  1.00  0.00     0.338 C 
ATOM     37  O   UNL A   1      41.903  24.957  25.759  1.00  0.00    -0.246 OA
BRANCH  36  38
ATOM     38  C   UNL A   1      40.419  26.075  27.275  1.00  0.00     0.060 A 
ATOM     39  C   UNL A   1      40.847  27.344  26.889  1.00  0.00     0.016 A 
ATOM     40  C   UNL A   1      39.534  25.904  28.356  1.00  0.00     0.016 A 
ATOM     41  C   UNL A   1      40.527  28.428  27.680  1.00  0.00     0.010 A 
ATOM     42  C   UNL A   1      39.183  26.996  29.134  1.00  0.00     0.010 A 
ATOM     43  C   UNL A   1      39.775  28.228  28.847  1.00  0.00    -0.014 A 
BRANCH  43  44
ATOM     44  C   UNL A   1      39.891  29.250  29.892  1.00  0.00     0.031 A 
ATOM     45  C   UNL A   1      38.857  30.339  29.916  1.00  0.00     0.074 A 
ATOM     46  C   UNL A   1      40.810  29.097  30.852  1.00  0.00     0.049 A 
ATOM     47  N   UNL A   1      38.643  31.256  30.820  1.00  0.00    -0.248 NA
ATOM     48  C   UNL A   1      37.931  30.402  28.769  1.00  0.00     0.031 C 
ATOM     49  C   UNL A   1      41.815  28.034  30.891  1.00  0.00     0.029 A 
ATOM     50  N   UNL A   1      41.021  29.814  31.993  1.00  0.00    -0.354 N 
ATOM     51  C   UNL A   1      37.569  32.003  30.345  1.00  0.00     0.074 A 
ATOM     52  C   UNL A   1      37.200  31.464  29.060  1.00  0.00     0.031 C 
ATOM     53  C   UNL A   1      42.529  28.156  32.020  1.00  0.00     0.029 A 
ATOM     54  C   UNL A   1      42.044  29.319  32.758  1.00  0.00     0.049 A 
ATOM     55  H   UNL A   1      40.493  30.606  32.241  1.00  0.00     0.167 HD
ATOM     56  C   UNL A   1      36.945  33.042  30.943  1.00  0.00     0.031 A 
ATOM     57  C   UNL A   1      42.531  29.772  33.925  1.00  0.00     0.031 A 
ATOM     58  C   UNL A   1      37.357  33.559  32.219  1.00  0.00     0.049 A 
ATOM     59  C   UNL A   1      41.845  30.947  34.560  1.00  0.00     0.074 A 
ATOM     60  C   UNL A   1      36.818  34.599  32.950  1.00  0.00     0.029 A 
ATOM     61  N   UNL A   1      38.433  33.064  32.948  1.00  0.00    -0.354 N 
ATOM     62  N   UNL A   1      40.812  31.632  34.123  1.00  0.00    -0.248 NA
ATOM     63  C   UNL A   1      42.372  31.398  35.849  1.00  0.00     0.031 C 
ATOM     64  C   UNL A   1      37.611  34.778  34.089  1.00  0.00     0.029 A 
ATOM     65  C   UNL A   1      38.598  33.801  34.106  1.00  0.00     0.049 A 
ATOM     66  H   UNL A   1      38.994  32.301  32.680  1.00  0.00     0.167 HD
ATOM     67  C   UNL A   1      40.554  32.591  35.090  1.00  0.00     0.074 A 
ATOM     68  C   UNL A   1      41.527  32.376  36.147  1.00  0.00     0.031 C 
ATOM     69  C   UNL A   1      39.604  33.562  35.113  1.00  0.00     0.031 A 
BRANCH  56  70
ATOM     70  C   UNL A   1      35.826  33.707  30.186  1.00  0.00    -0.014 A 
ATOM     71  C   UNL A   1      34.538  33.853  30.730  1.00  0.00     0.009 A 
ATOM     72  C   UNL A   1      36.058  34.163  28.878  1.00  0.00     0.009 A 
ATOM     73  C   UNL A   1      33.500  34.392  29.964  1.00  0.00     0.001 A 
ATOM     74  C   UNL A   1      35.026  34.733  28.127  1.00  0.00     0.001 A 
ATOM     75  C   UNL A   1      33.745  34.833  28.666  1.00  0.00     0.000 A 
ENDBRANCH  56  70
BRANCH  57  76
ATOM     76  C   UNL A   1      43.715  29.105  34.520  1.00  0.00    -0.014 A 
ATOM     77  C   UNL A   1      43.579  28.042  35.422  1.00  0.00     0.009 A 
ATOM     78  C   UNL A   1      45.005  29.486  34.111  1.00  0.00     0.009 A 
ATOM     79  C   UNL A   1      44.711  27.377  35.904  1.00  0.00     0.001 A 
ATOM     80  C   UNL A   1      46.131  28.801  34.569  1.00  0.00     0.001 A 
ATOM     81  C   UNL A   1      45.983  27.749  35.469  1.00  0.00     0.000 A 
ENDBRANCH  57  76
BRANCH  69  82
ATOM     82  C   UNL A   1      39.582  34.444  36.328  1.00  0.00    -0.014 A 
ATOM     83  C   UNL A   1      38.901  34.059  37.494  1.00  0.00     0.009 A 
ATOM     84  C   UNL A   1      40.278  35.662  36.311  1.00  0.00     0.009 A 
ATOM     85  C   UNL A   1      38.881  34.902  38.604  1.00  0.00     0.001 A 
ATOM     86  C   UNL A   1      40.286  36.485  37.435  1.00  0.00     0.001 A 
ATOM     87  C   UNL A   1      39.576  36.112  38.575  1.00  0.00     0.000 A 
ENDBRANCH  69  82
ENDBRANCH  43  44
ENDBRANCH  36  38
ENDBRANCH  35  36
ENDBRANCH  34  35
ENDBRANCH  33  34
ENDBRANCH  32  33
ENDBRANCH   1  32
TORSDOF 17
ENDMDL
MODEL 3
REMARK VINA RESULT:     -12.2      3.725      8.642
REMARK SMILES CC1=C(C)C[C@@H](C(=O)OCCOCCOC(=O)c2ccc(-c3c4nc(c(-c5ccccc5)c5ccc([nH]5)c(-c5ccccc5)c5nc(c(-c6ccccc6)c6ccc3[nH]6)C=C5)C=C4)cc2)[C@@H](C(=O)N2CCN(c3cccc(C(F)(F)F)c3)CC2)C1
REMARK SMILES IDX 11 1 10 2 9 3 7 4 8 5 6 6 1 7 2 8 3 9 85 10 4 11 5 12 66 13
REMARK SMILES IDX 67 14 68 15 69 16 70 17 84 18 71 19 83 20 72 21 73 22 74 23
REMARK SMILES IDX 82 24 75 25 77 26 76 27 78 28 79 29 80 30 81 31 12 32 13 33
REMARK SMILES IDX 14 34 15 35 16 36 17 37 18 38 19 39 65 40 20 41 64 42 21 43
REMARK SMILES IDX 22 44 23 45 58 46 24 47 63 48 57 49 59 50 25 51 62 52 56 53
REMARK SMILES IDX 55 54 26 56 48 57 33 58 47 59 34 60 37 61 46 62 60 63 35 64
REMARK SMILES IDX 36 65 45 67 61 68 38 69 27 70 28 71 32 72 29 73 31 74 30 75
REMARK SMILES IDX 49 76 50 77 54 78 51 79 53 80 52 81 39 82 40 83 44 84 41 85
REMARK SMILES IDX 43 86 42 87
REMARK H PARENT 59 55 37 66
REMARK Flexibility Score: inf
ROOT
ATOM      1  C   UNL A   1      37.890  20.665  25.304  1.00  0.00     0.202 C 
ENDROOT
BRANCH   1   2
ATOM      2  C   UNL A   1      36.590  21.160  24.649  1.00  0.00     0.261 C 
BRANCH   2   3
ATOM      3  O   UNL A   1      35.398  20.436  25.020  1.00  0.00    -0.463 OA
BRANCH   3   4
ATOM      4  C   UNL A   1      34.517  21.164  25.752  1.00  0.00     0.310 C 
ATOM      5  O   UNL A   1      34.842  21.964  26.626  1.00  0.00    -0.252 OA
BRANCH   4   6
ATOM      6  C   UNL A   1      33.054  20.842  25.506  1.00  0.00     0.116 C 
ATOM      7  C   UNL A   1      32.472  17.658  22.470  1.00  0.00     0.039 C 
ATOM      8  C   UNL A   1      32.594  18.652  23.602  1.00  0.00    -0.074 C 
ATOM      9  C   UNL A   1      32.745  18.337  24.903  1.00  0.00    -0.073 C 
ATOM     10  C   UNL A   1      32.530  20.087  23.128  1.00  0.00     0.045 C 
ATOM     11  C   UNL A   1      32.871  16.942  25.459  1.00  0.00     0.039 C 
ATOM     12  C   UNL A   1      32.780  19.402  25.968  1.00  0.00     0.046 C 
ATOM     13  C   UNL A   1      32.371  21.215  24.187  1.00  0.00     0.097 C 
BRANCH  13  14
ATOM     14  C   UNL A   1      32.565  22.570  23.439  1.00  0.00     0.227 C 
ATOM     15  O   UNL A   1      32.909  22.512  22.246  1.00  0.00    -0.275 OA
ATOM     16  N   UNL A   1      32.272  23.820  23.963  1.00  0.00    -0.339 N 
ATOM     17  C   UNL A   1      32.334  24.975  23.029  1.00  0.00     0.141 C 
ATOM     18  C   UNL A   1      32.357  24.216  25.377  1.00  0.00     0.141 C 
ATOM     19  C   UNL A   1      31.395  26.132  23.393  1.00  0.00     0.138 C 
ATOM     20  C   UNL A   1      31.492  25.425  25.760  1.00  0.00     0.138 C 
ATOM     21  N   UNL A   1      31.639  26.500  24.784  1.00  0.00    -0.368 N 
BRANCH  21  22
ATOM     22  C   UNL A   1      31.868  27.798  25.170  1.00  0.00     0.037 A 
ATOM     23  C   UNL A   1      30.987  28.825  24.818  1.00  0.00     0.026 A 
ATOM     24  C   UNL A   1      33.003  28.138  25.921  1.00  0.00     0.039 A 
ATOM     25  C   UNL A   1      31.207  30.142  25.223  1.00  0.00     0.003 A 
ATOM     26  C   UNL A   1      33.259  29.463  26.314  1.00  0.00     0.058 A 
ATOM     27  C   UNL A   1      32.337  30.460  25.968  1.00  0.00     0.013 A 
BRANCH  26  28
ATOM     28  C   UNL A   1      34.496  29.821  27.097  1.00  0.00     0.416 C 
ATOM     29  F   UNL A   1      34.680  31.169  27.194  1.00  0.00    -0.166 F 
ATOM     30  F   UNL A   1      34.449  29.362  28.379  1.00  0.00    -0.166 F 
ATOM     31  F   UNL A   1      35.649  29.326  26.567  1.00  0.00    -0.166 F 
ENDBRANCH  26  28
ENDBRANCH  21  22
ENDBRANCH  13  14
ENDBRANCH   4   6
ENDBRANCH   3   4
ENDBRANCH   2   3
ENDBRANCH   1   2
BRANCH   1  32
ATOM     32  O   UNL A   1      38.803  21.658  25.764  1.00  0.00    -0.374 OA
BRANCH  32  33
ATOM     33  C   UNL A   1      40.079  21.127  26.127  1.00  0.00     0.202 C 
BRANCH  33  34
ATOM     34  C   UNL A   1      41.041  22.223  26.593  1.00  0.00     0.261 C 
BRANCH  34  35
ATOM     35  O   UNL A   1      40.404  23.497  26.569  1.00  0.00    -0.460 OA
BRANCH  35  36
ATOM     36  C   UNL A   1      41.292  24.492  26.415  1.00  0.00     0.338 C 
ATOM     37  O   UNL A   1      42.272  24.486  25.688  1.00  0.00    -0.246 OA
BRANCH  36  38
ATOM     38  C   UNL A   1      40.779  25.662  27.149  1.00  0.00     0.060 A 
ATOM     39  C   UNL A   1      41.277  26.907  26.766  1.00  0.00     0.016 A 
ATOM     40  C   UNL A   1      39.813  25.547  28.167  1.00  0.00     0.016 A 
ATOM     41  C   UNL A   1      40.940  28.020  27.508  1.00  0.00     0.010 A 
ATOM     42  C   UNL A   1      39.447  26.669  28.893  1.00  0.00     0.010 A 
ATOM     43  C   UNL A   1      40.100  27.874  28.622  1.00  0.00    -0.014 A 
BRANCH  43  44
ATOM     44  C   UNL A   1      40.177  28.917  29.650  1.00  0.00     0.031 A 
ATOM     45  C   UNL A   1      39.107  29.971  29.651  1.00  0.00     0.074 A 
ATOM     46  C   UNL A   1      41.097  28.811  30.616  1.00  0.00     0.049 A 
ATOM     47  N   UNL A   1      38.859  30.896  30.537  1.00  0.00    -0.248 NA
ATOM     48  C   UNL A   1      38.185  29.984  28.498  1.00  0.00     0.031 C 
ATOM     49  C   UNL A   1      42.136  27.783  30.677  1.00  0.00     0.029 A 
ATOM     50  N   UNL A   1      41.278  29.554  31.745  1.00  0.00    -0.354 N 
ATOM     51  C   UNL A   1      37.763  31.598  30.046  1.00  0.00     0.074 A 
ATOM     52  C   UNL A   1      37.418  31.026  28.768  1.00  0.00     0.031 C 
ATOM     53  C   UNL A   1      42.840  27.948  31.808  1.00  0.00     0.029 A 
ATOM     54  C   UNL A   1      42.313  29.106  32.523  1.00  0.00     0.049 A 
ATOM     55  H   UNL A   1      40.722  30.332  31.978  1.00  0.00     0.167 HD
ATOM     56  C   UNL A   1      37.102  32.626  30.623  1.00  0.00     0.031 A 
ATOM     57  C   UNL A   1      42.779  29.595  33.684  1.00  0.00     0.031 A 
ATOM     58  C   UNL A   1      37.490  33.178  31.891  1.00  0.00     0.049 A 
ATOM     59  C   UNL A   1      42.051  30.757  34.296  1.00  0.00     0.074 A 
ATOM     60  C   UNL A   1      36.914  34.212  32.602  1.00  0.00     0.029 A 
ATOM     61  N   UNL A   1      38.578  32.732  32.634  1.00  0.00    -0.354 N 
ATOM     62  N   UNL A   1      40.998  31.400  33.843  1.00  0.00    -0.248 NA
ATOM     63  C   UNL A   1      42.557  31.248  35.579  1.00  0.00     0.031 C 
ATOM     64  C   UNL A   1      37.695  34.437  33.741  1.00  0.00     0.029 A 
ATOM     65  C   UNL A   1      38.714  33.494  33.779  1.00  0.00     0.049 A 
ATOM     66  H   UNL A   1      39.166  31.984  32.381  1.00  0.00     0.167 HD
ATOM     67  C   UNL A   1      40.704  32.367  34.792  1.00  0.00     0.074 A 
ATOM     68  C   UNL A   1      41.679  32.203  35.857  1.00  0.00     0.031 C 
ATOM     69  C   UNL A   1      39.722  33.306  34.794  1.00  0.00     0.031 A 
BRANCH  56  70
ATOM     70  C   UNL A   1      35.965  33.240  29.849  1.00  0.00    -0.014 A 
ATOM     71  C   UNL A   1      34.628  32.857  30.055  1.00  0.00     0.009 A 
ATOM     72  C   UNL A   1      36.244  34.198  28.862  1.00  0.00     0.009 A 
ATOM     73  C   UNL A   1      33.607  33.381  29.255  1.00  0.00     0.001 A 
ATOM     74  C   UNL A   1      35.218  34.745  28.087  1.00  0.00     0.001 A 
ATOM     75  C   UNL A   1      33.903  34.326  28.274  1.00  0.00     0.000 A 
ENDBRANCH  56  70
BRANCH  57  76
ATOM     76  C   UNL A   1      43.982  28.979  34.296  1.00  0.00    -0.014 A 
ATOM     77  C   UNL A   1      43.884  27.864  35.139  1.00  0.00     0.009 A 
ATOM     78  C   UNL A   1      45.258  29.465  33.961  1.00  0.00     0.009 A 
ATOM     79  C   UNL A   1      45.039  27.251  35.635  1.00  0.00     0.001 A 
ATOM     80  C   UNL A   1      46.409  28.834  34.432  1.00  0.00     0.001 A 
ATOM     81  C   UNL A   1      46.299  27.729  35.273  1.00  0.00     0.000 A 
ENDBRANCH  57  76
BRANCH  69  82
ATOM     82  C   UNL A   1      39.664  34.207  35.994  1.00  0.00    -0.014 A 
ATOM     83  C   UNL A   1      40.293  35.463  35.991  1.00  0.00     0.009 A 
ATOM     84  C   UNL A   1      38.944  33.804  37.128  1.00  0.00     0.009 A 
ATOM     85  C   UNL A   1      40.240  36.275  37.122  1.00  0.00     0.001 A 
ATOM     86  C   UNL A   1      38.862  34.635  38.244  1.00  0.00     0.001 A 
ATOM     87  C   UNL A   1      39.522  35.863  38.245  1.00  0.00     0.000 A 
ENDBRANCH  69  82
ENDBRANCH  43  44
ENDBRANCH  36  38
ENDBRANCH  35  36
ENDBRANCH  34  35
ENDBRANCH  33  34
ENDBRANCH  32  33
ENDBRANCH   1  32
TORSDOF 17
ENDMDL
