MODEL 1
REMARK VINA RESULT:     -12.0      0.000      0.000
REMARK SMILES CS(=O)(=O)c1ccc(/C=C(/C(=O)OCCOCCOC(=O)c2ccc(-c3c4nc(c(-c5ccccc5)c5ccc([nH]5)c(-c5ccccc5)c5nc(c(-c6ccccc6)c6ccc3[nH]6)C=C5)C=C4)cc2)c2cccc(-c3ccc(S(C)(=O)=O)cc3)c2)cc1
REMARK SMILES IDX 15 1 14 2 13 3 11 4 12 5 10 6 9 7 8 8 5 9 6 10 87 11 7 12
REMARK SMILES IDX 86 13 2 14 1 15 3 16 4 17 70 18 71 19 85 20 72 21 74 22
REMARK SMILES IDX 73 23 75 24 76 25 84 26 77 27 83 28 78 29 79 30 80 31 81 32
REMARK SMILES IDX 82 33 16 34 17 35 18 36 19 37 20 38 21 39 22 40 23 41 69 42
REMARK SMILES IDX 24 43 68 44 25 45 26 46 27 47 62 48 28 49 67 50 61 51 63 52
REMARK SMILES IDX 29 53 66 54 60 55 59 56 30 58 52 59 37 60 51 61 38 62 41 63
REMARK SMILES IDX 50 64 64 65 39 66 40 67 49 69 65 70 42 71 31 72 32 73 36 74
REMARK SMILES IDX 33 75 35 76 34 77 53 78 54 79 58 80 55 81 57 82 56 83 43 84
REMARK SMILES IDX 44 85 48 86 45 87 47 88 46 89
REMARK H PARENT 63 57 41 68
REMARK Flexibility Score: inf
ROOT
ATOM      1  C   UNL A   1      33.497  22.863  25.239  1.00  0.00     0.202 C 
ENDROOT
BRANCH   1   2
ATOM      2  C   UNL A   1      32.205  22.852  26.061  1.00  0.00     0.261 C 
BRANCH   2   3
ATOM      3  O   UNL A   1      31.911  24.164  26.574  1.00  0.00    -0.460 OA
BRANCH   3   4
ATOM      4  C   UNL A   1      30.650  24.592  26.314  1.00  0.00     0.338 C 
ATOM      5  O   UNL A   1      29.645  24.257  26.924  1.00  0.00    -0.246 OA
BRANCH   4   6
ATOM      6  C   UNL A   1      30.625  25.645  25.250  1.00  0.00     0.067 C 
ATOM      7  C   UNL A   1      29.458  25.952  24.633  1.00  0.00     0.024 C 
BRANCH   7   8
ATOM      8  C   UNL A   1      29.142  27.178  23.852  1.00  0.00    -0.025 A 
ATOM      9  C   UNL A   1      28.309  29.693  22.910  1.00  0.00     0.067 A 
ATOM     10  C   UNL A   1      29.668  29.424  23.060  1.00  0.00     0.021 A 
ATOM     11  C   UNL A   1      27.365  28.689  23.126  1.00  0.00     0.021 A 
ATOM     12  C   UNL A   1      30.079  28.156  23.484  1.00  0.00     0.009 A 
ATOM     13  C   UNL A   1      27.786  27.437  23.589  1.00  0.00     0.009 A 
BRANCH   9  14
ATOM     14  S   UNL A   1      27.769  31.361  22.614  1.00  0.00     0.175 S 
ATOM     15  C   UNL A   1      29.252  32.318  22.736  1.00  0.00     0.163 C 
ATOM     16  O   UNL A   1      26.903  31.739  23.716  1.00  0.00    -0.224 OA
ATOM     17  O   UNL A   1      27.303  31.429  21.244  1.00  0.00    -0.224 OA
ENDBRANCH   9  14
ENDBRANCH   7   8
BRANCH   6  18
ATOM     18  C   UNL A   1      31.874  26.407  25.081  1.00  0.00    -0.010 A 
ATOM     19  C   UNL A   1      32.751  26.125  24.025  1.00  0.00     0.009 A 
ATOM     20  C   UNL A   1      32.161  27.462  25.946  1.00  0.00     0.017 A 
ATOM     21  C   UNL A   1      33.893  26.899  23.832  1.00  0.00     0.001 A 
ATOM     22  C   UNL A   1      33.279  28.282  25.738  1.00  0.00    -0.018 A 
ATOM     23  C   UNL A   1      34.150  27.976  24.680  1.00  0.00     0.009 A 
BRANCH  22  24
ATOM     24  C   UNL A   1      33.453  29.475  26.571  1.00  0.00    -0.018 A 
ATOM     25  C   UNL A   1      34.657  29.688  27.262  1.00  0.00     0.010 A 
ATOM     26  C   UNL A   1      32.467  30.477  26.606  1.00  0.00     0.010 A 
ATOM     27  C   UNL A   1      34.878  30.873  27.962  1.00  0.00     0.021 A 
ATOM     28  C   UNL A   1      32.678  31.664  27.305  1.00  0.00     0.021 A 
ATOM     29  C   UNL A   1      33.881  31.849  27.984  1.00  0.00     0.067 A 
BRANCH  29  30
ATOM     30  S   UNL A   1      34.161  33.346  28.892  1.00  0.00     0.175 S 
ATOM     31  C   UNL A   1      35.866  33.697  28.550  1.00  0.00     0.163 C 
ATOM     32  O   UNL A   1      33.351  34.385  28.276  1.00  0.00    -0.224 OA
ATOM     33  O   UNL A   1      34.046  33.044  30.301  1.00  0.00    -0.224 OA
ENDBRANCH  29  30
ENDBRANCH  22  24
ENDBRANCH   6  18
ENDBRANCH   4   6
ENDBRANCH   3   4
ENDBRANCH   2   3
ENDBRANCH   1   2
BRANCH   1  34
ATOM     34  O   UNL A   1      33.807  21.691  24.485  1.00  0.00    -0.374 OA
BRANCH  34  35
ATOM     35  C   UNL A   1      34.794  20.806  25.006  1.00  0.00     0.202 C 
BRANCH  35  36
ATOM     36  C   UNL A   1      35.980  21.416  25.762  1.00  0.00     0.261 C 
BRANCH  36  37
ATOM     37  O   UNL A   1      37.138  21.603  24.935  1.00  0.00    -0.460 OA
BRANCH  37  38
ATOM     38  C   UNL A   1      38.297  21.208  25.512  1.00  0.00     0.338 C 
ATOM     39  O   UNL A   1      38.825  20.106  25.444  1.00  0.00    -0.246 OA
BRANCH  38  40
ATOM     40  C   UNL A   1      38.967  22.366  26.123  1.00  0.00     0.060 A 
ATOM     41  C   UNL A   1      38.423  23.632  25.870  1.00  0.00     0.016 A 
ATOM     42  C   UNL A   1      40.131  22.227  26.882  1.00  0.00     0.016 A 
ATOM     43  C   UNL A   1      39.066  24.772  26.342  1.00  0.00     0.010 A 
ATOM     44  C   UNL A   1      40.783  23.374  27.344  1.00  0.00     0.010 A 
ATOM     45  C   UNL A   1      40.270  24.650  27.047  1.00  0.00    -0.014 A 
BRANCH  45  46
ATOM     46  C   UNL A   1      41.061  25.865  27.346  1.00  0.00     0.031 A 
ATOM     47  C   UNL A   1      40.481  26.904  28.264  1.00  0.00     0.074 A 
ATOM     48  C   UNL A   1      42.292  26.024  26.832  1.00  0.00     0.049 A 
ATOM     49  N   UNL A   1      40.996  28.040  28.658  1.00  0.00    -0.248 NA
ATOM     50  C   UNL A   1      39.144  26.624  28.812  1.00  0.00     0.031 C 
ATOM     51  C   UNL A   1      42.976  25.067  25.962  1.00  0.00     0.029 A 
ATOM     52  N   UNL A   1      43.185  27.055  26.971  1.00  0.00    -0.354 N 
ATOM     53  C   UNL A   1      40.045  28.612  29.493  1.00  0.00     0.074 A 
ATOM     54  C   UNL A   1      38.911  27.714  29.527  1.00  0.00     0.031 C 
ATOM     55  C   UNL A   1      44.185  25.560  25.641  1.00  0.00     0.029 A 
ATOM     56  C   UNL A   1      44.345  26.876  26.256  1.00  0.00     0.049 A 
ATOM     57  H   UNL A   1      43.012  27.847  27.528  1.00  0.00     0.167 HD
ATOM     58  C   UNL A   1      40.112  29.780  30.177  1.00  0.00     0.031 A 
ATOM     59  C   UNL A   1      45.405  27.691  26.104  1.00  0.00     0.031 A 
ATOM     60  C   UNL A   1      41.234  30.679  30.132  1.00  0.00     0.049 A 
ATOM     61  C   UNL A   1      45.424  29.017  26.815  1.00  0.00     0.074 A 
ATOM     62  C   UNL A   1      41.405  31.877  30.803  1.00  0.00     0.029 A 
ATOM     63  N   UNL A   1      42.371  30.482  29.365  1.00  0.00    -0.354 N 
ATOM     64  N   UNL A   1      44.534  29.534  27.628  1.00  0.00    -0.248 NA
ATOM     65  C   UNL A   1      46.602  29.869  26.594  1.00  0.00     0.031 C 
ATOM     66  C   UNL A   1      42.623  32.433  30.398  1.00  0.00     0.029 A 
ATOM     67  C   UNL A   1      43.236  31.551  29.521  1.00  0.00     0.049 A 
ATOM     68  H   UNL A   1      42.538  29.698  28.794  1.00  0.00     0.167 HD
ATOM     69  C   UNL A   1      45.053  30.756  28.035  1.00  0.00     0.074 A 
ATOM     70  C   UNL A   1      46.343  30.897  27.390  1.00  0.00     0.031 C 
ATOM     71  C   UNL A   1      44.514  31.678  28.869  1.00  0.00     0.031 A 
BRANCH  58  72
ATOM     72  C   UNL A   1      38.917  30.165  31.003  1.00  0.00    -0.014 A 
ATOM     73  C   UNL A   1      38.823  29.817  32.360  1.00  0.00     0.009 A 
ATOM     74  C   UNL A   1      37.881  30.912  30.419  1.00  0.00     0.009 A 
ATOM     75  C   UNL A   1      37.700  30.182  33.106  1.00  0.00     0.001 A 
ATOM     76  C   UNL A   1      36.773  31.298  31.175  1.00  0.00     0.001 A 
ATOM     77  C   UNL A   1      36.680  30.925  32.514  1.00  0.00     0.000 A 
ENDBRANCH  58  72
BRANCH  59  78
ATOM     78  C   UNL A   1      46.533  27.285  25.226  1.00  0.00    -0.014 A 
ATOM     79  C   UNL A   1      46.703  27.865  23.962  1.00  0.00     0.009 A 
ATOM     80  C   UNL A   1      47.440  26.300  25.650  1.00  0.00     0.009 A 
ATOM     81  C   UNL A   1      47.747  27.451  23.129  1.00  0.00     0.001 A 
ATOM     82  C   UNL A   1      48.498  25.909  24.828  1.00  0.00     0.001 A 
ATOM     83  C   UNL A   1      48.645  26.478  23.564  1.00  0.00     0.000 A 
ENDBRANCH  59  78
BRANCH  71  84
ATOM     84  C   UNL A   1      45.330  32.906  29.157  1.00  0.00    -0.014 A 
ATOM     85  C   UNL A   1      45.194  34.071  28.386  1.00  0.00     0.009 A 
ATOM     86  C   UNL A   1      46.216  32.910  30.247  1.00  0.00     0.009 A 
ATOM     87  C   UNL A   1      45.957  35.205  28.680  1.00  0.00     0.001 A 
ATOM     88  C   UNL A   1      46.954  34.054  30.555  1.00  0.00     0.001 A 
ATOM     89  C   UNL A   1      46.831  35.196  29.766  1.00  0.00     0.000 A 
ENDBRANCH  71  84
ENDBRANCH  45  46
ENDBRANCH  38  40
ENDBRANCH  37  38
ENDBRANCH  36  37
ENDBRANCH  35  36
ENDBRANCH  34  35
ENDBRANCH   1  34
TORSDOF 19
ENDMDL
MODEL 2
REMARK VINA RESULT:     -12.0      0.706      5.505
REMARK SMILES CS(=O)(=O)c1ccc(/C=C(/C(=O)OCCOCCOC(=O)c2ccc(-c3c4nc(c(-c5ccccc5)c5ccc([nH]5)c(-c5ccccc5)c5nc(c(-c6ccccc6)c6ccc3[nH]6)C=C5)C=C4)cc2)c2cccc(-c3ccc(S(C)(=O)=O)cc3)c2)cc1
REMARK SMILES IDX 15 1 14 2 13 3 11 4 12 5 10 6 9 7 8 8 5 9 6 10 87 11 7 12
REMARK SMILES IDX 86 13 2 14 1 15 3 16 4 17 70 18 71 19 85 20 72 21 74 22
REMARK SMILES IDX 73 23 75 24 76 25 84 26 77 27 83 28 78 29 79 30 80 31 81 32
REMARK SMILES IDX 82 33 16 34 17 35 18 36 19 37 20 38 21 39 22 40 23 41 69 42
REMARK SMILES IDX 24 43 68 44 25 45 26 46 27 47 62 48 28 49 67 50 61 51 63 52
REMARK SMILES IDX 29 53 66 54 60 55 59 56 30 58 52 59 37 60 51 61 38 62 41 63
REMARK SMILES IDX 50 64 64 65 39 66 40 67 49 69 65 70 42 71 31 72 32 73 36 74
REMARK SMILES IDX 33 75 35 76 34 77 53 78 54 79 58 80 55 81 57 82 56 83 43 84
REMARK SMILES IDX 44 85 48 86 45 87 47 88 46 89
REMARK H PARENT 63 57 41 68
REMARK Flexibility Score: inf
ROOT
ATOM      1  C   UNL A   1      33.907  22.365  25.522  1.00  0.00     0.202 C 
ENDROOT
BRANCH   1   2
ATOM      2  C   UNL A   1      32.420  22.549  25.839  1.00  0.00     0.261 C 
BRANCH   2   3
ATOM      3  O   UNL A   1      32.192  23.791  26.528  1.00  0.00    -0.460 OA
BRANCH   3   4
ATOM      4  C   UNL A   1      30.931  24.275  26.399  1.00  0.00     0.338 C 
ATOM      5  O   UNL A   1      29.991  24.019  27.139  1.00  0.00    -0.246 OA
BRANCH   4   6
ATOM      6  C   UNL A   1      30.828  25.283  25.297  1.00  0.00     0.067 C 
ATOM      7  C   UNL A   1      29.630  25.518  24.707  1.00  0.00     0.024 C 
BRANCH   7   8
ATOM      8  C   UNL A   1      29.239  26.698  23.890  1.00  0.00    -0.025 A 
ATOM      9  C   UNL A   1      28.389  29.186  22.895  1.00  0.00     0.067 A 
ATOM     10  C   UNL A   1      29.732  28.824  22.802  1.00  0.00     0.021 A 
ATOM     11  C   UNL A   1      27.448  28.280  23.384  1.00  0.00     0.021 A 
ATOM     12  C   UNL A   1      30.141  27.566  23.256  1.00  0.00     0.009 A 
ATOM     13  C   UNL A   1      27.876  27.041  23.873  1.00  0.00     0.009 A 
BRANCH   9  14
ATOM     14  S   UNL A   1      27.903  30.862  22.552  1.00  0.00     0.175 S 
ATOM     15  C   UNL A   1      29.364  31.804  22.879  1.00  0.00     0.163 C 
ATOM     16  O   UNL A   1      26.903  31.233  23.538  1.00  0.00    -0.224 OA
ATOM     17  O   UNL A   1      27.620  30.950  21.134  1.00  0.00    -0.224 OA
ENDBRANCH   9  14
ENDBRANCH   7   8
BRANCH   6  18
ATOM     18  C   UNL A   1      32.038  26.086  25.056  1.00  0.00    -0.010 A 
ATOM     19  C   UNL A   1      32.841  25.860  23.929  1.00  0.00     0.009 A 
ATOM     20  C   UNL A   1      32.360  27.127  25.927  1.00  0.00     0.017 A 
ATOM     21  C   UNL A   1      33.942  26.673  23.675  1.00  0.00     0.001 A 
ATOM     22  C   UNL A   1      33.435  27.986  25.660  1.00  0.00    -0.018 A 
ATOM     23  C   UNL A   1      34.232  27.735  24.531  1.00  0.00     0.009 A 
BRANCH  22  24
ATOM     24  C   UNL A   1      33.638  29.161  26.511  1.00  0.00    -0.018 A 
ATOM     25  C   UNL A   1      34.849  29.339  27.198  1.00  0.00     0.010 A 
ATOM     26  C   UNL A   1      32.672  30.181  26.569  1.00  0.00     0.010 A 
ATOM     27  C   UNL A   1      35.099  30.507  27.916  1.00  0.00     0.021 A 
ATOM     28  C   UNL A   1      32.910  31.352  27.287  1.00  0.00     0.021 A 
ATOM     29  C   UNL A   1      34.121  31.502  27.961  1.00  0.00     0.067 A 
BRANCH  29  30
ATOM     30  S   UNL A   1      34.435  32.978  28.891  1.00  0.00     0.175 S 
ATOM     31  C   UNL A   1      33.293  34.136  28.184  1.00  0.00     0.163 C 
ATOM     32  O   UNL A   1      34.030  32.721  30.264  1.00  0.00    -0.224 OA
ATOM     33  O   UNL A   1      35.773  33.429  28.578  1.00  0.00    -0.224 OA
ENDBRANCH  29  30
ENDBRANCH  22  24
ENDBRANCH   6  18
ENDBRANCH   4   6
ENDBRANCH   3   4
ENDBRANCH   2   3
ENDBRANCH   1   2
BRANCH   1  34
ATOM     34  O   UNL A   1      34.281  21.206  24.776  1.00  0.00    -0.374 OA
BRANCH  34  35
ATOM     35  C   UNL A   1      35.579  20.663  24.999  1.00  0.00     0.202 C 
BRANCH  35  36
ATOM     36  C   UNL A   1      36.572  21.487  25.827  1.00  0.00     0.261 C 
BRANCH  36  37
ATOM     37  O   UNL A   1      37.818  21.710  25.152  1.00  0.00    -0.460 OA
BRANCH  37  38
ATOM     38  C   UNL A   1      38.909  21.429  25.903  1.00  0.00     0.338 C 
ATOM     39  O   UNL A   1      39.501  20.362  25.987  1.00  0.00    -0.246 OA
BRANCH  38  40
ATOM     40  C   UNL A   1      39.428  22.667  26.505  1.00  0.00     0.060 A 
ATOM     41  C   UNL A   1      38.890  23.879  26.052  1.00  0.00     0.016 A 
ATOM     42  C   UNL A   1      40.454  22.651  27.452  1.00  0.00     0.016 A 
ATOM     43  C   UNL A   1      39.406  25.085  26.516  1.00  0.00     0.010 A 
ATOM     44  C   UNL A   1      40.980  23.863  27.907  1.00  0.00     0.010 A 
ATOM     45  C   UNL A   1      40.479  25.083  27.415  1.00  0.00    -0.014 A 
BRANCH  45  46
ATOM     46  C   UNL A   1      41.166  26.357  27.725  1.00  0.00     0.031 A 
ATOM     47  C   UNL A   1      42.523  26.615  27.134  1.00  0.00     0.074 A 
ATOM     48  C   UNL A   1      40.573  27.285  28.495  1.00  0.00     0.049 A 
ATOM     49  N   UNL A   1      43.302  27.656  27.274  1.00  0.00    -0.248 NA
ATOM     50  C   UNL A   1      43.075  25.559  26.269  1.00  0.00     0.031 C 
ATOM     51  C   UNL A   1      39.243  27.165  29.091  1.00  0.00     0.029 A 
ATOM     52  N   UNL A   1      41.019  28.514  28.907  1.00  0.00    -0.354 N 
ATOM     53  C   UNL A   1      44.437  27.379  26.522  1.00  0.00     0.074 A 
ATOM     54  C   UNL A   1      44.259  26.062  25.951  1.00  0.00     0.031 C 
ATOM     55  C   UNL A   1      38.982  28.279  29.798  1.00  0.00     0.029 A 
ATOM     56  C   UNL A   1      40.136  29.172  29.727  1.00  0.00     0.049 A 
ATOM     57  H   UNL A   1      41.890  28.889  28.640  1.00  0.00     0.167 HD
ATOM     58  C   UNL A   1      45.528  28.155  26.319  1.00  0.00     0.031 A 
ATOM     59  C   UNL A   1      40.257  30.352  30.362  1.00  0.00     0.031 A 
ATOM     60  C   UNL A   1      45.711  29.460  26.898  1.00  0.00     0.049 A 
ATOM     61  C   UNL A   1      41.511  31.164  30.180  1.00  0.00     0.074 A 
ATOM     62  C   UNL A   1      46.773  30.332  26.738  1.00  0.00     0.029 A 
ATOM     63  N   UNL A   1      44.813  30.073  27.756  1.00  0.00    -0.354 N 
ATOM     64  N   UNL A   1      42.563  30.907  29.441  1.00  0.00    -0.248 NA
ATOM     65  C   UNL A   1      41.588  32.435  30.915  1.00  0.00     0.031 C 
ATOM     66  C   UNL A   1      46.542  31.451  27.545  1.00  0.00     0.029 A 
ATOM     67  C   UNL A   1      45.310  31.300  28.160  1.00  0.00     0.049 A 
ATOM     68  H   UNL A   1      43.950  29.693  28.037  1.00  0.00     0.167 HD
ATOM     69  C   UNL A   1      43.415  31.993  29.601  1.00  0.00     0.074 A 
ATOM     70  C   UNL A   1      42.750  32.918  30.496  1.00  0.00     0.031 C 
ATOM     71  C   UNL A   1      44.637  32.207  29.054  1.00  0.00     0.031 A 
BRANCH  58  72
ATOM     72  C   UNL A   1      46.626  27.592  25.461  1.00  0.00    -0.014 A 
ATOM     73  C   UNL A   1      47.550  26.666  25.970  1.00  0.00     0.009 A 
ATOM     74  C   UNL A   1      46.720  27.976  24.114  1.00  0.00     0.009 A 
ATOM     75  C   UNL A   1      48.566  26.161  25.155  1.00  0.00     0.001 A 
ATOM     76  C   UNL A   1      47.720  27.449  23.295  1.00  0.00     0.001 A 
ATOM     77  C   UNL A   1      48.646  26.549  23.818  1.00  0.00     0.000 A 
ENDBRANCH  58  72
BRANCH  59  78
ATOM     78  C   UNL A   1      39.164  30.834  31.247  1.00  0.00    -0.014 A 
ATOM     79  C   UNL A   1      38.159  31.678  30.751  1.00  0.00     0.009 A 
ATOM     80  C   UNL A   1      39.130  30.459  32.599  1.00  0.00     0.009 A 
ATOM     81  C   UNL A   1      37.155  32.154  31.598  1.00  0.00     0.001 A 
ATOM     82  C   UNL A   1      38.111  30.914  33.437  1.00  0.00     0.001 A 
ATOM     83  C   UNL A   1      37.129  31.769  32.938  1.00  0.00     0.000 A 
ENDBRANCH  59  78
BRANCH  71  84
ATOM     84  C   UNL A   1      45.319  33.504  29.382  1.00  0.00    -0.014 A 
ATOM     85  C   UNL A   1      45.086  34.664  28.627  1.00  0.00     0.009 A 
ATOM     86  C   UNL A   1      46.176  33.576  30.493  1.00  0.00     0.009 A 
ATOM     87  C   UNL A   1      45.725  35.862  28.958  1.00  0.00     0.001 A 
ATOM     88  C   UNL A   1      46.789  34.781  30.838  1.00  0.00     0.001 A 
ATOM     89  C   UNL A   1      46.570  35.920  30.065  1.00  0.00     0.000 A 
ENDBRANCH  71  84
ENDBRANCH  45  46
ENDBRANCH  38  40
ENDBRANCH  37  38
ENDBRANCH  36  37
ENDBRANCH  35  36
ENDBRANCH  34  35
ENDBRANCH   1  34
TORSDOF 19
ENDMDL
MODEL 3
REMARK VINA RESULT:     -11.0      1.674      2.318
REMARK SMILES CS(=O)(=O)c1ccc(/C=C(/C(=O)OCCOCCOC(=O)c2ccc(-c3c4nc(c(-c5ccccc5)c5ccc([nH]5)c(-c5ccccc5)c5nc(c(-c6ccccc6)c6ccc3[nH]6)C=C5)C=C4)cc2)c2cccc(-c3ccc(S(C)(=O)=O)cc3)c2)cc1
REMARK SMILES IDX 15 1 14 2 13 3 11 4 12 5 10 6 9 7 8 8 5 9 6 10 87 11 7 12
REMARK SMILES IDX 86 13 2 14 1 15 3 16 4 17 70 18 71 19 85 20 72 21 74 22
REMARK SMILES IDX 73 23 75 24 76 25 84 26 77 27 83 28 78 29 79 30 80 31 81 32
REMARK SMILES IDX 82 33 16 34 17 35 18 36 19 37 20 38 21 39 22 40 23 41 69 42
REMARK SMILES IDX 24 43 68 44 25 45 26 46 27 47 62 48 28 49 67 50 61 51 63 52
REMARK SMILES IDX 29 53 66 54 60 55 59 56 30 58 52 59 37 60 51 61 38 62 41 63
REMARK SMILES IDX 50 64 64 65 39 66 40 67 49 69 65 70 42 71 31 72 32 73 36 74
REMARK SMILES IDX 33 75 35 76 34 77 53 78 54 79 58 80 55 81 57 82 56 83 43 84
REMARK SMILES IDX 44 85 48 86 45 87 47 88 46 89
REMARK H PARENT 63 57 41 68
REMARK Flexibility Score: inf
ROOT
ATOM      1  C   UNL A   1      33.614  22.863  24.483  1.00  0.00     0.202 C 
ENDROOT
BRANCH   1   2
ATOM      2  C   UNL A   1      32.454  22.799  25.481  1.00  0.00     0.261 C 
BRANCH   2   3
ATOM      3  O   UNL A   1      32.251  24.073  26.117  1.00  0.00    -0.460 OA
BRANCH   3   4
ATOM      4  C   UNL A   1      30.981  24.543  26.028  1.00  0.00     0.338 C 
ATOM      5  O   UNL A   1      30.059  24.247  26.775  1.00  0.00    -0.246 OA
BRANCH   4   6
ATOM      6  C   UNL A   1      30.843  25.588  24.965  1.00  0.00     0.067 C 
ATOM      7  C   UNL A   1      29.636  25.814  24.393  1.00  0.00     0.024 C 
BRANCH   7   8
ATOM      8  C   UNL A   1      29.208  27.014  23.625  1.00  0.00    -0.025 A 
ATOM      9  C   UNL A   1      28.339  29.533  22.730  1.00  0.00     0.067 A 
ATOM     10  C   UNL A   1      29.661  29.144  22.526  1.00  0.00     0.021 A 
ATOM     11  C   UNL A   1      27.420  28.642  23.282  1.00  0.00     0.021 A 
ATOM     12  C   UNL A   1      30.076  27.871  22.931  1.00  0.00     0.009 A 
ATOM     13  C   UNL A   1      27.857  27.386  23.721  1.00  0.00     0.009 A 
BRANCH   9  14
ATOM     14  S   UNL A   1      27.866  31.224  22.448  1.00  0.00     0.175 S 
ATOM     15  C   UNL A   1      29.367  32.131  22.676  1.00  0.00     0.163 C 
ATOM     16  O   UNL A   1      26.951  31.602  23.511  1.00  0.00    -0.224 OA
ATOM     17  O   UNL A   1      27.479  31.340  21.057  1.00  0.00    -0.224 OA
ENDBRANCH   9  14
ENDBRANCH   7   8
BRANCH   6  18
ATOM     18  C   UNL A   1      32.031  26.431  24.746  1.00  0.00    -0.010 A 
ATOM     19  C   UNL A   1      32.794  26.311  23.577  1.00  0.00     0.009 A 
ATOM     20  C   UNL A   1      32.369  27.404  25.687  1.00  0.00     0.017 A 
ATOM     21  C   UNL A   1      33.872  27.163  23.349  1.00  0.00     0.001 A 
ATOM     22  C   UNL A   1      33.420  28.302  25.451  1.00  0.00    -0.018 A 
ATOM     23  C   UNL A   1      34.177  28.158  24.278  1.00  0.00     0.009 A 
BRANCH  22  24
ATOM     24  C   UNL A   1      33.635  29.409  26.387  1.00  0.00    -0.018 A 
ATOM     25  C   UNL A   1      34.823  29.487  27.132  1.00  0.00     0.010 A 
ATOM     26  C   UNL A   1      32.712  30.466  26.475  1.00  0.00     0.010 A 
ATOM     27  C   UNL A   1      35.091  30.593  27.936  1.00  0.00     0.021 A 
ATOM     28  C   UNL A   1      32.969  31.575  27.278  1.00  0.00     0.021 A 
ATOM     29  C   UNL A   1      34.155  31.626  28.009  1.00  0.00     0.067 A 
BRANCH  29  30
ATOM     30  S   UNL A   1      34.492  33.022  29.048  1.00  0.00     0.175 S 
ATOM     31  C   UNL A   1      33.199  34.155  28.611  1.00  0.00     0.163 C 
ATOM     32  O   UNL A   1      34.280  32.601  30.424  1.00  0.00    -0.224 OA
ATOM     33  O   UNL A   1      35.748  33.602  28.627  1.00  0.00    -0.224 OA
ENDBRANCH  29  30
ENDBRANCH  22  24
ENDBRANCH   6  18
ENDBRANCH   4   6
ENDBRANCH   3   4
ENDBRANCH   2   3
ENDBRANCH   1   2
BRANCH   1  34
ATOM     34  O   UNL A   1      34.789  22.114  24.792  1.00  0.00    -0.374 OA
BRANCH  34  35
ATOM     35  C   UNL A   1      35.453  22.393  26.020  1.00  0.00     0.202 C 
BRANCH  35  36
ATOM     36  C   UNL A   1      36.267  23.688  26.120  1.00  0.00     0.261 C 
BRANCH  36  37
ATOM     37  O   UNL A   1      37.514  23.626  25.413  1.00  0.00    -0.460 OA
BRANCH  37  38
ATOM     38  C   UNL A   1      38.550  23.180  26.162  1.00  0.00     0.338 C 
ATOM     39  O   UNL A   1      38.954  22.030  26.266  1.00  0.00    -0.246 OA
BRANCH  38  40
ATOM     40  C   UNL A   1      39.277  24.325  26.733  1.00  0.00     0.060 A 
ATOM     41  C   UNL A   1      39.938  25.178  25.840  1.00  0.00     0.016 A 
ATOM     42  C   UNL A   1      39.358  24.532  28.111  1.00  0.00     0.016 A 
ATOM     43  C   UNL A   1      40.720  26.222  26.325  1.00  0.00     0.010 A 
ATOM     44  C   UNL A   1      40.154  25.573  28.598  1.00  0.00     0.010 A 
ATOM     45  C   UNL A   1      40.862  26.400  27.707  1.00  0.00    -0.014 A 
BRANCH  45  46
ATOM     46  C   UNL A   1      41.868  27.361  28.213  1.00  0.00     0.031 A 
ATOM     47  C   UNL A   1      41.399  28.648  28.830  1.00  0.00     0.074 A 
ATOM     48  C   UNL A   1      43.180  27.074  28.154  1.00  0.00     0.049 A 
ATOM     49  N   UNL A   1      42.103  29.629  29.333  1.00  0.00    -0.248 NA
ATOM     50  C   UNL A   1      39.943  28.856  28.890  1.00  0.00     0.031 C 
ATOM     51  C   UNL A   1      43.752  25.841  27.615  1.00  0.00     0.029 A 
ATOM     52  N   UNL A   1      44.267  27.807  28.553  1.00  0.00    -0.354 N 
ATOM     53  C   UNL A   1      41.178  30.572  29.763  1.00  0.00     0.074 A 
ATOM     54  C   UNL A   1      39.864  30.061  29.436  1.00  0.00     0.031 C 
ATOM     55  C   UNL A   1      45.092  25.905  27.715  1.00  0.00     0.029 A 
ATOM     56  C   UNL A   1      45.468  27.193  28.294  1.00  0.00     0.049 A 
ATOM     57  H   UNL A   1      44.194  28.689  28.984  1.00  0.00     0.167 HD
ATOM     58  C   UNL A   1      41.401  31.757  30.379  1.00  0.00     0.031 A 
ATOM     59  C   UNL A   1      46.726  27.630  28.488  1.00  0.00     0.031 A 
ATOM     60  C   UNL A   1      42.708  32.272  30.692  1.00  0.00     0.049 A 
ATOM     61  C   UNL A   1      46.950  28.983  29.108  1.00  0.00     0.074 A 
ATOM     62  C   UNL A   1      43.038  33.454  31.332  1.00  0.00     0.029 A 
ATOM     63  N   UNL A   1      43.899  31.639  30.377  1.00  0.00    -0.354 N 
ATOM     64  N   UNL A   1      46.068  29.852  29.539  1.00  0.00    -0.248 NA
ATOM     65  C   UNL A   1      48.347  29.410  29.277  1.00  0.00     0.031 C 
ATOM     66  C   UNL A   1      44.433  33.562  31.354  1.00  0.00     0.029 A 
ATOM     67  C   UNL A   1      44.969  32.420  30.780  1.00  0.00     0.049 A 
ATOM     68  H   UNL A   1      43.974  30.765  29.931  1.00  0.00     0.167 HD
ATOM     69  C   UNL A   1      46.799  30.916  30.052  1.00  0.00     0.074 A 
ATOM     70  C   UNL A   1      48.199  30.576  29.892  1.00  0.00     0.031 C 
ATOM     71  C   UNL A   1      46.355  32.068  30.609  1.00  0.00     0.031 A 
BRANCH  58  72
ATOM     72  C   UNL A   1      40.201  32.594  30.723  1.00  0.00    -0.014 A 
ATOM     73  C   UNL A   1      39.766  33.629  29.881  1.00  0.00     0.009 A 
ATOM     74  C   UNL A   1      39.479  32.323  31.896  1.00  0.00     0.009 A 
ATOM     75  C   UNL A   1      38.651  34.397  30.224  1.00  0.00     0.001 A 
ATOM     76  C   UNL A   1      38.350  33.075  32.223  1.00  0.00     0.001 A 
ATOM     77  C   UNL A   1      37.942  34.116  31.392  1.00  0.00     0.000 A 
ENDBRANCH  58  72
BRANCH  59  78
ATOM     78  C   UNL A   1      47.877  26.786  28.075  1.00  0.00    -0.014 A 
ATOM     79  C   UNL A   1      48.414  26.888  26.784  1.00  0.00     0.009 A 
ATOM     80  C   UNL A   1      48.435  25.861  28.972  1.00  0.00     0.009 A 
ATOM     81  C   UNL A   1      49.474  26.065  26.393  1.00  0.00     0.001 A 
ATOM     82  C   UNL A   1      49.511  25.060  28.588  1.00  0.00     0.001 A 
ATOM     83  C   UNL A   1      50.024  25.155  27.295  1.00  0.00     0.000 A 
ENDBRANCH  59  78
BRANCH  71  84
ATOM     84  C   UNL A   1      47.391  33.033  31.114  1.00  0.00    -0.014 A 
ATOM     85  C   UNL A   1      47.765  33.060  32.467  1.00  0.00     0.009 A 
ATOM     86  C   UNL A   1      48.033  33.897  30.212  1.00  0.00     0.009 A 
ATOM     87  C   UNL A   1      48.739  33.959  32.911  1.00  0.00     0.001 A 
ATOM     88  C   UNL A   1      49.025  34.773  30.654  1.00  0.00     0.001 A 
ATOM     89  C   UNL A   1      49.370  34.809  32.005  1.00  0.00     0.000 A 
ENDBRANCH  71  84
ENDBRANCH  45  46
ENDBRANCH  38  40
ENDBRANCH  37  38
ENDBRANCH  36  37
ENDBRANCH  35  36
ENDBRANCH  34  35
ENDBRANCH   1  34
TORSDOF 19
ENDMDL
