MODEL 1
REMARK VINA RESULT:     -11.9      0.000      0.000
REMARK SMILES CC1=C[C@H](C)[C@H](CN2C[C@]34C=C[C@@H](O3)[C@H](C(=O)OCCOCCOC(=O)c3ccc(-c5c6nc(c(-c7ccccc7)c7ccc([nH]7)c(-c7ccccc7)c7nc(c(-c8ccccc8)c8ccc5[nH]8)C=C7)C=C6)cc3)[C@@H]4C2=O)[C@H](C)C1
REMARK SMILES IDX 21 1 20 2 19 3 18 4 16 5 17 6 15 7 8 8 9 9 76 10 10 11 75 12
REMARK SMILES IDX 77 13 11 14 14 15 12 16 13 17 7 18 6 19 1 20 2 21 3 22 80 23
REMARK SMILES IDX 4 24 78 25 5 26 79 27 22 28 23 29 24 30 25 31 26 32 27 33
REMARK SMILES IDX 28 34 74 35 29 36 73 37 30 38 31 39 32 40 67 41 33 42 72 43
REMARK SMILES IDX 66 44 68 45 34 46 71 47 65 48 64 49 35 51 57 52 42 53 56 54
REMARK SMILES IDX 43 55 46 56 55 57 69 58 44 59 45 60 54 62 70 63 47 64 36 65
REMARK SMILES IDX 37 66 41 67 38 68 40 69 39 70 58 71 59 72 63 73 60 74 62 75
REMARK SMILES IDX 61 76 48 77 49 78 53 79 50 80 52 81 51 82
REMARK H PARENT 68 50 46 61
REMARK Flexibility Score: inf
ROOT
ATOM      1  O   UNL A   1      41.161  20.684  25.607  1.00  0.00    -0.374 OA
ENDROOT
BRANCH   1   2
ATOM      2  C   UNL A   1      40.060  20.878  26.504  1.00  0.00     0.202 C 
BRANCH   2   3
ATOM      3  C   UNL A   1      39.179  22.086  26.156  1.00  0.00     0.261 C 
BRANCH   3   4
ATOM      4  O   UNL A   1      37.962  21.677  25.480  1.00  0.00    -0.463 OA
BRANCH   4   5
ATOM      5  C   UNL A   1      36.892  22.471  25.720  1.00  0.00     0.312 C 
ATOM      6  O   UNL A   1      36.992  23.661  26.003  1.00  0.00    -0.252 OA
BRANCH   5   7
ATOM      7  C   UNL A   1      35.541  21.821  25.518  1.00  0.00     0.148 C 
ATOM      8  N   UNL A   1      33.975  24.528  24.179  1.00  0.00    -0.339 N 
ATOM      9  C   UNL A   1      33.712  24.209  25.533  1.00  0.00     0.160 C 
ATOM     10  C   UNL A   1      34.572  23.454  23.589  1.00  0.00     0.230 C 
ATOM     11  C   UNL A   1      33.203  22.690  25.559  1.00  0.00     0.117 C 
ATOM     12  C   UNL A   1      34.435  22.324  24.570  1.00  0.00     0.133 C 
ATOM     13  O   UNL A   1      35.065  23.382  22.475  1.00  0.00    -0.274 OA
ATOM     14  C   UNL A   1      33.089  22.962  27.076  1.00  0.00     0.009 C 
ATOM     15  O   UNL A   1      33.464  21.307  26.043  1.00  0.00    -0.360 OA
ATOM     16  C   UNL A   1      34.116  22.401  27.727  1.00  0.00     0.004 C 
ATOM     17  C   UNL A   1      34.727  21.461  26.761  1.00  0.00     0.157 C 
BRANCH   8  18
ATOM     18  C   UNL A   1      33.783  25.881  23.695  1.00  0.00     0.124 C 
BRANCH  18  19
ATOM     19  C   UNL A   1      32.384  26.417  24.036  1.00  0.00     0.018 C 
ATOM     20  C   UNL A   1      29.681  29.875  23.327  1.00  0.00     0.039 C 
ATOM     21  C   UNL A   1      30.496  28.667  23.662  1.00  0.00    -0.077 C 
ATOM     22  C   UNL A   1      31.335  28.692  24.698  1.00  0.00    -0.025 C 
ATOM     23  C   UNL A   1      30.338  27.490  22.773  1.00  0.00     0.034 C 
ATOM     24  C   UNL A   1      32.426  27.697  24.932  1.00  0.00     0.014 C 
ATOM     25  C   UNL A   1      31.356  26.348  22.858  1.00  0.00    -0.005 C 
ATOM     26  C   UNL A   1      33.704  28.550  24.848  1.00  0.00     0.012 C 
ATOM     27  C   UNL A   1      31.894  26.035  21.450  1.00  0.00     0.008 C 
ENDBRANCH  18  19
ENDBRANCH   8  18
ENDBRANCH   5   7
ENDBRANCH   4   5
ENDBRANCH   3   4
ENDBRANCH   2   3
ENDBRANCH   1   2
BRANCH   1  28
ATOM     28  C   UNL A   1      42.439  20.654  26.237  1.00  0.00     0.202 C 
BRANCH  28  29
ATOM     29  C   UNL A   1      43.542  21.417  25.502  1.00  0.00     0.261 C 
BRANCH  29  30
ATOM     30  O   UNL A   1      43.031  22.597  24.862  1.00  0.00    -0.460 OA
BRANCH  30  31
ATOM     31  C   UNL A   1      43.849  23.677  24.929  1.00  0.00     0.338 C 
ATOM     32  O   UNL A   1      44.795  23.939  24.206  1.00  0.00    -0.246 OA
BRANCH  31  33
ATOM     33  C   UNL A   1      43.353  24.598  25.967  1.00  0.00     0.060 A 
ATOM     34  C   UNL A   1      43.978  25.840  26.118  1.00  0.00     0.016 A 
ATOM     35  C   UNL A   1      42.303  24.241  26.805  1.00  0.00     0.016 A 
ATOM     36  C   UNL A   1      43.551  26.732  27.113  1.00  0.00     0.010 A 
ATOM     37  C   UNL A   1      41.866  25.149  27.776  1.00  0.00     0.010 A 
ATOM     38  C   UNL A   1      42.480  26.410  27.957  1.00  0.00    -0.014 A 
BRANCH  38  39
ATOM     39  C   UNL A   1      41.994  27.347  29.034  1.00  0.00     0.031 A 
ATOM     40  C   UNL A   1      42.643  27.318  30.403  1.00  0.00     0.074 A 
ATOM     41  C   UNL A   1      40.922  28.157  28.863  1.00  0.00     0.049 A 
ATOM     42  N   UNL A   1      42.269  27.903  31.516  1.00  0.00    -0.248 NA
ATOM     43  C   UNL A   1      43.843  26.478  30.550  1.00  0.00     0.031 C 
ATOM     44  C   UNL A   1      40.104  28.265  27.652  1.00  0.00     0.029 A 
ATOM     45  N   UNL A   1      40.289  29.003  29.754  1.00  0.00    -0.354 N 
ATOM     46  C   UNL A   1      43.170  27.478  32.488  1.00  0.00     0.074 A 
ATOM     47  C   UNL A   1      44.032  26.503  31.859  1.00  0.00     0.031 C 
ATOM     48  C   UNL A   1      39.069  29.091  27.886  1.00  0.00     0.029 A 
ATOM     49  C   UNL A   1      39.123  29.554  29.270  1.00  0.00     0.049 A 
ATOM     50  H   UNL A   1      40.640  29.194  30.654  1.00  0.00     0.167 HD
ATOM     51  C   UNL A   1      43.329  27.900  33.766  1.00  0.00     0.031 A 
ATOM     52  C   UNL A   1      38.174  30.303  29.872  1.00  0.00     0.031 A 
ATOM     53  C   UNL A   1      42.543  28.923  34.395  1.00  0.00     0.049 A 
ATOM     54  C   UNL A   1      38.337  30.734  31.307  1.00  0.00     0.074 A 
ATOM     55  C   UNL A   1      42.739  29.522  35.628  1.00  0.00     0.029 A 
ATOM     56  N   UNL A   1      41.415  29.503  33.844  1.00  0.00    -0.354 N 
ATOM     57  N   UNL A   1      39.280  30.426  32.161  1.00  0.00    -0.248 NA
ATOM     58  C   UNL A   1      37.318  31.650  31.848  1.00  0.00     0.031 C 
ATOM     59  C   UNL A   1      41.702  30.434  35.844  1.00  0.00     0.029 A 
ATOM     60  C   UNL A   1      40.891  30.437  34.721  1.00  0.00     0.049 A 
ATOM     61  H   UNL A   1      41.041  29.284  32.960  1.00  0.00     0.167 HD
ATOM     62  C   UNL A   1      39.005  31.163  33.310  1.00  0.00     0.074 A 
ATOM     63  C   UNL A   1      37.800  31.918  33.053  1.00  0.00     0.031 C 
ATOM     64  C   UNL A   1      39.711  31.219  34.465  1.00  0.00     0.031 A 
BRANCH  51  65
ATOM     65  C   UNL A   1      44.454  27.288  34.557  1.00  0.00    -0.014 A 
ATOM     66  C   UNL A   1      44.265  26.092  35.272  1.00  0.00     0.009 A 
ATOM     67  C   UNL A   1      45.722  27.887  34.563  1.00  0.00     0.009 A 
ATOM     68  C   UNL A   1      45.302  25.547  36.027  1.00  0.00     0.001 A 
ATOM     69  C   UNL A   1      46.769  27.317  35.288  1.00  0.00     0.001 A 
ATOM     70  C   UNL A   1      46.555  26.157  36.031  1.00  0.00     0.000 A 
ENDBRANCH  51  65
BRANCH  52  71
ATOM     71  C   UNL A   1      36.950  30.720  29.130  1.00  0.00    -0.014 A 
ATOM     72  C   UNL A   1      35.978  29.773  28.774  1.00  0.00     0.009 A 
ATOM     73  C   UNL A   1      36.789  32.047  28.701  1.00  0.00     0.009 A 
ATOM     74  C   UNL A   1      34.894  30.136  27.972  1.00  0.00     0.001 A 
ATOM     75  C   UNL A   1      35.688  32.414  27.924  1.00  0.00     0.001 A 
ATOM     76  C   UNL A   1      34.748  31.457  27.548  1.00  0.00     0.000 A 
ENDBRANCH  52  71
BRANCH  64  77
ATOM     77  C   UNL A   1      39.268  32.193  35.521  1.00  0.00    -0.014 A 
ATOM     78  C   UNL A   1      39.717  33.522  35.539  1.00  0.00     0.009 A 
ATOM     79  C   UNL A   1      38.326  31.783  36.480  1.00  0.00     0.009 A 
ATOM     80  C   UNL A   1      39.247  34.413  36.507  1.00  0.00     0.001 A 
ATOM     81  C   UNL A   1      37.836  32.683  37.428  1.00  0.00     0.001 A 
ATOM     82  C   UNL A   1      38.301  33.996  37.445  1.00  0.00     0.000 A 
ENDBRANCH  64  77
ENDBRANCH  38  39
ENDBRANCH  31  33
ENDBRANCH  30  31
ENDBRANCH  29  30
ENDBRANCH  28  29
ENDBRANCH   1  28
TORSDOF 16
ENDMDL
MODEL 2
REMARK VINA RESULT:     -11.5      3.508      8.554
REMARK SMILES CC1=C[C@H](C)[C@H](CN2C[C@]34C=C[C@@H](O3)[C@H](C(=O)OCCOCCOC(=O)c3ccc(-c5c6nc(c(-c7ccccc7)c7ccc([nH]7)c(-c7ccccc7)c7nc(c(-c8ccccc8)c8ccc5[nH]8)C=C7)C=C6)cc3)[C@@H]4C2=O)[C@H](C)C1
REMARK SMILES IDX 21 1 20 2 19 3 18 4 16 5 17 6 15 7 8 8 9 9 76 10 10 11 75 12
REMARK SMILES IDX 77 13 11 14 14 15 12 16 13 17 7 18 6 19 1 20 2 21 3 22 80 23
REMARK SMILES IDX 4 24 78 25 5 26 79 27 22 28 23 29 24 30 25 31 26 32 27 33
REMARK SMILES IDX 28 34 74 35 29 36 73 37 30 38 31 39 32 40 67 41 33 42 72 43
REMARK SMILES IDX 66 44 68 45 34 46 71 47 65 48 64 49 35 51 57 52 42 53 56 54
REMARK SMILES IDX 43 55 46 56 55 57 69 58 44 59 45 60 54 62 70 63 47 64 36 65
REMARK SMILES IDX 37 66 41 67 38 68 40 69 39 70 58 71 59 72 63 73 60 74 62 75
REMARK SMILES IDX 61 76 48 77 49 78 53 79 50 80 52 81 51 82
REMARK H PARENT 68 50 46 61
REMARK Flexibility Score: inf
ROOT
ATOM      1  O   UNL A   1      32.707  31.109  27.287  1.00  0.00    -0.374 OA
ENDROOT
BRANCH   1   2
ATOM      2  C   UNL A   1      32.916  29.935  26.493  1.00  0.00     0.202 C 
BRANCH   2   3
ATOM      3  C   UNL A   1      33.553  28.768  27.262  1.00  0.00     0.261 C 
BRANCH   3   4
ATOM      4  O   UNL A   1      34.304  27.897  26.377  1.00  0.00    -0.463 OA
BRANCH   4   5
ATOM      5  C   UNL A   1      33.541  27.127  25.566  1.00  0.00     0.312 C 
ATOM      6  O   UNL A   1      33.792  26.956  24.376  1.00  0.00    -0.252 OA
BRANCH   5   7
ATOM      7  C   UNL A   1      32.403  26.396  26.242  1.00  0.00     0.148 C 
ATOM      8  N   UNL A   1      32.886  23.386  24.732  1.00  0.00    -0.339 N 
ATOM      9  C   UNL A   1      31.829  24.204  24.263  1.00  0.00     0.160 C 
ATOM     10  C   UNL A   1      33.294  23.858  25.944  1.00  0.00     0.230 C 
ATOM     11  C   UNL A   1      30.904  24.533  25.529  1.00  0.00     0.117 C 
ATOM     12  C   UNL A   1      32.259  24.866  26.356  1.00  0.00     0.133 C 
ATOM     13  O   UNL A   1      34.258  23.507  26.604  1.00  0.00    -0.274 OA
ATOM     14  C   UNL A   1      30.074  25.301  24.475  1.00  0.00     0.009 C 
ATOM     15  O   UNL A   1      30.358  25.594  26.419  1.00  0.00    -0.360 OA
ATOM     16  C   UNL A   1      30.302  26.617  24.572  1.00  0.00     0.004 C 
ATOM     17  C   UNL A   1      30.974  26.803  25.878  1.00  0.00     0.157 C 
BRANCH   8  18
ATOM     18  C   UNL A   1      33.473  22.383  23.866  1.00  0.00     0.124 C 
BRANCH  18  19
ATOM     19  C   UNL A   1      33.215  20.959  24.383  1.00  0.00     0.018 C 
ATOM     20  C   UNL A   1      33.885  16.682  23.371  1.00  0.00     0.039 C 
ATOM     21  C   UNL A   1      33.575  18.076  23.816  1.00  0.00    -0.077 C 
ATOM     22  C   UNL A   1      32.472  18.687  23.385  1.00  0.00    -0.025 C 
ATOM     23  C   UNL A   1      34.564  18.722  24.713  1.00  0.00     0.034 C 
ATOM     24  C   UNL A   1      32.222  20.157  23.481  1.00  0.00     0.014 C 
ATOM     25  C   UNL A   1      34.480  20.234  24.950  1.00  0.00    -0.005 C 
ATOM     26  C   UNL A   1      32.127  20.595  22.009  1.00  0.00     0.012 C 
ATOM     27  C   UNL A   1      35.856  20.872  24.686  1.00  0.00     0.008 C 
ENDBRANCH  18  19
ENDBRANCH   8  18
ENDBRANCH   5   7
ENDBRANCH   4   5
ENDBRANCH   3   4
ENDBRANCH   2   3
ENDBRANCH   1   2
BRANCH   1  28
ATOM     28  C   UNL A   1      31.753  32.023  26.753  1.00  0.00     0.202 C 
BRANCH  28  29
ATOM     29  C   UNL A   1      32.047  33.499  27.022  1.00  0.00     0.261 C 
BRANCH  29  30
ATOM     30  O   UNL A   1      32.224  33.754  28.425  1.00  0.00    -0.460 OA
BRANCH  30  31
ATOM     31  C   UNL A   1      33.161  34.691  28.716  1.00  0.00     0.338 C 
ATOM     32  O   UNL A   1      33.021  35.901  28.738  1.00  0.00    -0.246 OA
BRANCH  31  33
ATOM     33  C   UNL A   1      34.403  34.019  29.137  1.00  0.00     0.060 A 
ATOM     34  C   UNL A   1      35.478  33.972  28.243  1.00  0.00     0.016 A 
ATOM     35  C   UNL A   1      34.510  33.417  30.385  1.00  0.00     0.016 A 
ATOM     36  C   UNL A   1      36.667  33.318  28.599  1.00  0.00     0.010 A 
ATOM     37  C   UNL A   1      35.709  32.791  30.741  1.00  0.00     0.010 A 
ATOM     38  C   UNL A   1      36.812  32.723  29.859  1.00  0.00    -0.014 A 
BRANCH  38  39
ATOM     39  C   UNL A   1      38.078  32.015  30.273  1.00  0.00     0.031 A 
ATOM     40  C   UNL A   1      39.114  32.752  31.099  1.00  0.00     0.074 A 
ATOM     41  C   UNL A   1      38.383  30.765  29.852  1.00  0.00     0.049 A 
ATOM     42  N   UNL A   1      40.339  32.399  31.409  1.00  0.00    -0.248 NA
ATOM     43  C   UNL A   1      38.737  34.084  31.598  1.00  0.00     0.031 C 
ATOM     44  C   UNL A   1      37.563  29.923  28.977  1.00  0.00     0.029 A 
ATOM     45  N   UNL A   1      39.520  30.006  30.054  1.00  0.00    -0.354 N 
ATOM     46  C   UNL A   1      40.876  33.474  32.110  1.00  0.00     0.074 A 
ATOM     47  C   UNL A   1      39.887  34.528  32.078  1.00  0.00     0.031 C 
ATOM     48  C   UNL A   1      38.232  28.791  28.692  1.00  0.00     0.029 A 
ATOM     49  C   UNL A   1      39.542  28.830  29.334  1.00  0.00     0.049 A 
ATOM     50  H   UNL A   1      40.249  30.280  30.657  1.00  0.00     0.167 HD
ATOM     51  C   UNL A   1      42.047  33.569  32.786  1.00  0.00     0.031 A 
ATOM     52  C   UNL A   1      40.515  27.909  29.162  1.00  0.00     0.031 A 
ATOM     53  C   UNL A   1      43.013  32.514  32.905  1.00  0.00     0.049 A 
ATOM     54  C   UNL A   1      41.831  28.044  29.885  1.00  0.00     0.074 A 
ATOM     55  C   UNL A   1      44.147  32.471  33.700  1.00  0.00     0.029 A 
ATOM     56  N   UNL A   1      42.963  31.316  32.216  1.00  0.00    -0.354 N 
ATOM     57  N   UNL A   1      42.256  29.012  30.657  1.00  0.00    -0.248 NA
ATOM     58  C   UNL A   1      42.788  26.934  29.737  1.00  0.00     0.031 C 
ATOM     59  C   UNL A   1      44.808  31.264  33.458  1.00  0.00     0.029 A 
ATOM     60  C   UNL A   1      44.057  30.536  32.550  1.00  0.00     0.049 A 
ATOM     61  H   UNL A   1      42.255  31.057  31.582  1.00  0.00     0.167 HD
ATOM     62  C   UNL A   1      43.493  28.594  31.140  1.00  0.00     0.074 A 
ATOM     63  C   UNL A   1      43.761  27.297  30.562  1.00  0.00     0.031 C 
ATOM     64  C   UNL A   1      44.318  29.230  32.006  1.00  0.00     0.031 A 
BRANCH  51  65
ATOM     65  C   UNL A   1      42.318  34.859  33.513  1.00  0.00    -0.014 A 
ATOM     66  C   UNL A   1      41.852  35.059  34.824  1.00  0.00     0.009 A 
ATOM     67  C   UNL A   1      43.073  35.871  32.901  1.00  0.00     0.009 A 
ATOM     68  C   UNL A   1      42.079  36.267  35.481  1.00  0.00     0.001 A 
ATOM     69  C   UNL A   1      43.333  37.064  33.577  1.00  0.00     0.001 A 
ATOM     70  C   UNL A   1      42.823  37.268  34.859  1.00  0.00     0.000 A 
ENDBRANCH  51  65
BRANCH  52  71
ATOM     71  C   UNL A   1      40.306  26.742  28.259  1.00  0.00    -0.014 A 
ATOM     72  C   UNL A   1      40.814  26.757  26.951  1.00  0.00     0.009 A 
ATOM     73  C   UNL A   1      39.528  25.648  28.669  1.00  0.00     0.009 A 
ATOM     74  C   UNL A   1      40.513  25.722  26.062  1.00  0.00     0.001 A 
ATOM     75  C   UNL A   1      39.254  24.600  27.787  1.00  0.00     0.001 A 
ATOM     76  C   UNL A   1      39.735  24.643  26.481  1.00  0.00     0.000 A 
ENDBRANCH  52  71
BRANCH  64  77
ATOM     77  C   UNL A   1      45.553  28.508  32.470  1.00  0.00    -0.014 A 
ATOM     78  C   UNL A   1      45.533  27.636  33.569  1.00  0.00     0.009 A 
ATOM     79  C   UNL A   1      46.747  28.658  31.745  1.00  0.00     0.009 A 
ATOM     80  C   UNL A   1      46.688  26.945  33.943  1.00  0.00     0.001 A 
ATOM     81  C   UNL A   1      47.892  27.943  32.102  1.00  0.00     0.001 A 
ATOM     82  C   UNL A   1      47.864  27.092  33.205  1.00  0.00     0.000 A 
ENDBRANCH  64  77
ENDBRANCH  38  39
ENDBRANCH  31  33
ENDBRANCH  30  31
ENDBRANCH  29  30
ENDBRANCH  28  29
ENDBRANCH   1  28
TORSDOF 16
ENDMDL
MODEL 3
REMARK VINA RESULT:     -11.2      3.204      8.860
REMARK SMILES CC1=C[C@H](C)[C@H](CN2C[C@]34C=C[C@@H](O3)[C@H](C(=O)OCCOCCOC(=O)c3ccc(-c5c6nc(c(-c7ccccc7)c7ccc([nH]7)c(-c7ccccc7)c7nc(c(-c8ccccc8)c8ccc5[nH]8)C=C7)C=C6)cc3)[C@@H]4C2=O)[C@H](C)C1
REMARK SMILES IDX 21 1 20 2 19 3 18 4 16 5 17 6 15 7 8 8 9 9 76 10 10 11 75 12
REMARK SMILES IDX 77 13 11 14 14 15 12 16 13 17 7 18 6 19 1 20 2 21 3 22 80 23
REMARK SMILES IDX 4 24 78 25 5 26 79 27 22 28 23 29 24 30 25 31 26 32 27 33
REMARK SMILES IDX 28 34 74 35 29 36 73 37 30 38 31 39 32 40 67 41 33 42 72 43
REMARK SMILES IDX 66 44 68 45 34 46 71 47 65 48 64 49 35 51 57 52 42 53 56 54
REMARK SMILES IDX 43 55 46 56 55 57 69 58 44 59 45 60 54 62 70 63 47 64 36 65
REMARK SMILES IDX 37 66 41 67 38 68 40 69 39 70 58 71 59 72 63 73 60 74 62 75
REMARK SMILES IDX 61 76 48 77 49 78 53 79 50 80 52 81 51 82
REMARK H PARENT 68 50 46 61
REMARK Flexibility Score: inf
ROOT
ATOM      1  O   UNL A   1      31.621  30.894  26.799  1.00  0.00    -0.374 OA
ENDROOT
BRANCH   1   2
ATOM      2  C   UNL A   1      32.767  30.181  27.280  1.00  0.00     0.202 C 
BRANCH   2   3
ATOM      3  C   UNL A   1      33.626  29.560  26.169  1.00  0.00     0.261 C 
BRANCH   3   4
ATOM      4  O   UNL A   1      34.024  28.205  26.503  1.00  0.00    -0.463 OA
BRANCH   4   5
ATOM      5  C   UNL A   1      33.465  27.247  25.728  1.00  0.00     0.312 C 
ATOM      6  O   UNL A   1      33.904  26.941  24.622  1.00  0.00    -0.252 OA
BRANCH   5   7
ATOM      7  C   UNL A   1      32.312  26.493  26.352  1.00  0.00     0.148 C 
ATOM      8  N   UNL A   1      32.892  23.508  24.826  1.00  0.00    -0.339 N 
ATOM      9  C   UNL A   1      31.843  24.318  24.328  1.00  0.00     0.160 C 
ATOM     10  C   UNL A   1      33.248  23.971  26.058  1.00  0.00     0.230 C 
ATOM     11  C   UNL A   1      30.867  24.620  25.562  1.00  0.00     0.117 C 
ATOM     12  C   UNL A   1      32.185  24.960  26.443  1.00  0.00     0.133 C 
ATOM     13  O   UNL A   1      34.191  23.625  26.750  1.00  0.00    -0.274 OA
ATOM     14  C   UNL A   1      30.066  25.389  24.486  1.00  0.00     0.009 C 
ATOM     15  O   UNL A   1      30.273  25.662  26.443  1.00  0.00    -0.360 OA
ATOM     16  C   UNL A   1      30.273  26.706  24.607  1.00  0.00     0.004 C 
ATOM     17  C   UNL A   1      30.893  26.886  25.939  1.00  0.00     0.157 C 
BRANCH   8  18
ATOM     18  C   UNL A   1      33.525  22.524  23.972  1.00  0.00     0.124 C 
BRANCH  18  19
ATOM     19  C   UNL A   1      33.261  21.090  24.457  1.00  0.00     0.018 C 
ATOM     20  C   UNL A   1      33.840  16.833  23.314  1.00  0.00     0.039 C 
ATOM     21  C   UNL A   1      33.563  18.219  23.805  1.00  0.00    -0.077 C 
ATOM     22  C   UNL A   1      32.457  18.856  23.421  1.00  0.00    -0.025 C 
ATOM     23  C   UNL A   1      34.586  18.826  24.691  1.00  0.00     0.034 C 
ATOM     24  C   UNL A   1      32.231  20.326  23.563  1.00  0.00     0.014 C 
ATOM     25  C   UNL A   1      34.530  20.332  24.970  1.00  0.00    -0.005 C 
ATOM     26  C   UNL A   1      32.102  20.805  22.106  1.00  0.00     0.012 C 
ATOM     27  C   UNL A   1      35.907  20.958  24.685  1.00  0.00     0.008 C 
ENDBRANCH  18  19
ENDBRANCH   8  18
ENDBRANCH   5   7
ENDBRANCH   4   5
ENDBRANCH   3   4
ENDBRANCH   2   3
ENDBRANCH   1   2
BRANCH   1  28
ATOM     28  C   UNL A   1      31.825  32.294  26.626  1.00  0.00     0.202 C 
BRANCH  28  29
ATOM     29  C   UNL A   1      32.595  32.982  27.754  1.00  0.00     0.261 C 
BRANCH  29  30
ATOM     30  O   UNL A   1      32.661  34.404  27.557  1.00  0.00    -0.460 OA
BRANCH  30  31
ATOM     31  C   UNL A   1      33.015  35.112  28.658  1.00  0.00     0.338 C 
ATOM     32  O   UNL A   1      32.420  36.047  29.165  1.00  0.00    -0.246 OA
BRANCH  31  33
ATOM     33  C   UNL A   1      34.214  34.503  29.261  1.00  0.00     0.060 A 
ATOM     34  C   UNL A   1      34.080  33.805  30.466  1.00  0.00     0.016 A 
ATOM     35  C   UNL A   1      35.465  34.635  28.669  1.00  0.00     0.016 A 
ATOM     36  C   UNL A   1      35.203  33.235  31.084  1.00  0.00     0.010 A 
ATOM     37  C   UNL A   1      36.574  34.039  29.279  1.00  0.00     0.010 A 
ATOM     38  C   UNL A   1      36.473  33.331  30.498  1.00  0.00    -0.014 A 
BRANCH  38  39
ATOM     39  C   UNL A   1      37.699  32.727  31.135  1.00  0.00     0.031 A 
ATOM     40  C   UNL A   1      38.313  31.475  30.542  1.00  0.00     0.074 A 
ATOM     41  C   UNL A   1      38.228  33.202  32.288  1.00  0.00     0.049 A 
ATOM     42  N   UNL A   1      39.250  30.694  31.026  1.00  0.00    -0.248 NA
ATOM     43  C   UNL A   1      37.763  31.012  29.257  1.00  0.00     0.031 C 
ATOM     44  C   UNL A   1      37.729  34.339  33.064  1.00  0.00     0.029 A 
ATOM     45  N   UNL A   1      39.278  32.727  33.052  1.00  0.00    -0.354 N 
ATOM     46  C   UNL A   1      39.374  29.646  30.121  1.00  0.00     0.074 A 
ATOM     47  C   UNL A   1      38.343  29.830  29.125  1.00  0.00     0.031 C 
ATOM     48  C   UNL A   1      38.443  34.452  34.199  1.00  0.00     0.029 A 
ATOM     49  C   UNL A   1      39.433  33.380  34.256  1.00  0.00     0.049 A 
ATOM     50  H   UNL A   1      39.862  31.989  32.762  1.00  0.00     0.167 HD
ATOM     51  C   UNL A   1      40.297  28.654  30.064  1.00  0.00     0.031 A 
ATOM     52  C   UNL A   1      40.238  33.126  35.310  1.00  0.00     0.031 A 
ATOM     53  C   UNL A   1      41.382  28.490  30.991  1.00  0.00     0.049 A 
ATOM     54  C   UNL A   1      41.233  31.996  35.256  1.00  0.00     0.074 A 
ATOM     55  C   UNL A   1      42.451  27.614  30.916  1.00  0.00     0.029 A 
ATOM     56  N   UNL A   1      41.540  29.217  32.157  1.00  0.00    -0.354 N 
ATOM     57  N   UNL A   1      41.421  31.102  34.318  1.00  0.00    -0.248 NA
ATOM     58  C   UNL A   1      42.155  31.865  36.398  1.00  0.00     0.031 C 
ATOM     59  C   UNL A   1      43.234  27.778  32.063  1.00  0.00     0.029 A 
ATOM     60  C   UNL A   1      42.677  28.793  32.823  1.00  0.00     0.049 A 
ATOM     61  H   UNL A   1      40.934  29.928  32.467  1.00  0.00     0.167 HD
ATOM     62  C   UNL A   1      42.522  30.354  34.724  1.00  0.00     0.074 A 
ATOM     63  C   UNL A   1      42.949  30.882  35.999  1.00  0.00     0.031 C 
ATOM     64  C   UNL A   1      43.132  29.332  34.077  1.00  0.00     0.031 A 
BRANCH  51  65
ATOM     65  C   UNL A   1      40.207  27.697  28.907  1.00  0.00    -0.014 A 
ATOM     66  C   UNL A   1      39.522  26.476  29.033  1.00  0.00     0.009 A 
ATOM     67  C   UNL A   1      40.779  28.027  27.669  1.00  0.00     0.009 A 
ATOM     68  C   UNL A   1      39.468  25.579  27.967  1.00  0.00     0.001 A 
ATOM     69  C   UNL A   1      40.689  27.145  26.591  1.00  0.00     0.001 A 
ATOM     70  C   UNL A   1      40.048  25.916  26.745  1.00  0.00     0.000 A 
ENDBRANCH  51  65
BRANCH  52  71
ATOM     71  C   UNL A   1      40.159  33.958  36.544  1.00  0.00    -0.014 A 
ATOM     72  C   UNL A   1      40.805  35.202  36.604  1.00  0.00     0.009 A 
ATOM     73  C   UNL A   1      39.512  33.477  37.693  1.00  0.00     0.009 A 
ATOM     74  C   UNL A   1      40.839  35.927  37.799  1.00  0.00     0.001 A 
ATOM     75  C   UNL A   1      39.523  34.217  38.878  1.00  0.00     0.001 A 
ATOM     76  C   UNL A   1      40.197  35.435  38.934  1.00  0.00     0.000 A 
ENDBRANCH  52  71
BRANCH  64  77
ATOM     77  C   UNL A   1      44.389  28.762  34.674  1.00  0.00    -0.014 A 
ATOM     78  C   UNL A   1      44.366  27.651  35.529  1.00  0.00     0.009 A 
ATOM     79  C   UNL A   1      45.630  29.317  34.317  1.00  0.00     0.009 A 
ATOM     80  C   UNL A   1      45.557  27.119  36.029  1.00  0.00     0.001 A 
ATOM     81  C   UNL A   1      46.820  28.765  34.793  1.00  0.00     0.001 A 
ATOM     82  C   UNL A   1      46.784  27.670  35.654  1.00  0.00     0.000 A 
ENDBRANCH  64  77
ENDBRANCH  38  39
ENDBRANCH  31  33
ENDBRANCH  30  31
ENDBRANCH  29  30
ENDBRANCH  28  29
ENDBRANCH   1  28
TORSDOF 16
ENDMDL
