MODEL 1
REMARK VINA RESULT:      -9.7      0.000      0.000
REMARK SMILES O=C(Cc1ccc(=O)n(C(F)F)c1)OCCOCCOC(=O)c1ccc(-c2c3nc(c(-c4ccccc4)c4ccc([nH]4)c(-c4ccccc4)c4nc(c(-c5ccccc5)c5ccc2[nH]5)C=C4)C=C3)cc1
REMARK SMILES IDX 17 1 16 2 15 3 14 4 2 5 1 6 3 7 4 8 5 9 13 10 6 11 9 12 7 13
REMARK SMILES IDX 8 14 10 15 11 16 12 17 18 18 19 19 20 20 21 21 22 22 23 23
REMARK SMILES IDX 24 24 70 25 25 26 69 27 26 28 27 29 28 30 63 31 29 32 68 33
REMARK SMILES IDX 62 34 64 35 30 36 67 37 61 38 60 39 31 41 53 42 38 43 52 44
REMARK SMILES IDX 39 45 42 46 51 47 65 48 40 49 41 50 50 52 66 53 43 54 32 55
REMARK SMILES IDX 33 56 37 57 34 58 36 59 35 60 54 61 55 62 59 63 56 64 58 65
REMARK SMILES IDX 57 66 44 67 45 68 49 69 46 70 48 71 47 72
REMARK H PARENT 64 40 42 51
REMARK Flexibility Score: inf
ROOT
ATOM      1  O   UNL A   1      31.684  30.919  26.062  1.00  0.00    -0.374 OA
ENDROOT
BRANCH   1   2
ATOM      2  C   UNL A   1      32.764  30.282  26.741  1.00  0.00     0.202 C 
BRANCH   2   3
ATOM      3  C   UNL A   1      33.538  29.271  25.906  1.00  0.00     0.261 C 
BRANCH   3   4
ATOM      4  O   UNL A   1      32.742  28.141  25.515  1.00  0.00    -0.463 OA
BRANCH   4   5
ATOM      5  C   UNL A   1      32.585  27.689  24.250  1.00  0.00     0.310 C 
ATOM      6  O   UNL A   1      32.981  26.557  23.964  1.00  0.00    -0.252 OA
BRANCH   5   7
ATOM      7  C   UNL A   1      31.949  28.565  23.181  1.00  0.00     0.159 C 
BRANCH   7   8
ATOM      8  C   UNL A   1      30.461  28.688  23.306  1.00  0.00    -0.020 A 
ATOM      9  C   UNL A   1      29.679  27.483  23.505  1.00  0.00     0.011 A 
ATOM     10  C   UNL A   1      29.824  29.868  23.229  1.00  0.00     0.099 A 
ATOM     11  C   UNL A   1      28.345  27.514  23.418  1.00  0.00     0.072 A 
ATOM     12  N   UNL A   1      28.442  29.937  23.229  1.00  0.00    -0.258 N 
ATOM     13  C   UNL A   1      27.637  28.807  23.216  1.00  0.00     0.254 A 
ATOM     14  O   UNL A   1      26.421  28.791  23.070  1.00  0.00    -0.269 OA
BRANCH  12  15
ATOM     15  C   UNL A   1      27.787  31.213  23.130  1.00  0.00     0.451 C 
ATOM     16  F   UNL A   1      27.067  31.472  24.248  1.00  0.00    -0.185 F 
ATOM     17  F   UNL A   1      28.682  32.216  22.962  1.00  0.00    -0.185 F 
ENDBRANCH  12  15
ENDBRANCH   7   8
ENDBRANCH   5   7
ENDBRANCH   4   5
ENDBRANCH   3   4
ENDBRANCH   2   3
ENDBRANCH   1   2
BRANCH   1  18
ATOM     18  C   UNL A   1      31.268  32.164  26.643  1.00  0.00     0.202 C 
BRANCH  18  19
ATOM     19  C   UNL A   1      32.430  33.093  27.013  1.00  0.00     0.261 C 
BRANCH  19  20
ATOM     20  O   UNL A   1      32.301  33.535  28.373  1.00  0.00    -0.460 OA
BRANCH  20  21
ATOM     21  C   UNL A   1      33.023  34.633  28.707  1.00  0.00     0.338 C 
ATOM     22  O   UNL A   1      32.669  35.797  28.633  1.00  0.00    -0.246 OA
BRANCH  21  23
ATOM     23  C   UNL A   1      34.241  34.189  29.424  1.00  0.00     0.060 A 
ATOM     24  C   UNL A   1      34.200  33.770  30.758  1.00  0.00     0.016 A 
ATOM     25  C   UNL A   1      35.467  34.273  28.748  1.00  0.00     0.016 A 
ATOM     26  C   UNL A   1      35.384  33.408  31.402  1.00  0.00     0.010 A 
ATOM     27  C   UNL A   1      36.649  33.908  29.391  1.00  0.00     0.010 A 
ATOM     28  C   UNL A   1      36.611  33.449  30.715  1.00  0.00    -0.014 A 
BRANCH  28  29
ATOM     29  C   UNL A   1      37.804  32.817  31.320  1.00  0.00     0.031 A 
ATOM     30  C   UNL A   1      38.393  33.290  32.610  1.00  0.00     0.074 A 
ATOM     31  C   UNL A   1      38.352  31.781  30.656  1.00  0.00     0.049 A 
ATOM     32  N   UNL A   1      39.366  32.757  33.303  1.00  0.00    -0.248 NA
ATOM     33  C   UNL A   1      37.827  34.512  33.199  1.00  0.00     0.031 C 
ATOM     34  C   UNL A   1      37.864  31.260  29.377  1.00  0.00     0.029 A 
ATOM     35  N   UNL A   1      39.411  30.970  30.966  1.00  0.00    -0.354 N 
ATOM     36  C   UNL A   1      39.519  33.561  34.424  1.00  0.00     0.074 A 
ATOM     37  C   UNL A   1      38.567  34.647  34.294  1.00  0.00     0.031 C 
ATOM     38  C   UNL A   1      38.594  30.190  29.033  1.00  0.00     0.029 A 
ATOM     39  C   UNL A   1      39.620  29.971  30.047  1.00  0.00     0.049 A 
ATOM     40  H   UNL A   1      39.968  31.091  31.769  1.00  0.00     0.167 HD
ATOM     41  C   UNL A   1      40.366  33.392  35.467  1.00  0.00     0.031 A 
ATOM     42  C   UNL A   1      40.529  28.979  30.023  1.00  0.00     0.031 A 
ATOM     43  C   UNL A   1      41.327  32.322  35.562  1.00  0.00     0.049 A 
ATOM     44  C   UNL A   1      41.488  28.845  31.169  1.00  0.00     0.074 A 
ATOM     45  C   UNL A   1      42.206  32.048  36.597  1.00  0.00     0.029 A 
ATOM     46  N   UNL A   1      41.549  31.361  34.586  1.00  0.00    -0.354 N 
ATOM     47  N   UNL A   1      41.567  29.565  32.262  1.00  0.00    -0.248 NA
ATOM     48  C   UNL A   1      42.472  27.758  31.090  1.00  0.00     0.031 C 
ATOM     49  C   UNL A   1      43.007  30.969  36.217  1.00  0.00     0.029 A 
ATOM     50  C   UNL A   1      42.575  30.517  34.979  1.00  0.00     0.049 A 
ATOM     51  H   UNL A   1      41.050  31.289  33.741  1.00  0.00     0.167 HD
ATOM     52  C   UNL A   1      42.594  29.009  33.010  1.00  0.00     0.074 A 
ATOM     53  C   UNL A   1      43.096  27.878  32.255  1.00  0.00     0.031 C 
ATOM     54  C   UNL A   1      43.074  29.402  34.214  1.00  0.00     0.031 A 
BRANCH  41  55
ATOM     55  C   UNL A   1      40.303  34.377  36.604  1.00  0.00    -0.014 A 
ATOM     56  C   UNL A   1      39.435  34.147  37.685  1.00  0.00     0.009 A 
ATOM     57  C   UNL A   1      41.010  35.588  36.550  1.00  0.00     0.009 A 
ATOM     58  C   UNL A   1      39.264  35.116  38.677  1.00  0.00     0.001 A 
ATOM     59  C   UNL A   1      40.859  36.543  37.558  1.00  0.00     0.001 A 
ATOM     60  C   UNL A   1      39.978  36.311  38.614  1.00  0.00     0.000 A 
ENDBRANCH  41  55
BRANCH  42  61
ATOM     61  C   UNL A   1      40.521  28.017  28.891  1.00  0.00    -0.014 A 
ATOM     62  C   UNL A   1      41.197  28.314  27.696  1.00  0.00     0.009 A 
ATOM     63  C   UNL A   1      39.774  26.832  28.970  1.00  0.00     0.009 A 
ATOM     64  C   UNL A   1      41.102  27.461  26.595  1.00  0.00     0.001 A 
ATOM     65  C   UNL A   1      39.708  25.964  27.877  1.00  0.00     0.001 A 
ATOM     66  C   UNL A   1      40.361  26.285  26.688  1.00  0.00     0.000 A 
ENDBRANCH  42  61
BRANCH  54  67
ATOM     67  C   UNL A   1      44.207  28.610  34.810  1.00  0.00    -0.014 A 
ATOM     68  C   UNL A   1      43.931  27.573  35.717  1.00  0.00     0.009 A 
ATOM     69  C   UNL A   1      45.543  28.956  34.560  1.00  0.00     0.009 A 
ATOM     70  C   UNL A   1      44.968  26.913  36.377  1.00  0.00     0.001 A 
ATOM     71  C   UNL A   1      46.580  28.273  35.199  1.00  0.00     0.001 A 
ATOM     72  C   UNL A   1      46.292  27.262  36.115  1.00  0.00     0.000 A 
ENDBRANCH  54  67
ENDBRANCH  28  29
ENDBRANCH  21  23
ENDBRANCH  20  21
ENDBRANCH  19  20
ENDBRANCH  18  19
ENDBRANCH   1  18
TORSDOF 16
ENDMDL
MODEL 2
REMARK VINA RESULT:      -9.7      0.986      6.227
REMARK SMILES O=C(Cc1ccc(=O)n(C(F)F)c1)OCCOCCOC(=O)c1ccc(-c2c3nc(c(-c4ccccc4)c4ccc([nH]4)c(-c4ccccc4)c4nc(c(-c5ccccc5)c5ccc2[nH]5)C=C4)C=C3)cc1
REMARK SMILES IDX 17 1 16 2 15 3 14 4 2 5 1 6 3 7 4 8 5 9 13 10 6 11 9 12 7 13
REMARK SMILES IDX 8 14 10 15 11 16 12 17 18 18 19 19 20 20 21 21 22 22 23 23
REMARK SMILES IDX 24 24 70 25 25 26 69 27 26 28 27 29 28 30 63 31 29 32 68 33
REMARK SMILES IDX 62 34 64 35 30 36 67 37 61 38 60 39 31 41 53 42 38 43 52 44
REMARK SMILES IDX 39 45 42 46 51 47 65 48 40 49 41 50 50 52 66 53 43 54 32 55
REMARK SMILES IDX 33 56 37 57 34 58 36 59 35 60 54 61 55 62 59 63 56 64 58 65
REMARK SMILES IDX 57 66 44 67 45 68 49 69 46 70 48 71 47 72
REMARK H PARENT 64 40 42 51
REMARK Flexibility Score: inf
ROOT
ATOM      1  O   UNL A   1      31.707  31.140  26.191  1.00  0.00    -0.374 OA
ENDROOT
BRANCH   1   2
ATOM      2  C   UNL A   1      32.758  30.489  26.902  1.00  0.00     0.202 C 
BRANCH   2   3
ATOM      3  C   UNL A   1      33.520  29.444  26.099  1.00  0.00     0.261 C 
BRANCH   3   4
ATOM      4  O   UNL A   1      32.663  28.447  25.521  1.00  0.00    -0.463 OA
BRANCH   4   5
ATOM      5  C   UNL A   1      32.717  28.006  24.243  1.00  0.00     0.310 C 
ATOM      6  O   UNL A   1      33.359  26.986  23.988  1.00  0.00    -0.252 OA
BRANCH   5   7
ATOM      7  C   UNL A   1      32.018  28.767  23.126  1.00  0.00     0.159 C 
BRANCH   7   8
ATOM      8  C   UNL A   1      30.527  28.819  23.271  1.00  0.00    -0.020 A 
ATOM      9  C   UNL A   1      29.803  27.576  23.458  1.00  0.00     0.011 A 
ATOM     10  C   UNL A   1      29.836  29.970  23.223  1.00  0.00     0.099 A 
ATOM     11  C   UNL A   1      28.468  27.548  23.387  1.00  0.00     0.072 A 
ATOM     12  N   UNL A   1      28.453  29.976  23.240  1.00  0.00    -0.258 N 
ATOM     13  C   UNL A   1      27.700  28.811  23.217  1.00  0.00     0.254 A 
ATOM     14  O   UNL A   1      26.484  28.742  23.085  1.00  0.00    -0.269 OA
BRANCH  12  15
ATOM     15  C   UNL A   1      27.739  31.222  23.172  1.00  0.00     0.451 C 
ATOM     16  F   UNL A   1      27.014  31.424  24.299  1.00  0.00    -0.185 F 
ATOM     17  F   UNL A   1      28.587  32.269  23.023  1.00  0.00    -0.185 F 
ENDBRANCH  12  15
ENDBRANCH   7   8
ENDBRANCH   5   7
ENDBRANCH   4   5
ENDBRANCH   3   4
ENDBRANCH   2   3
ENDBRANCH   1   2
BRANCH   1  18
ATOM     18  C   UNL A   1      31.266  32.373  26.780  1.00  0.00     0.202 C 
BRANCH  18  19
ATOM     19  C   UNL A   1      32.378  33.415  26.939  1.00  0.00     0.261 C 
BRANCH  19  20
ATOM     20  O   UNL A   1      32.351  33.975  28.261  1.00  0.00    -0.460 OA
BRANCH  20  21
ATOM     21  C   UNL A   1      33.385  34.794  28.576  1.00  0.00     0.338 C 
ATOM     22  O   UNL A   1      33.361  36.010  28.666  1.00  0.00    -0.246 OA
BRANCH  21  23
ATOM     23  C   UNL A   1      34.514  33.958  29.046  1.00  0.00     0.060 A 
ATOM     24  C   UNL A   1      35.836  34.230  28.678  1.00  0.00     0.016 A 
ATOM     25  C   UNL A   1      34.216  32.825  29.817  1.00  0.00     0.016 A 
ATOM     26  C   UNL A   1      36.858  33.384  29.107  1.00  0.00     0.010 A 
ATOM     27  C   UNL A   1      35.238  31.981  30.249  1.00  0.00     0.010 A 
ATOM     28  C   UNL A   1      36.569  32.270  29.917  1.00  0.00    -0.014 A 
BRANCH  28  29
ATOM     29  C   UNL A   1      37.676  31.544  30.578  1.00  0.00     0.031 A 
ATOM     30  C   UNL A   1      38.468  30.485  29.878  1.00  0.00     0.074 A 
ATOM     31  C   UNL A   1      37.952  31.875  31.853  1.00  0.00     0.049 A 
ATOM     32  N   UNL A   1      39.531  29.852  30.302  1.00  0.00    -0.248 NA
ATOM     33  C   UNL A   1      38.015  30.081  28.539  1.00  0.00     0.031 C 
ATOM     34  C   UNL A   1      37.221  32.879  32.630  1.00  0.00     0.029 A 
ATOM     35  N   UNL A   1      38.924  31.431  32.710  1.00  0.00    -0.354 N 
ATOM     36  C   UNL A   1      39.893  28.989  29.278  1.00  0.00     0.074 A 
ATOM     37  C   UNL A   1      38.907  29.147  28.228  1.00  0.00     0.031 C 
ATOM     38  C   UNL A   1      37.797  33.005  33.833  1.00  0.00     0.029 A 
ATOM     39  C   UNL A   1      38.913  32.070  33.926  1.00  0.00     0.049 A 
ATOM     40  H   UNL A   1      39.566  30.722  32.478  1.00  0.00     0.167 HD
ATOM     41  C   UNL A   1      40.960  28.157  29.221  1.00  0.00     0.031 A 
ATOM     42  C   UNL A   1      39.717  31.931  34.996  1.00  0.00     0.031 A 
ATOM     43  C   UNL A   1      41.913  27.992  30.290  1.00  0.00     0.049 A 
ATOM     44  C   UNL A   1      40.863  30.966  34.922  1.00  0.00     0.074 A 
ATOM     45  C   UNL A   1      43.048  27.197  30.312  1.00  0.00     0.029 A 
ATOM     46  N   UNL A   1      41.839  28.615  31.527  1.00  0.00    -0.354 N 
ATOM     47  N   UNL A   1      41.242  30.216  33.916  1.00  0.00    -0.248 NA
ATOM     48  C   UNL A   1      41.701  30.837  36.121  1.00  0.00     0.031 C 
ATOM     49  C   UNL A   1      43.617  27.284  31.584  1.00  0.00     0.029 A 
ATOM     50  C   UNL A   1      42.885  28.194  32.331  1.00  0.00     0.049 A 
ATOM     51  H   UNL A   1      41.146  29.261  31.793  1.00  0.00     0.167 HD
ATOM     52  C   UNL A   1      42.372  29.540  34.351  1.00  0.00     0.074 A 
ATOM     53  C   UNL A   1      42.630  29.984  35.706  1.00  0.00     0.031 C 
ATOM     54  C   UNL A   1      43.126  28.634  33.683  1.00  0.00     0.031 A 
BRANCH  41  55
ATOM     55  C   UNL A   1      41.175  27.356  27.964  1.00  0.00    -0.014 A 
ATOM     56  C   UNL A   1      42.082  27.806  26.990  1.00  0.00     0.009 A 
ATOM     57  C   UNL A   1      40.393  26.223  27.689  1.00  0.00     0.009 A 
ATOM     58  C   UNL A   1      42.189  27.149  25.762  1.00  0.00     0.001 A 
ATOM     59  C   UNL A   1      40.524  25.551  26.472  1.00  0.00     0.001 A 
ATOM     60  C   UNL A   1      41.412  26.020  25.506  1.00  0.00     0.000 A 
ENDBRANCH  41  55
BRANCH  42  61
ATOM     61  C   UNL A   1      39.477  32.774  36.196  1.00  0.00    -0.014 A 
ATOM     62  C   UNL A   1      40.243  33.930  36.422  1.00  0.00     0.009 A 
ATOM     63  C   UNL A   1      38.534  32.387  37.160  1.00  0.00     0.009 A 
ATOM     64  C   UNL A   1      40.092  34.663  37.601  1.00  0.00     0.001 A 
ATOM     65  C   UNL A   1      38.363  33.141  38.324  1.00  0.00     0.001 A 
ATOM     66  C   UNL A   1      39.149  34.270  38.548  1.00  0.00     0.000 A 
ENDBRANCH  42  61
BRANCH  54  67
ATOM     67  C   UNL A   1      44.315  28.048  34.397  1.00  0.00    -0.014 A 
ATOM     68  C   UNL A   1      45.577  28.650  34.259  1.00  0.00     0.009 A 
ATOM     69  C   UNL A   1      44.208  26.848  35.115  1.00  0.00     0.009 A 
ATOM     70  C   UNL A   1      46.711  28.050  34.807  1.00  0.00     0.001 A 
ATOM     71  C   UNL A   1      45.341  26.266  35.689  1.00  0.00     0.001 A 
ATOM     72  C   UNL A   1      46.592  26.861  35.524  1.00  0.00     0.000 A 
ENDBRANCH  54  67
ENDBRANCH  28  29
ENDBRANCH  21  23
ENDBRANCH  20  21
ENDBRANCH  19  20
ENDBRANCH  18  19
ENDBRANCH   1  18
TORSDOF 16
ENDMDL
MODEL 3
REMARK VINA RESULT:      -9.7      4.858      7.514
REMARK SMILES O=C(Cc1ccc(=O)n(C(F)F)c1)OCCOCCOC(=O)c1ccc(-c2c3nc(c(-c4ccccc4)c4ccc([nH]4)c(-c4ccccc4)c4nc(c(-c5ccccc5)c5ccc2[nH]5)C=C4)C=C3)cc1
REMARK SMILES IDX 17 1 16 2 15 3 14 4 2 5 1 6 3 7 4 8 5 9 13 10 6 11 9 12 7 13
REMARK SMILES IDX 8 14 10 15 11 16 12 17 18 18 19 19 20 20 21 21 22 22 23 23
REMARK SMILES IDX 24 24 70 25 25 26 69 27 26 28 27 29 28 30 63 31 29 32 68 33
REMARK SMILES IDX 62 34 64 35 30 36 67 37 61 38 60 39 31 41 53 42 38 43 52 44
REMARK SMILES IDX 39 45 42 46 51 47 65 48 40 49 41 50 50 52 66 53 43 54 32 55
REMARK SMILES IDX 33 56 37 57 34 58 36 59 35 60 54 61 55 62 59 63 56 64 58 65
REMARK SMILES IDX 57 66 44 67 45 68 49 69 46 70 48 71 47 72
REMARK H PARENT 64 40 42 51
REMARK Flexibility Score: inf
ROOT
ATOM      1  O   UNL A   1      32.662  36.790  31.154  1.00  0.00    -0.374 OA
ENDROOT
BRANCH   1   2
ATOM      2  C   UNL A   1      33.190  37.497  32.274  1.00  0.00     0.202 C 
BRANCH   2   3
ATOM      3  C   UNL A   1      34.023  36.653  33.228  1.00  0.00     0.261 C 
BRANCH   3   4
ATOM      4  O   UNL A   1      34.747  35.605  32.563  1.00  0.00    -0.463 OA
BRANCH   4   5
ATOM      5  C   UNL A   1      35.741  34.867  33.108  1.00  0.00     0.310 C 
ATOM      6  O   UNL A   1      36.904  35.261  33.009  1.00  0.00    -0.252 OA
BRANCH   5   7
ATOM      7  C   UNL A   1      35.440  33.553  33.815  1.00  0.00     0.159 C 
BRANCH   7   8
ATOM      8  C   UNL A   1      36.501  33.133  34.787  1.00  0.00    -0.020 A 
ATOM      9  C   UNL A   1      36.564  33.796  36.075  1.00  0.00     0.011 A 
ATOM     10  C   UNL A   1      37.400  32.177  34.506  1.00  0.00     0.099 A 
ATOM     11  C   UNL A   1      37.607  33.604  36.889  1.00  0.00     0.072 A 
ATOM     12  N   UNL A   1      38.439  31.893  35.374  1.00  0.00    -0.258 N 
ATOM     13  C   UNL A   1      38.670  32.627  36.528  1.00  0.00     0.254 A 
ATOM     14  O   UNL A   1      39.647  32.528  37.262  1.00  0.00    -0.269 OA
BRANCH  12  15
ATOM     15  C   UNL A   1      39.397  30.873  35.040  1.00  0.00     0.451 C 
ATOM     16  F   UNL A   1      39.485  29.954  36.030  1.00  0.00    -0.185 F 
ATOM     17  F   UNL A   1      39.055  30.232  33.896  1.00  0.00    -0.185 F 
ENDBRANCH  12  15
ENDBRANCH   7   8
ENDBRANCH   5   7
ENDBRANCH   4   5
ENDBRANCH   3   4
ENDBRANCH   2   3
ENDBRANCH   1   2
BRANCH   1  18
ATOM     18  C   UNL A   1      33.118  37.269  29.879  1.00  0.00     0.202 C 
BRANCH  18  19
ATOM     19  C   UNL A   1      33.305  36.164  28.834  1.00  0.00     0.261 C 
BRANCH  19  20
ATOM     20  O   UNL A   1      33.181  34.871  29.447  1.00  0.00    -0.460 OA
BRANCH  20  21
ATOM     21  C   UNL A   1      33.532  33.815  28.673  1.00  0.00     0.338 C 
ATOM     22  O   UNL A   1      33.002  33.451  27.638  1.00  0.00    -0.246 OA
BRANCH  21  23
ATOM     23  C   UNL A   1      34.839  33.303  29.150  1.00  0.00     0.060 A 
ATOM     24  C   UNL A   1      34.937  32.439  30.245  1.00  0.00     0.016 A 
ATOM     25  C   UNL A   1      35.999  33.773  28.516  1.00  0.00     0.016 A 
ATOM     26  C   UNL A   1      36.194  32.025  30.685  1.00  0.00     0.010 A 
ATOM     27  C   UNL A   1      37.255  33.356  28.954  1.00  0.00     0.010 A 
ATOM     28  C   UNL A   1      37.358  32.459  30.026  1.00  0.00    -0.014 A 
BRANCH  28  29
ATOM     29  C   UNL A   1      38.652  31.809  30.331  1.00  0.00     0.031 A 
ATOM     30  C   UNL A   1      39.637  32.398  31.290  1.00  0.00     0.074 A 
ATOM     31  C   UNL A   1      38.917  30.647  29.705  1.00  0.00     0.049 A 
ATOM     32  N   UNL A   1      40.754  31.878  31.730  1.00  0.00    -0.248 NA
ATOM     33  C   UNL A   1      39.340  33.736  31.822  1.00  0.00     0.031 C 
ATOM     34  C   UNL A   1      38.030  30.003  28.734  1.00  0.00     0.029 A 
ATOM     35  N   UNL A   1      39.984  29.792  29.803  1.00  0.00    -0.354 N 
ATOM     36  C   UNL A   1      41.286  32.810  32.609  1.00  0.00     0.074 A 
ATOM     37  C   UNL A   1      40.391  33.950  32.605  1.00  0.00     0.031 C 
ATOM     38  C   UNL A   1      38.567  28.834  28.358  1.00  0.00     0.029 A 
ATOM     39  C   UNL A   1      39.849  28.662  29.033  1.00  0.00     0.049 A 
ATOM     40  H   UNL A   1      40.769  29.971  30.368  1.00  0.00     0.167 HD
ATOM     41  C   UNL A   1      42.410  32.709  33.358  1.00  0.00     0.031 A 
ATOM     42  C   UNL A   1      40.660  27.598  28.892  1.00  0.00     0.031 A 
ATOM     43  C   UNL A   1      43.304  31.579  33.325  1.00  0.00     0.049 A 
ATOM     44  C   UNL A   1      41.923  27.535  29.698  1.00  0.00     0.074 A 
ATOM     45  C   UNL A   1      44.451  31.370  34.073  1.00  0.00     0.029 A 
ATOM     46  N   UNL A   1      43.165  30.477  32.493  1.00  0.00    -0.354 N 
ATOM     47  N   UNL A   1      42.373  28.386  30.587  1.00  0.00    -0.248 NA
ATOM     48  C   UNL A   1      42.783  26.362  29.496  1.00  0.00     0.031 C 
ATOM     49  C   UNL A   1      45.042  30.179  33.643  1.00  0.00     0.029 A 
ATOM     50  C   UNL A   1      44.224  29.605  32.683  1.00  0.00     0.049 A 
ATOM     51  H   UNL A   1      42.423  30.336  31.862  1.00  0.00     0.167 HD
ATOM     52  C   UNL A   1      43.557  27.846  31.066  1.00  0.00     0.074 A 
ATOM     53  C   UNL A   1      43.747  26.582  30.383  1.00  0.00     0.031 C 
ATOM     54  C   UNL A   1      44.408  28.354  31.989  1.00  0.00     0.031 A 
BRANCH  41  55
ATOM     55  C   UNL A   1      42.751  33.841  34.291  1.00  0.00    -0.014 A 
ATOM     56  C   UNL A   1      42.251  33.845  35.604  1.00  0.00     0.009 A 
ATOM     57  C   UNL A   1      43.464  34.961  33.835  1.00  0.00     0.009 A 
ATOM     58  C   UNL A   1      42.444  34.951  36.434  1.00  0.00     0.001 A 
ATOM     59  C   UNL A   1      43.680  36.054  34.677  1.00  0.00     0.001 A 
ATOM     60  C   UNL A   1      43.161  36.053  35.971  1.00  0.00     0.000 A 
ENDBRANCH  41  55
BRANCH  42  61
ATOM     61  C   UNL A   1      40.254  26.495  27.982  1.00  0.00    -0.014 A 
ATOM     62  C   UNL A   1      39.404  25.472  28.435  1.00  0.00     0.009 A 
ATOM     63  C   UNL A   1      40.775  26.417  26.683  1.00  0.00     0.009 A 
ATOM     64  C   UNL A   1      39.108  24.380  27.617  1.00  0.00     0.001 A 
ATOM     65  C   UNL A   1      40.451  25.339  25.855  1.00  0.00     0.001 A 
ATOM     66  C   UNL A   1      39.628  24.318  26.326  1.00  0.00     0.000 A 
ENDBRANCH  42  61
BRANCH  54  67
ATOM     67  C   UNL A   1      45.635  27.551  32.330  1.00  0.00    -0.014 A 
ATOM     68  C   UNL A   1      46.816  27.733  31.592  1.00  0.00     0.009 A 
ATOM     69  C   UNL A   1      45.592  26.544  33.306  1.00  0.00     0.009 A 
ATOM     70  C   UNL A   1      47.921  26.910  31.807  1.00  0.00     0.001 A 
ATOM     71  C   UNL A   1      46.710  25.742  33.542  1.00  0.00     0.001 A 
ATOM     72  C   UNL A   1      47.868  25.917  32.785  1.00  0.00     0.000 A 
ENDBRANCH  54  67
ENDBRANCH  28  29
ENDBRANCH  21  23
ENDBRANCH  20  21
ENDBRANCH  19  20
ENDBRANCH  18  19
ENDBRANCH   1  18
TORSDOF 16
ENDMDL
