MODEL 1
REMARK VINA RESULT:      -7.7      0.000      0.000
REMARK SMILES CCCC[C@H](C(=O)OCCOCCOC(=O)c1ccc(-c2c3nc(c(-c4ccccc4)c4ccc([nH]4)c(-c4ccccc4)c4nc(c(-c5ccccc5)c5ccc2[nH]5)C=C4)C=C3)cc1)[C@H](C)O
REMARK SMILES IDX 10 1 9 2 8 3 6 4 7 5 5 6 4 7 3 8 2 9 1 10 65 11 66 12 67 13
REMARK SMILES IDX 11 15 12 16 13 17 14 18 15 19 16 20 17 21 18 22 64 23 19 24
REMARK SMILES IDX 63 25 20 26 21 27 22 28 57 29 23 30 62 31 56 32 58 33 24 34
REMARK SMILES IDX 61 35 55 36 54 37 25 39 47 40 32 41 46 42 33 43 36 44 45 45
REMARK SMILES IDX 59 46 34 47 35 48 44 50 60 51 37 52 26 53 27 54 31 55 28 56
REMARK SMILES IDX 30 57 29 58 48 59 49 60 53 61 50 62 52 63 51 64 38 65 39 66
REMARK SMILES IDX 43 67 40 68 42 69 41 70
REMARK H PARENT 67 14 58 38 36 49
REMARK Flexibility Score: inf
ROOT
ATOM      1  C   UNL A   1      33.197  24.296  24.892  1.00  0.00     0.202 C 
ENDROOT
BRANCH   1   2
ATOM      2  C   UNL A   1      33.763  25.426  24.031  1.00  0.00     0.261 C 
BRANCH   2   3
ATOM      3  O   UNL A   1      32.961  26.626  24.064  1.00  0.00    -0.463 OA
BRANCH   3   4
ATOM      4  C   UNL A   1      33.039  27.352  25.210  1.00  0.00     0.311 C 
ATOM      5  O   UNL A   1      34.020  27.405  25.944  1.00  0.00    -0.252 OA
BRANCH   4   6
ATOM      6  C   UNL A   1      31.751  28.086  25.514  1.00  0.00     0.127 C 
BRANCH   6   7
ATOM      7  C   UNL A   1      31.932  28.819  26.863  1.00  0.00     0.018 C 
BRANCH   7   8
ATOM      8  C   UNL A   1      31.978  30.351  26.755  1.00  0.00     0.001 C 
BRANCH   8   9
ATOM      9  C   UNL A   1      33.099  31.072  27.504  1.00  0.00    -0.003 C 
ATOM     10  C   UNL A   1      34.481  30.488  27.267  1.00  0.00     0.004 C 
ENDBRANCH   8   9
ENDBRANCH   7   8
ENDBRANCH   6   7
BRANCH   6  11
ATOM     11  C   UNL A   1      31.430  29.079  24.377  1.00  0.00     0.125 C 
ATOM     12  C   UNL A   1      30.204  28.701  23.548  1.00  0.00     0.039 C 
BRANCH  11  13
ATOM     13  O   UNL A   1      32.537  29.318  23.510  1.00  0.00    -0.393 OA
ATOM     14  H   UNL A   1      33.365  29.158  23.990  1.00  0.00     0.210 HD
ENDBRANCH  11  13
ENDBRANCH   6  11
ENDBRANCH   4   6
ENDBRANCH   3   4
ENDBRANCH   2   3
ENDBRANCH   1   2
BRANCH   1  15
ATOM     15  O   UNL A   1      33.896  23.970  26.092  1.00  0.00    -0.374 OA
BRANCH  15  16
ATOM     16  C   UNL A   1      34.686  22.788  26.111  1.00  0.00     0.202 C 
BRANCH  16  17
ATOM     17  C   UNL A   1      36.052  22.846  25.419  1.00  0.00     0.261 C 
BRANCH  17  18
ATOM     18  O   UNL A   1      36.951  23.797  26.010  1.00  0.00    -0.460 OA
BRANCH  18  19
ATOM     19  C   UNL A   1      38.226  23.355  26.089  1.00  0.00     0.338 C 
ATOM     20  O   UNL A   1      38.686  22.323  25.610  1.00  0.00    -0.246 OA
BRANCH  19  21
ATOM     21  C   UNL A   1      39.097  24.351  26.729  1.00  0.00     0.060 A 
ATOM     22  C   UNL A   1      38.982  24.492  28.117  1.00  0.00     0.016 A 
ATOM     23  C   UNL A   1      39.896  25.224  25.986  1.00  0.00     0.016 A 
ATOM     24  C   UNL A   1      39.596  25.560  28.760  1.00  0.00     0.010 A 
ATOM     25  C   UNL A   1      40.510  26.303  26.635  1.00  0.00     0.010 A 
ATOM     26  C   UNL A   1      40.314  26.503  28.013  1.00  0.00    -0.014 A 
BRANCH  26  27
ATOM     27  C   UNL A   1      40.676  27.783  28.669  1.00  0.00     0.031 A 
ATOM     28  C   UNL A   1      42.113  28.024  29.050  1.00  0.00     0.074 A 
ATOM     29  C   UNL A   1      39.761  28.755  28.834  1.00  0.00     0.049 A 
ATOM     30  N   UNL A   1      42.673  29.106  29.528  1.00  0.00    -0.248 NA
ATOM     31  C   UNL A   1      43.043  26.899  28.860  1.00  0.00     0.031 C 
ATOM     32  C   UNL A   1      38.348  28.656  28.475  1.00  0.00     0.029 A 
ATOM     33  N   UNL A   1      39.897  30.026  29.330  1.00  0.00    -0.354 N 
ATOM     34  C   UNL A   1      44.017  28.794  29.692  1.00  0.00     0.074 A 
ATOM     35  C   UNL A   1      44.184  27.412  29.297  1.00  0.00     0.031 C 
ATOM     36  C   UNL A   1      37.746  29.825  28.757  1.00  0.00     0.029 A 
ATOM     37  C   UNL A   1      38.729  30.745  29.326  1.00  0.00     0.049 A 
ATOM     38  H   UNL A   1      40.752  30.388  29.658  1.00  0.00     0.167 HD
ATOM     39  C   UNL A   1      45.026  29.586  30.123  1.00  0.00     0.031 A 
ATOM     40  C   UNL A   1      38.480  32.005  29.732  1.00  0.00     0.031 A 
ATOM     41  C   UNL A   1      44.866  30.958  30.525  1.00  0.00     0.049 A 
ATOM     42  C   UNL A   1      39.614  32.853  30.244  1.00  0.00     0.074 A 
ATOM     43  C   UNL A   1      45.831  31.847  30.967  1.00  0.00     0.029 A 
ATOM     44  N   UNL A   1      43.660  31.637  30.536  1.00  0.00    -0.354 N 
ATOM     45  N   UNL A   1      40.885  32.556  30.358  1.00  0.00    -0.248 NA
ATOM     46  C   UNL A   1      39.276  34.222  30.664  1.00  0.00     0.031 C 
ATOM     47  C   UNL A   1      45.199  33.053  31.288  1.00  0.00     0.029 A 
ATOM     48  C   UNL A   1      43.850  32.929  30.996  1.00  0.00     0.049 A 
ATOM     49  H   UNL A   1      42.794  31.258  30.258  1.00  0.00     0.167 HD
ATOM     50  C   UNL A   1      41.503  33.706  30.833  1.00  0.00     0.074 A 
ATOM     51  C   UNL A   1      40.469  34.711  30.970  1.00  0.00     0.031 C 
ATOM     52  C   UNL A   1      42.810  33.915  31.126  1.00  0.00     0.031 A 
BRANCH  39  53
ATOM     53  C   UNL A   1      46.396  28.975  30.208  1.00  0.00    -0.014 A 
ATOM     54  C   UNL A   1      47.266  28.980  29.107  1.00  0.00     0.009 A 
ATOM     55  C   UNL A   1      46.833  28.414  31.418  1.00  0.00     0.009 A 
ATOM     56  C   UNL A   1      48.538  28.409  29.208  1.00  0.00     0.001 A 
ATOM     57  C   UNL A   1      48.112  27.865  31.523  1.00  0.00     0.001 A 
ATOM     58  C   UNL A   1      48.960  27.857  30.417  1.00  0.00     0.000 A 
ENDBRANCH  39  53
BRANCH  40  59
ATOM     59  C   UNL A   1      37.099  32.547  29.672  1.00  0.00    -0.014 A 
ATOM     60  C   UNL A   1      36.689  33.357  28.602  1.00  0.00     0.009 A 
ATOM     61  C   UNL A   1      36.191  32.277  30.707  1.00  0.00     0.009 A 
ATOM     62  C   UNL A   1      35.406  33.908  28.585  1.00  0.00     0.001 A 
ATOM     63  C   UNL A   1      34.900  32.806  30.674  1.00  0.00     0.001 A 
ATOM     64  C   UNL A   1      34.511  33.630  29.618  1.00  0.00     0.000 A 
ENDBRANCH  40  59
BRANCH  52  65
ATOM     65  C   UNL A   1      43.197  35.291  31.589  1.00  0.00    -0.014 A 
ATOM     66  C   UNL A   1      43.138  35.649  32.945  1.00  0.00     0.009 A 
ATOM     67  C   UNL A   1      43.653  36.234  30.655  1.00  0.00     0.009 A 
ATOM     68  C   UNL A   1      43.490  36.937  33.350  1.00  0.00     0.001 A 
ATOM     69  C   UNL A   1      44.031  37.513  31.067  1.00  0.00     0.001 A 
ATOM     70  C   UNL A   1      43.938  37.867  32.412  1.00  0.00     0.000 A 
ENDBRANCH  52  65
ENDBRANCH  26  27
ENDBRANCH  19  21
ENDBRANCH  18  19
ENDBRANCH  17  18
ENDBRANCH  16  17
ENDBRANCH  15  16
ENDBRANCH   1  15
TORSDOF 19
ENDMDL
MODEL 2
REMARK VINA RESULT:      -7.5      2.323      7.185
REMARK SMILES CCCC[C@H](C(=O)OCCOCCOC(=O)c1ccc(-c2c3nc(c(-c4ccccc4)c4ccc([nH]4)c(-c4ccccc4)c4nc(c(-c5ccccc5)c5ccc2[nH]5)C=C4)C=C3)cc1)[C@H](C)O
REMARK SMILES IDX 10 1 9 2 8 3 6 4 7 5 5 6 4 7 3 8 2 9 1 10 65 11 66 12 67 13
REMARK SMILES IDX 11 15 12 16 13 17 14 18 15 19 16 20 17 21 18 22 64 23 19 24
REMARK SMILES IDX 63 25 20 26 21 27 22 28 57 29 23 30 62 31 56 32 58 33 24 34
REMARK SMILES IDX 61 35 55 36 54 37 25 39 47 40 32 41 46 42 33 43 36 44 45 45
REMARK SMILES IDX 59 46 34 47 35 48 44 50 60 51 37 52 26 53 27 54 31 55 28 56
REMARK SMILES IDX 30 57 29 58 48 59 49 60 53 61 50 62 52 63 51 64 38 65 39 66
REMARK SMILES IDX 43 67 40 68 42 69 41 70
REMARK H PARENT 67 14 58 38 36 49
REMARK Flexibility Score: inf
ROOT
ATOM      1  C   UNL A   1      35.757  22.326  25.838  1.00  0.00     0.202 C 
ENDROOT
BRANCH   1   2
ATOM      2  C   UNL A   1      34.399  22.585  26.494  1.00  0.00     0.261 C 
BRANCH   2   3
ATOM      3  O   UNL A   1      34.031  23.981  26.511  1.00  0.00    -0.463 OA
BRANCH   3   4
ATOM      4  C   UNL A   1      33.079  24.347  25.614  1.00  0.00     0.311 C 
ATOM      5  O   UNL A   1      33.144  24.159  24.403  1.00  0.00    -0.252 OA
BRANCH   4   6
ATOM      6  C   UNL A   1      31.913  25.055  26.268  1.00  0.00     0.127 C 
BRANCH   6   7
ATOM      7  C   UNL A   1      31.889  26.511  25.748  1.00  0.00     0.018 C 
BRANCH   7   8
ATOM      8  C   UNL A   1      33.183  27.299  26.002  1.00  0.00     0.001 C 
BRANCH   8   9
ATOM      9  C   UNL A   1      33.081  28.550  26.877  1.00  0.00    -0.003 C 
ATOM     10  C   UNL A   1      31.753  28.694  27.601  1.00  0.00     0.004 C 
ENDBRANCH   8   9
ENDBRANCH   7   8
ENDBRANCH   6   7
BRANCH   6  11
ATOM     11  C   UNL A   1      30.597  24.321  25.934  1.00  0.00     0.125 C 
ATOM     12  C   UNL A   1      30.658  22.808  26.140  1.00  0.00     0.039 C 
BRANCH  11  13
ATOM     13  O   UNL A   1      30.114  24.605  24.622  1.00  0.00    -0.393 OA
ATOM     14  H   UNL A   1      29.708  23.807  24.247  1.00  0.00     0.210 HD
ENDBRANCH  11  13
ENDBRANCH   6  11
ENDBRANCH   4   6
ENDBRANCH   3   4
ENDBRANCH   2   3
ENDBRANCH   1   2
BRANCH   1  15
ATOM     15  O   UNL A   1      36.108  20.972  25.563  1.00  0.00    -0.374 OA
BRANCH  15  16
ATOM     16  C   UNL A   1      37.297  20.721  24.825  1.00  0.00     0.202 C 
BRANCH  16  17
ATOM     17  C   UNL A   1      38.606  21.285  25.388  1.00  0.00     0.261 C 
BRANCH  17  18
ATOM     18  O   UNL A   1      39.144  20.507  26.468  1.00  0.00    -0.460 OA
BRANCH  18  19
ATOM     19  C   UNL A   1      40.438  20.162  26.288  1.00  0.00     0.338 C 
ATOM     20  O   UNL A   1      40.869  19.143  25.756  1.00  0.00    -0.246 OA
BRANCH  19  21
ATOM     21  C   UNL A   1      41.342  21.247  26.697  1.00  0.00     0.060 A 
ATOM     22  C   UNL A   1      41.311  21.620  28.047  1.00  0.00     0.016 A 
ATOM     23  C   UNL A   1      42.088  21.979  25.771  1.00  0.00     0.016 A 
ATOM     24  C   UNL A   1      41.958  22.778  28.462  1.00  0.00     0.010 A 
ATOM     25  C   UNL A   1      42.735  23.149  26.190  1.00  0.00     0.010 A 
ATOM     26  C   UNL A   1      42.623  23.579  27.524  1.00  0.00    -0.014 A 
BRANCH  26  27
ATOM     27  C   UNL A   1      43.017  24.949  27.933  1.00  0.00     0.031 A 
ATOM     28  C   UNL A   1      41.938  25.975  28.168  1.00  0.00     0.074 A 
ATOM     29  C   UNL A   1      44.302  25.249  28.187  1.00  0.00     0.049 A 
ATOM     30  N   UNL A   1      42.043  27.193  28.635  1.00  0.00    -0.248 NA
ATOM     31  C   UNL A   1      40.562  25.571  27.840  1.00  0.00     0.031 C 
ATOM     32  C   UNL A   1      45.432  24.335  28.031  1.00  0.00     0.029 A 
ATOM     33  N   UNL A   1      44.867  26.409  28.650  1.00  0.00    -0.354 N 
ATOM     34  C   UNL A   1      40.749  27.699  28.659  1.00  0.00     0.074 A 
ATOM     35  C   UNL A   1      39.881  26.671  28.129  1.00  0.00     0.031 C 
ATOM     36  C   UNL A   1      46.558  24.969  28.401  1.00  0.00     0.029 A 
ATOM     37  C   UNL A   1      46.228  26.334  28.807  1.00  0.00     0.049 A 
ATOM     38  H   UNL A   1      44.346  27.220  28.852  1.00  0.00     0.167 HD
ATOM     39  C   UNL A   1      40.317  28.906  29.094  1.00  0.00     0.031 A 
ATOM     40  C   UNL A   1      47.108  27.260  29.232  1.00  0.00     0.031 A 
ATOM     41  C   UNL A   1      41.176  29.935  29.615  1.00  0.00     0.049 A 
ATOM     42  C   UNL A   1      46.607  28.609  29.673  1.00  0.00     0.074 A 
ATOM     43  C   UNL A   1      40.831  31.189  30.090  1.00  0.00     0.029 A 
ATOM     44  N   UNL A   1      42.552  29.829  29.725  1.00  0.00    -0.354 N 
ATOM     45  N   UNL A   1      45.377  29.058  29.726  1.00  0.00    -0.248 NA
ATOM     46  C   UNL A   1      47.619  29.571  30.134  1.00  0.00     0.031 C 
ATOM     47  C   UNL A   1      42.006  31.859  30.447  1.00  0.00     0.029 A 
ATOM     48  C   UNL A   1      43.076  31.001  30.242  1.00  0.00     0.049 A 
ATOM     49  H   UNL A   1      43.080  29.037  29.473  1.00  0.00     0.167 HD
ATOM     50  C   UNL A   1      45.464  30.341  30.253  1.00  0.00     0.074 A 
ATOM     51  C   UNL A   1      46.865  30.592  30.517  1.00  0.00     0.031 C 
ATOM     52  C   UNL A   1      44.473  31.233  30.499  1.00  0.00     0.031 A 
BRANCH  39  53
ATOM     53  C   UNL A   1      38.844  29.189  28.996  1.00  0.00    -0.014 A 
ATOM     54  C   UNL A   1      38.003  29.064  30.113  1.00  0.00     0.009 A 
ATOM     55  C   UNL A   1      38.298  29.616  27.776  1.00  0.00     0.009 A 
ATOM     56  C   UNL A   1      36.637  29.336  30.002  1.00  0.00     0.001 A 
ATOM     57  C   UNL A   1      36.937  29.908  27.674  1.00  0.00     0.001 A 
ATOM     58  C   UNL A   1      36.107  29.762  28.784  1.00  0.00     0.000 A 
ENDBRANCH  39  53
BRANCH  40  59
ATOM     59  C   UNL A   1      48.560  26.947  29.265  1.00  0.00    -0.014 A 
ATOM     60  C   UNL A   1      49.373  27.179  28.144  1.00  0.00     0.009 A 
ATOM     61  C   UNL A   1      49.133  26.387  30.416  1.00  0.00     0.009 A 
ATOM     62  C   UNL A   1      50.724  26.828  28.168  1.00  0.00     0.001 A 
ATOM     63  C   UNL A   1      50.491  26.063  30.446  1.00  0.00     0.001 A 
ATOM     64  C   UNL A   1      51.283  26.274  29.318  1.00  0.00     0.000 A 
ENDBRANCH  40  59
BRANCH  52  65
ATOM     65  C   UNL A   1      44.868  32.545  31.116  1.00  0.00    -0.014 A 
ATOM     66  C   UNL A   1      44.923  32.708  32.509  1.00  0.00     0.009 A 
ATOM     67  C   UNL A   1      45.214  33.624  30.289  1.00  0.00     0.009 A 
ATOM     68  C   UNL A   1      45.278  33.940  33.060  1.00  0.00     0.001 A 
ATOM     69  C   UNL A   1      45.596  34.847  30.843  1.00  0.00     0.001 A 
ATOM     70  C   UNL A   1      45.618  35.007  32.228  1.00  0.00     0.000 A 
ENDBRANCH  52  65
ENDBRANCH  26  27
ENDBRANCH  19  21
ENDBRANCH  18  19
ENDBRANCH  17  18
ENDBRANCH  16  17
ENDBRANCH  15  16
ENDBRANCH   1  15
TORSDOF 19
ENDMDL
MODEL 3
REMARK VINA RESULT:      -7.5      2.340      3.220
REMARK SMILES CCCC[C@H](C(=O)OCCOCCOC(=O)c1ccc(-c2c3nc(c(-c4ccccc4)c4ccc([nH]4)c(-c4ccccc4)c4nc(c(-c5ccccc5)c5ccc2[nH]5)C=C4)C=C3)cc1)[C@H](C)O
REMARK SMILES IDX 10 1 9 2 8 3 6 4 7 5 5 6 4 7 3 8 2 9 1 10 65 11 66 12 67 13
REMARK SMILES IDX 11 15 12 16 13 17 14 18 15 19 16 20 17 21 18 22 64 23 19 24
REMARK SMILES IDX 63 25 20 26 21 27 22 28 57 29 23 30 62 31 56 32 58 33 24 34
REMARK SMILES IDX 61 35 55 36 54 37 25 39 47 40 32 41 46 42 33 43 36 44 45 45
REMARK SMILES IDX 59 46 34 47 35 48 44 50 60 51 37 52 26 53 27 54 31 55 28 56
REMARK SMILES IDX 30 57 29 58 48 59 49 60 53 61 50 62 52 63 51 64 38 65 39 66
REMARK SMILES IDX 43 67 40 68 42 69 41 70
REMARK H PARENT 67 14 58 38 36 49
REMARK Flexibility Score: inf
ROOT
ATOM      1  C   UNL A   1      34.459  22.918  26.070  1.00  0.00     0.202 C 
ENDROOT
BRANCH   1   2
ATOM      2  C   UNL A   1      33.510  23.906  25.389  1.00  0.00     0.261 C 
BRANCH   2   3
ATOM      3  O   UNL A   1      34.148  24.692  24.360  1.00  0.00    -0.463 OA
BRANCH   3   4
ATOM      4  C   UNL A   1      33.619  25.926  24.151  1.00  0.00     0.311 C 
ATOM      5  O   UNL A   1      33.619  26.518  23.077  1.00  0.00    -0.252 OA
BRANCH   4   6
ATOM      6  C   UNL A   1      33.040  26.525  25.414  1.00  0.00     0.127 C 
BRANCH   6   7
ATOM      7  C   UNL A   1      33.908  27.745  25.800  1.00  0.00     0.018 C 
BRANCH   7   8
ATOM      8  C   UNL A   1      33.273  28.673  26.847  1.00  0.00     0.001 C 
BRANCH   8   9
ATOM      9  C   UNL A   1      34.220  29.509  27.708  1.00  0.00    -0.003 C 
ATOM     10  C   UNL A   1      35.693  29.281  27.413  1.00  0.00     0.004 C 
ENDBRANCH   8   9
ENDBRANCH   7   8
ENDBRANCH   6   7
BRANCH   6  11
ATOM     11  C   UNL A   1      31.572  26.937  25.176  1.00  0.00     0.125 C 
ATOM     12  C   UNL A   1      30.566  26.189  26.049  1.00  0.00     0.039 C 
BRANCH  11  13
ATOM     13  O   UNL A   1      31.178  26.847  23.808  1.00  0.00    -0.393 OA
ATOM     14  H   UNL A   1      31.700  27.469  23.279  1.00  0.00     0.210 HD
ENDBRANCH  11  13
ENDBRANCH   6  11
ENDBRANCH   4   6
ENDBRANCH   3   4
ENDBRANCH   2   3
ENDBRANCH   1   2
BRANCH   1  15
ATOM     15  O   UNL A   1      35.553  22.420  25.303  1.00  0.00    -0.374 OA
BRANCH  15  16
ATOM     16  C   UNL A   1      35.992  21.089  25.542  1.00  0.00     0.202 C 
BRANCH  16  17
ATOM     17  C   UNL A   1      37.372  20.698  25.003  1.00  0.00     0.261 C 
BRANCH  17  18
ATOM     18  O   UNL A   1      38.352  21.739  25.132  1.00  0.00    -0.460 OA
BRANCH  18  19
ATOM     19  C   UNL A   1      39.338  21.444  26.007  1.00  0.00     0.338 C 
ATOM     20  O   UNL A   1      39.972  20.395  26.088  1.00  0.00    -0.246 OA
BRANCH  19  21
ATOM     21  C   UNL A   1      39.699  22.614  26.820  1.00  0.00     0.060 A 
ATOM     22  C   UNL A   1      39.036  23.813  26.530  1.00  0.00     0.016 A 
ATOM     23  C   UNL A   1      40.753  22.584  27.737  1.00  0.00     0.016 A 
ATOM     24  C   UNL A   1      39.481  25.005  27.090  1.00  0.00     0.010 A 
ATOM     25  C   UNL A   1      41.202  23.788  28.296  1.00  0.00     0.010 A 
ATOM     26  C   UNL A   1      40.602  25.005  27.930  1.00  0.00    -0.014 A 
BRANCH  26  27
ATOM     27  C   UNL A   1      41.237  26.308  28.245  1.00  0.00     0.031 A 
ATOM     28  C   UNL A   1      42.582  26.624  27.644  1.00  0.00     0.074 A 
ATOM     29  C   UNL A   1      40.586  27.233  28.971  1.00  0.00     0.049 A 
ATOM     30  N   UNL A   1      43.269  27.737  27.691  1.00  0.00    -0.248 NA
ATOM     31  C   UNL A   1      43.236  25.545  26.886  1.00  0.00     0.031 C 
ATOM     32  C   UNL A   1      39.268  27.061  29.576  1.00  0.00     0.029 A 
ATOM     33  N   UNL A   1      40.947  28.514  29.302  1.00  0.00    -0.354 N 
ATOM     34  C   UNL A   1      44.430  27.495  26.968  1.00  0.00     0.074 A 
ATOM     35  C   UNL A   1      44.373  26.120  26.522  1.00  0.00     0.031 C 
ATOM     36  C   UNL A   1      38.925  28.200  30.203  1.00  0.00     0.029 A 
ATOM     37  C   UNL A   1      40.004  29.174  30.050  1.00  0.00     0.049 A 
ATOM     38  H   UNL A   1      41.800  28.922  29.030  1.00  0.00     0.167 HD
ATOM     39  C   UNL A   1      45.449  28.341  26.688  1.00  0.00     0.031 A 
ATOM     40  C   UNL A   1      40.010  30.423  30.553  1.00  0.00     0.031 A 
ATOM     41  C   UNL A   1      45.515  29.707  27.135  1.00  0.00     0.049 A 
ATOM     42  C   UNL A   1      41.173  31.332  30.260  1.00  0.00     0.074 A 
ATOM     43  C   UNL A   1      46.502  30.647  26.895  1.00  0.00     0.029 A 
ATOM     44  N   UNL A   1      44.554  30.324  27.918  1.00  0.00    -0.354 N 
ATOM     45  N   UNL A   1      42.245  31.101  29.543  1.00  0.00    -0.248 NA
ATOM     46  C   UNL A   1      41.113  32.686  30.832  1.00  0.00     0.031 C 
ATOM     47  C   UNL A   1      46.158  31.823  27.571  1.00  0.00     0.029 A 
ATOM     48  C   UNL A   1      44.932  31.628  28.188  1.00  0.00     0.049 A 
ATOM     49  H   UNL A   1      43.724  29.900  28.235  1.00  0.00     0.167 HD
ATOM     50  C   UNL A   1      42.972  32.285  29.553  1.00  0.00     0.074 A 
ATOM     51  C   UNL A   1      42.210  33.238  30.333  1.00  0.00     0.031 C 
ATOM     52  C   UNL A   1      44.162  32.562  28.966  1.00  0.00     0.031 A 
BRANCH  39  53
ATOM     53  C   UNL A   1      46.594  27.800  25.880  1.00  0.00    -0.014 A 
ATOM     54  C   UNL A   1      47.663  27.126  26.491  1.00  0.00     0.009 A 
ATOM     55  C   UNL A   1      46.587  27.940  24.484  1.00  0.00     0.009 A 
ATOM     56  C   UNL A   1      48.716  26.627  25.721  1.00  0.00     0.001 A 
ATOM     57  C   UNL A   1      47.630  27.420  23.715  1.00  0.00     0.001 A 
ATOM     58  C   UNL A   1      48.696  26.770  24.334  1.00  0.00     0.000 A 
ENDBRANCH  39  53
BRANCH  40  59
ATOM     59  C   UNL A   1      38.874  30.895  31.386  1.00  0.00    -0.014 A 
ATOM     60  C   UNL A   1      38.882  30.722  32.779  1.00  0.00     0.009 A 
ATOM     61  C   UNL A   1      37.761  31.499  30.783  1.00  0.00     0.009 A 
ATOM     62  C   UNL A   1      37.784  31.118  33.545  1.00  0.00     0.001 A 
ATOM     63  C   UNL A   1      36.677  31.920  31.555  1.00  0.00     0.001 A 
ATOM     64  C   UNL A   1      36.685  31.719  32.935  1.00  0.00     0.000 A 
ENDBRANCH  40  59
BRANCH  52  65
ATOM     65  C   UNL A   1      44.692  33.960  29.116  1.00  0.00    -0.014 A 
ATOM     66  C   UNL A   1      45.545  34.307  30.175  1.00  0.00     0.009 A 
ATOM     67  C   UNL A   1      44.351  34.937  28.168  1.00  0.00     0.009 A 
ATOM     68  C   UNL A   1      46.013  35.616  30.303  1.00  0.00     0.001 A 
ATOM     69  C   UNL A   1      44.844  36.237  28.282  1.00  0.00     0.001 A 
ATOM     70  C   UNL A   1      45.666  36.579  29.355  1.00  0.00     0.000 A 
ENDBRANCH  52  65
ENDBRANCH  26  27
ENDBRANCH  19  21
ENDBRANCH  18  19
ENDBRANCH  17  18
ENDBRANCH  16  17
ENDBRANCH  15  16
ENDBRANCH   1  15
TORSDOF 19
ENDMDL
