MODEL 1
REMARK VINA RESULT:      -9.4      0.000      0.000
REMARK SMILES CC(=O)N[C@@H](C)C(=O)N1CCC[C@H]1C(=O)OCCOCCOC(=O)c1ccc(-c2c3nc(c(-c4ccccc4)c4ccc([nH]4)c(-c4ccccc4)c4nc(c(-c5ccccc5)c5ccc2[nH]5)C=C4)C=C3)cc1
REMARK SMILES IDX 18 1 17 2 16 3 14 4 15 5 13 6 9 7 10 8 11 9 12 10 7 11 8 12
REMARK SMILES IDX 5 13 6 14 4 15 1 16 2 17 3 18 19 20 20 21 21 22 22 23 23 24
REMARK SMILES IDX 24 25 25 26 26 27 72 28 27 29 71 30 28 31 29 32 30 33 65 34
REMARK SMILES IDX 31 35 70 36 64 37 66 38 32 39 69 40 63 41 62 42 33 44 55 45
REMARK SMILES IDX 40 46 54 47 41 48 44 49 53 50 67 51 42 52 43 53 52 55 68 56
REMARK SMILES IDX 45 57 34 58 35 59 39 60 36 61 38 62 37 63 56 64 57 65 61 66
REMARK SMILES IDX 58 67 60 68 59 69 46 70 47 71 51 72 48 73 50 74 49 75
REMARK H PARENT 4 19 66 43 44 54
REMARK Flexibility Score: inf
ROOT
ATOM      1  C   UNL A   1      33.136  23.310  26.697  1.00  0.00     0.202 C 
ENDROOT
BRANCH   1   2
ATOM      2  C   UNL A   1      32.760  24.676  26.122  1.00  0.00     0.261 C 
BRANCH   2   3
ATOM      3  O   UNL A   1      31.455  25.054  26.589  1.00  0.00    -0.462 OA
BRANCH   3   4
ATOM      4  C   UNL A   1      30.893  26.131  25.973  1.00  0.00     0.328 C 
ATOM      5  O   UNL A   1      29.802  26.094  25.418  1.00  0.00    -0.250 OA
BRANCH   4   6
ATOM      6  C   UNL A   1      31.780  27.398  26.094  1.00  0.00     0.195 C 
ATOM      7  N   UNL A   1      31.582  28.536  25.158  1.00  0.00    -0.327 N 
ATOM      8  C   UNL A   1      31.626  29.802  25.873  1.00  0.00     0.120 C 
ATOM      9  C   UNL A   1      32.205  29.469  27.236  1.00  0.00     0.024 C 
ATOM     10  C   UNL A   1      31.706  28.058  27.484  1.00  0.00     0.039 C 
BRANCH   7  11
ATOM     11  C   UNL A   1      31.661  28.343  23.793  1.00  0.00     0.245 C 
ATOM     12  O   UNL A   1      30.672  28.536  23.079  1.00  0.00    -0.272 OA
BRANCH  11  13
ATOM     13  C   UNL A   1      32.878  27.643  23.134  1.00  0.00     0.168 C 
ATOM     14  C   UNL A   1      34.009  28.673  23.059  1.00  0.00     0.041 C 
BRANCH  13  15
ATOM     15  N   UNL A   1      32.714  26.969  21.849  1.00  0.00    -0.345 N 
ATOM     16  C   UNL A   1      33.600  24.781  22.589  1.00  0.00     0.114 C 
ATOM     17  C   UNL A   1      33.083  25.698  21.517  1.00  0.00     0.217 C 
ATOM     18  O   UNL A   1      32.974  25.338  20.346  1.00  0.00    -0.275 OA
ATOM     19  H   UNL A   1      32.284  27.495  21.137  1.00  0.00     0.164 HD
ENDBRANCH  13  15
ENDBRANCH  11  13
ENDBRANCH   7  11
ENDBRANCH   4   6
ENDBRANCH   3   4
ENDBRANCH   2   3
ENDBRANCH   1   2
BRANCH   1  20
ATOM     20  O   UNL A   1      34.509  23.144  27.056  1.00  0.00    -0.374 OA
BRANCH  20  21
ATOM     21  C   UNL A   1      35.440  22.883  26.006  1.00  0.00     0.202 C 
BRANCH  21  22
ATOM     22  C   UNL A   1      36.410  24.019  25.663  1.00  0.00     0.261 C 
BRANCH  22  23
ATOM     23  O   UNL A   1      37.665  23.538  25.146  1.00  0.00    -0.460 OA
BRANCH  23  24
ATOM     24  C   UNL A   1      38.536  23.110  26.090  1.00  0.00     0.338 C 
ATOM     25  O   UNL A   1      38.875  21.957  26.323  1.00  0.00    -0.246 OA
BRANCH  24  26
ATOM     26  C   UNL A   1      39.191  24.261  26.738  1.00  0.00     0.060 A 
ATOM     27  C   UNL A   1      38.923  24.481  28.095  1.00  0.00     0.016 A 
ATOM     28  C   UNL A   1      39.994  25.150  26.021  1.00  0.00     0.016 A 
ATOM     29  C   UNL A   1      39.426  25.613  28.733  1.00  0.00     0.010 A 
ATOM     30  C   UNL A   1      40.490  26.292  26.660  1.00  0.00     0.010 A 
ATOM     31  C   UNL A   1      40.185  26.542  28.011  1.00  0.00    -0.014 A 
BRANCH  31  32
ATOM     32  C   UNL A   1      40.560  27.834  28.638  1.00  0.00     0.031 A 
ATOM     33  C   UNL A   1      41.966  28.029  29.133  1.00  0.00     0.074 A 
ATOM     34  C   UNL A   1      39.660  28.828  28.749  1.00  0.00     0.049 A 
ATOM     35  N   UNL A   1      42.494  29.064  29.736  1.00  0.00    -0.248 NA
ATOM     36  C   UNL A   1      42.901  26.913  28.920  1.00  0.00     0.031 C 
ATOM     37  C   UNL A   1      38.280  28.779  28.266  1.00  0.00     0.029 A 
ATOM     38  N   UNL A   1      39.777  30.075  29.308  1.00  0.00    -0.354 N 
ATOM     39  C   UNL A   1      43.817  28.720  29.987  1.00  0.00     0.074 A 
ATOM     40  C   UNL A   1      44.007  27.375  29.488  1.00  0.00     0.031 C 
ATOM     41  C   UNL A   1      37.677  29.946  28.554  1.00  0.00     0.029 A 
ATOM     42  C   UNL A   1      38.615  30.806  29.270  1.00  0.00     0.049 A 
ATOM     43  H   UNL A   1      40.615  30.413  29.700  1.00  0.00     0.167 HD
ATOM     44  C   UNL A   1      44.786  29.458  30.578  1.00  0.00     0.031 A 
ATOM     45  C   UNL A   1      38.336  32.023  29.776  1.00  0.00     0.031 A 
ATOM     46  C   UNL A   1      44.598  30.794  31.074  1.00  0.00     0.049 A 
ATOM     47  C   UNL A   1      39.411  32.785  30.504  1.00  0.00     0.074 A 
ATOM     48  C   UNL A   1      45.534  31.637  31.651  1.00  0.00     0.029 A 
ATOM     49  N   UNL A   1      43.394  31.478  31.065  1.00  0.00    -0.354 N 
ATOM     50  N   UNL A   1      40.667  32.465  30.697  1.00  0.00    -0.248 NA
ATOM     51  C   UNL A   1      39.024  34.079  31.088  1.00  0.00     0.031 C 
ATOM     52  C   UNL A   1      44.880  32.809  32.045  1.00  0.00     0.029 A 
ATOM     53  C   UNL A   1      43.551  32.717  31.663  1.00  0.00     0.049 A 
ATOM     54  H   UNL A   1      42.552  31.134  30.688  1.00  0.00     0.167 HD
ATOM     55  C   UNL A   1      41.226  33.528  31.395  1.00  0.00     0.074 A 
ATOM     56  C   UNL A   1      40.177  34.508  31.583  1.00  0.00     0.031 C 
ATOM     57  C   UNL A   1      42.497  33.680  31.842  1.00  0.00     0.031 A 
BRANCH  44  58
ATOM     58  C   UNL A   1      46.135  28.822  30.757  1.00  0.00    -0.014 A 
ATOM     59  C   UNL A   1      46.421  28.011  31.867  1.00  0.00     0.009 A 
ATOM     60  C   UNL A   1      47.116  28.991  29.767  1.00  0.00     0.009 A 
ATOM     61  C   UNL A   1      47.671  27.403  31.993  1.00  0.00     0.001 A 
ATOM     62  C   UNL A   1      48.356  28.362  29.883  1.00  0.00     0.001 A 
ATOM     63  C   UNL A   1      48.636  27.575  30.999  1.00  0.00     0.000 A 
ENDBRANCH  44  58
BRANCH  45  64
ATOM     64  C   UNL A   1      36.971  32.596  29.642  1.00  0.00    -0.014 A 
ATOM     65  C   UNL A   1      35.986  32.329  30.604  1.00  0.00     0.009 A 
ATOM     66  C   UNL A   1      36.636  33.383  28.528  1.00  0.00     0.009 A 
ATOM     67  C   UNL A   1      34.686  32.813  30.440  1.00  0.00     0.001 A 
ATOM     68  C   UNL A   1      35.343  33.889  28.381  1.00  0.00     0.001 A 
ATOM     69  C   UNL A   1      34.367  33.595  29.331  1.00  0.00     0.000 A 
ENDBRANCH  45  64
BRANCH  57  70
ATOM     70  C   UNL A   1      42.832  34.963  32.549  1.00  0.00    -0.014 A 
ATOM     71  C   UNL A   1      43.407  36.043  31.861  1.00  0.00     0.009 A 
ATOM     72  C   UNL A   1      42.525  35.107  33.911  1.00  0.00     0.009 A 
ATOM     73  C   UNL A   1      43.694  37.232  32.534  1.00  0.00     0.001 A 
ATOM     74  C   UNL A   1      42.787  36.307  34.573  1.00  0.00     0.001 A 
ATOM     75  C   UNL A   1      43.379  37.365  33.886  1.00  0.00     0.000 A 
ENDBRANCH  57  70
ENDBRANCH  31  32
ENDBRANCH  24  26
ENDBRANCH  23  24
ENDBRANCH  22  23
ENDBRANCH  21  22
ENDBRANCH  20  21
ENDBRANCH   1  20
TORSDOF 17
ENDMDL
MODEL 2
REMARK VINA RESULT:      -9.4      3.220      7.775
REMARK SMILES CC(=O)N[C@@H](C)C(=O)N1CCC[C@H]1C(=O)OCCOCCOC(=O)c1ccc(-c2c3nc(c(-c4ccccc4)c4ccc([nH]4)c(-c4ccccc4)c4nc(c(-c5ccccc5)c5ccc2[nH]5)C=C4)C=C3)cc1
REMARK SMILES IDX 18 1 17 2 16 3 14 4 15 5 13 6 9 7 10 8 11 9 12 10 7 11 8 12
REMARK SMILES IDX 5 13 6 14 4 15 1 16 2 17 3 18 19 20 20 21 21 22 22 23 23 24
REMARK SMILES IDX 24 25 25 26 26 27 72 28 27 29 71 30 28 31 29 32 30 33 65 34
REMARK SMILES IDX 31 35 70 36 64 37 66 38 32 39 69 40 63 41 62 42 33 44 55 45
REMARK SMILES IDX 40 46 54 47 41 48 44 49 53 50 67 51 42 52 43 53 52 55 68 56
REMARK SMILES IDX 45 57 34 58 35 59 39 60 36 61 38 62 37 63 56 64 57 65 61 66
REMARK SMILES IDX 58 67 60 68 59 69 46 70 47 71 51 72 48 73 50 74 49 75
REMARK H PARENT 4 19 66 43 44 54
REMARK Flexibility Score: inf
ROOT
ATOM      1  C   UNL A   1      32.960  25.981  26.085  1.00  0.00     0.202 C 
ENDROOT
BRANCH   1   2
ATOM      2  C   UNL A   1      33.912  24.838  25.730  1.00  0.00     0.261 C 
BRANCH   2   3
ATOM      3  O   UNL A   1      33.469  24.201  24.521  1.00  0.00    -0.462 OA
BRANCH   3   4
ATOM      4  C   UNL A   1      34.413  23.483  23.849  1.00  0.00     0.328 C 
ATOM      5  O   UNL A   1      34.457  23.408  22.628  1.00  0.00    -0.250 OA
BRANCH   4   6
ATOM      6  C   UNL A   1      35.430  22.817  24.813  1.00  0.00     0.195 C 
ATOM      7  N   UNL A   1      35.416  21.342  25.002  1.00  0.00    -0.327 N 
ATOM      8  C   UNL A   1      36.771  20.811  25.002  1.00  0.00     0.120 C 
ATOM      9  C   UNL A   1      37.672  22.024  25.156  1.00  0.00     0.024 C 
ATOM     10  C   UNL A   1      36.896  23.119  24.450  1.00  0.00     0.039 C 
BRANCH   7  11
ATOM     11  C   UNL A   1      34.267  20.699  25.417  1.00  0.00     0.245 C 
ATOM     12  O   UNL A   1      33.790  20.935  26.531  1.00  0.00    -0.272 OA
BRANCH  11  13
ATOM     13  C   UNL A   1      33.676  19.494  24.640  1.00  0.00     0.168 C 
ATOM     14  C   UNL A   1      32.534  20.027  23.772  1.00  0.00     0.041 C 
BRANCH  13  15
ATOM     15  N   UNL A   1      33.251  18.303  25.372  1.00  0.00    -0.345 N 
ATOM     16  C   UNL A   1      33.910  16.677  23.628  1.00  0.00     0.114 C 
ATOM     17  C   UNL A   1      33.265  17.007  24.944  1.00  0.00     0.217 C 
ATOM     18  O   UNL A   1      32.753  16.145  25.655  1.00  0.00    -0.275 OA
ATOM     19  H   UNL A   1      32.913  18.454  26.284  1.00  0.00     0.164 HD
ENDBRANCH  13  15
ENDBRANCH  11  13
ENDBRANCH   7  11
ENDBRANCH   4   6
ENDBRANCH   3   4
ENDBRANCH   2   3
ENDBRANCH   1   2
BRANCH   1  20
ATOM     20  O   UNL A   1      33.348  27.277  25.627  1.00  0.00    -0.374 OA
BRANCH  20  21
ATOM     21  C   UNL A   1      32.625  28.400  26.130  1.00  0.00     0.202 C 
BRANCH  21  22
ATOM     22  C   UNL A   1      33.413  29.710  26.259  1.00  0.00     0.261 C 
BRANCH  22  23
ATOM     23  O   UNL A   1      33.544  30.144  27.624  1.00  0.00    -0.460 OA
BRANCH  23  24
ATOM     24  C   UNL A   1      34.539  31.039  27.838  1.00  0.00     0.338 C 
ATOM     25  O   UNL A   1      34.441  32.256  27.915  1.00  0.00    -0.246 OA
BRANCH  24  26
ATOM     26  C   UNL A   1      35.798  30.336  28.145  1.00  0.00     0.060 A 
ATOM     27  C   UNL A   1      35.917  29.738  29.406  1.00  0.00     0.016 A 
ATOM     28  C   UNL A   1      36.869  30.322  27.250  1.00  0.00     0.016 A 
ATOM     29  C   UNL A   1      37.122  29.155  29.793  1.00  0.00     0.010 A 
ATOM     30  C   UNL A   1      38.082  29.746  27.643  1.00  0.00     0.010 A 
ATOM     31  C   UNL A   1      38.222  29.184  28.926  1.00  0.00    -0.014 A 
BRANCH  31  32
ATOM     32  C   UNL A   1      39.551  28.734  29.407  1.00  0.00     0.031 A 
ATOM     33  C   UNL A   1      40.102  27.422  28.921  1.00  0.00     0.074 A 
ATOM     34  C   UNL A   1      40.266  29.495  30.255  1.00  0.00     0.049 A 
ATOM     35  N   UNL A   1      41.226  26.829  29.237  1.00  0.00    -0.248 NA
ATOM     36  C   UNL A   1      39.281  26.681  27.950  1.00  0.00     0.031 C 
ATOM     37  C   UNL A   1      39.863  30.807  30.762  1.00  0.00     0.029 A 
ATOM     38  N   UNL A   1      41.486  29.268  30.841  1.00  0.00    -0.354 N 
ATOM     39  C   UNL A   1      41.240  25.641  28.517  1.00  0.00     0.074 A 
ATOM     40  C   UNL A   1      40.008  25.588  27.762  1.00  0.00     0.031 C 
ATOM     41  C   UNL A   1      40.820  31.267  31.587  1.00  0.00     0.029 A 
ATOM     42  C   UNL A   1      41.881  30.269  31.694  1.00  0.00     0.049 A 
ATOM     43  H   UNL A   1      42.025  28.463  30.667  1.00  0.00     0.167 HD
ATOM     44  C   UNL A   1      42.196  24.682  28.486  1.00  0.00     0.031 A 
ATOM     45  C   UNL A   1      42.967  30.359  32.485  1.00  0.00     0.031 A 
ATOM     46  C   UNL A   1      43.422  24.734  29.235  1.00  0.00     0.049 A 
ATOM     47  C   UNL A   1      43.971  29.237  32.494  1.00  0.00     0.074 A 
ATOM     48  C   UNL A   1      44.469  23.829  29.235  1.00  0.00     0.029 A 
ATOM     49  N   UNL A   1      43.760  25.738  30.127  1.00  0.00    -0.354 N 
ATOM     50  N   UNL A   1      43.993  28.140  31.777  1.00  0.00    -0.248 NA
ATOM     51  C   UNL A   1      45.100  29.367  33.428  1.00  0.00     0.031 C 
ATOM     52  C   UNL A   1      45.415  24.256  30.174  1.00  0.00     0.029 A 
ATOM     53  C   UNL A   1      44.981  25.456  30.715  1.00  0.00     0.049 A 
ATOM     54  H   UNL A   1      43.213  26.536  30.314  1.00  0.00     0.167 HD
ATOM     55  C   UNL A   1      45.150  27.467  32.150  1.00  0.00     0.074 A 
ATOM     56  C   UNL A   1      45.809  28.282  33.148  1.00  0.00     0.031 C 
ATOM     57  C   UNL A   1      45.624  26.277  31.706  1.00  0.00     0.031 A 
BRANCH  44  58
ATOM     58  C   UNL A   1      41.938  23.469  27.638  1.00  0.00    -0.014 A 
ATOM     59  C   UNL A   1      42.460  23.359  26.340  1.00  0.00     0.009 A 
ATOM     60  C   UNL A   1      41.208  22.396  28.171  1.00  0.00     0.009 A 
ATOM     61  C   UNL A   1      42.234  22.207  25.584  1.00  0.00     0.001 A 
ATOM     62  C   UNL A   1      41.004  21.236  27.423  1.00  0.00     0.001 A 
ATOM     63  C   UNL A   1      41.511  21.145  26.128  1.00  0.00     0.000 A 
ENDBRANCH  44  58
BRANCH  45  64
ATOM     64  C   UNL A   1      43.160  31.543  33.364  1.00  0.00    -0.014 A 
ATOM     65  C   UNL A   1      43.902  32.648  32.922  1.00  0.00     0.009 A 
ATOM     66  C   UNL A   1      42.634  31.555  34.666  1.00  0.00     0.009 A 
ATOM     67  C   UNL A   1      44.139  33.729  33.775  1.00  0.00     0.001 A 
ATOM     68  C   UNL A   1      42.848  32.649  35.507  1.00  0.00     0.001 A 
ATOM     69  C   UNL A   1      43.609  33.730  35.065  1.00  0.00     0.000 A 
ENDBRANCH  45  64
BRANCH  57  70
ATOM     70  C   UNL A   1      46.932  25.801  32.271  1.00  0.00    -0.014 A 
ATOM     71  C   UNL A   1      48.151  26.129  31.657  1.00  0.00     0.009 A 
ATOM     72  C   UNL A   1      46.946  25.052  33.458  1.00  0.00     0.009 A 
ATOM     73  C   UNL A   1      49.357  25.691  32.208  1.00  0.00     0.001 A 
ATOM     74  C   UNL A   1      48.155  24.640  34.021  1.00  0.00     0.001 A 
ATOM     75  C   UNL A   1      49.358  24.953  33.391  1.00  0.00     0.000 A 
ENDBRANCH  57  70
ENDBRANCH  31  32
ENDBRANCH  24  26
ENDBRANCH  23  24
ENDBRANCH  22  23
ENDBRANCH  21  22
ENDBRANCH  20  21
ENDBRANCH   1  20
TORSDOF 17
ENDMDL
MODEL 3
REMARK VINA RESULT:      -9.3      2.496      7.168
REMARK SMILES CC(=O)N[C@@H](C)C(=O)N1CCC[C@H]1C(=O)OCCOCCOC(=O)c1ccc(-c2c3nc(c(-c4ccccc4)c4ccc([nH]4)c(-c4ccccc4)c4nc(c(-c5ccccc5)c5ccc2[nH]5)C=C4)C=C3)cc1
REMARK SMILES IDX 18 1 17 2 16 3 14 4 15 5 13 6 9 7 10 8 11 9 12 10 7 11 8 12
REMARK SMILES IDX 5 13 6 14 4 15 1 16 2 17 3 18 19 20 20 21 21 22 22 23 23 24
REMARK SMILES IDX 24 25 25 26 26 27 72 28 27 29 71 30 28 31 29 32 30 33 65 34
REMARK SMILES IDX 31 35 70 36 64 37 66 38 32 39 69 40 63 41 62 42 33 44 55 45
REMARK SMILES IDX 40 46 54 47 41 48 44 49 53 50 67 51 42 52 43 53 52 55 68 56
REMARK SMILES IDX 45 57 34 58 35 59 39 60 36 61 38 62 37 63 56 64 57 65 61 66
REMARK SMILES IDX 58 67 60 68 59 69 46 70 47 71 51 72 48 73 50 74 49 75
REMARK H PARENT 4 19 66 43 44 54
REMARK Flexibility Score: inf
ROOT
ATOM      1  C   UNL A   1      37.882  23.630  25.988  1.00  0.00     0.202 C 
ENDROOT
BRANCH   1   2
ATOM      2  C   UNL A   1      36.807  23.720  24.904  1.00  0.00     0.261 C 
BRANCH   2   3
ATOM      3  O   UNL A   1      35.589  24.226  25.474  1.00  0.00    -0.462 OA
BRANCH   3   4
ATOM      4  C   UNL A   1      34.436  23.765  24.914  1.00  0.00     0.328 C 
ATOM      5  O   UNL A   1      34.409  22.906  24.042  1.00  0.00    -0.250 OA
BRANCH   4   6
ATOM      6  C   UNL A   1      33.181  24.427  25.541  1.00  0.00     0.195 C 
ATOM      7  N   UNL A   1      32.155  25.054  24.664  1.00  0.00    -0.327 N 
ATOM      8  C   UNL A   1      30.815  24.705  25.111  1.00  0.00     0.120 C 
ATOM      9  C   UNL A   1      30.999  24.125  26.502  1.00  0.00     0.024 C 
ATOM     10  C   UNL A   1      32.361  23.463  26.420  1.00  0.00     0.039 C 
BRANCH   7  11
ATOM     11  C   UNL A   1      32.508  26.049  23.774  1.00  0.00     0.245 C 
ATOM     12  O   UNL A   1      33.266  26.958  24.126  1.00  0.00    -0.272 OA
BRANCH  11  13
ATOM     13  C   UNL A   1      31.791  26.219  22.410  1.00  0.00     0.168 C 
ATOM     14  C   UNL A   1      32.666  25.546  21.349  1.00  0.00     0.041 C 
BRANCH  13  15
ATOM     15  N   UNL A   1      31.387  27.553  21.969  1.00  0.00    -0.345 N 
ATOM     16  C   UNL A   1      29.337  27.671  23.348  1.00  0.00     0.114 C 
ATOM     17  C   UNL A   1      30.255  28.237  22.301  1.00  0.00     0.217 C 
ATOM     18  O   UNL A   1      30.022  29.305  21.737  1.00  0.00    -0.275 OA
ATOM     19  H   UNL A   1      32.008  28.012  21.359  1.00  0.00     0.164 HD
ENDBRANCH  13  15
ENDBRANCH  11  13
ENDBRANCH   7  11
ENDBRANCH   4   6
ENDBRANCH   3   4
ENDBRANCH   2   3
ENDBRANCH   1   2
BRANCH   1  20
ATOM     20  O   UNL A   1      38.528  22.362  26.118  1.00  0.00    -0.374 OA
BRANCH  20  21
ATOM     21  C   UNL A   1      38.054  21.292  25.302  1.00  0.00     0.202 C 
BRANCH  21  22
ATOM     22  C   UNL A   1      38.894  20.009  25.312  1.00  0.00     0.261 C 
BRANCH  22  23
ATOM     23  O   UNL A   1      39.727  19.903  26.480  1.00  0.00    -0.460 OA
BRANCH  23  24
ATOM     24  C   UNL A   1      41.055  19.844  26.223  1.00  0.00     0.338 C 
ATOM     25  O   UNL A   1      41.655  18.975  25.603  1.00  0.00    -0.246 OA
BRANCH  24  26
ATOM     26  C   UNL A   1      41.714  21.090  26.655  1.00  0.00     0.060 A 
ATOM     27  C   UNL A   1      41.813  21.328  28.031  1.00  0.00     0.016 A 
ATOM     28  C   UNL A   1      42.163  22.041  25.736  1.00  0.00     0.016 A 
ATOM     29  C   UNL A   1      42.328  22.536  28.497  1.00  0.00     0.010 A 
ATOM     30  C   UNL A   1      42.669  23.258  26.205  1.00  0.00     0.010 A 
ATOM     31  C   UNL A   1      42.728  23.522  27.586  1.00  0.00    -0.014 A 
BRANCH  31  32
ATOM     32  C   UNL A   1      43.097  24.872  28.077  1.00  0.00     0.031 A 
ATOM     33  C   UNL A   1      42.015  25.887  28.319  1.00  0.00     0.074 A 
ATOM     34  C   UNL A   1      44.383  25.184  28.322  1.00  0.00     0.049 A 
ATOM     35  N   UNL A   1      42.120  27.129  28.718  1.00  0.00    -0.248 NA
ATOM     36  C   UNL A   1      40.631  25.445  28.082  1.00  0.00     0.031 C 
ATOM     37  C   UNL A   1      45.518  24.274  28.172  1.00  0.00     0.029 A 
ATOM     38  N   UNL A   1      44.947  26.359  28.748  1.00  0.00    -0.354 N 
ATOM     39  C   UNL A   1      40.821  27.621  28.766  1.00  0.00     0.074 A 
ATOM     40  C   UNL A   1      39.946  26.551  28.339  1.00  0.00     0.031 C 
ATOM     41  C   UNL A   1      46.647  24.929  28.499  1.00  0.00     0.029 A 
ATOM     42  C   UNL A   1      46.316  26.309  28.845  1.00  0.00     0.049 A 
ATOM     43  H   UNL A   1      44.420  27.163  28.962  1.00  0.00     0.167 HD
ATOM     44  C   UNL A   1      40.396  28.853  29.135  1.00  0.00     0.031 A 
ATOM     45  C   UNL A   1      47.202  27.274  29.158  1.00  0.00     0.031 A 
ATOM     46  C   UNL A   1      41.264  29.917  29.559  1.00  0.00     0.049 A 
ATOM     47  C   UNL A   1      46.705  28.658  29.480  1.00  0.00     0.074 A 
ATOM     48  C   UNL A   1      40.920  31.186  29.992  1.00  0.00     0.029 A 
ATOM     49  N   UNL A   1      42.646  29.842  29.593  1.00  0.00    -0.354 N 
ATOM     50  N   UNL A   1      45.473  29.097  29.562  1.00  0.00    -0.248 NA
ATOM     51  C   UNL A   1      47.726  29.682  29.750  1.00  0.00     0.031 C 
ATOM     52  C   UNL A   1      42.100  31.900  30.231  1.00  0.00     0.029 A 
ATOM     53  C   UNL A   1      43.174  31.056  30.000  1.00  0.00     0.049 A 
ATOM     54  H   UNL A   1      43.175  29.044  29.363  1.00  0.00     0.167 HD
ATOM     55  C   UNL A   1      45.570  30.436  29.922  1.00  0.00     0.074 A 
ATOM     56  C   UNL A   1      46.981  30.735  30.053  1.00  0.00     0.031 C 
ATOM     57  C   UNL A   1      44.579  31.338  30.126  1.00  0.00     0.031 A 
BRANCH  44  58
ATOM     58  C   UNL A   1      38.922  29.132  29.060  1.00  0.00    -0.014 A 
ATOM     59  C   UNL A   1      38.092  28.991  30.183  1.00  0.00     0.009 A 
ATOM     60  C   UNL A   1      38.366  29.597  27.858  1.00  0.00     0.009 A 
ATOM     61  C   UNL A   1      36.730  29.289  30.096  1.00  0.00     0.001 A 
ATOM     62  C   UNL A   1      37.011  29.917  27.780  1.00  0.00     0.001 A 
ATOM     63  C   UNL A   1      36.192  29.756  28.897  1.00  0.00     0.000 A 
ENDBRANCH  44  58
BRANCH  45  64
ATOM     64  C   UNL A   1      48.660  26.984  29.157  1.00  0.00    -0.014 A 
ATOM     65  C   UNL A   1      49.404  27.066  27.970  1.00  0.00     0.009 A 
ATOM     66  C   UNL A   1      49.306  26.582  30.338  1.00  0.00     0.009 A 
ATOM     67  C   UNL A   1      50.759  26.726  27.960  1.00  0.00     0.001 A 
ATOM     68  C   UNL A   1      50.667  26.271  30.329  1.00  0.00     0.001 A 
ATOM     69  C   UNL A   1      51.390  26.332  29.139  1.00  0.00     0.000 A 
ENDBRANCH  45  64
BRANCH  57  70
ATOM     70  C   UNL A   1      44.982  32.724  30.542  1.00  0.00    -0.014 A 
ATOM     71  C   UNL A   1      45.169  33.051  31.894  1.00  0.00     0.009 A 
ATOM     72  C   UNL A   1      45.222  33.702  29.564  1.00  0.00     0.009 A 
ATOM     73  C   UNL A   1      45.561  34.341  32.259  1.00  0.00     0.001 A 
ATOM     74  C   UNL A   1      45.641  34.982  29.930  1.00  0.00     0.001 A 
ATOM     75  C   UNL A   1      45.802  35.302  31.277  1.00  0.00     0.000 A 
ENDBRANCH  57  70
ENDBRANCH  31  32
ENDBRANCH  24  26
ENDBRANCH  23  24
ENDBRANCH  22  23
ENDBRANCH  21  22
ENDBRANCH  20  21
ENDBRANCH   1  20
TORSDOF 17
ENDMDL
