MODEL 1
REMARK VINA RESULT:     -10.2      0.000      0.000
REMARK SMILES COc1ccc(NS(=O)(=O)c2ccc(Cl)c(C(=O)OCCOCCOC(=O)c3ccc(-c4c5nc(c(-c6ccccc6)c6ccc([nH]6)c(-c6ccccc6)c6nc(c(-c7ccccc7)c7ccc4[nH]7)C=C6)C=C5)cc3)c2)cc1Cl
REMARK SMILES IDX 21 1 20 2 19 3 17 4 18 5 16 6 11 7 12 8 76 9 13 10 14 11
REMARK SMILES IDX 15 12 8 13 9 14 10 15 7 16 6 18 3 19 4 20 78 21 5 22 77 23
REMARK SMILES IDX 79 24 2 25 1 26 22 27 23 28 24 29 25 30 26 31 27 32 28 33
REMARK SMILES IDX 29 34 75 35 30 36 74 37 31 38 32 39 33 40 68 41 34 42 73 43
REMARK SMILES IDX 67 44 69 45 35 46 72 47 66 48 65 49 36 51 58 52 43 53 57 54
REMARK SMILES IDX 44 55 47 56 56 57 70 58 45 59 46 60 55 62 71 63 48 64 37 65
REMARK SMILES IDX 38 66 42 67 39 68 41 69 40 70 59 71 60 72 64 73 61 74 63 75
REMARK SMILES IDX 62 76 49 77 50 78 54 79 51 80 53 81 52 82
REMARK H PARENT 7 17 69 50 47 61
REMARK Flexibility Score: inf
ROOT
ATOM      1  C   UNL A   1      33.388  29.547  26.395  1.00  0.00     0.202 C 
ENDROOT
BRANCH   1   2
ATOM      2  C   UNL A   1      32.719  29.269  25.046  1.00  0.00     0.261 C 
BRANCH   2   3
ATOM      3  O   UNL A   1      32.776  27.876  24.697  1.00  0.00    -0.460 OA
BRANCH   3   4
ATOM      4  C   UNL A   1      31.813  27.461  23.840  1.00  0.00     0.339 C 
ATOM      5  O   UNL A   1      31.165  28.152  23.072  1.00  0.00    -0.246 OA
BRANCH   4   6
ATOM      6  C   UNL A   1      31.776  25.986  23.776  1.00  0.00     0.080 A 
ATOM      7  C   UNL A   1      31.272  23.937  24.978  1.00  0.00     0.088 A 
ATOM      8  C   UNL A   1      31.795  23.188  23.919  1.00  0.00     0.024 A 
ATOM      9  C   UNL A   1      31.288  25.334  24.921  1.00  0.00     0.039 A 
ATOM     10  C   UNL A   1      32.255  23.840  22.770  1.00  0.00     0.023 A 
ATOM     11  C   UNL A   1      32.244  25.241  22.690  1.00  0.00     0.055 A 
ATOM     12  Cl  UNL A   1      32.875  25.960  21.254  1.00  0.00    -0.083 Cl
BRANCH   7  13
ATOM     13  S   UNL A   1      30.765  23.128  26.471  1.00  0.00     0.261 S 
ATOM     14  O   UNL A   1      30.164  21.865  26.096  1.00  0.00    -0.201 OA
ATOM     15  O   UNL A   1      30.012  24.089  27.249  1.00  0.00    -0.201 OA
BRANCH  13  16
ATOM     16  N   UNL A   1      32.125  22.721  27.398  1.00  0.00    -0.280 N 
ATOM     17  H   UNL A   1      32.061  22.810  28.377  1.00  0.00     0.180 HD
BRANCH  16  18
ATOM     18  C   UNL A   1      33.364  22.254  26.844  1.00  0.00     0.051 A 
ATOM     19  C   UNL A   1      35.665  21.579  25.347  1.00  0.00     0.137 A 
ATOM     20  C   UNL A   1      34.577  20.708  25.423  1.00  0.00     0.050 A 
ATOM     21  C   UNL A   1      35.571  22.827  25.966  1.00  0.00     0.085 A 
ATOM     22  C   UNL A   1      33.436  21.045  26.158  1.00  0.00     0.030 A 
ATOM     23  C   UNL A   1      34.428  23.156  26.716  1.00  0.00     0.051 A 
ATOM     24  Cl  UNL A   1      36.752  24.069  25.746  1.00  0.00    -0.080 Cl
BRANCH  19  25
ATOM     25  O   UNL A   1      36.685  21.144  24.546  1.00  0.00    -0.495 OA
ATOM     26  C   UNL A   1      37.979  21.180  25.146  1.00  0.00     0.278 C 
ENDBRANCH  19  25
ENDBRANCH  16  18
ENDBRANCH  13  16
ENDBRANCH   7  13
ENDBRANCH   4   6
ENDBRANCH   3   4
ENDBRANCH   2   3
ENDBRANCH   1   2
BRANCH   1  27
ATOM     27  O   UNL A   1      33.362  30.882  26.896  1.00  0.00    -0.374 OA
BRANCH  27  28
ATOM     28  C   UNL A   1      32.126  31.585  26.883  1.00  0.00     0.202 C 
BRANCH  28  29
ATOM     29  C   UNL A   1      32.144  33.116  26.977  1.00  0.00     0.261 C 
BRANCH  29  30
ATOM     30  O   UNL A   1      32.226  33.656  28.296  1.00  0.00    -0.460 OA
BRANCH  30  31
ATOM     31  C   UNL A   1      33.247  34.525  28.482  1.00  0.00     0.338 C 
ATOM     32  O   UNL A   1      33.227  35.744  28.375  1.00  0.00    -0.246 OA
BRANCH  31  33
ATOM     33  C   UNL A   1      34.414  33.776  28.962  1.00  0.00     0.060 A 
ATOM     34  C   UNL A   1      34.202  32.635  29.741  1.00  0.00     0.016 A 
ATOM     35  C   UNL A   1      35.705  34.227  28.680  1.00  0.00     0.016 A 
ATOM     36  C   UNL A   1      35.293  31.944  30.261  1.00  0.00     0.010 A 
ATOM     37  C   UNL A   1      36.796  33.537  29.207  1.00  0.00     0.010 A 
ATOM     38  C   UNL A   1      36.593  32.407  30.018  1.00  0.00    -0.014 A 
BRANCH  38  39
ATOM     39  C   UNL A   1      37.742  31.772  30.702  1.00  0.00     0.031 A 
ATOM     40  C   UNL A   1      38.523  30.708  29.985  1.00  0.00     0.074 A 
ATOM     41  C   UNL A   1      38.084  32.152  31.946  1.00  0.00     0.049 A 
ATOM     42  N   UNL A   1      39.539  30.001  30.407  1.00  0.00    -0.248 NA
ATOM     43  C   UNL A   1      38.099  30.395  28.610  1.00  0.00     0.031 C 
ATOM     44  C   UNL A   1      37.417  33.193  32.726  1.00  0.00     0.029 A 
ATOM     45  N   UNL A   1      39.080  31.696  32.771  1.00  0.00    -0.354 N 
ATOM     46  C   UNL A   1      39.874  29.158  29.355  1.00  0.00     0.074 A 
ATOM     47  C   UNL A   1      38.932  29.416  28.287  1.00  0.00     0.031 C 
ATOM     48  C   UNL A   1      38.025  33.297  33.920  1.00  0.00     0.029 A 
ATOM     49  C   UNL A   1      39.094  32.307  34.001  1.00  0.00     0.049 A 
ATOM     50  H   UNL A   1      39.722  30.998  32.507  1.00  0.00     0.167 HD
ATOM     51  C   UNL A   1      40.880  28.256  29.284  1.00  0.00     0.031 A 
ATOM     52  C   UNL A   1      39.873  32.076  35.075  1.00  0.00     0.031 A 
ATOM     53  C   UNL A   1      41.803  27.992  30.354  1.00  0.00     0.049 A 
ATOM     54  C   UNL A   1      40.936  31.013  34.993  1.00  0.00     0.074 A 
ATOM     55  C   UNL A   1      42.868  27.108  30.377  1.00  0.00     0.029 A 
ATOM     56  N   UNL A   1      41.766  28.608  31.596  1.00  0.00    -0.354 N 
ATOM     57  N   UNL A   1      41.265  30.246  33.982  1.00  0.00    -0.248 NA
ATOM     58  C   UNL A   1      41.741  30.790  36.203  1.00  0.00     0.031 C 
ATOM     59  C   UNL A   1      43.439  27.148  31.653  1.00  0.00     0.029 A 
ATOM     60  C   UNL A   1      42.770  28.102  32.402  1.00  0.00     0.049 A 
ATOM     61  H   UNL A   1      41.120  29.301  31.864  1.00  0.00     0.167 HD
ATOM     62  C   UNL A   1      42.334  29.474  34.422  1.00  0.00     0.074 A 
ATOM     63  C   UNL A   1      42.606  29.877  35.786  1.00  0.00     0.031 C 
ATOM     64  C   UNL A   1      43.027  28.517  33.757  1.00  0.00     0.031 A 
BRANCH  51  65
ATOM     65  C   UNL A   1      41.015  27.467  28.011  1.00  0.00    -0.014 A 
ATOM     66  C   UNL A   1      40.309  26.269  27.818  1.00  0.00     0.009 A 
ATOM     67  C   UNL A   1      41.827  27.951  26.974  1.00  0.00     0.009 A 
ATOM     68  C   UNL A   1      40.439  25.557  26.623  1.00  0.00     0.001 A 
ATOM     69  C   UNL A   1      41.933  27.252  25.771  1.00  0.00     0.001 A 
ATOM     70  C   UNL A   1      41.245  26.052  25.599  1.00  0.00     0.000 A 
ENDBRANCH  51  65
BRANCH  52  71
ATOM     71  C   UNL A   1      39.670  32.849  36.328  1.00  0.00    -0.014 A 
ATOM     72  C   UNL A   1      38.651  32.501  37.227  1.00  0.00     0.009 A 
ATOM     73  C   UNL A   1      40.480  33.958  36.619  1.00  0.00     0.009 A 
ATOM     74  C   UNL A   1      38.428  33.266  38.376  1.00  0.00     0.001 A 
ATOM     75  C   UNL A   1      40.274  34.703  37.782  1.00  0.00     0.001 A 
ATOM     76  C   UNL A   1      39.241  34.363  38.653  1.00  0.00     0.000 A 
ENDBRANCH  52  71
BRANCH  64  77
ATOM     77  C   UNL A   1      44.174  27.871  34.482  1.00  0.00    -0.014 A 
ATOM     78  C   UNL A   1      43.999  26.695  35.228  1.00  0.00     0.009 A 
ATOM     79  C   UNL A   1      45.460  28.426  34.379  1.00  0.00     0.009 A 
ATOM     80  C   UNL A   1      45.083  26.107  35.883  1.00  0.00     0.001 A 
ATOM     81  C   UNL A   1      46.547  27.819  35.008  1.00  0.00     0.001 A 
ATOM     82  C   UNL A   1      46.356  26.666  35.769  1.00  0.00     0.000 A 
ENDBRANCH  64  77
ENDBRANCH  38  39
ENDBRANCH  31  33
ENDBRANCH  30  31
ENDBRANCH  29  30
ENDBRANCH  28  29
ENDBRANCH  27  28
ENDBRANCH   1  27
TORSDOF 18
ENDMDL
MODEL 2
REMARK VINA RESULT:     -10.2      0.303      5.761
REMARK SMILES COc1ccc(NS(=O)(=O)c2ccc(Cl)c(C(=O)OCCOCCOC(=O)c3ccc(-c4c5nc(c(-c6ccccc6)c6ccc([nH]6)c(-c6ccccc6)c6nc(c(-c7ccccc7)c7ccc4[nH]7)C=C6)C=C5)cc3)c2)cc1Cl
REMARK SMILES IDX 21 1 20 2 19 3 17 4 18 5 16 6 11 7 12 8 76 9 13 10 14 11
REMARK SMILES IDX 15 12 8 13 9 14 10 15 7 16 6 18 3 19 4 20 78 21 5 22 77 23
REMARK SMILES IDX 79 24 2 25 1 26 22 27 23 28 24 29 25 30 26 31 27 32 28 33
REMARK SMILES IDX 29 34 75 35 30 36 74 37 31 38 32 39 33 40 68 41 34 42 73 43
REMARK SMILES IDX 67 44 69 45 35 46 72 47 66 48 65 49 36 51 58 52 43 53 57 54
REMARK SMILES IDX 44 55 47 56 56 57 70 58 45 59 46 60 55 62 71 63 48 64 37 65
REMARK SMILES IDX 38 66 42 67 39 68 41 69 40 70 59 71 60 72 64 73 61 74 63 75
REMARK SMILES IDX 62 76 49 77 50 78 54 79 51 80 53 81 52 82
REMARK H PARENT 7 17 69 50 47 61
REMARK Flexibility Score: inf
ROOT
ATOM      1  C   UNL A   1      33.322  29.561  26.509  1.00  0.00     0.202 C 
ENDROOT
BRANCH   1   2
ATOM      2  C   UNL A   1      32.520  29.269  25.237  1.00  0.00     0.261 C 
BRANCH   2   3
ATOM      3  O   UNL A   1      32.637  27.895  24.833  1.00  0.00    -0.460 OA
BRANCH   3   4
ATOM      4  C   UNL A   1      31.724  27.486  23.921  1.00  0.00     0.339 C 
ATOM      5  O   UNL A   1      31.106  28.185  23.136  1.00  0.00    -0.246 OA
BRANCH   4   6
ATOM      6  C   UNL A   1      31.708  26.013  23.826  1.00  0.00     0.080 A 
ATOM      7  C   UNL A   1      31.242  23.931  24.988  1.00  0.00     0.088 A 
ATOM      8  C   UNL A   1      31.770  23.213  23.910  1.00  0.00     0.024 A 
ATOM      9  C   UNL A   1      31.237  25.329  24.960  1.00  0.00     0.039 A 
ATOM     10  C   UNL A   1      32.214  23.896  22.773  1.00  0.00     0.023 A 
ATOM     11  C   UNL A   1      32.181  25.297  22.722  1.00  0.00     0.055 A 
ATOM     12  Cl  UNL A   1      32.793  26.056  21.299  1.00  0.00    -0.083 Cl
BRANCH   7  13
ATOM     13  S   UNL A   1      30.756  23.083  26.466  1.00  0.00     0.261 S 
ATOM     14  O   UNL A   1      30.208  21.802  26.070  1.00  0.00    -0.201 OA
ATOM     15  O   UNL A   1      29.960  24.003  27.250  1.00  0.00    -0.201 OA
BRANCH  13  16
ATOM     16  N   UNL A   1      32.124  22.718  27.399  1.00  0.00    -0.280 N 
ATOM     17  H   UNL A   1      32.060  22.824  28.376  1.00  0.00     0.180 HD
BRANCH  16  18
ATOM     18  C   UNL A   1      33.371  22.262  26.852  1.00  0.00     0.051 A 
ATOM     19  C   UNL A   1      35.704  21.637  25.383  1.00  0.00     0.137 A 
ATOM     20  C   UNL A   1      34.597  20.786  25.371  1.00  0.00     0.050 A 
ATOM     21  C   UNL A   1      35.613  22.846  26.077  1.00  0.00     0.085 A 
ATOM     22  C   UNL A   1      33.441  21.097  26.093  1.00  0.00     0.030 A 
ATOM     23  C   UNL A   1      34.454  23.148  26.814  1.00  0.00     0.051 A 
ATOM     24  Cl  UNL A   1      36.823  24.074  25.971  1.00  0.00    -0.080 Cl
BRANCH  19  25
ATOM     25  O   UNL A   1      36.739  21.234  24.585  1.00  0.00    -0.495 OA
ATOM     26  C   UNL A   1      37.949  20.929  25.278  1.00  0.00     0.278 C 
ENDBRANCH  19  25
ENDBRANCH  16  18
ENDBRANCH  13  16
ENDBRANCH   7  13
ENDBRANCH   4   6
ENDBRANCH   3   4
ENDBRANCH   2   3
ENDBRANCH   1   2
BRANCH   1  27
ATOM     27  O   UNL A   1      33.273  30.881  27.046  1.00  0.00    -0.374 OA
BRANCH  27  28
ATOM     28  C   UNL A   1      32.091  31.647  26.851  1.00  0.00     0.202 C 
BRANCH  28  29
ATOM     29  C   UNL A   1      32.192  33.178  26.867  1.00  0.00     0.261 C 
BRANCH  29  30
ATOM     30  O   UNL A   1      32.150  33.790  28.156  1.00  0.00    -0.460 OA
BRANCH  30  31
ATOM     31  C   UNL A   1      33.205  34.594  28.428  1.00  0.00     0.338 C 
ATOM     32  O   UNL A   1      33.239  35.817  28.426  1.00  0.00    -0.246 OA
BRANCH  31  33
ATOM     33  C   UNL A   1      34.331  33.755  28.856  1.00  0.00     0.060 A 
ATOM     34  C   UNL A   1      34.085  32.716  29.758  1.00  0.00     0.016 A 
ATOM     35  C   UNL A   1      35.623  34.026  28.401  1.00  0.00     0.016 A 
ATOM     36  C   UNL A   1      35.147  31.948  30.228  1.00  0.00     0.010 A 
ATOM     37  C   UNL A   1      36.685  33.259  28.878  1.00  0.00     0.010 A 
ATOM     38  C   UNL A   1      36.454  32.232  29.810  1.00  0.00    -0.014 A 
BRANCH  38  39
ATOM     39  C   UNL A   1      37.597  31.526  30.430  1.00  0.00     0.031 A 
ATOM     40  C   UNL A   1      38.001  31.881  31.832  1.00  0.00     0.074 A 
ATOM     41  C   UNL A   1      38.259  30.576  29.746  1.00  0.00     0.049 A 
ATOM     42  N   UNL A   1      38.988  31.414  32.552  1.00  0.00    -0.248 NA
ATOM     43  C   UNL A   1      37.187  32.900  32.514  1.00  0.00     0.031 C 
ATOM     44  C   UNL A   1      37.937  30.130  28.391  1.00  0.00     0.029 A 
ATOM     45  N   UNL A   1      39.345  29.819  30.103  1.00  0.00    -0.354 N 
ATOM     46  C   UNL A   1      38.917  32.083  33.767  1.00  0.00     0.074 A 
ATOM     47  C   UNL A   1      37.813  33.014  33.676  1.00  0.00     0.031 C 
ATOM     48  C   UNL A   1      38.810  29.174  28.030  1.00  0.00     0.029 A 
ATOM     49  C   UNL A   1      39.770  28.969  29.111  1.00  0.00     0.049 A 
ATOM     50  H   UNL A   1      39.778  29.878  30.985  1.00  0.00     0.167 HD
ATOM     51  C   UNL A   1      39.698  31.931  34.862  1.00  0.00     0.031 A 
ATOM     52  C   UNL A   1      40.827  28.136  29.077  1.00  0.00     0.031 A 
ATOM     53  C   UNL A   1      40.805  31.016  34.941  1.00  0.00     0.049 A 
ATOM     54  C   UNL A   1      41.725  28.042  30.283  1.00  0.00     0.074 A 
ATOM     55  C   UNL A   1      41.650  30.776  36.011  1.00  0.00     0.029 A 
ATOM     56  N   UNL A   1      41.224  30.196  33.905  1.00  0.00    -0.354 N 
ATOM     57  N   UNL A   1      41.627  28.655  31.438  1.00  0.00    -0.248 NA
ATOM     58  C   UNL A   1      42.875  27.132  30.180  1.00  0.00     0.031 C 
ATOM     59  C   UNL A   1      42.616  29.851  35.602  1.00  0.00     0.029 A 
ATOM     60  C   UNL A   1      42.334  29.469  34.300  1.00  0.00     0.049 A 
ATOM     61  H   UNL A   1      40.797  30.140  33.020  1.00  0.00     0.167 HD
ATOM     62  C   UNL A   1      42.683  28.183  32.209  1.00  0.00     0.074 A 
ATOM     63  C   UNL A   1      43.397  27.222  31.395  1.00  0.00     0.031 C 
ATOM     64  C   UNL A   1      43.030  28.515  33.476  1.00  0.00     0.031 A 
BRANCH  51  65
ATOM     65  C   UNL A   1      39.398  32.796  36.054  1.00  0.00    -0.014 A 
ATOM     66  C   UNL A   1      38.513  32.372  37.059  1.00  0.00     0.009 A 
ATOM     67  C   UNL A   1      40.041  34.035  36.196  1.00  0.00     0.009 A 
ATOM     68  C   UNL A   1      38.256  33.185  38.164  1.00  0.00     0.001 A 
ATOM     69  C   UNL A   1      39.804  34.833  37.317  1.00  0.00     0.001 A 
ATOM     70  C   UNL A   1      38.906  34.411  38.296  1.00  0.00     0.000 A 
ENDBRANCH  51  65
BRANCH  52  71
ATOM     71  C   UNL A   1      41.112  27.336  27.857  1.00  0.00    -0.014 A 
ATOM     72  C   UNL A   1      41.782  27.907  26.766  1.00  0.00     0.009 A 
ATOM     73  C   UNL A   1      40.691  25.999  27.768  1.00  0.00     0.009 A 
ATOM     74  C   UNL A   1      41.996  27.168  25.599  1.00  0.00     0.001 A 
ATOM     75  C   UNL A   1      40.933  25.253  26.613  1.00  0.00     0.001 A 
ATOM     76  C   UNL A   1      41.574  25.842  25.525  1.00  0.00     0.000 A 
ENDBRANCH  52  71
BRANCH  64  77
ATOM     77  C   UNL A   1      44.210  27.802  34.075  1.00  0.00    -0.014 A 
ATOM     78  C   UNL A   1      44.060  26.581  34.752  1.00  0.00     0.009 A 
ATOM     79  C   UNL A   1      45.497  28.340  33.921  1.00  0.00     0.009 A 
ATOM     80  C   UNL A   1      45.172  25.933  35.291  1.00  0.00     0.001 A 
ATOM     81  C   UNL A   1      46.610  27.674  34.433  1.00  0.00     0.001 A 
ATOM     82  C   UNL A   1      46.446  26.476  35.127  1.00  0.00     0.000 A 
ENDBRANCH  64  77
ENDBRANCH  38  39
ENDBRANCH  31  33
ENDBRANCH  30  31
ENDBRANCH  29  30
ENDBRANCH  28  29
ENDBRANCH  27  28
ENDBRANCH   1  27
TORSDOF 18
ENDMDL
MODEL 3
REMARK VINA RESULT:      -9.9      4.423      9.212
REMARK SMILES COc1ccc(NS(=O)(=O)c2ccc(Cl)c(C(=O)OCCOCCOC(=O)c3ccc(-c4c5nc(c(-c6ccccc6)c6ccc([nH]6)c(-c6ccccc6)c6nc(c(-c7ccccc7)c7ccc4[nH]7)C=C6)C=C5)cc3)c2)cc1Cl
REMARK SMILES IDX 21 1 20 2 19 3 17 4 18 5 16 6 11 7 12 8 76 9 13 10 14 11
REMARK SMILES IDX 15 12 8 13 9 14 10 15 7 16 6 18 3 19 4 20 78 21 5 22 77 23
REMARK SMILES IDX 79 24 2 25 1 26 22 27 23 28 24 29 25 30 26 31 27 32 28 33
REMARK SMILES IDX 29 34 75 35 30 36 74 37 31 38 32 39 33 40 68 41 34 42 73 43
REMARK SMILES IDX 67 44 69 45 35 46 72 47 66 48 65 49 36 51 58 52 43 53 57 54
REMARK SMILES IDX 44 55 47 56 56 57 70 58 45 59 46 60 55 62 71 63 48 64 37 65
REMARK SMILES IDX 38 66 42 67 39 68 41 69 40 70 59 71 60 72 64 73 61 74 63 75
REMARK SMILES IDX 62 76 49 77 50 78 54 79 51 80 53 81 52 82
REMARK H PARENT 7 17 69 50 47 61
REMARK Flexibility Score: inf
ROOT
ATOM      1  C   UNL A   1      38.315  23.308  26.304  1.00  0.00     0.202 C 
ENDROOT
BRANCH   1   2
ATOM      2  C   UNL A   1      36.801  23.323  26.076  1.00  0.00     0.261 C 
BRANCH   2   3
ATOM      3  O   UNL A   1      36.450  23.977  24.846  1.00  0.00    -0.460 OA
BRANCH   3   4
ATOM      4  C   UNL A   1      36.154  23.146  23.819  1.00  0.00     0.339 C 
ATOM      5  O   UNL A   1      36.936  22.659  23.019  1.00  0.00    -0.246 OA
BRANCH   4   6
ATOM      6  C   UNL A   1      34.749  22.700  23.900  1.00  0.00     0.080 A 
ATOM      7  C   UNL A   1      32.422  23.336  23.616  1.00  0.00     0.088 A 
ATOM      8  C   UNL A   1      32.022  22.109  24.155  1.00  0.00     0.024 A 
ATOM      9  C   UNL A   1      33.781  23.645  23.516  1.00  0.00     0.039 A 
ATOM     10  C   UNL A   1      32.988  21.161  24.512  1.00  0.00     0.023 A 
ATOM     11  C   UNL A   1      34.354  21.449  24.382  1.00  0.00     0.055 A 
ATOM     12  Cl  UNL A   1      35.474  20.239  24.892  1.00  0.00    -0.083 Cl
BRANCH   7  13
ATOM     13  S   UNL A   1      31.212  24.576  23.241  1.00  0.00     0.261 S 
ATOM     14  O   UNL A   1      29.955  23.896  23.007  1.00  0.00    -0.201 OA
ATOM     15  O   UNL A   1      31.775  25.433  22.220  1.00  0.00    -0.201 OA
BRANCH  13  16
ATOM     16  N   UNL A   1      30.948  25.556  24.599  1.00  0.00    -0.280 N 
ATOM     17  H   UNL A   1      30.397  25.195  25.330  1.00  0.00     0.180 HD
BRANCH  16  18
ATOM     18  C   UNL A   1      31.480  26.882  24.747  1.00  0.00     0.051 A 
ATOM     19  C   UNL A   1      32.287  29.493  25.469  1.00  0.00     0.137 A 
ATOM     20  C   UNL A   1      31.187  29.285  24.636  1.00  0.00     0.050 A 
ATOM     21  C   UNL A   1      32.943  28.382  26.004  1.00  0.00     0.085 A 
ATOM     22  C   UNL A   1      30.784  27.994  24.283  1.00  0.00     0.030 A 
ATOM     23  C   UNL A   1      32.544  27.085  25.635  1.00  0.00     0.051 A 
ATOM     24  Cl  UNL A   1      34.161  28.515  27.222  1.00  0.00    -0.080 Cl
BRANCH  19  25
ATOM     25  O   UNL A   1      32.528  30.804  25.776  1.00  0.00    -0.495 OA
ATOM     26  C   UNL A   1      31.754  31.320  26.860  1.00  0.00     0.278 C 
ENDBRANCH  19  25
ENDBRANCH  16  18
ENDBRANCH  13  16
ENDBRANCH   7  13
ENDBRANCH   4   6
ENDBRANCH   3   4
ENDBRANCH   2   3
ENDBRANCH   1   2
BRANCH   1  27
ATOM     27  O   UNL A   1      39.107  22.433  25.502  1.00  0.00    -0.374 OA
BRANCH  27  28
ATOM     28  C   UNL A   1      38.876  21.033  25.600  1.00  0.00     0.202 C 
BRANCH  28  29
ATOM     29  C   UNL A   1      39.866  20.175  26.398  1.00  0.00     0.261 C 
BRANCH  29  30
ATOM     30  O   UNL A   1      40.603  19.213  25.644  1.00  0.00    -0.460 OA
BRANCH  30  31
ATOM     31  C   UNL A   1      41.899  19.086  26.015  1.00  0.00     0.338 C 
ATOM     32  O   UNL A   1      42.588  18.075  26.007  1.00  0.00    -0.246 OA
BRANCH  31  33
ATOM     33  C   UNL A   1      42.423  20.418  26.339  1.00  0.00     0.060 A 
ATOM     34  C   UNL A   1      42.455  20.815  27.679  1.00  0.00     0.016 A 
ATOM     35  C   UNL A   1      42.836  21.279  25.321  1.00  0.00     0.016 A 
ATOM     36  C   UNL A   1      42.889  22.097  28.005  1.00  0.00     0.010 A 
ATOM     37  C   UNL A   1      43.265  22.564  25.650  1.00  0.00     0.010 A 
ATOM     38  C   UNL A   1      43.271  22.985  26.991  1.00  0.00    -0.014 A 
BRANCH  38  39
ATOM     39  C   UNL A   1      43.575  24.396  27.321  1.00  0.00     0.031 A 
ATOM     40  C   UNL A   1      45.001  24.866  27.279  1.00  0.00     0.074 A 
ATOM     41  C   UNL A   1      42.583  25.244  27.647  1.00  0.00     0.049 A 
ATOM     42  N   UNL A   1      45.492  26.044  27.562  1.00  0.00    -0.248 NA
ATOM     43  C   UNL A   1      46.008  23.874  26.866  1.00  0.00     0.031 C 
ATOM     44  C   UNL A   1      41.161  24.907  27.693  1.00  0.00     0.029 A 
ATOM     45  N   UNL A   1      42.629  26.567  28.007  1.00  0.00    -0.354 N 
ATOM     46  C   UNL A   1      46.863  25.936  27.366  1.00  0.00     0.074 A 
ATOM     47  C   UNL A   1      47.131  24.569  26.975  1.00  0.00     0.031 C 
ATOM     48  C   UNL A   1      40.468  25.997  28.060  1.00  0.00     0.029 A 
ATOM     49  C   UNL A   1      41.398  27.094  28.310  1.00  0.00     0.049 A 
ATOM     50  H   UNL A   1      43.463  27.088  28.043  1.00  0.00     0.167 HD
ATOM     51  C   UNL A   1      47.812  26.893  27.495  1.00  0.00     0.031 A 
ATOM     52  C   UNL A   1      41.066  28.320  28.759  1.00  0.00     0.031 A 
ATOM     53  C   UNL A   1      47.542  28.245  27.901  1.00  0.00     0.049 A 
ATOM     54  C   UNL A   1      42.152  29.343  28.966  1.00  0.00     0.074 A 
ATOM     55  C   UNL A   1      48.432  29.296  28.047  1.00  0.00     0.029 A 
ATOM     56  N   UNL A   1      46.287  28.733  28.231  1.00  0.00    -0.354 N 
ATOM     57  N   UNL A   1      43.441  29.238  28.746  1.00  0.00    -0.248 NA
ATOM     58  C   UNL A   1      41.734  30.656  29.478  1.00  0.00     0.031 C 
ATOM     59  C   UNL A   1      47.723  30.403  28.522  1.00  0.00     0.029 A 
ATOM     60  C   UNL A   1      46.384  30.061  28.609  1.00  0.00     0.049 A 
ATOM     61  H   UNL A   1      45.453  28.213  28.202  1.00  0.00     0.167 HD
ATOM     62  C   UNL A   1      43.981  30.480  29.061  1.00  0.00     0.074 A 
ATOM     63  C   UNL A   1      42.878  31.323  29.472  1.00  0.00     0.031 C 
ATOM     64  C   UNL A   1      45.273  30.885  29.014  1.00  0.00     0.031 A 
BRANCH  51  65
ATOM     65  C   UNL A   1      49.236  26.498  27.221  1.00  0.00    -0.014 A 
ATOM     66  C   UNL A   1      49.781  26.582  25.929  1.00  0.00     0.009 A 
ATOM     67  C   UNL A   1      50.059  26.076  28.277  1.00  0.00     0.009 A 
ATOM     68  C   UNL A   1      51.110  26.222  25.697  1.00  0.00     0.001 A 
ATOM     69  C   UNL A   1      51.395  25.744  28.047  1.00  0.00     0.001 A 
ATOM     70  C   UNL A   1      51.918  25.810  26.756  1.00  0.00     0.000 A 
ENDBRANCH  51  65
BRANCH  52  71
ATOM     71  C   UNL A   1      39.648  28.649  29.063  1.00  0.00    -0.014 A 
ATOM     72  C   UNL A   1      38.822  29.227  28.088  1.00  0.00     0.009 A 
ATOM     73  C   UNL A   1      39.121  28.408  30.342  1.00  0.00     0.009 A 
ATOM     74  C   UNL A   1      37.507  29.586  28.396  1.00  0.00     0.001 A 
ATOM     75  C   UNL A   1      37.798  28.740  30.638  1.00  0.00     0.001 A 
ATOM     76  C   UNL A   1      36.996  29.340  29.669  1.00  0.00     0.000 A 
ENDBRANCH  52  71
BRANCH  64  77
ATOM     77  C   UNL A   1      45.559  32.315  29.377  1.00  0.00    -0.014 A 
ATOM     78  C   UNL A   1      46.043  32.666  30.647  1.00  0.00     0.009 A 
ATOM     79  C   UNL A   1      45.383  33.323  28.415  1.00  0.00     0.009 A 
ATOM     80  C   UNL A   1      46.311  34.000  30.957  1.00  0.00     0.001 A 
ATOM     81  C   UNL A   1      45.682  34.652  28.717  1.00  0.00     0.001 A 
ATOM     82  C   UNL A   1      46.136  34.991  29.991  1.00  0.00     0.000 A 
ENDBRANCH  64  77
ENDBRANCH  38  39
ENDBRANCH  31  33
ENDBRANCH  30  31
ENDBRANCH  29  30
ENDBRANCH  28  29
ENDBRANCH  27  28
ENDBRANCH   1  27
TORSDOF 18
ENDMDL
