MODEL 1
REMARK VINA RESULT:     -11.1      0.000      0.000
REMARK SMILES Cc1cc2nc(SCC(=O)OCCOCCOC(=O)c3ccc(-c4c5nc(c(-c6ccccc6)c6ccc([nH]6)c(-c6ccccc6)c6nc(c(-c7ccccc7)c7ccc4[nH]7)C=C6)C=C5)cc3)n(CC(C)C)c(=O)c2[nH]1
REMARK SMILES IDX 13 1 12 2 11 3 9 4 10 5 8 6 7 7 6 8 1 9 2 10 3 11 76 12 4 13
REMARK SMILES IDX 75 14 5 16 73 17 68 18 74 19 69 20 70 21 71 22 72 23 14 24
REMARK SMILES IDX 15 25 16 26 17 27 18 28 19 29 20 30 21 31 67 32 22 33 66 34
REMARK SMILES IDX 23 35 24 36 25 37 60 38 26 39 65 40 59 41 61 42 27 43 64 44
REMARK SMILES IDX 58 45 57 46 28 48 50 49 35 50 49 51 36 52 39 53 48 54 62 55
REMARK SMILES IDX 37 56 38 57 47 59 63 60 40 61 29 62 30 63 34 64 31 65 33 66
REMARK SMILES IDX 32 67 51 68 52 69 56 70 53 71 55 72 54 73 41 74 42 75 46 76
REMARK SMILES IDX 43 77 45 78 44 79
REMARK H PARENT 76 15 61 47 39 58
REMARK Flexibility Score: inf
ROOT
ATOM      1  C   UNL A   1      40.802  19.997  26.350  1.00  0.00     0.202 C 
ENDROOT
BRANCH   1   2
ATOM      2  C   UNL A   1      39.997  21.290  26.135  1.00  0.00     0.261 C 
BRANCH   2   3
ATOM      3  O   UNL A   1      38.599  21.048  25.804  1.00  0.00    -0.463 OA
BRANCH   3   4
ATOM      4  C   UNL A   1      37.808  22.154  25.667  1.00  0.00     0.316 C 
ATOM      5  O   UNL A   1      38.195  23.297  25.886  1.00  0.00    -0.251 OA
BRANCH   4   6
ATOM      6  C   UNL A   1      36.361  21.876  25.288  1.00  0.00     0.200 C 
BRANCH   6   7
ATOM      7  S   UNL A   1      35.448  23.120  24.413  1.00  0.00    -0.076 SA
BRANCH   7   8
ATOM      8  C   UNL A   1      33.935  23.780  25.040  1.00  0.00     0.172 A 
ATOM      9  C   UNL A   1      31.553  28.554  27.618  1.00  0.00     0.064 C 
ATOM     10  C   UNL A   1      31.988  27.373  26.825  1.00  0.00     0.014 A 
ATOM     11  C   UNL A   1      33.123  27.168  26.053  1.00  0.00     0.052 A 
ATOM     12  N   UNL A   1      31.253  26.202  26.801  1.00  0.00    -0.353 N 
ATOM     13  C   UNL A   1      33.096  25.820  25.666  1.00  0.00     0.097 A 
ATOM     14  C   UNL A   1      31.946  25.253  26.097  1.00  0.00     0.131 A 
ATOM     15  H   UNL A   1      30.373  26.070  27.223  1.00  0.00     0.166 HD
ATOM     16  N   UNL A   1      34.085  25.082  25.044  1.00  0.00    -0.222 NA
ATOM     17  C   UNL A   1      31.649  23.881  25.884  1.00  0.00     0.278 A 
ATOM     18  N   UNL A   1      32.780  23.110  25.520  1.00  0.00    -0.286 N 
ATOM     19  O   UNL A   1      30.515  23.438  26.027  1.00  0.00    -0.267 OA
BRANCH  18  20
ATOM     20  C   UNL A   1      32.537  21.658  25.659  1.00  0.00     0.131 C 
BRANCH  20  21
ATOM     21  C   UNL A   1      32.231  20.881  24.332  1.00  0.00     0.003 C 
ATOM     22  C   UNL A   1      32.226  21.665  23.020  1.00  0.00     0.009 C 
ATOM     23  C   UNL A   1      33.130  19.654  24.193  1.00  0.00     0.009 C 
ENDBRANCH  20  21
ENDBRANCH  18  20
ENDBRANCH   7   8
ENDBRANCH   6   7
ENDBRANCH   4   6
ENDBRANCH   3   4
ENDBRANCH   2   3
ENDBRANCH   1   2
BRANCH   1  24
ATOM     24  O   UNL A   1      42.099  20.036  25.765  1.00  0.00    -0.374 OA
BRANCH  24  25
ATOM     25  C   UNL A   1      42.826  18.843  26.016  1.00  0.00     0.202 C 
BRANCH  25  26
ATOM     26  C   UNL A   1      44.051  18.735  25.135  1.00  0.00     0.261 C 
BRANCH  26  27
ATOM     27  O   UNL A   1      44.224  19.976  24.514  1.00  0.00    -0.460 OA
BRANCH  27  28
ATOM     28  C   UNL A   1      45.493  20.327  24.233  1.00  0.00     0.338 C 
ATOM     29  O   UNL A   1      46.443  19.638  23.947  1.00  0.00    -0.246 OA
BRANCH  28  30
ATOM     30  C   UNL A   1      45.469  21.734  24.606  1.00  0.00     0.060 A 
ATOM     31  C   UNL A   1      45.900  21.976  25.898  1.00  0.00     0.016 A 
ATOM     32  C   UNL A   1      44.616  22.600  23.883  1.00  0.00     0.016 A 
ATOM     33  C   UNL A   1      45.290  23.006  26.562  1.00  0.00     0.010 A 
ATOM     34  C   UNL A   1      43.971  23.595  24.566  1.00  0.00     0.010 A 
ATOM     35  C   UNL A   1      44.288  23.752  25.907  1.00  0.00    -0.014 A 
BRANCH  35  36
ATOM     36  C   UNL A   1      43.864  24.951  26.576  1.00  0.00     0.031 A 
ATOM     37  C   UNL A   1      44.888  25.995  26.388  1.00  0.00     0.074 A 
ATOM     38  C   UNL A   1      42.760  25.094  27.314  1.00  0.00     0.049 A 
ATOM     39  N   UNL A   1      45.866  26.224  27.196  1.00  0.00    -0.248 NA
ATOM     40  C   UNL A   1      45.020  26.623  25.065  1.00  0.00     0.031 C 
ATOM     41  C   UNL A   1      41.562  24.268  27.403  1.00  0.00     0.029 A 
ATOM     42  N   UNL A   1      42.502  26.119  28.158  1.00  0.00    -0.354 N 
ATOM     43  C   UNL A   1      46.643  27.176  26.567  1.00  0.00     0.074 A 
ATOM     44  C   UNL A   1      46.202  27.226  25.196  1.00  0.00     0.031 C 
ATOM     45  C   UNL A   1      40.618  24.942  28.110  1.00  0.00     0.029 A 
ATOM     46  C   UNL A   1      41.212  26.156  28.651  1.00  0.00     0.049 A 
ATOM     47  H   UNL A   1      43.182  26.788  28.402  1.00  0.00     0.167 HD
ATOM     48  C   UNL A   1      47.373  28.052  27.304  1.00  0.00     0.031 A 
ATOM     49  C   UNL A   1      40.707  27.160  29.409  1.00  0.00     0.031 A 
ATOM     50  C   UNL A   1      47.568  27.574  28.652  1.00  0.00     0.049 A 
ATOM     51  C   UNL A   1      41.866  27.828  30.059  1.00  0.00     0.074 A 
ATOM     52  C   UNL A   1      48.177  26.464  29.206  1.00  0.00     0.029 A 
ATOM     53  N   UNL A   1      46.702  28.052  29.609  1.00  0.00    -0.354 N 
ATOM     54  N   UNL A   1      42.609  27.253  30.961  1.00  0.00    -0.248 NA
ATOM     55  C   UNL A   1      42.471  28.973  29.392  1.00  0.00     0.031 C 
ATOM     56  C   UNL A   1      47.331  26.074  30.287  1.00  0.00     0.029 A 
ATOM     57  C   UNL A   1      46.286  26.996  30.377  1.00  0.00     0.049 A 
ATOM     58  H   UNL A   1      46.427  28.991  29.722  1.00  0.00     0.167 HD
ATOM     59  C   UNL A   1      43.901  27.676  30.683  1.00  0.00     0.074 A 
ATOM     60  C   UNL A   1      43.741  28.808  29.772  1.00  0.00     0.031 C 
ATOM     61  C   UNL A   1      44.978  26.899  30.994  1.00  0.00     0.031 A 
BRANCH  48  62
ATOM     62  C   UNL A   1      47.444  29.506  26.931  1.00  0.00    -0.014 A 
ATOM     63  C   UNL A   1      48.621  30.216  27.208  1.00  0.00     0.009 A 
ATOM     64  C   UNL A   1      46.310  30.268  26.580  1.00  0.00     0.009 A 
ATOM     65  C   UNL A   1      48.641  31.614  27.189  1.00  0.00     0.001 A 
ATOM     66  C   UNL A   1      46.336  31.660  26.519  1.00  0.00     0.001 A 
ATOM     67  C   UNL A   1      47.498  32.334  26.850  1.00  0.00     0.000 A 
ENDBRANCH  48  62
BRANCH  49  68
ATOM     68  C   UNL A   1      39.387  27.819  29.301  1.00  0.00    -0.014 A 
ATOM     69  C   UNL A   1      38.641  28.072  30.466  1.00  0.00     0.009 A 
ATOM     70  C   UNL A   1      39.000  28.480  28.122  1.00  0.00     0.009 A 
ATOM     71  C   UNL A   1      37.601  29.009  30.469  1.00  0.00     0.001 A 
ATOM     72  C   UNL A   1      37.953  29.407  28.123  1.00  0.00     0.001 A 
ATOM     73  C   UNL A   1      37.269  29.690  29.302  1.00  0.00     0.000 A 
ENDBRANCH  49  68
BRANCH  61  74
ATOM     74  C   UNL A   1      44.749  25.693  31.871  1.00  0.00    -0.014 A 
ATOM     75  C   UNL A   1      44.644  25.770  33.271  1.00  0.00     0.009 A 
ATOM     76  C   UNL A   1      44.442  24.477  31.243  1.00  0.00     0.009 A 
ATOM     77  C   UNL A   1      44.238  24.656  34.017  1.00  0.00     0.001 A 
ATOM     78  C   UNL A   1      44.022  23.372  31.985  1.00  0.00     0.001 A 
ATOM     79  C   UNL A   1      43.916  23.463  33.372  1.00  0.00     0.000 A 
ENDBRANCH  61  74
ENDBRANCH  35  36
ENDBRANCH  28  30
ENDBRANCH  27  28
ENDBRANCH  26  27
ENDBRANCH  25  26
ENDBRANCH  24  25
ENDBRANCH   1  24
TORSDOF 18
ENDMDL
MODEL 2
REMARK VINA RESULT:     -10.3      1.177      3.035
REMARK SMILES Cc1cc2nc(SCC(=O)OCCOCCOC(=O)c3ccc(-c4c5nc(c(-c6ccccc6)c6ccc([nH]6)c(-c6ccccc6)c6nc(c(-c7ccccc7)c7ccc4[nH]7)C=C6)C=C5)cc3)n(CC(C)C)c(=O)c2[nH]1
REMARK SMILES IDX 13 1 12 2 11 3 9 4 10 5 8 6 7 7 6 8 1 9 2 10 3 11 76 12 4 13
REMARK SMILES IDX 75 14 5 16 73 17 68 18 74 19 69 20 70 21 71 22 72 23 14 24
REMARK SMILES IDX 15 25 16 26 17 27 18 28 19 29 20 30 21 31 67 32 22 33 66 34
REMARK SMILES IDX 23 35 24 36 25 37 60 38 26 39 65 40 59 41 61 42 27 43 64 44
REMARK SMILES IDX 58 45 57 46 28 48 50 49 35 50 49 51 36 52 39 53 48 54 62 55
REMARK SMILES IDX 37 56 38 57 47 59 63 60 40 61 29 62 30 63 34 64 31 65 33 66
REMARK SMILES IDX 32 67 51 68 52 69 56 70 53 71 55 72 54 73 41 74 42 75 46 76
REMARK SMILES IDX 43 77 45 78 44 79
REMARK H PARENT 76 15 61 47 39 58
REMARK Flexibility Score: inf
ROOT
ATOM      1  C   UNL A   1      40.772  20.159  26.569  1.00  0.00     0.202 C 
ENDROOT
BRANCH   1   2
ATOM      2  C   UNL A   1      39.632  21.030  26.014  1.00  0.00     0.261 C 
BRANCH   2   3
ATOM      3  O   UNL A   1      39.482  22.296  26.719  1.00  0.00    -0.463 OA
BRANCH   3   4
ATOM      4  C   UNL A   1      38.511  23.137  26.255  1.00  0.00     0.316 C 
ATOM      5  O   UNL A   1      38.239  24.215  26.775  1.00  0.00    -0.251 OA
BRANCH   4   6
ATOM      6  C   UNL A   1      37.712  22.617  25.069  1.00  0.00     0.200 C 
BRANCH   6   7
ATOM      7  S   UNL A   1      36.009  23.087  24.907  1.00  0.00    -0.076 SA
BRANCH   7   8
ATOM      8  C   UNL A   1      34.708  21.894  24.913  1.00  0.00     0.172 A 
ATOM      9  C   UNL A   1      33.474  16.217  23.749  1.00  0.00     0.064 C 
ATOM     10  C   UNL A   1      33.691  17.604  24.237  1.00  0.00     0.014 A 
ATOM     11  C   UNL A   1      34.861  18.289  24.536  1.00  0.00     0.052 A 
ATOM     12  N   UNL A   1      32.638  18.483  24.423  1.00  0.00    -0.353 N 
ATOM     13  C   UNL A   1      34.485  19.615  24.796  1.00  0.00     0.097 A 
ATOM     14  C   UNL A   1      33.137  19.714  24.755  1.00  0.00     0.131 A 
ATOM     15  H   UNL A   1      31.684  18.259  24.331  1.00  0.00     0.166 HD
ATOM     16  N   UNL A   1      35.294  20.723  24.964  1.00  0.00    -0.222 NA
ATOM     17  C   UNL A   1      32.460  20.948  24.946  1.00  0.00     0.278 A 
ATOM     18  N   UNL A   1      33.304  22.079  24.821  1.00  0.00    -0.286 N 
ATOM     19  O   UNL A   1      31.257  20.993  25.178  1.00  0.00    -0.267 OA
BRANCH  18  20
ATOM     20  C   UNL A   1      32.539  23.334  24.657  1.00  0.00     0.131 C 
BRANCH  20  21
ATOM     21  C   UNL A   1      32.040  24.012  25.980  1.00  0.00     0.003 C 
ATOM     22  C   UNL A   1      32.688  23.590  27.299  1.00  0.00     0.009 C 
ATOM     23  C   UNL A   1      32.064  25.535  25.861  1.00  0.00     0.009 C 
ENDBRANCH  20  21
ENDBRANCH  18  20
ENDBRANCH   7   8
ENDBRANCH   6   7
ENDBRANCH   4   6
ENDBRANCH   3   4
ENDBRANCH   2   3
ENDBRANCH   1   2
BRANCH   1  24
ATOM     24  O   UNL A   1      41.116  19.071  25.717  1.00  0.00    -0.374 OA
BRANCH  24  25
ATOM     25  C   UNL A   1      42.503  18.776  25.773  1.00  0.00     0.202 C 
BRANCH  25  26
ATOM     26  C   UNL A   1      43.343  20.034  25.836  1.00  0.00     0.261 C 
BRANCH  26  27
ATOM     27  O   UNL A   1      43.789  20.298  24.538  1.00  0.00    -0.460 OA
BRANCH  27  28
ATOM     28  C   UNL A   1      45.110  20.518  24.398  1.00  0.00     0.338 C 
ATOM     29  O   UNL A   1      46.015  19.733  24.251  1.00  0.00    -0.246 OA
BRANCH  28  30
ATOM     30  C   UNL A   1      45.179  21.937  24.717  1.00  0.00     0.060 A 
ATOM     31  C   UNL A   1      45.793  22.207  25.927  1.00  0.00     0.016 A 
ATOM     32  C   UNL A   1      44.259  22.807  24.086  1.00  0.00     0.016 A 
ATOM     33  C   UNL A   1      45.311  23.279  26.629  1.00  0.00     0.010 A 
ATOM     34  C   UNL A   1      43.745  23.846  24.814  1.00  0.00     0.010 A 
ATOM     35  C   UNL A   1      44.250  24.036  26.091  1.00  0.00    -0.014 A 
BRANCH  35  36
ATOM     36  C   UNL A   1      43.959  25.271  26.766  1.00  0.00     0.031 A 
ATOM     37  C   UNL A   1      45.083  26.205  26.569  1.00  0.00     0.074 A 
ATOM     38  C   UNL A   1      42.883  25.525  27.516  1.00  0.00     0.049 A 
ATOM     39  N   UNL A   1      46.087  26.330  27.368  1.00  0.00    -0.248 NA
ATOM     40  C   UNL A   1      45.266  26.819  25.246  1.00  0.00     0.031 C 
ATOM     41  C   UNL A   1      41.607  24.827  27.615  1.00  0.00     0.029 A 
ATOM     42  N   UNL A   1      42.741  26.569  28.364  1.00  0.00    -0.354 N 
ATOM     43  C   UNL A   1      46.952  27.198  26.733  1.00  0.00     0.074 A 
ATOM     44  C   UNL A   1      46.505  27.297  25.366  1.00  0.00     0.031 C 
ATOM     45  C   UNL A   1      40.744  25.592  28.333  1.00  0.00     0.029 A 
ATOM     46  C   UNL A   1      41.466  26.737  28.870  1.00  0.00     0.049 A 
ATOM     47  H   UNL A   1      43.488  27.164  28.603  1.00  0.00     0.167 HD
ATOM     48  C   UNL A   1      47.775  27.992  27.464  1.00  0.00     0.031 A 
ATOM     49  C   UNL A   1      41.075  27.786  29.634  1.00  0.00     0.031 A 
ATOM     50  C   UNL A   1      47.934  27.493  28.809  1.00  0.00     0.049 A 
ATOM     51  C   UNL A   1      42.302  28.330  30.274  1.00  0.00     0.074 A 
ATOM     52  C   UNL A   1      48.430  26.324  29.355  1.00  0.00     0.029 A 
ATOM     53  N   UNL A   1      47.131  28.055  29.775  1.00  0.00    -0.354 N 
ATOM     54  N   UNL A   1      42.991  27.678  31.168  1.00  0.00    -0.248 NA
ATOM     55  C   UNL A   1      43.015  29.408  29.603  1.00  0.00     0.031 C 
ATOM     56  C   UNL A   1      47.560  26.021  30.444  1.00  0.00     0.029 A 
ATOM     57  C   UNL A   1      46.616  27.045  30.546  1.00  0.00     0.049 A 
ATOM     58  H   UNL A   1      46.956  29.017  29.893  1.00  0.00     0.167 HD
ATOM     59  C   UNL A   1      44.317  27.967  30.877  1.00  0.00     0.074 A 
ATOM     60  C   UNL A   1      44.265  29.112  29.970  1.00  0.00     0.031 C 
ATOM     61  C   UNL A   1      45.312  27.082  31.176  1.00  0.00     0.031 A 
BRANCH  48  62
ATOM     62  C   UNL A   1      47.993  29.432  27.092  1.00  0.00    -0.014 A 
ATOM     63  C   UNL A   1      49.291  29.957  27.159  1.00  0.00     0.009 A 
ATOM     64  C   UNL A   1      46.939  30.360  26.953  1.00  0.00     0.009 A 
ATOM     65  C   UNL A   1      49.512  31.338  27.145  1.00  0.00     0.001 A 
ATOM     66  C   UNL A   1      47.157  31.734  26.897  1.00  0.00     0.001 A 
ATOM     67  C   UNL A   1      48.445  32.225  27.019  1.00  0.00     0.000 A 
ENDBRANCH  48  62
BRANCH  49  68
ATOM     68  C   UNL A   1      39.828  28.578  29.541  1.00  0.00    -0.014 A 
ATOM     69  C   UNL A   1      39.448  29.131  28.305  1.00  0.00     0.009 A 
ATOM     70  C   UNL A   1      38.860  28.529  30.560  1.00  0.00     0.009 A 
ATOM     71  C   UNL A   1      38.132  29.544  28.072  1.00  0.00     0.001 A 
ATOM     72  C   UNL A   1      37.547  28.954  30.330  1.00  0.00     0.001 A 
ATOM     73  C   UNL A   1      37.177  29.438  29.078  1.00  0.00     0.000 A 
ENDBRANCH  49  68
BRANCH  61  74
ATOM     74  C   UNL A   1      44.968  25.904  32.054  1.00  0.00    -0.014 A 
ATOM     75  C   UNL A   1      44.422  24.707  31.555  1.00  0.00     0.009 A 
ATOM     76  C   UNL A   1      45.388  25.941  33.391  1.00  0.00     0.009 A 
ATOM     77  C   UNL A   1      44.305  23.581  32.378  1.00  0.00     0.001 A 
ATOM     78  C   UNL A   1      45.286  24.813  34.206  1.00  0.00     0.001 A 
ATOM     79  C   UNL A   1      44.749  23.631  33.699  1.00  0.00     0.000 A 
ENDBRANCH  61  74
ENDBRANCH  35  36
ENDBRANCH  28  30
ENDBRANCH  27  28
ENDBRANCH  26  27
ENDBRANCH  25  26
ENDBRANCH  24  25
ENDBRANCH   1  24
TORSDOF 18
ENDMDL
MODEL 3
REMARK VINA RESULT:      -9.9      5.386     10.671
REMARK SMILES Cc1cc2nc(SCC(=O)OCCOCCOC(=O)c3ccc(-c4c5nc(c(-c6ccccc6)c6ccc([nH]6)c(-c6ccccc6)c6nc(c(-c7ccccc7)c7ccc4[nH]7)C=C6)C=C5)cc3)n(CC(C)C)c(=O)c2[nH]1
REMARK SMILES IDX 13 1 12 2 11 3 9 4 10 5 8 6 7 7 6 8 1 9 2 10 3 11 76 12 4 13
REMARK SMILES IDX 75 14 5 16 73 17 68 18 74 19 69 20 70 21 71 22 72 23 14 24
REMARK SMILES IDX 15 25 16 26 17 27 18 28 19 29 20 30 21 31 67 32 22 33 66 34
REMARK SMILES IDX 23 35 24 36 25 37 60 38 26 39 65 40 59 41 61 42 27 43 64 44
REMARK SMILES IDX 58 45 57 46 28 48 50 49 35 50 49 51 36 52 39 53 48 54 62 55
REMARK SMILES IDX 37 56 38 57 47 59 63 60 40 61 29 62 30 63 34 64 31 65 33 66
REMARK SMILES IDX 32 67 51 68 52 69 56 70 53 71 55 72 54 73 41 74 42 75 46 76
REMARK SMILES IDX 43 77 45 78 44 79
REMARK H PARENT 76 15 61 47 39 58
REMARK Flexibility Score: inf
ROOT
ATOM      1  C   UNL A   1      34.086  34.268  28.272  1.00  0.00     0.202 C 
ENDROOT
BRANCH   1   2
ATOM      2  C   UNL A   1      34.088  32.744  28.476  1.00  0.00     0.261 C 
BRANCH   2   3
ATOM      3  O   UNL A   1      33.258  32.035  27.510  1.00  0.00    -0.463 OA
BRANCH   3   4
ATOM      4  C   UNL A   1      33.544  30.712  27.320  1.00  0.00     0.316 C 
ATOM      5  O   UNL A   1      34.608  30.194  27.642  1.00  0.00    -0.251 OA
BRANCH   4   6
ATOM      6  C   UNL A   1      32.470  29.911  26.599  1.00  0.00     0.200 C 
BRANCH   6   7
ATOM      7  S   UNL A   1      31.901  28.393  27.320  1.00  0.00    -0.076 SA
BRANCH   7   8
ATOM      8  C   UNL A   1      31.265  27.074  26.334  1.00  0.00     0.172 A 
ATOM      9  C   UNL A   1      31.898  21.300  25.164  1.00  0.00     0.064 C 
ATOM     10  C   UNL A   1      31.527  22.703  25.487  1.00  0.00     0.014 A 
ATOM     11  C   UNL A   1      31.862  23.503  26.571  1.00  0.00     0.052 A 
ATOM     12  N   UNL A   1      30.759  23.469  24.629  1.00  0.00    -0.353 N 
ATOM     13  C   UNL A   1      31.369  24.784  26.280  1.00  0.00     0.097 A 
ATOM     14  C   UNL A   1      30.678  24.745  25.119  1.00  0.00     0.131 A 
ATOM     15  H   UNL A   1      30.339  23.149  23.798  1.00  0.00     0.166 HD
ATOM     16  N   UNL A   1      31.600  25.969  26.954  1.00  0.00    -0.222 NA
ATOM     17  C   UNL A   1      30.088  25.903  24.548  1.00  0.00     0.278 A 
ATOM     18  N   UNL A   1      30.583  27.115  25.091  1.00  0.00    -0.286 N 
ATOM     19  O   UNL A   1      29.247  25.826  23.659  1.00  0.00    -0.267 OA
BRANCH  18  20
ATOM     20  C   UNL A   1      30.243  28.285  24.254  1.00  0.00     0.131 C 
BRANCH  20  21
ATOM     21  C   UNL A   1      31.038  28.423  22.909  1.00  0.00     0.003 C 
ATOM     22  C   UNL A   1      30.619  29.521  21.931  1.00  0.00     0.009 C 
ATOM     23  C   UNL A   1      32.542  28.512  23.166  1.00  0.00     0.009 C 
ENDBRANCH  20  21
ENDBRANCH  18  20
ENDBRANCH   7   8
ENDBRANCH   6   7
ENDBRANCH   4   6
ENDBRANCH   3   4
ENDBRANCH   2   3
ENDBRANCH   1   2
BRANCH   1  24
ATOM     24  O   UNL A   1      33.057  34.933  28.998  1.00  0.00    -0.374 OA
BRANCH  24  25
ATOM     25  C   UNL A   1      33.384  36.292  29.249  1.00  0.00     0.202 C 
BRANCH  25  26
ATOM     26  C   UNL A   1      33.111  36.680  30.685  1.00  0.00     0.261 C 
BRANCH  26  27
ATOM     27  O   UNL A   1      34.017  35.975  31.483  1.00  0.00    -0.460 OA
BRANCH  27  28
ATOM     28  C   UNL A   1      33.499  34.993  32.245  1.00  0.00     0.338 C 
ATOM     29  O   UNL A   1      32.383  34.863  32.687  1.00  0.00    -0.246 OA
BRANCH  28  30
ATOM     30  C   UNL A   1      34.707  34.262  32.594  1.00  0.00     0.060 A 
ATOM     31  C   UNL A   1      35.873  34.867  32.156  1.00  0.00     0.016 A 
ATOM     32  C   UNL A   1      34.593  32.880  32.874  1.00  0.00     0.016 A 
ATOM     33  C   UNL A   1      36.890  34.031  31.783  1.00  0.00     0.010 A 
ATOM     34  C   UNL A   1      35.592  32.047  32.451  1.00  0.00     0.010 A 
ATOM     35  C   UNL A   1      36.706  32.636  31.872  1.00  0.00    -0.014 A 
BRANCH  35  36
ATOM     36  C   UNL A   1      37.886  31.837  31.688  1.00  0.00     0.031 A 
ATOM     37  C   UNL A   1      38.655  31.815  32.947  1.00  0.00     0.074 A 
ATOM     38  C   UNL A   1      38.278  31.261  30.549  1.00  0.00     0.049 A 
ATOM     39  N   UNL A   1      39.599  32.638  33.250  1.00  0.00    -0.248 NA
ATOM     40  C   UNL A   1      38.137  31.026  34.074  1.00  0.00     0.031 C 
ATOM     41  C   UNL A   1      37.545  30.989  29.319  1.00  0.00     0.029 A 
ATOM     42  N   UNL A   1      39.507  30.749  30.305  1.00  0.00    -0.354 N 
ATOM     43  C   UNL A   1      39.934  32.343  34.556  1.00  0.00     0.074 A 
ATOM     44  C   UNL A   1      38.880  31.506  35.072  1.00  0.00     0.031 C 
ATOM     45  C   UNL A   1      38.297  30.177  28.531  1.00  0.00     0.029 A 
ATOM     46  C   UNL A   1      39.612  30.021  29.136  1.00  0.00     0.049 A 
ATOM     47  H   UNL A   1      40.268  30.885  30.915  1.00  0.00     0.167 HD
ATOM     48  C   UNL A   1      41.198  32.564  34.998  1.00  0.00     0.031 A 
ATOM     49  C   UNL A   1      40.711  29.322  28.762  1.00  0.00     0.031 A 
ATOM     50  C   UNL A   1      41.902  33.493  34.146  1.00  0.00     0.049 A 
ATOM     51  C   UNL A   1      41.868  29.935  29.466  1.00  0.00     0.074 A 
ATOM     52  C   UNL A   1      41.705  34.811  33.781  1.00  0.00     0.029 A 
ATOM     53  N   UNL A   1      42.723  32.949  33.185  1.00  0.00    -0.354 N 
ATOM     54  N   UNL A   1      42.302  31.138  29.215  1.00  0.00    -0.248 NA
ATOM     55  C   UNL A   1      42.266  29.387  30.755  1.00  0.00     0.031 C 
ATOM     56  C   UNL A   1      42.051  34.872  32.399  1.00  0.00     0.029 A 
ATOM     57  C   UNL A   1      42.497  33.608  32.005  1.00  0.00     0.049 A 
ATOM     58  H   UNL A   1      43.362  32.212  33.321  1.00  0.00     0.167 HD
ATOM     59  C   UNL A   1      42.654  31.656  30.453  1.00  0.00     0.074 A 
ATOM     60  C   UNL A   1      42.704  30.501  31.347  1.00  0.00     0.031 C 
ATOM     61  C   UNL A   1      42.601  32.998  30.695  1.00  0.00     0.031 A 
BRANCH  48  62
ATOM     62  C   UNL A   1      41.897  31.563  35.875  1.00  0.00    -0.014 A 
ATOM     63  C   UNL A   1      42.521  32.013  37.047  1.00  0.00     0.009 A 
ATOM     64  C   UNL A   1      42.207  30.253  35.453  1.00  0.00     0.009 A 
ATOM     65  C   UNL A   1      43.447  31.212  37.724  1.00  0.00     0.001 A 
ATOM     66  C   UNL A   1      43.098  29.436  36.146  1.00  0.00     0.001 A 
ATOM     67  C   UNL A   1      43.738  29.927  37.271  1.00  0.00     0.000 A 
ENDBRANCH  48  62
BRANCH  49  68
ATOM     68  C   UNL A   1      40.783  27.962  28.182  1.00  0.00    -0.014 A 
ATOM     69  C   UNL A   1      40.175  26.887  28.857  1.00  0.00     0.009 A 
ATOM     70  C   UNL A   1      41.157  27.764  26.842  1.00  0.00     0.009 A 
ATOM     71  C   UNL A   1      39.881  25.691  28.193  1.00  0.00     0.001 A 
ATOM     72  C   UNL A   1      40.874  26.562  26.182  1.00  0.00     0.001 A 
ATOM     73  C   UNL A   1      40.213  25.535  26.851  1.00  0.00     0.000 A 
ENDBRANCH  49  68
BRANCH  61  74
ATOM     74  C   UNL A   1      42.395  33.920  29.518  1.00  0.00    -0.014 A 
ATOM     75  C   UNL A   1      41.313  34.812  29.421  1.00  0.00     0.009 A 
ATOM     76  C   UNL A   1      43.430  34.019  28.578  1.00  0.00     0.009 A 
ATOM     77  C   UNL A   1      41.275  35.778  28.408  1.00  0.00     0.001 A 
ATOM     78  C   UNL A   1      43.401  34.993  27.578  1.00  0.00     0.001 A 
ATOM     79  C   UNL A   1      42.325  35.875  27.496  1.00  0.00     0.000 A 
ENDBRANCH  61  74
ENDBRANCH  35  36
ENDBRANCH  28  30
ENDBRANCH  27  28
ENDBRANCH  26  27
ENDBRANCH  25  26
ENDBRANCH  24  25
ENDBRANCH   1  24
TORSDOF 18
ENDMDL
