MODEL 1
REMARK VINA RESULT:     -11.6      0.000      0.000
REMARK SMILES COC(=O)c1ccc(C)c2c1[C@H]1C=CC[C@H]1[C@@H](c1ccc(C(=O)OCCOCCOC(=O)c3ccc(-c4c5nc(c(-c6ccccc6)c6ccc([nH]6)c(-c6ccccc6)c6nc(c(-c7ccccc7)c7ccc4[nH]7)C=C6)C=C5)cc3)cc1)N2
REMARK SMILES IDX 26 1 25 2 24 3 22 4 23 5 21 6 18 7 19 8 82 9 20 10 81 11
REMARK SMILES IDX 17 12 5 13 6 14 11 15 7 16 10 17 12 18 8 19 83 20 13 21
REMARK SMILES IDX 16 22 9 23 14 25 15 26 3 27 4 28 2 29 1 30 27 31 28 32 29 33
REMARK SMILES IDX 30 34 31 35 32 36 33 37 34 38 80 39 35 40 79 41 36 42 37 43
REMARK SMILES IDX 38 44 73 45 39 46 78 47 72 48 74 49 40 50 77 51 71 52 70 53
REMARK SMILES IDX 41 55 63 56 48 57 62 58 49 59 52 60 61 61 75 62 50 63 51 64
REMARK SMILES IDX 60 66 76 67 53 68 42 69 43 70 47 71 44 72 46 73 45 74 64 75
REMARK SMILES IDX 65 76 69 77 66 78 68 79 67 80 54 81 55 82 59 83 56 84 58 85
REMARK SMILES IDX 57 86
REMARK H PARENT 83 24 74 54 52 65
REMARK Flexibility Score: inf
ROOT
ATOM      1  C   UNL A   1      40.534  21.497  27.349  1.00  0.00     0.202 C 
ENDROOT
BRANCH   1   2
ATOM      2  C   UNL A   1      39.730  21.287  26.063  1.00  0.00     0.261 C 
BRANCH   2   3
ATOM      3  O   UNL A   1      38.607  22.179  26.000  1.00  0.00    -0.460 OA
BRANCH   3   4
ATOM      4  C   UNL A   1      37.538  21.674  25.337  1.00  0.00     0.338 C 
ATOM      5  O   UNL A   1      37.485  20.622  24.721  1.00  0.00    -0.246 OA
BRANCH   4   6
ATOM      6  C   UNL A   1      36.338  22.477  25.636  1.00  0.00     0.060 A 
ATOM      7  C   UNL A   1      33.924  23.823  26.230  1.00  0.00    -0.025 A 
ATOM      8  C   UNL A   1      34.160  22.504  26.657  1.00  0.00     0.007 A 
ATOM      9  C   UNL A   1      34.968  24.472  25.540  1.00  0.00     0.007 A 
ATOM     10  C   UNL A   1      35.337  21.832  26.353  1.00  0.00     0.016 A 
ATOM     11  C   UNL A   1      36.175  23.810  25.254  1.00  0.00     0.016 A 
BRANCH   7  12
ATOM     12  C   UNL A   1      32.573  24.524  26.438  1.00  0.00     0.114 C 
ATOM     13  C   UNL A   1      32.642  26.941  22.940  1.00  0.00     0.065 A 
ATOM     14  C   UNL A   1      33.412  28.109  22.962  1.00  0.00     0.016 A 
ATOM     15  C   UNL A   1      32.378  26.226  24.130  1.00  0.00    -0.003 A 
ATOM     16  C   UNL A   1      33.922  28.583  24.163  1.00  0.00     0.006 A 
ATOM     17  C   UNL A   1      32.900  26.721  25.359  1.00  0.00     0.042 A 
ATOM     18  C   UNL A   1      31.572  24.937  24.112  1.00  0.00     0.050 C 
ATOM     19  C   UNL A   1      33.678  27.904  25.367  1.00  0.00    -0.028 A 
ATOM     20  N   UNL A   1      32.761  25.966  26.520  1.00  0.00    -0.377 N 
ATOM     21  C   UNL A   1      32.125  23.785  23.307  1.00  0.00    -0.023 C 
ATOM     22  C   UNL A   1      31.391  24.259  25.487  1.00  0.00     0.031 C 
ATOM     23  C   UNL A   1      34.351  28.465  26.594  1.00  0.00     0.046 C 
ATOM     24  H   UNL A   1      32.790  26.409  27.399  1.00  0.00     0.161 HD
ATOM     25  C   UNL A   1      31.876  22.602  23.888  1.00  0.00    -0.030 C 
ATOM     26  C   UNL A   1      31.159  22.776  25.184  1.00  0.00     0.034 C 
BRANCH  13  27
ATOM     27  C   UNL A   1      32.138  26.487  21.623  1.00  0.00     0.338 C 
ATOM     28  O   UNL A   1      30.965  26.508  21.277  1.00  0.00    -0.246 OA
BRANCH  27  29
ATOM     29  O   UNL A   1      33.183  26.000  20.909  1.00  0.00    -0.465 OA
ATOM     30  C   UNL A   1      32.805  25.229  19.768  1.00  0.00     0.282 C 
ENDBRANCH  27  29
ENDBRANCH  13  27
ENDBRANCH   7  12
ENDBRANCH   4   6
ENDBRANCH   3   4
ENDBRANCH   2   3
ENDBRANCH   1   2
BRANCH   1  31
ATOM     31  O   UNL A   1      41.878  21.019  27.348  1.00  0.00    -0.374 OA
BRANCH  31  32
ATOM     32  C   UNL A   1      42.510  20.844  26.077  1.00  0.00     0.202 C 
BRANCH  32  33
ATOM     33  C   UNL A   1      43.449  21.965  25.614  1.00  0.00     0.261 C 
BRANCH  33  34
ATOM     34  O   UNL A   1      42.714  23.133  25.197  1.00  0.00    -0.460 OA
BRANCH  34  35
ATOM     35  C   UNL A   1      43.403  24.297  25.232  1.00  0.00     0.338 C 
ATOM     36  O   UNL A   1      44.365  24.616  24.549  1.00  0.00    -0.246 OA
BRANCH  35  37
ATOM     37  C   UNL A   1      42.702  25.251  26.105  1.00  0.00     0.060 A 
ATOM     38  C   UNL A   1      43.214  26.552  26.204  1.00  0.00     0.016 A 
ATOM     39  C   UNL A   1      41.615  24.850  26.881  1.00  0.00     0.016 A 
ATOM     40  C   UNL A   1      42.659  27.451  27.109  1.00  0.00     0.010 A 
ATOM     41  C   UNL A   1      41.074  25.745  27.808  1.00  0.00     0.010 A 
ATOM     42  C   UNL A   1      41.616  27.036  27.947  1.00  0.00    -0.014 A 
BRANCH  42  43
ATOM     43  C   UNL A   1      41.214  27.892  29.083  1.00  0.00     0.031 A 
ATOM     44  C   UNL A   1      41.996  27.804  30.365  1.00  0.00     0.074 A 
ATOM     45  C   UNL A   1      40.195  28.760  28.969  1.00  0.00     0.049 A 
ATOM     46  N   UNL A   1      41.797  28.429  31.496  1.00  0.00    -0.248 NA
ATOM     47  C   UNL A   1      43.156  26.897  30.371  1.00  0.00     0.031 C 
ATOM     48  C   UNL A   1      39.404  28.982  27.760  1.00  0.00     0.029 A 
ATOM     49  N   UNL A   1      39.652  29.618  29.893  1.00  0.00    -0.354 N 
ATOM     50  C   UNL A   1      42.807  27.995  32.345  1.00  0.00     0.074 A 
ATOM     51  C   UNL A   1      43.604  27.038  31.610  1.00  0.00     0.031 C 
ATOM     52  C   UNL A   1      38.469  29.912  28.018  1.00  0.00     0.029 A 
ATOM     53  C   UNL A   1      38.578  30.327  29.417  1.00  0.00     0.049 A 
ATOM     54  H   UNL A   1      40.001  29.715  30.809  1.00  0.00     0.167 HD
ATOM     55  C   UNL A   1      43.051  28.369  33.619  1.00  0.00     0.031 A 
ATOM     56  C   UNL A   1      37.762  31.197  30.043  1.00  0.00     0.031 A 
ATOM     57  C   UNL A   1      42.256  29.312  34.354  1.00  0.00     0.049 A 
ATOM     58  C   UNL A   1      37.999  31.530  31.491  1.00  0.00     0.074 A 
ATOM     59  C   UNL A   1      42.427  29.747  35.656  1.00  0.00     0.029 A 
ATOM     60  N   UNL A   1      41.142  29.963  33.853  1.00  0.00    -0.354 N 
ATOM     61  N   UNL A   1      38.950  31.104  32.287  1.00  0.00    -0.248 NA
ATOM     62  C   UNL A   1      37.053  32.459  32.128  1.00  0.00     0.031 C 
ATOM     63  C   UNL A   1      41.389  30.631  35.958  1.00  0.00     0.029 A 
ATOM     64  C   UNL A   1      40.603  30.782  34.828  1.00  0.00     0.049 A 
ATOM     65  H   UNL A   1      40.787  29.858  32.940  1.00  0.00     0.167 HD
ATOM     66  C   UNL A   1      38.729  31.725  33.510  1.00  0.00     0.074 A 
ATOM     67  C   UNL A   1      37.558  32.561  33.352  1.00  0.00     0.031 C 
ATOM     68  C   UNL A   1      39.437  31.609  34.658  1.00  0.00     0.031 A 
BRANCH  55  69
ATOM     69  C   UNL A   1      44.226  27.755  34.321  1.00  0.00    -0.014 A 
ATOM     70  C   UNL A   1      44.113  26.504  34.945  1.00  0.00     0.009 A 
ATOM     71  C   UNL A   1      45.479  28.383  34.263  1.00  0.00     0.009 A 
ATOM     72  C   UNL A   1      45.238  25.891  35.499  1.00  0.00     0.001 A 
ATOM     73  C   UNL A   1      46.605  27.760  34.803  1.00  0.00     0.001 A 
ATOM     74  C   UNL A   1      46.484  26.515  35.419  1.00  0.00     0.000 A 
ENDBRANCH  55  69
BRANCH  56  75
ATOM     75  C   UNL A   1      36.634  31.804  29.294  1.00  0.00    -0.014 A 
ATOM     76  C   UNL A   1      36.767  33.068  28.703  1.00  0.00     0.009 A 
ATOM     77  C   UNL A   1      35.429  31.099  29.132  1.00  0.00     0.009 A 
ATOM     78  C   UNL A   1      35.715  33.616  27.964  1.00  0.00     0.001 A 
ATOM     79  C   UNL A   1      34.388  31.641  28.375  1.00  0.00     0.001 A 
ATOM     80  C   UNL A   1      34.532  32.899  27.795  1.00  0.00     0.000 A 
ENDBRANCH  56  75
BRANCH  68  81
ATOM     81  C   UNL A   1      38.995  32.408  35.848  1.00  0.00    -0.014 A 
ATOM     82  C   UNL A   1      38.163  31.842  36.824  1.00  0.00     0.009 A 
ATOM     83  C   UNL A   1      39.529  33.690  36.062  1.00  0.00     0.009 A 
ATOM     84  C   UNL A   1      37.873  32.546  37.995  1.00  0.00     0.001 A 
ATOM     85  C   UNL A   1      39.254  34.381  37.242  1.00  0.00     0.001 A 
ATOM     86  C   UNL A   1      38.426  33.808  38.207  1.00  0.00     0.000 A 
ENDBRANCH  68  81
ENDBRANCH  42  43
ENDBRANCH  35  37
ENDBRANCH  34  35
ENDBRANCH  33  34
ENDBRANCH  32  33
ENDBRANCH  31  32
ENDBRANCH   1  31
TORSDOF 17
ENDMDL
MODEL 2
REMARK VINA RESULT:     -11.0      3.529      9.156
REMARK SMILES COC(=O)c1ccc(C)c2c1[C@H]1C=CC[C@H]1[C@@H](c1ccc(C(=O)OCCOCCOC(=O)c3ccc(-c4c5nc(c(-c6ccccc6)c6ccc([nH]6)c(-c6ccccc6)c6nc(c(-c7ccccc7)c7ccc4[nH]7)C=C6)C=C5)cc3)cc1)N2
REMARK SMILES IDX 26 1 25 2 24 3 22 4 23 5 21 6 18 7 19 8 82 9 20 10 81 11
REMARK SMILES IDX 17 12 5 13 6 14 11 15 7 16 10 17 12 18 8 19 83 20 13 21
REMARK SMILES IDX 16 22 9 23 14 25 15 26 3 27 4 28 2 29 1 30 27 31 28 32 29 33
REMARK SMILES IDX 30 34 31 35 32 36 33 37 34 38 80 39 35 40 79 41 36 42 37 43
REMARK SMILES IDX 38 44 73 45 39 46 78 47 72 48 74 49 40 50 77 51 71 52 70 53
REMARK SMILES IDX 41 55 63 56 48 57 62 58 49 59 52 60 61 61 75 62 50 63 51 64
REMARK SMILES IDX 60 66 76 67 53 68 42 69 43 70 47 71 44 72 46 73 45 74 64 75
REMARK SMILES IDX 65 76 69 77 66 78 68 79 67 80 54 81 55 82 59 83 56 84 58 85
REMARK SMILES IDX 57 86
REMARK H PARENT 83 24 74 54 52 65
REMARK Flexibility Score: inf
ROOT
ATOM      1  C   UNL A   1      34.471  32.569  29.049  1.00  0.00     0.202 C 
ENDROOT
BRANCH   1   2
ATOM      2  C   UNL A   1      34.600  31.699  27.796  1.00  0.00     0.261 C 
BRANCH   2   3
ATOM      3  O   UNL A   1      33.823  30.497  27.914  1.00  0.00    -0.460 OA
BRANCH   3   4
ATOM      4  C   UNL A   1      32.868  30.362  26.964  1.00  0.00     0.338 C 
ATOM      5  O   UNL A   1      31.980  31.156  26.695  1.00  0.00    -0.246 OA
BRANCH   4   6
ATOM      6  C   UNL A   1      33.165  29.192  26.117  1.00  0.00     0.060 A 
ATOM      7  C   UNL A   1      33.615  27.047  24.331  1.00  0.00    -0.025 A 
ATOM      8  C   UNL A   1      33.321  28.343  23.871  1.00  0.00     0.007 A 
ATOM      9  C   UNL A   1      33.734  26.871  25.724  1.00  0.00     0.007 A 
ATOM     10  C   UNL A   1      33.082  29.397  24.745  1.00  0.00     0.016 A 
ATOM     11  C   UNL A   1      33.524  27.937  26.615  1.00  0.00     0.016 A 
BRANCH   7  12
ATOM     12  C   UNL A   1      33.740  25.848  23.379  1.00  0.00     0.114 C 
ATOM     13  C   UNL A   1      32.438  22.837  26.086  1.00  0.00     0.065 A 
ATOM     14  C   UNL A   1      33.353  22.363  27.033  1.00  0.00     0.016 A 
ATOM     15  C   UNL A   1      32.865  23.648  25.010  1.00  0.00    -0.003 A 
ATOM     16  C   UNL A   1      34.700  22.682  26.920  1.00  0.00     0.006 A 
ATOM     17  C   UNL A   1      34.249  23.968  24.898  1.00  0.00     0.042 A 
ATOM     18  C   UNL A   1      31.875  24.198  23.996  1.00  0.00     0.050 C 
ATOM     19  C   UNL A   1      35.163  23.482  25.863  1.00  0.00    -0.028 A 
ATOM     20  N   UNL A   1      34.671  24.868  23.924  1.00  0.00    -0.377 N 
ATOM     21  C   UNL A   1      30.787  25.110  24.513  1.00  0.00    -0.023 C 
ATOM     22  C   UNL A   1      32.490  25.088  22.897  1.00  0.00     0.031 C 
ATOM     23  C   UNL A   1      36.630  23.831  25.890  1.00  0.00     0.046 C 
ATOM     24  H   UNL A   1      35.601  24.842  23.603  1.00  0.00     0.161 HD
ATOM     25  C   UNL A   1      30.491  26.081  23.639  1.00  0.00    -0.030 C 
ATOM     26  C   UNL A   1      31.354  26.001  22.426  1.00  0.00     0.034 C 
BRANCH  13  27
ATOM     27  C   UNL A   1      31.016  22.465  26.273  1.00  0.00     0.338 C 
ATOM     28  O   UNL A   1      30.421  21.622  25.618  1.00  0.00    -0.246 OA
BRANCH  27  29
ATOM     29  O   UNL A   1      30.491  23.255  27.243  1.00  0.00    -0.465 OA
ATOM     30  C   UNL A   1      29.164  22.901  27.633  1.00  0.00     0.282 C 
ENDBRANCH  27  29
ENDBRANCH  13  27
ENDBRANCH   7  12
ENDBRANCH   4   6
ENDBRANCH   3   4
ENDBRANCH   2   3
ENDBRANCH   1   2
BRANCH   1  31
ATOM     31  O   UNL A   1      33.441  33.555  29.041  1.00  0.00    -0.374 OA
BRANCH  31  32
ATOM     32  C   UNL A   1      33.846  34.927  29.032  1.00  0.00     0.202 C 
BRANCH  32  33
ATOM     33  C   UNL A   1      32.925  35.921  29.750  1.00  0.00     0.261 C 
BRANCH  33  34
ATOM     34  O   UNL A   1      33.416  36.243  31.067  1.00  0.00    -0.460 OA
BRANCH  34  35
ATOM     35  C   UNL A   1      33.018  35.409  32.054  1.00  0.00     0.338 C 
ATOM     36  O   UNL A   1      31.881  35.043  32.312  1.00  0.00    -0.246 OA
BRANCH  35  37
ATOM     37  C   UNL A   1      34.202  34.817  32.697  1.00  0.00     0.060 A 
ATOM     38  C   UNL A   1      35.424  35.493  32.577  1.00  0.00     0.016 A 
ATOM     39  C   UNL A   1      34.132  33.575  33.329  1.00  0.00     0.016 A 
ATOM     40  C   UNL A   1      36.592  34.911  33.063  1.00  0.00     0.010 A 
ATOM     41  C   UNL A   1      35.308  32.980  33.792  1.00  0.00     0.010 A 
ATOM     42  C   UNL A   1      36.544  33.632  33.630  1.00  0.00    -0.014 A 
BRANCH  42  43
ATOM     43  C   UNL A   1      37.806  32.908  33.893  1.00  0.00     0.031 A 
ATOM     44  C   UNL A   1      38.283  31.901  32.883  1.00  0.00     0.074 A 
ATOM     45  C   UNL A   1      38.536  33.165  34.992  1.00  0.00     0.049 A 
ATOM     46  N   UNL A   1      39.336  31.126  32.926  1.00  0.00    -0.248 NA
ATOM     47  C   UNL A   1      37.472  31.753  31.662  1.00  0.00     0.031 C 
ATOM     48  C   UNL A   1      38.211  34.162  36.009  1.00  0.00     0.029 A 
ATOM     49  N   UNL A   1      39.707  32.599  35.431  1.00  0.00    -0.354 N 
ATOM     50  C   UNL A   1      39.315  30.403  31.740  1.00  0.00     0.074 A 
ATOM     51  C   UNL A   1      38.137  30.811  31.008  1.00  0.00     0.031 C 
ATOM     52  C   UNL A   1      39.158  34.133  36.963  1.00  0.00     0.029 A 
ATOM     53  C   UNL A   1      40.137  33.097  36.636  1.00  0.00     0.049 A 
ATOM     54  H   UNL A   1      40.192  31.905  34.930  1.00  0.00     0.167 HD
ATOM     55  C   UNL A   1      40.204  29.486  31.300  1.00  0.00     0.031 A 
ATOM     56  C   UNL A   1      41.189  32.743  37.399  1.00  0.00     0.031 A 
ATOM     57  C   UNL A   1      41.369  29.072  32.030  1.00  0.00     0.049 A 
ATOM     58  C   UNL A   1      42.116  31.654  36.930  1.00  0.00     0.074 A 
ATOM     59  C   UNL A   1      42.325  28.142  31.661  1.00  0.00     0.029 A 
ATOM     60  N   UNL A   1      41.736  29.559  33.273  1.00  0.00    -0.354 N 
ATOM     61  N   UNL A   1      42.079  30.969  35.813  1.00  0.00    -0.248 NA
ATOM     62  C   UNL A   1      43.225  31.289  37.823  1.00  0.00     0.031 C 
ATOM     63  C   UNL A   1      43.249  28.034  32.703  1.00  0.00     0.029 A 
ATOM     64  C   UNL A   1      42.894  28.933  33.696  1.00  0.00     0.049 A 
ATOM     65  H   UNL A   1      41.245  30.247  33.780  1.00  0.00     0.167 HD
ATOM     66  C   UNL A   1      43.167  30.106  35.860  1.00  0.00     0.074 A 
ATOM     67  C   UNL A   1      43.849  30.357  37.113  1.00  0.00     0.031 C 
ATOM     68  C   UNL A   1      43.562  29.191  34.944  1.00  0.00     0.031 A 
BRANCH  55  69
ATOM     69  C   UNL A   1      39.958  28.851  29.965  1.00  0.00    -0.014 A 
ATOM     70  C   UNL A   1      40.407  29.464  28.786  1.00  0.00     0.009 A 
ATOM     71  C   UNL A   1      39.369  27.579  29.895  1.00  0.00     0.009 A 
ATOM     72  C   UNL A   1      40.270  28.812  27.559  1.00  0.00     0.001 A 
ATOM     73  C   UNL A   1      39.250  26.922  28.670  1.00  0.00     0.001 A 
ATOM     74  C   UNL A   1      39.701  27.540  27.504  1.00  0.00     0.000 A 
ENDBRANCH  55  69
BRANCH  56  75
ATOM     75  C   UNL A   1      41.408  33.427  38.697  1.00  0.00    -0.014 A 
ATOM     76  C   UNL A   1      42.214  34.572  38.773  1.00  0.00     0.009 A 
ATOM     77  C   UNL A   1      40.776  32.959  39.861  1.00  0.00     0.009 A 
ATOM     78  C   UNL A   1      42.383  35.235  39.992  1.00  0.00     0.001 A 
ATOM     79  C   UNL A   1      40.931  33.637  41.072  1.00  0.00     0.001 A 
ATOM     80  C   UNL A   1      41.736  34.772  41.136  1.00  0.00     0.000 A 
ENDBRANCH  56  75
BRANCH  68  81
ATOM     81  C   UNL A   1      44.795  28.387  35.230  1.00  0.00    -0.014 A 
ATOM     82  C   UNL A   1      44.705  27.125  35.835  1.00  0.00     0.009 A 
ATOM     83  C   UNL A   1      46.042  28.836  34.765  1.00  0.00     0.009 A 
ATOM     84  C   UNL A   1      45.844  26.326  35.967  1.00  0.00     0.001 A 
ATOM     85  C   UNL A   1      47.172  28.028  34.881  1.00  0.00     0.001 A 
ATOM     86  C   UNL A   1      47.072  26.774  35.482  1.00  0.00     0.000 A 
ENDBRANCH  68  81
ENDBRANCH  42  43
ENDBRANCH  35  37
ENDBRANCH  34  35
ENDBRANCH  33  34
ENDBRANCH  32  33
ENDBRANCH  31  32
ENDBRANCH   1  31
TORSDOF 17
ENDMDL
MODEL 3
REMARK VINA RESULT:     -11.0      4.418      9.479
REMARK SMILES COC(=O)c1ccc(C)c2c1[C@H]1C=CC[C@H]1[C@@H](c1ccc(C(=O)OCCOCCOC(=O)c3ccc(-c4c5nc(c(-c6ccccc6)c6ccc([nH]6)c(-c6ccccc6)c6nc(c(-c7ccccc7)c7ccc4[nH]7)C=C6)C=C5)cc3)cc1)N2
REMARK SMILES IDX 26 1 25 2 24 3 22 4 23 5 21 6 18 7 19 8 82 9 20 10 81 11
REMARK SMILES IDX 17 12 5 13 6 14 11 15 7 16 10 17 12 18 8 19 83 20 13 21
REMARK SMILES IDX 16 22 9 23 14 25 15 26 3 27 4 28 2 29 1 30 27 31 28 32 29 33
REMARK SMILES IDX 30 34 31 35 32 36 33 37 34 38 80 39 35 40 79 41 36 42 37 43
REMARK SMILES IDX 38 44 73 45 39 46 78 47 72 48 74 49 40 50 77 51 71 52 70 53
REMARK SMILES IDX 41 55 63 56 48 57 62 58 49 59 52 60 61 61 75 62 50 63 51 64
REMARK SMILES IDX 60 66 76 67 53 68 42 69 43 70 47 71 44 72 46 73 45 74 64 75
REMARK SMILES IDX 65 76 69 77 66 78 68 79 67 80 54 81 55 82 59 83 56 84 58 85
REMARK SMILES IDX 57 86
REMARK H PARENT 83 24 74 54 52 65
REMARK Flexibility Score: inf
ROOT
ATOM      1  C   UNL A   1      34.573  32.219  29.271  1.00  0.00     0.202 C 
ENDROOT
BRANCH   1   2
ATOM      2  C   UNL A   1      34.094  31.938  27.844  1.00  0.00     0.261 C 
BRANCH   2   3
ATOM      3  O   UNL A   1      33.666  30.575  27.696  1.00  0.00    -0.460 OA
BRANCH   3   4
ATOM      4  C   UNL A   1      32.738  30.391  26.727  1.00  0.00     0.338 C 
ATOM      5  O   UNL A   1      31.842  31.157  26.411  1.00  0.00    -0.246 OA
BRANCH   4   6
ATOM      6  C   UNL A   1      33.078  29.200  25.927  1.00  0.00     0.060 A 
ATOM      7  C   UNL A   1      33.610  27.005  24.225  1.00  0.00    -0.025 A 
ATOM      8  C   UNL A   1      33.286  28.275  23.716  1.00  0.00     0.007 A 
ATOM      9  C   UNL A   1      33.716  26.883  25.625  1.00  0.00     0.007 A 
ATOM     10  C   UNL A   1      33.007  29.353  24.547  1.00  0.00     0.016 A 
ATOM     11  C   UNL A   1      33.465  27.974  26.474  1.00  0.00     0.016 A 
BRANCH   7  12
ATOM     12  C   UNL A   1      33.781  25.777  23.319  1.00  0.00     0.114 C 
ATOM     13  C   UNL A   1      32.487  22.834  26.104  1.00  0.00     0.065 A 
ATOM     14  C   UNL A   1      33.392  22.413  27.085  1.00  0.00     0.016 A 
ATOM     15  C   UNL A   1      32.919  23.617  25.009  1.00  0.00    -0.003 A 
ATOM     16  C   UNL A   1      34.734  22.759  26.988  1.00  0.00     0.006 A 
ATOM     17  C   UNL A   1      34.297  23.962  24.913  1.00  0.00     0.042 A 
ATOM     18  C   UNL A   1      31.939  24.109  23.957  1.00  0.00     0.050 C 
ATOM     19  C   UNL A   1      35.202  23.531  25.913  1.00  0.00    -0.028 A 
ATOM     20  N   UNL A   1      34.721  24.837  23.917  1.00  0.00    -0.377 N 
ATOM     21  C   UNL A   1      30.821  25.014  24.419  1.00  0.00    -0.023 C 
ATOM     22  C   UNL A   1      32.558  24.974  22.839  1.00  0.00     0.031 C 
ATOM     23  C   UNL A   1      36.660  23.913  25.957  1.00  0.00     0.046 C 
ATOM     24  H   UNL A   1      35.658  24.821  23.615  1.00  0.00     0.161 HD
ATOM     25  C   UNL A   1      30.522  25.948  23.506  1.00  0.00    -0.030 C 
ATOM     26  C   UNL A   1      31.412  25.844  22.313  1.00  0.00     0.034 C 
BRANCH  13  27
ATOM     27  C   UNL A   1      31.070  22.438  26.276  1.00  0.00     0.338 C 
ATOM     28  O   UNL A   1      30.493  21.592  25.607  1.00  0.00    -0.246 OA
BRANCH  27  29
ATOM     29  O   UNL A   1      30.525  23.210  27.249  1.00  0.00    -0.465 OA
ATOM     30  C   UNL A   1      29.147  22.939  27.508  1.00  0.00     0.282 C 
ENDBRANCH  27  29
ENDBRANCH  13  27
ENDBRANCH   7  12
ENDBRANCH   4   6
ENDBRANCH   3   4
ENDBRANCH   2   3
ENDBRANCH   1   2
BRANCH   1  31
ATOM     31  O   UNL A   1      33.945  33.301  29.955  1.00  0.00    -0.374 OA
BRANCH  31  32
ATOM     32  C   UNL A   1      34.676  33.915  31.020  1.00  0.00     0.202 C 
BRANCH  32  33
ATOM     33  C   UNL A   1      34.651  33.197  32.376  1.00  0.00     0.261 C 
BRANCH  33  34
ATOM     34  O   UNL A   1      35.414  31.974  32.341  1.00  0.00    -0.460 OA
BRANCH  34  35
ATOM     35  C   UNL A   1      36.640  32.038  32.909  1.00  0.00     0.338 C 
ATOM     36  O   UNL A   1      36.931  32.472  34.014  1.00  0.00    -0.246 OA
BRANCH  35  37
ATOM     37  C   UNL A   1      37.605  31.314  32.066  1.00  0.00     0.060 A 
ATOM     38  C   UNL A   1      38.542  30.487  32.699  1.00  0.00     0.016 A 
ATOM     39  C   UNL A   1      37.646  31.515  30.686  1.00  0.00     0.016 A 
ATOM     40  C   UNL A   1      39.549  29.880  31.955  1.00  0.00     0.010 A 
ATOM     41  C   UNL A   1      38.673  30.926  29.944  1.00  0.00     0.010 A 
ATOM     42  C   UNL A   1      39.646  30.135  30.582  1.00  0.00    -0.014 A 
BRANCH  42  43
ATOM     43  C   UNL A   1      40.861  29.717  29.850  1.00  0.00     0.031 A 
ATOM     44  C   UNL A   1      40.941  28.307  29.334  1.00  0.00     0.074 A 
ATOM     45  C   UNL A   1      41.861  30.583  29.617  1.00  0.00     0.049 A 
ATOM     46  N   UNL A   1      41.923  27.715  28.703  1.00  0.00    -0.248 NA
ATOM     47  C   UNL A   1      39.760  27.454  29.550  1.00  0.00     0.031 C 
ATOM     48  C   UNL A   1      41.870  31.990  30.011  1.00  0.00     0.029 A 
ATOM     49  N   UNL A   1      43.066  30.398  28.988  1.00  0.00    -0.354 N 
ATOM     50  C   UNL A   1      41.476  26.426  28.445  1.00  0.00     0.074 A 
ATOM     51  C   UNL A   1      40.148  26.310  29.005  1.00  0.00     0.031 C 
ATOM     52  C   UNL A   1      43.033  32.542  29.622  1.00  0.00     0.029 A 
ATOM     53  C   UNL A   1      43.857  31.520  28.978  1.00  0.00     0.049 A 
ATOM     54  H   UNL A   1      43.337  29.542  28.582  1.00  0.00     0.167 HD
ATOM     55  C   UNL A   1      42.115  25.431  27.793  1.00  0.00     0.031 A 
ATOM     56  C   UNL A   1      45.112  31.696  28.521  1.00  0.00     0.031 A 
ATOM     57  C   UNL A   1      43.438  25.540  27.244  1.00  0.00     0.049 A 
ATOM     58  C   UNL A   1      45.839  30.547  27.878  1.00  0.00     0.074 A 
ATOM     59  C   UNL A   1      44.168  24.578  26.570  1.00  0.00     0.029 A 
ATOM     60  N   UNL A   1      44.227  26.676  27.308  1.00  0.00    -0.354 N 
ATOM     61  N   UNL A   1      45.412  29.329  27.651  1.00  0.00    -0.248 NA
ATOM     62  C   UNL A   1      47.218  30.794  27.431  1.00  0.00     0.031 C 
ATOM     63  C   UNL A   1      45.418  25.119  26.262  1.00  0.00     0.029 A 
ATOM     64  C   UNL A   1      45.446  26.432  26.702  1.00  0.00     0.049 A 
ATOM     65  H   UNL A   1      43.960  27.529  27.722  1.00  0.00     0.167 HD
ATOM     66  C   UNL A   1      46.459  28.670  27.019  1.00  0.00     0.074 A 
ATOM     67  C   UNL A   1      47.542  29.623  26.894  1.00  0.00     0.031 C 
ATOM     68  C   UNL A   1      46.513  27.389  26.584  1.00  0.00     0.031 A 
BRANCH  55  69
ATOM     69  C   UNL A   1      41.404  24.121  27.635  1.00  0.00    -0.014 A 
ATOM     70  C   UNL A   1      40.384  23.970  26.684  1.00  0.00     0.009 A 
ATOM     71  C   UNL A   1      41.831  23.002  28.366  1.00  0.00     0.009 A 
ATOM     72  C   UNL A   1      39.803  22.719  26.468  1.00  0.00     0.001 A 
ATOM     73  C   UNL A   1      41.261  21.749  28.135  1.00  0.00     0.001 A 
ATOM     74  C   UNL A   1      40.249  21.609  27.187  1.00  0.00     0.000 A 
ENDBRANCH  55  69
BRANCH  56  75
ATOM     75  C   UNL A   1      45.760  33.023  28.671  1.00  0.00    -0.014 A 
ATOM     76  C   UNL A   1      45.624  34.000  27.674  1.00  0.00     0.009 A 
ATOM     77  C   UNL A   1      46.484  33.332  29.834  1.00  0.00     0.009 A 
ATOM     78  C   UNL A   1      46.202  35.262  27.840  1.00  0.00     0.001 A 
ATOM     79  C   UNL A   1      47.042  34.600  30.006  1.00  0.00     0.001 A 
ATOM     80  C   UNL A   1      46.903  35.562  29.008  1.00  0.00     0.000 A 
ENDBRANCH  56  75
BRANCH  68  81
ATOM     81  C   UNL A   1      47.771  26.921  25.912  1.00  0.00    -0.014 A 
ATOM     82  C   UNL A   1      47.964  27.114  24.537  1.00  0.00     0.009 A 
ATOM     83  C   UNL A   1      48.824  26.410  26.687  1.00  0.00     0.009 A 
ATOM     84  C   UNL A   1      49.193  26.803  23.949  1.00  0.00     0.001 A 
ATOM     85  C   UNL A   1      50.056  26.120  26.101  1.00  0.00     0.001 A 
ATOM     86  C   UNL A   1      50.239  26.317  24.733  1.00  0.00     0.000 A 
ENDBRANCH  68  81
ENDBRANCH  42  43
ENDBRANCH  35  37
ENDBRANCH  34  35
ENDBRANCH  33  34
ENDBRANCH  32  33
ENDBRANCH  31  32
ENDBRANCH   1  31
TORSDOF 17
ENDMDL
