MODEL 1
REMARK VINA RESULT:     -11.9      0.000      0.000
REMARK SMILES CC(C)Oc1ccc(-c2ccc(/C(=C\c3ccc(S(C)(=O)=O)cc3)C(=O)OCCOCCOC(=O)c3ccc(-c4c5nc(c(-c6ccccc6)c6ccc([nH]6)c(-c6ccccc6)c6nc(c(-c7ccccc7)c7ccc4[nH]7)C=C6)C=C5)cc3)cc2)cc1
REMARK SMILES IDX 29 1 28 2 27 3 25 4 26 5 13 6 14 7 12 8 9 9 10 10 85 11
REMARK SMILES IDX 11 12 84 13 8 14 5 15 6 16 87 17 7 18 86 19 4 20 2 21 1 22
REMARK SMILES IDX 3 23 15 24 16 25 24 26 17 27 23 28 18 29 19 30 20 31 21 32
REMARK SMILES IDX 22 33 30 34 31 35 32 36 33 37 34 38 35 39 36 40 37 41 83 42
REMARK SMILES IDX 38 43 82 44 39 45 40 46 41 47 76 48 42 49 81 50 75 51 77 52
REMARK SMILES IDX 43 53 80 54 74 55 73 56 44 58 66 59 51 60 65 61 52 62 55 63
REMARK SMILES IDX 64 64 78 65 53 66 54 67 63 69 79 70 56 71 45 72 46 73 50 74
REMARK SMILES IDX 47 75 49 76 48 77 67 78 68 79 72 80 69 81 71 82 70 83 57 84
REMARK SMILES IDX 58 85 62 86 59 87 61 88 60 89
REMARK H PARENT 77 57 55 68
REMARK Flexibility Score: inf
ROOT
ATOM      1  C   UNL A   1      31.110  27.716  24.166  1.00  0.00     0.202 C 
ENDROOT
BRANCH   1   2
ATOM      2  C   UNL A   1      31.579  27.332  22.762  1.00  0.00     0.261 C 
BRANCH   2   3
ATOM      3  O   UNL A   1      31.608  25.900  22.633  1.00  0.00    -0.460 OA
BRANCH   3   4
ATOM      4  C   UNL A   1      32.812  25.372  22.291  1.00  0.00     0.338 C 
ATOM      5  O   UNL A   1      33.677  25.935  21.637  1.00  0.00    -0.246 OA
BRANCH   4   6
ATOM      6  C   UNL A   1      33.017  24.040  22.955  1.00  0.00     0.067 C 
ATOM      7  C   UNL A   1      31.991  23.157  22.875  1.00  0.00     0.024 C 
BRANCH   6   8
ATOM      8  C   UNL A   1      34.322  23.807  23.640  1.00  0.00    -0.011 A 
ATOM      9  C   UNL A   1      36.735  23.276  25.095  1.00  0.00    -0.018 A 
ATOM     10  C   UNL A   1      36.532  22.784  23.797  1.00  0.00     0.009 A 
ATOM     11  C   UNL A   1      35.716  24.073  25.635  1.00  0.00     0.009 A 
ATOM     12  C   UNL A   1      35.368  23.075  23.072  1.00  0.00     0.009 A 
ATOM     13  C   UNL A   1      34.532  24.327  24.926  1.00  0.00     0.009 A 
BRANCH   9  14
ATOM     14  C   UNL A   1      37.986  23.001  25.839  1.00  0.00    -0.018 A 
ATOM     15  C   UNL A   1      40.332  22.463  27.340  1.00  0.00     0.119 A 
ATOM     16  C   UNL A   1      39.732  23.717  27.397  1.00  0.00     0.047 A 
ATOM     17  C   UNL A   1      39.763  21.470  26.553  1.00  0.00     0.047 A 
ATOM     18  C   UNL A   1      38.577  23.982  26.654  1.00  0.00     0.012 A 
ATOM     19  C   UNL A   1      38.614  21.743  25.796  1.00  0.00     0.012 A 
BRANCH  15  20
ATOM     20  O   UNL A   1      41.374  22.248  28.191  1.00  0.00    -0.491 OA
BRANCH  20  21
ATOM     21  C   UNL A   1      42.689  22.663  27.793  1.00  0.00     0.167 C 
ATOM     22  C   UNL A   1      43.624  22.891  28.976  1.00  0.00     0.052 C 
ATOM     23  C   UNL A   1      43.319  21.809  26.694  1.00  0.00     0.052 C 
ENDBRANCH  20  21
ENDBRANCH  15  20
ENDBRANCH   9  14
ENDBRANCH   6   8
BRANCH   7  24
ATOM     24  C   UNL A   1      32.020  21.749  23.300  1.00  0.00    -0.025 A 
ATOM     25  C   UNL A   1      32.082  20.782  22.285  1.00  0.00     0.009 A 
ATOM     26  C   UNL A   1      32.162  21.357  24.638  1.00  0.00     0.009 A 
ATOM     27  C   UNL A   1      32.410  19.462  22.587  1.00  0.00     0.021 A 
ATOM     28  C   UNL A   1      32.496  20.033  24.948  1.00  0.00     0.021 A 
ATOM     29  C   UNL A   1      32.650  19.102  23.915  1.00  0.00     0.067 A 
BRANCH  29  30
ATOM     30  S   UNL A   1      33.347  17.500  24.251  1.00  0.00     0.175 S 
ATOM     31  C   UNL A   1      35.075  17.814  24.468  1.00  0.00     0.163 C 
ATOM     32  O   UNL A   1      32.805  17.069  25.529  1.00  0.00    -0.224 OA
ATOM     33  O   UNL A   1      33.184  16.687  23.065  1.00  0.00    -0.224 OA
ENDBRANCH  29  30
ENDBRANCH   7  24
ENDBRANCH   4   6
ENDBRANCH   3   4
ENDBRANCH   2   3
ENDBRANCH   1   2
BRANCH   1  34
ATOM     34  O   UNL A   1      30.900  29.114  24.376  1.00  0.00    -0.374 OA
BRANCH  34  35
ATOM     35  C   UNL A   1      31.961  29.845  24.994  1.00  0.00     0.202 C 
BRANCH  35  36
ATOM     36  C   UNL A   1      31.567  30.728  26.182  1.00  0.00     0.261 C 
BRANCH  36  37
ATOM     37  O   UNL A   1      32.541  30.661  27.237  1.00  0.00    -0.460 OA
BRANCH  37  38
ATOM     38  C   UNL A   1      33.221  31.812  27.442  1.00  0.00     0.338 C 
ATOM     39  O   UNL A   1      32.760  32.944  27.513  1.00  0.00    -0.246 OA
BRANCH  38  40
ATOM     40  C   UNL A   1      34.636  31.523  27.740  1.00  0.00     0.060 A 
ATOM     41  C   UNL A   1      34.999  30.177  27.853  1.00  0.00     0.016 A 
ATOM     42  C   UNL A   1      35.569  32.535  27.985  1.00  0.00     0.016 A 
ATOM     43  C   UNL A   1      36.275  29.834  28.290  1.00  0.00     0.010 A 
ATOM     44  C   UNL A   1      36.851  32.188  28.426  1.00  0.00     0.010 A 
ATOM     45  C   UNL A   1      37.190  30.839  28.628  1.00  0.00    -0.014 A 
BRANCH  45  46
ATOM     46  C   UNL A   1      38.418  30.466  29.368  1.00  0.00     0.031 A 
ATOM     47  C   UNL A   1      38.529  30.839  30.822  1.00  0.00     0.074 A 
ATOM     48  C   UNL A   1      39.387  29.744  28.779  1.00  0.00     0.049 A 
ATOM     49  N   UNL A   1      39.484  30.570  31.677  1.00  0.00    -0.248 NA
ATOM     50  C   UNL A   1      37.416  31.618  31.388  1.00  0.00     0.031 C 
ATOM     51  C   UNL A   1      39.379  29.286  27.392  1.00  0.00     0.029 A 
ATOM     52  N   UNL A   1      40.567  29.262  29.289  1.00  0.00    -0.354 N 
ATOM     53  C   UNL A   1      39.086  31.145  32.877  1.00  0.00     0.074 A 
ATOM     54  C   UNL A   1      37.823  31.809  32.633  1.00  0.00     0.031 C 
ATOM     55  C   UNL A   1      40.502  28.583  27.160  1.00  0.00     0.029 A 
ATOM     56  C   UNL A   1      41.313  28.560  28.375  1.00  0.00     0.049 A 
ATOM     57  H   UNL A   1      40.852  29.407  30.220  1.00  0.00     0.167 HD
ATOM     58  C   UNL A   1      39.708  31.117  34.080  1.00  0.00     0.031 A 
ATOM     59  C   UNL A   1      42.516  27.969  28.506  1.00  0.00     0.031 A 
ATOM     60  C   UNL A   1      40.967  30.468  34.325  1.00  0.00     0.049 A 
ATOM     61  C   UNL A   1      43.216  28.003  29.838  1.00  0.00     0.074 A 
ATOM     62  C   UNL A   1      41.674  30.378  35.511  1.00  0.00     0.029 A 
ATOM     63  N   UNL A   1      41.709  29.802  33.363  1.00  0.00    -0.354 N 
ATOM     64  N   UNL A   1      42.816  28.527  30.972  1.00  0.00    -0.248 NA
ATOM     65  C   UNL A   1      44.530  27.347  29.910  1.00  0.00     0.031 C 
ATOM     66  C   UNL A   1      42.868  29.694  35.255  1.00  0.00     0.029 A 
ATOM     67  C   UNL A   1      42.877  29.315  33.923  1.00  0.00     0.049 A 
ATOM     68  H   UNL A   1      41.444  29.692  32.422  1.00  0.00     0.167 HD
ATOM     69  C   UNL A   1      43.812  28.238  31.896  1.00  0.00     0.074 A 
ATOM     70  C   UNL A   1      44.829  27.482  31.194  1.00  0.00     0.031 C 
ATOM     71  C   UNL A   1      43.878  28.565  33.210  1.00  0.00     0.031 A 
BRANCH  58  72
ATOM     72  C   UNL A   1      39.040  31.839  35.214  1.00  0.00    -0.014 A 
ATOM     73  C   UNL A   1      38.283  31.147  36.174  1.00  0.00     0.009 A 
ATOM     74  C   UNL A   1      39.186  33.230  35.337  1.00  0.00     0.009 A 
ATOM     75  C   UNL A   1      37.659  31.839  37.214  1.00  0.00     0.001 A 
ATOM     76  C   UNL A   1      38.582  33.915  36.393  1.00  0.00     0.001 A 
ATOM     77  C   UNL A   1      37.812  33.221  37.325  1.00  0.00     0.000 A 
ENDBRANCH  58  72
BRANCH  59  78
ATOM     78  C   UNL A   1      43.143  27.293  27.342  1.00  0.00    -0.014 A 
ATOM     79  C   UNL A   1      44.173  27.917  26.620  1.00  0.00     0.009 A 
ATOM     80  C   UNL A   1      42.698  26.026  26.934  1.00  0.00     0.009 A 
ATOM     81  C   UNL A   1      44.725  27.295  25.498  1.00  0.00     0.001 A 
ATOM     82  C   UNL A   1      43.270  25.396  25.827  1.00  0.00     0.001 A 
ATOM     83  C   UNL A   1      44.276  26.036  25.105  1.00  0.00     0.000 A 
ENDBRANCH  59  78
BRANCH  71  84
ATOM     84  C   UNL A   1      45.070  28.072  33.982  1.00  0.00    -0.014 A 
ATOM     85  C   UNL A   1      46.233  28.847  34.103  1.00  0.00     0.009 A 
ATOM     86  C   UNL A   1      45.011  26.826  34.625  1.00  0.00     0.009 A 
ATOM     87  C   UNL A   1      47.329  28.367  34.822  1.00  0.00     0.001 A 
ATOM     88  C   UNL A   1      46.098  26.361  35.367  1.00  0.00     0.001 A 
ATOM     89  C   UNL A   1      47.259  27.126  35.457  1.00  0.00     0.000 A 
ENDBRANCH  71  84
ENDBRANCH  45  46
ENDBRANCH  38  40
ENDBRANCH  37  38
ENDBRANCH  36  37
ENDBRANCH  35  36
ENDBRANCH  34  35
ENDBRANCH   1  34
TORSDOF 20
ENDMDL
MODEL 2
REMARK VINA RESULT:     -11.5      0.560      5.537
REMARK SMILES CC(C)Oc1ccc(-c2ccc(/C(=C\c3ccc(S(C)(=O)=O)cc3)C(=O)OCCOCCOC(=O)c3ccc(-c4c5nc(c(-c6ccccc6)c6ccc([nH]6)c(-c6ccccc6)c6nc(c(-c7ccccc7)c7ccc4[nH]7)C=C6)C=C5)cc3)cc2)cc1
REMARK SMILES IDX 29 1 28 2 27 3 25 4 26 5 13 6 14 7 12 8 9 9 10 10 85 11
REMARK SMILES IDX 11 12 84 13 8 14 5 15 6 16 87 17 7 18 86 19 4 20 2 21 1 22
REMARK SMILES IDX 3 23 15 24 16 25 24 26 17 27 23 28 18 29 19 30 20 31 21 32
REMARK SMILES IDX 22 33 30 34 31 35 32 36 33 37 34 38 35 39 36 40 37 41 83 42
REMARK SMILES IDX 38 43 82 44 39 45 40 46 41 47 76 48 42 49 81 50 75 51 77 52
REMARK SMILES IDX 43 53 80 54 74 55 73 56 44 58 66 59 51 60 65 61 52 62 55 63
REMARK SMILES IDX 64 64 78 65 53 66 54 67 63 69 79 70 56 71 45 72 46 73 50 74
REMARK SMILES IDX 47 75 49 76 48 77 67 78 68 79 72 80 69 81 71 82 70 83 57 84
REMARK SMILES IDX 58 85 62 86 59 87 61 88 60 89
REMARK H PARENT 77 57 55 68
REMARK Flexibility Score: inf
ROOT
ATOM      1  C   UNL A   1      30.852  27.170  23.708  1.00  0.00     0.202 C 
ENDROOT
BRANCH   1   2
ATOM      2  C   UNL A   1      31.209  26.952  22.237  1.00  0.00     0.261 C 
BRANCH   2   3
ATOM      3  O   UNL A   1      31.515  25.566  22.011  1.00  0.00    -0.460 OA
BRANCH   3   4
ATOM      4  C   UNL A   1      32.835  25.247  22.058  1.00  0.00     0.338 C 
ATOM      5  O   UNL A   1      33.753  25.960  21.680  1.00  0.00    -0.246 OA
BRANCH   4   6
ATOM      6  C   UNL A   1      33.044  23.948  22.783  1.00  0.00     0.067 C 
ATOM      7  C   UNL A   1      32.037  23.043  22.708  1.00  0.00     0.024 C 
BRANCH   6   8
ATOM      8  C   UNL A   1      34.330  23.770  23.517  1.00  0.00    -0.011 A 
ATOM      9  C   UNL A   1      36.706  23.345  25.066  1.00  0.00    -0.018 A 
ATOM     10  C   UNL A   1      36.558  22.810  23.777  1.00  0.00     0.009 A 
ATOM     11  C   UNL A   1      35.649  24.130  25.548  1.00  0.00     0.009 A 
ATOM     12  C   UNL A   1      35.413  23.050  23.006  1.00  0.00     0.009 A 
ATOM     13  C   UNL A   1      34.484  24.332  24.793  1.00  0.00     0.009 A 
BRANCH   9  14
ATOM     14  C   UNL A   1      37.937  23.125  25.859  1.00  0.00    -0.018 A 
ATOM     15  C   UNL A   1      40.345  22.714  27.300  1.00  0.00     0.119 A 
ATOM     16  C   UNL A   1      39.786  21.681  26.555  1.00  0.00     0.047 A 
ATOM     17  C   UNL A   1      39.722  23.955  27.320  1.00  0.00     0.047 A 
ATOM     18  C   UNL A   1      38.597  21.884  25.847  1.00  0.00     0.012 A 
ATOM     19  C   UNL A   1      38.521  24.152  26.623  1.00  0.00     0.012 A 
BRANCH  15  20
ATOM     20  O   UNL A   1      41.568  22.474  27.852  1.00  0.00    -0.491 OA
BRANCH  20  21
ATOM     21  C   UNL A   1      42.372  21.413  27.316  1.00  0.00     0.167 C 
ATOM     22  C   UNL A   1      41.743  20.037  27.506  1.00  0.00     0.052 C 
ATOM     23  C   UNL A   1      42.866  21.649  25.889  1.00  0.00     0.052 C 
ENDBRANCH  20  21
ENDBRANCH  15  20
ENDBRANCH   9  14
ENDBRANCH   6   8
BRANCH   7  24
ATOM     24  C   UNL A   1      32.079  21.654  23.191  1.00  0.00    -0.025 A 
ATOM     25  C   UNL A   1      32.036  20.643  22.220  1.00  0.00     0.009 A 
ATOM     26  C   UNL A   1      32.330  21.318  24.528  1.00  0.00     0.009 A 
ATOM     27  C   UNL A   1      32.367  19.331  22.552  1.00  0.00     0.021 A 
ATOM     28  C   UNL A   1      32.667  20.002  24.868  1.00  0.00     0.021 A 
ATOM     29  C   UNL A   1      32.715  19.024  23.869  1.00  0.00     0.067 A 
BRANCH  29  30
ATOM     30  S   UNL A   1      33.411  17.423  24.216  1.00  0.00     0.175 S 
ATOM     31  C   UNL A   1      35.117  17.755  24.550  1.00  0.00     0.163 C 
ATOM     32  O   UNL A   1      32.794  16.958  25.447  1.00  0.00    -0.224 OA
ATOM     33  O   UNL A   1      33.335  16.635  23.004  1.00  0.00    -0.224 OA
ENDBRANCH  29  30
ENDBRANCH   7  24
ENDBRANCH   4   6
ENDBRANCH   3   4
ENDBRANCH   2   3
ENDBRANCH   1   2
BRANCH   1  34
ATOM     34  O   UNL A   1      30.940  28.523  24.162  1.00  0.00    -0.374 OA
BRANCH  34  35
ATOM     35  C   UNL A   1      31.369  28.730  25.509  1.00  0.00     0.202 C 
BRANCH  35  36
ATOM     36  C   UNL A   1      31.703  30.174  25.895  1.00  0.00     0.261 C 
BRANCH  36  37
ATOM     37  O   UNL A   1      32.563  30.230  27.045  1.00  0.00    -0.460 OA
BRANCH  37  38
ATOM     38  C   UNL A   1      33.209  31.408  27.203  1.00  0.00     0.338 C 
ATOM     39  O   UNL A   1      32.731  32.532  27.129  1.00  0.00    -0.246 OA
BRANCH  38  40
ATOM     40  C   UNL A   1      34.594  31.174  27.649  1.00  0.00     0.060 A 
ATOM     41  C   UNL A   1      34.971  29.847  27.883  1.00  0.00     0.016 A 
ATOM     42  C   UNL A   1      35.481  32.223  27.912  1.00  0.00     0.016 A 
ATOM     43  C   UNL A   1      36.207  29.565  28.457  1.00  0.00     0.010 A 
ATOM     44  C   UNL A   1      36.721  31.938  28.492  1.00  0.00     0.010 A 
ATOM     45  C   UNL A   1      37.066  30.612  28.813  1.00  0.00    -0.014 A 
BRANCH  45  46
ATOM     46  C   UNL A   1      38.226  30.318  29.685  1.00  0.00     0.031 A 
ATOM     47  C   UNL A   1      39.392  29.560  29.109  1.00  0.00     0.074 A 
ATOM     48  C   UNL A   1      38.277  30.779  30.947  1.00  0.00     0.049 A 
ATOM     49  N   UNL A   1      40.531  29.239  29.669  1.00  0.00    -0.248 NA
ATOM     50  C   UNL A   1      39.257  29.105  27.716  1.00  0.00     0.031 C 
ATOM     51  C   UNL A   1      37.232  31.559  31.607  1.00  0.00     0.029 A 
ATOM     52  N   UNL A   1      39.262  30.660  31.895  1.00  0.00    -0.354 N 
ATOM     53  C   UNL A   1      41.245  28.547  28.699  1.00  0.00     0.074 A 
ATOM     54  C   UNL A   1      40.398  28.461  27.528  1.00  0.00     0.031 C 
ATOM     55  C   UNL A   1      37.634  31.855  32.856  1.00  0.00     0.029 A 
ATOM     56  C   UNL A   1      38.953  31.269  33.086  1.00  0.00     0.049 A 
ATOM     57  H   UNL A   1      40.109  30.185  31.737  1.00  0.00     0.167 HD
ATOM     58  C   UNL A   1      42.497  28.035  28.769  1.00  0.00     0.031 A 
ATOM     59  C   UNL A   1      39.655  31.339  34.233  1.00  0.00     0.031 A 
ATOM     60  C   UNL A   1      43.338  28.108  29.933  1.00  0.00     0.049 A 
ATOM     61  C   UNL A   1      41.020  30.711  34.305  1.00  0.00     0.074 A 
ATOM     62  C   UNL A   1      44.624  27.627  30.098  1.00  0.00     0.029 A 
ATOM     63  N   UNL A   1      42.971  28.698  31.131  1.00  0.00    -0.354 N 
ATOM     64  N   UNL A   1      41.694  30.082  33.372  1.00  0.00    -0.248 NA
ATOM     65  C   UNL A   1      41.728  30.817  35.590  1.00  0.00     0.031 C 
ATOM     66  C   UNL A   1      45.020  27.886  31.416  1.00  0.00     0.029 A 
ATOM     67  C   UNL A   1      43.999  28.575  32.050  1.00  0.00     0.049 A 
ATOM     68  H   UNL A   1      42.108  29.139  31.304  1.00  0.00     0.167 HD
ATOM     69  C   UNL A   1      42.914  29.746  33.945  1.00  0.00     0.074 A 
ATOM     70  C   UNL A   1      42.893  30.251  35.303  1.00  0.00     0.031 C 
ATOM     71  C   UNL A   1      43.961  29.083  33.397  1.00  0.00     0.031 A 
BRANCH  58  72
ATOM     72  C   UNL A   1      43.016  27.323  27.553  1.00  0.00    -0.014 A 
ATOM     73  C   UNL A   1      43.769  27.998  26.579  1.00  0.00     0.009 A 
ATOM     74  C   UNL A   1      42.764  25.952  27.387  1.00  0.00     0.009 A 
ATOM     75  C   UNL A   1      44.231  27.321  25.448  1.00  0.00     0.001 A 
ATOM     76  C   UNL A   1      43.250  25.273  26.269  1.00  0.00     0.001 A 
ATOM     77  C   UNL A   1      43.974  25.960  25.296  1.00  0.00     0.000 A 
ENDBRANCH  58  72
BRANCH  59  78
ATOM     78  C   UNL A   1      39.080  32.032  35.415  1.00  0.00    -0.014 A 
ATOM     79  C   UNL A   1      39.291  33.405  35.613  1.00  0.00     0.009 A 
ATOM     80  C   UNL A   1      38.334  31.315  36.364  1.00  0.00     0.009 A 
ATOM     81  C   UNL A   1      38.787  34.040  36.751  1.00  0.00     0.001 A 
ATOM     82  C   UNL A   1      37.810  31.957  37.487  1.00  0.00     0.001 A 
ATOM     83  C   UNL A   1      38.045  33.317  37.684  1.00  0.00     0.000 A 
ENDBRANCH  59  78
BRANCH  71  84
ATOM     84  C   UNL A   1      45.183  28.900  34.251  1.00  0.00    -0.014 A 
ATOM     85  C   UNL A   1      46.204  29.862  34.282  1.00  0.00     0.009 A 
ATOM     86  C   UNL A   1      45.297  27.760  35.063  1.00  0.00     0.009 A 
ATOM     87  C   UNL A   1      47.332  29.668  35.082  1.00  0.00     0.001 A 
ATOM     88  C   UNL A   1      46.412  27.583  35.883  1.00  0.00     0.001 A 
ATOM     89  C   UNL A   1      47.433  28.530  35.884  1.00  0.00     0.000 A 
ENDBRANCH  71  84
ENDBRANCH  45  46
ENDBRANCH  38  40
ENDBRANCH  37  38
ENDBRANCH  36  37
ENDBRANCH  35  36
ENDBRANCH  34  35
ENDBRANCH   1  34
TORSDOF 20
ENDMDL
MODEL 3
REMARK VINA RESULT:     -10.8      1.759      6.035
REMARK SMILES CC(C)Oc1ccc(-c2ccc(/C(=C\c3ccc(S(C)(=O)=O)cc3)C(=O)OCCOCCOC(=O)c3ccc(-c4c5nc(c(-c6ccccc6)c6ccc([nH]6)c(-c6ccccc6)c6nc(c(-c7ccccc7)c7ccc4[nH]7)C=C6)C=C5)cc3)cc2)cc1
REMARK SMILES IDX 29 1 28 2 27 3 25 4 26 5 13 6 14 7 12 8 9 9 10 10 85 11
REMARK SMILES IDX 11 12 84 13 8 14 5 15 6 16 87 17 7 18 86 19 4 20 2 21 1 22
REMARK SMILES IDX 3 23 15 24 16 25 24 26 17 27 23 28 18 29 19 30 20 31 21 32
REMARK SMILES IDX 22 33 30 34 31 35 32 36 33 37 34 38 35 39 36 40 37 41 83 42
REMARK SMILES IDX 38 43 82 44 39 45 40 46 41 47 76 48 42 49 81 50 75 51 77 52
REMARK SMILES IDX 43 53 80 54 74 55 73 56 44 58 66 59 51 60 65 61 52 62 55 63
REMARK SMILES IDX 64 64 78 65 53 66 54 67 63 69 79 70 56 71 45 72 46 73 50 74
REMARK SMILES IDX 47 75 49 76 48 77 67 78 68 79 72 80 69 81 71 82 70 83 57 84
REMARK SMILES IDX 58 85 62 86 59 87 61 88 60 89
REMARK H PARENT 77 57 55 68
REMARK Flexibility Score: inf
ROOT
ATOM      1  C   UNL A   1      33.015  28.471  25.305  1.00  0.00     0.202 C 
ENDROOT
BRANCH   1   2
ATOM      2  C   UNL A   1      33.418  28.004  23.905  1.00  0.00     0.261 C 
BRANCH   2   3
ATOM      3  O   UNL A   1      32.610  26.881  23.515  1.00  0.00    -0.460 OA
BRANCH   3   4
ATOM      4  C   UNL A   1      33.211  25.995  22.679  1.00  0.00     0.338 C 
ATOM      5  O   UNL A   1      33.764  26.273  21.625  1.00  0.00    -0.246 OA
BRANCH   4   6
ATOM      6  C   UNL A   1      33.248  24.624  23.292  1.00  0.00     0.067 C 
ATOM      7  C   UNL A   1      32.150  23.848  23.110  1.00  0.00     0.024 C 
BRANCH   6   8
ATOM      8  C   UNL A   1      34.479  24.239  24.042  1.00  0.00    -0.011 A 
ATOM      9  C   UNL A   1      36.944  23.597  25.360  1.00  0.00    -0.018 A 
ATOM     10  C   UNL A   1      35.904  24.269  26.022  1.00  0.00     0.009 A 
ATOM     11  C   UNL A   1      36.705  23.221  24.031  1.00  0.00     0.009 A 
ATOM     12  C   UNL A   1      34.686  24.548  25.389  1.00  0.00     0.009 A 
ATOM     13  C   UNL A   1      35.502  23.541  23.384  1.00  0.00     0.009 A 
BRANCH   9  14
ATOM     14  C   UNL A   1      38.212  23.265  26.048  1.00  0.00    -0.018 A 
ATOM     15  C   UNL A   1      40.594  22.616  27.444  1.00  0.00     0.119 A 
ATOM     16  C   UNL A   1      40.035  23.885  27.558  1.00  0.00     0.047 A 
ATOM     17  C   UNL A   1      39.966  21.663  26.653  1.00  0.00     0.047 A 
ATOM     18  C   UNL A   1      38.863  24.205  26.866  1.00  0.00     0.012 A 
ATOM     19  C   UNL A   1      38.799  21.991  25.948  1.00  0.00     0.012 A 
BRANCH  15  20
ATOM     20  O   UNL A   1      41.660  22.347  28.249  1.00  0.00    -0.491 OA
BRANCH  20  21
ATOM     21  C   UNL A   1      42.985  22.548  27.734  1.00  0.00     0.167 C 
ATOM     22  C   UNL A   1      42.996  22.920  26.255  1.00  0.00     0.052 C 
ATOM     23  C   UNL A   1      43.865  23.462  28.584  1.00  0.00     0.052 C 
ENDBRANCH  20  21
ENDBRANCH  15  20
ENDBRANCH   9  14
ENDBRANCH   6   8
BRANCH   7  24
ATOM     24  C   UNL A   1      32.020  22.428  23.470  1.00  0.00    -0.025 A 
ATOM     25  C   UNL A   1      32.085  21.499  22.421  1.00  0.00     0.009 A 
ATOM     26  C   UNL A   1      32.012  21.973  24.796  1.00  0.00     0.009 A 
ATOM     27  C   UNL A   1      32.270  20.144  22.688  1.00  0.00     0.021 A 
ATOM     28  C   UNL A   1      32.201  20.614  25.071  1.00  0.00     0.021 A 
ATOM     29  C   UNL A   1      32.362  19.713  24.013  1.00  0.00     0.067 A 
BRANCH  29  30
ATOM     30  S   UNL A   1      32.886  18.042  24.331  1.00  0.00     0.175 S 
ATOM     31  C   UNL A   1      32.994  17.308  22.725  1.00  0.00     0.163 C 
ATOM     32  O   UNL A   1      34.229  18.124  24.880  1.00  0.00    -0.224 OA
ATOM     33  O   UNL A   1      31.826  17.377  25.059  1.00  0.00    -0.224 OA
ENDBRANCH  29  30
ENDBRANCH   7  24
ENDBRANCH   4   6
ENDBRANCH   3   4
ENDBRANCH   2   3
ENDBRANCH   1   2
BRANCH   1  34
ATOM     34  O   UNL A   1      33.624  29.689  25.739  1.00  0.00    -0.374 OA
BRANCH  34  35
ATOM     35  C   UNL A   1      32.912  30.463  26.706  1.00  0.00     0.202 C 
BRANCH  35  36
ATOM     36  C   UNL A   1      33.767  31.206  27.737  1.00  0.00     0.261 C 
BRANCH  36  37
ATOM     37  O   UNL A   1      34.005  32.568  27.345  1.00  0.00    -0.460 OA
BRANCH  37  38
ATOM     38  C   UNL A   1      33.749  33.480  28.311  1.00  0.00     0.338 C 
ATOM     39  O   UNL A   1      32.758  34.189  28.417  1.00  0.00    -0.246 OA
BRANCH  38  40
ATOM     40  C   UNL A   1      34.781  33.412  29.362  1.00  0.00     0.060 A 
ATOM     41  C   UNL A   1      36.012  34.017  29.084  1.00  0.00     0.016 A 
ATOM     42  C   UNL A   1      34.587  32.709  30.554  1.00  0.00     0.016 A 
ATOM     43  C   UNL A   1      37.081  33.854  29.960  1.00  0.00     0.010 A 
ATOM     44  C   UNL A   1      35.664  32.544  31.432  1.00  0.00     0.010 A 
ATOM     45  C   UNL A   1      36.927  33.073  31.112  1.00  0.00    -0.014 A 
BRANCH  45  46
ATOM     46  C   UNL A   1      38.135  32.665  31.864  1.00  0.00     0.031 A 
ATOM     47  C   UNL A   1      39.103  31.710  31.218  1.00  0.00     0.074 A 
ATOM     48  C   UNL A   1      38.408  33.189  33.071  1.00  0.00     0.049 A 
ATOM     49  N   UNL A   1      40.248  31.259  31.665  1.00  0.00    -0.248 NA
ATOM     50  C   UNL A   1      38.731  31.196  29.889  1.00  0.00     0.031 C 
ATOM     51  C   UNL A   1      37.574  34.153  33.785  1.00  0.00     0.029 A 
ATOM     52  N   UNL A   1      39.479  32.984  33.905  1.00  0.00    -0.354 N 
ATOM     53  C   UNL A   1      40.730  30.411  30.675  1.00  0.00     0.074 A 
ATOM     54  C   UNL A   1      39.739  30.381  29.621  1.00  0.00     0.031 C 
ATOM     55  C   UNL A   1      38.167  34.462  34.952  1.00  0.00     0.029 A 
ATOM     56  C   UNL A   1      39.410  33.703  35.073  1.00  0.00     0.049 A 
ATOM     57  H   UNL A   1      40.225  32.380  33.687  1.00  0.00     0.167 HD
ATOM     58  C   UNL A   1      41.897  29.726  30.639  1.00  0.00     0.031 A 
ATOM     59  C   UNL A   1      40.254  33.738  36.122  1.00  0.00     0.031 A 
ATOM     60  C   UNL A   1      42.880  29.745  31.689  1.00  0.00     0.049 A 
ATOM     61  C   UNL A   1      41.517  32.921  36.084  1.00  0.00     0.074 A 
ATOM     62  C   UNL A   1      44.098  29.090  31.741  1.00  0.00     0.029 A 
ATOM     63  N   UNL A   1      42.753  30.454  32.872  1.00  0.00    -0.354 N 
ATOM     64  N   UNL A   1      41.973  32.145  35.130  1.00  0.00    -0.248 NA
ATOM     65  C   UNL A   1      42.389  32.999  37.265  1.00  0.00     0.031 C 
ATOM     66  C   UNL A   1      44.689  29.368  32.979  1.00  0.00     0.029 A 
ATOM     67  C   UNL A   1      43.862  30.237  33.672  1.00  0.00     0.049 A 
ATOM     68  H   UNL A   1      41.989  31.027  33.108  1.00  0.00     0.167 HD
ATOM     69  C   UNL A   1      43.197  31.668  35.583  1.00  0.00     0.074 A 
ATOM     70  C   UNL A   1      43.418  32.252  36.890  1.00  0.00     0.031 C 
ATOM     71  C   UNL A   1      44.065  30.826  34.970  1.00  0.00     0.031 A 
BRANCH  58  72
ATOM     72  C   UNL A   1      42.155  28.873  29.431  1.00  0.00    -0.014 A 
ATOM     73  C   UNL A   1      42.658  29.426  28.242  1.00  0.00     0.009 A 
ATOM     74  C   UNL A   1      41.908  27.492  29.487  1.00  0.00     0.009 A 
ATOM     75  C   UNL A   1      42.878  28.618  27.124  1.00  0.00     0.001 A 
ATOM     76  C   UNL A   1      42.154  26.683  28.376  1.00  0.00     0.001 A 
ATOM     77  C   UNL A   1      42.629  27.248  27.194  1.00  0.00     0.000 A 
ENDBRANCH  58  72
BRANCH  59  78
ATOM     78  C   UNL A   1      39.935  34.579  37.305  1.00  0.00    -0.014 A 
ATOM     79  C   UNL A   1      39.222  34.047  38.390  1.00  0.00     0.009 A 
ATOM     80  C   UNL A   1      40.326  35.926  37.343  1.00  0.00     0.009 A 
ATOM     81  C   UNL A   1      38.884  34.855  39.478  1.00  0.00     0.001 A 
ATOM     82  C   UNL A   1      40.009  36.726  38.443  1.00  0.00     0.001 A 
ATOM     83  C   UNL A   1      39.281  36.191  39.505  1.00  0.00     0.000 A 
ENDBRANCH  59  78
BRANCH  71  84
ATOM     84  C   UNL A   1      45.348  30.517  35.689  1.00  0.00    -0.014 A 
ATOM     85  C   UNL A   1      46.489  31.317  35.524  1.00  0.00     0.009 A 
ATOM     86  C   UNL A   1      45.403  29.426  36.570  1.00  0.00     0.009 A 
ATOM     87  C   UNL A   1      47.671  31.007  36.200  1.00  0.00     0.001 A 
ATOM     88  C   UNL A   1      46.577  29.136  37.266  1.00  0.00     0.001 A 
ATOM     89  C   UNL A   1      47.712  29.920  37.073  1.00  0.00     0.000 A 
ENDBRANCH  71  84
ENDBRANCH  45  46
ENDBRANCH  38  40
ENDBRANCH  37  38
ENDBRANCH  36  37
ENDBRANCH  35  36
ENDBRANCH  34  35
ENDBRANCH   1  34
TORSDOF 20
ENDMDL
