MODEL 1
REMARK VINA RESULT:     -11.1      0.000      0.000
REMARK SMILES O=C(OCCOCCOC(=O)c1ccc([C@H]2CCC[N@@H+](CCN3CCCC3=O)C2)cc1)c1ccc(-c2c3nc(c(-c4ccccc4)c4ccc([nH]4)c(-c4ccccc4)c4nc(c(-c5ccccc5)c5ccc2[nH]5)C=C4)C=C3)cc1
REMARK SMILES IDX 7 1 6 2 5 3 4 4 3 5 2 6 1 7 32 8 33 9 79 10 34 11 78 12
REMARK SMILES IDX 35 13 36 14 37 15 72 16 38 17 77 18 71 19 73 20 39 21 76 22
REMARK SMILES IDX 70 23 69 24 40 26 62 27 47 28 61 29 48 30 51 31 60 32 74 33
REMARK SMILES IDX 49 34 50 35 59 37 75 38 52 39 41 40 42 41 46 42 43 43 45 44
REMARK SMILES IDX 44 45 63 46 64 47 68 48 65 49 67 50 66 51 53 52 54 53 58 54
REMARK SMILES IDX 55 55 57 56 56 57 8 58 9 59 10 60 11 61 12 62 13 63 31 64
REMARK SMILES IDX 14 65 30 66 15 67 16 68 17 69 29 70 18 71 20 72 19 73 21 75
REMARK SMILES IDX 22 76 23 77 24 78 27 79 25 80 26 81 28 82
REMARK H PARENT 73 25 51 36 20 74
REMARK Flexibility Score: inf
ROOT
ATOM      1  C   UNL A   1      42.973  19.160  25.903  1.00  0.00     0.202 C 
ENDROOT
BRANCH   1   2
ATOM      2  O   UNL A   1      43.158  20.236  24.987  1.00  0.00    -0.374 OA
BRANCH   2   3
ATOM      3  C   UNL A   1      44.369  20.976  25.103  1.00  0.00     0.202 C 
BRANCH   3   4
ATOM      4  C   UNL A   1      44.487  22.127  24.105  1.00  0.00     0.261 C 
BRANCH   4   5
ATOM      5  O   UNL A   1      43.748  23.271  24.564  1.00  0.00    -0.460 OA
BRANCH   5   6
ATOM      6  C   UNL A   1      44.247  24.442  25.028  1.00  0.00     0.338 C 
ATOM      7  O   UNL A   1      45.253  24.910  24.497  1.00  0.00    -0.246 OA
BRANCH   6   8
ATOM      8  C   UNL A   1      43.630  25.209  26.151  1.00  0.00     0.060 A 
ATOM      9  C   UNL A   1      42.848  24.637  27.151  1.00  0.00     0.016 A 
ATOM     10  C   UNL A   1      43.931  26.577  26.259  1.00  0.00     0.016 A 
ATOM     11  C   UNL A   1      42.329  25.380  28.191  1.00  0.00     0.010 A 
ATOM     12  C   UNL A   1      43.458  27.331  27.342  1.00  0.00     0.010 A 
ATOM     13  C   UNL A   1      42.652  26.724  28.310  1.00  0.00    -0.014 A 
BRANCH  13  14
ATOM     14  C   UNL A   1      42.036  27.435  29.440  1.00  0.00     0.031 A 
ATOM     15  C   UNL A   1      42.832  27.606  30.693  1.00  0.00     0.074 A 
ATOM     16  C   UNL A   1      40.885  28.104  29.230  1.00  0.00     0.049 A 
ATOM     17  N   UNL A   1      42.516  28.240  31.789  1.00  0.00    -0.248 NA
ATOM     18  C   UNL A   1      44.177  27.004  30.706  1.00  0.00     0.031 C 
ATOM     19  C   UNL A   1      40.134  28.116  27.968  1.00  0.00     0.029 A 
ATOM     20  N   UNL A   1      40.182  28.953  30.039  1.00  0.00    -0.354 N 
ATOM     21  C   UNL A   1      43.612  28.097  32.628  1.00  0.00     0.074 A 
ATOM     22  C   UNL A   1      44.598  27.310  31.923  1.00  0.00     0.031 C 
ATOM     23  C   UNL A   1      39.104  28.968  28.077  1.00  0.00     0.029 A 
ATOM     24  C   UNL A   1      39.070  29.491  29.435  1.00  0.00     0.049 A 
ATOM     25  H   UNL A   1      40.445  29.158  30.966  1.00  0.00     0.167 HD
ATOM     26  C   UNL A   1      43.768  28.579  33.881  1.00  0.00     0.031 A 
ATOM     27  C   UNL A   1      38.115  30.289  29.945  1.00  0.00     0.031 A 
ATOM     28  C   UNL A   1      42.756  29.345  34.556  1.00  0.00     0.049 A 
ATOM     29  C   UNL A   1      38.255  30.699  31.385  1.00  0.00     0.074 A 
ATOM     30  C   UNL A   1      42.738  29.800  35.861  1.00  0.00     0.029 A 
ATOM     31  N   UNL A   1      41.576  29.771  33.961  1.00  0.00    -0.354 N 
ATOM     32  N   UNL A   1      39.246  30.471  32.215  1.00  0.00    -0.248 NA
ATOM     33  C   UNL A   1      37.143  31.460  31.963  1.00  0.00     0.031 C 
ATOM     34  C   UNL A   1      41.523  30.463  36.068  1.00  0.00     0.029 A 
ATOM     35  C   UNL A   1      40.813  30.473  34.876  1.00  0.00     0.049 A 
ATOM     36  H   UNL A   1      41.320  29.600  33.026  1.00  0.00     0.167 HD
ATOM     37  C   UNL A   1      38.881  31.066  33.413  1.00  0.00     0.074 A 
ATOM     38  C   UNL A   1      37.595  31.699  33.185  1.00  0.00     0.031 C 
ATOM     39  C   UNL A   1      39.536  31.081  34.601  1.00  0.00     0.031 A 
BRANCH  26  40
ATOM     40  C   UNL A   1      45.032  28.211  34.600  1.00  0.00    -0.014 A 
ATOM     41  C   UNL A   1      46.171  29.030  34.551  1.00  0.00     0.009 A 
ATOM     42  C   UNL A   1      45.094  27.001  35.306  1.00  0.00     0.009 A 
ATOM     43  C   UNL A   1      47.358  28.625  35.168  1.00  0.00     0.001 A 
ATOM     44  C   UNL A   1      46.274  26.611  35.943  1.00  0.00     0.001 A 
ATOM     45  C   UNL A   1      47.407  27.418  35.865  1.00  0.00     0.000 A 
ENDBRANCH  26  40
BRANCH  27  46
ATOM     46  C   UNL A   1      36.917  30.658  29.142  1.00  0.00    -0.014 A 
ATOM     47  C   UNL A   1      35.952  29.706  28.784  1.00  0.00     0.009 A 
ATOM     48  C   UNL A   1      36.760  31.978  28.682  1.00  0.00     0.009 A 
ATOM     49  C   UNL A   1      34.881  30.058  27.954  1.00  0.00     0.001 A 
ATOM     50  C   UNL A   1      35.670  32.335  27.886  1.00  0.00     0.001 A 
ATOM     51  C   UNL A   1      34.740  31.370  27.508  1.00  0.00     0.000 A 
ENDBRANCH  27  46
BRANCH  39  52
ATOM     52  C   UNL A   1      38.871  31.829  35.717  1.00  0.00    -0.014 A 
ATOM     53  C   UNL A   1      38.170  31.154  36.728  1.00  0.00     0.009 A 
ATOM     54  C   UNL A   1      38.968  33.228  35.766  1.00  0.00     0.009 A 
ATOM     55  C   UNL A   1      37.542  31.872  37.746  1.00  0.00     0.001 A 
ATOM     56  C   UNL A   1      38.369  33.940  36.804  1.00  0.00     0.001 A 
ATOM     57  C   UNL A   1      37.647  33.262  37.785  1.00  0.00     0.000 A 
ENDBRANCH  39  52
ENDBRANCH  13  14
ENDBRANCH   6   8
ENDBRANCH   5   6
ENDBRANCH   4   5
ENDBRANCH   3   4
ENDBRANCH   2   3
ENDBRANCH   1   2
BRANCH   1  58
ATOM     58  C   UNL A   1      41.902  19.567  26.918  1.00  0.00     0.261 C 
BRANCH  58  59
ATOM     59  O   UNL A   1      41.012  20.516  26.309  1.00  0.00    -0.460 OA
BRANCH  59  60
ATOM     60  C   UNL A   1      40.520  21.489  27.128  1.00  0.00     0.338 C 
ATOM     61  O   UNL A   1      40.982  21.909  28.173  1.00  0.00    -0.246 OA
BRANCH  60  62
ATOM     62  C   UNL A   1      39.381  22.074  26.404  1.00  0.00     0.060 A 
ATOM     63  C   UNL A   1      38.600  21.303  25.537  1.00  0.00     0.016 A 
ATOM     64  C   UNL A   1      39.015  23.373  26.702  1.00  0.00     0.016 A 
ATOM     65  C   UNL A   1      37.351  21.778  25.104  1.00  0.00     0.005 A 
ATOM     66  C   UNL A   1      37.813  23.859  26.213  1.00  0.00     0.005 A 
ATOM     67  C   UNL A   1      36.903  23.046  25.495  1.00  0.00    -0.039 A 
BRANCH  67  68
ATOM     68  C   UNL A   1      35.478  23.555  25.194  1.00  0.00     0.074 C 
ATOM     69  C   UNL A   1      35.331  24.306  23.852  1.00  0.00     0.020 C 
ATOM     70  C   UNL A   1      34.519  22.345  25.159  1.00  0.00     0.270 C 
ATOM     71  C   UNL A   1      33.855  24.546  23.508  1.00  0.00     0.062 C 
ATOM     72  N   UNL A   1      33.145  22.528  24.715  1.00  0.00    -0.333 N 
ATOM     73  C   UNL A   1      33.060  23.235  23.445  1.00  0.00     0.262 C 
ATOM     74  H   UNL A   1      32.657  23.147  25.363  1.00  0.00     0.348 HD
BRANCH  72  75
ATOM     75  C   UNL A   1      32.439  21.224  24.748  1.00  0.00     0.284 C 
BRANCH  75  76
ATOM     76  C   UNL A   1      32.482  20.239  23.539  1.00  0.00     0.180 C 
BRANCH  76  77
ATOM     77  N   UNL A   1      33.102  18.926  23.716  1.00  0.00    -0.337 N 
ATOM     78  C   UNL A   1      34.116  18.696  24.718  1.00  0.00     0.120 C 
ATOM     79  C   UNL A   1      32.884  17.797  22.935  1.00  0.00     0.222 C 
ATOM     80  C   UNL A   1      34.780  17.400  24.286  1.00  0.00     0.031 C 
ATOM     81  C   UNL A   1      33.677  16.664  23.547  1.00  0.00     0.102 C 
ATOM     82  O   UNL A   1      32.124  17.692  21.987  1.00  0.00    -0.275 OA
ENDBRANCH  76  77
ENDBRANCH  75  76
ENDBRANCH  72  75
ENDBRANCH  67  68
ENDBRANCH  60  62
ENDBRANCH  59  60
ENDBRANCH  58  59
ENDBRANCH   1  58
TORSDOF 18
ENDMDL
MODEL 2
REMARK VINA RESULT:     -10.8      5.648     11.802
REMARK SMILES O=C(OCCOCCOC(=O)c1ccc([C@H]2CCC[N@@H+](CCN3CCCC3=O)C2)cc1)c1ccc(-c2c3nc(c(-c4ccccc4)c4ccc([nH]4)c(-c4ccccc4)c4nc(c(-c5ccccc5)c5ccc2[nH]5)C=C4)C=C3)cc1
REMARK SMILES IDX 7 1 6 2 5 3 4 4 3 5 2 6 1 7 32 8 33 9 79 10 34 11 78 12
REMARK SMILES IDX 35 13 36 14 37 15 72 16 38 17 77 18 71 19 73 20 39 21 76 22
REMARK SMILES IDX 70 23 69 24 40 26 62 27 47 28 61 29 48 30 51 31 60 32 74 33
REMARK SMILES IDX 49 34 50 35 59 37 75 38 52 39 41 40 42 41 46 42 43 43 45 44
REMARK SMILES IDX 44 45 63 46 64 47 68 48 65 49 67 50 66 51 53 52 54 53 58 54
REMARK SMILES IDX 55 55 57 56 56 57 8 58 9 59 10 60 11 61 12 62 13 63 31 64
REMARK SMILES IDX 14 65 30 66 15 67 16 68 17 69 29 70 18 71 20 72 19 73 21 75
REMARK SMILES IDX 22 76 23 77 24 78 27 79 25 80 26 81 28 82
REMARK H PARENT 73 25 51 36 20 74
REMARK Flexibility Score: inf
ROOT
ATOM      1  C   UNL A   1      35.021  35.022  33.377  1.00  0.00     0.202 C 
ENDROOT
BRANCH   1   2
ATOM      2  O   UNL A   1      33.751  35.258  32.774  1.00  0.00    -0.374 OA
BRANCH   2   3
ATOM      3  C   UNL A   1      33.645  36.399  31.929  1.00  0.00     0.202 C 
BRANCH   3   4
ATOM      4  C   UNL A   1      32.570  36.269  30.850  1.00  0.00     0.261 C 
BRANCH   4   5
ATOM      5  O   UNL A   1      32.525  34.926  30.341  1.00  0.00    -0.460 OA
BRANCH   5   6
ATOM      6  C   UNL A   1      33.223  34.418  29.297  1.00  0.00     0.338 C 
ATOM      7  O   UNL A   1      32.720  34.445  28.175  1.00  0.00    -0.246 OA
BRANCH   6   8
ATOM      8  C   UNL A   1      34.590  33.831  29.434  1.00  0.00     0.060 A 
ATOM      9  C   UNL A   1      35.690  34.229  28.678  1.00  0.00     0.016 A 
ATOM     10  C   UNL A   1      34.803  32.883  30.449  1.00  0.00     0.016 A 
ATOM     11  C   UNL A   1      36.943  33.684  28.865  1.00  0.00     0.010 A 
ATOM     12  C   UNL A   1      36.083  32.365  30.688  1.00  0.00     0.010 A 
ATOM     13  C   UNL A   1      37.156  32.770  29.887  1.00  0.00    -0.014 A 
BRANCH  13  14
ATOM     14  C   UNL A   1      38.520  32.232  29.995  1.00  0.00     0.031 A 
ATOM     15  C   UNL A   1      39.501  32.949  30.864  1.00  0.00     0.074 A 
ATOM     16  C   UNL A   1      38.768  31.002  29.504  1.00  0.00     0.049 A 
ATOM     17  N   UNL A   1      40.734  32.631  31.150  1.00  0.00    -0.248 NA
ATOM     18  C   UNL A   1      39.024  34.178  31.523  1.00  0.00     0.031 C 
ATOM     19  C   UNL A   1      37.796  30.169  28.783  1.00  0.00     0.029 A 
ATOM     20  N   UNL A   1      39.879  30.209  29.592  1.00  0.00    -0.354 N 
ATOM     21  C   UNL A   1      41.186  33.627  32.003  1.00  0.00     0.074 A 
ATOM     22  C   UNL A   1      40.103  34.567  32.184  1.00  0.00     0.031 C 
ATOM     23  C   UNL A   1      38.342  28.968  28.538  1.00  0.00     0.029 A 
ATOM     24  C   UNL A   1      39.722  28.978  29.003  1.00  0.00     0.049 A 
ATOM     25  H   UNL A   1      40.712  30.494  30.035  1.00  0.00     0.167 HD
ATOM     26  C   UNL A   1      42.405  33.742  32.576  1.00  0.00     0.031 A 
ATOM     27  C   UNL A   1      40.614  27.986  28.830  1.00  0.00     0.031 A 
ATOM     28  C   UNL A   1      43.463  32.795  32.359  1.00  0.00     0.049 A 
ATOM     29  C   UNL A   1      42.001  28.205  29.368  1.00  0.00     0.074 A 
ATOM     30  C   UNL A   1      44.776  32.847  32.787  1.00  0.00     0.029 A 
ATOM     31  N   UNL A   1      43.315  31.611  31.648  1.00  0.00    -0.354 N 
ATOM     32  N   UNL A   1      42.459  29.203  30.086  1.00  0.00    -0.248 NA
ATOM     33  C   UNL A   1      42.997  27.173  29.059  1.00  0.00     0.031 C 
ATOM     34  C   UNL A   1      45.435  31.715  32.293  1.00  0.00     0.029 A 
ATOM     35  C   UNL A   1      44.517  30.929  31.611  1.00  0.00     0.049 A 
ATOM     36  H   UNL A   1      42.478  31.302  31.232  1.00  0.00     0.167 HD
ATOM     37  C   UNL A   1      43.796  28.918  30.322  1.00  0.00     0.074 A 
ATOM     38  C   UNL A   1      44.059  27.633  29.703  1.00  0.00     0.031 C 
ATOM     39  C   UNL A   1      44.729  29.652  30.977  1.00  0.00     0.031 A 
BRANCH  26  40
ATOM     40  C   UNL A   1      42.655  34.967  33.404  1.00  0.00    -0.014 A 
ATOM     41  C   UNL A   1      42.320  35.017  34.766  1.00  0.00     0.009 A 
ATOM     42  C   UNL A   1      43.200  36.108  32.795  1.00  0.00     0.009 A 
ATOM     43  C   UNL A   1      42.496  36.197  35.493  1.00  0.00     0.001 A 
ATOM     44  C   UNL A   1      43.398  37.278  33.532  1.00  0.00     0.001 A 
ATOM     45  C   UNL A   1      43.037  37.325  34.876  1.00  0.00     0.000 A 
ENDBRANCH  26  40
BRANCH  27  46
ATOM     46  C   UNL A   1      40.265  26.771  28.045  1.00  0.00    -0.014 A 
ATOM     47  C   UNL A   1      39.550  25.708  28.616  1.00  0.00     0.009 A 
ATOM     48  C   UNL A   1      40.698  26.648  26.712  1.00  0.00     0.009 A 
ATOM     49  C   UNL A   1      39.310  24.539  27.884  1.00  0.00     0.001 A 
ATOM     50  C   UNL A   1      40.425  25.496  25.972  1.00  0.00     0.001 A 
ATOM     51  C   UNL A   1      39.746  24.435  26.565  1.00  0.00     0.000 A 
ENDBRANCH  27  46
BRANCH  39  52
ATOM     52  C   UNL A   1      46.101  29.054  31.069  1.00  0.00    -0.014 A 
ATOM     53  C   UNL A   1      47.059  29.276  30.068  1.00  0.00     0.009 A 
ATOM     54  C   UNL A   1      46.443  28.276  32.185  1.00  0.00     0.009 A 
ATOM     55  C   UNL A   1      48.323  28.692  30.164  1.00  0.00     0.001 A 
ATOM     56  C   UNL A   1      47.718  27.723  32.296  1.00  0.00     0.001 A 
ATOM     57  C   UNL A   1      48.651  27.922  31.279  1.00  0.00     0.000 A 
ENDBRANCH  39  52
ENDBRANCH  13  14
ENDBRANCH   6   8
ENDBRANCH   5   6
ENDBRANCH   4   5
ENDBRANCH   3   4
ENDBRANCH   2   3
ENDBRANCH   1   2
BRANCH   1  58
ATOM     58  C   UNL A   1      34.985  33.654  34.062  1.00  0.00     0.261 C 
BRANCH  58  59
ATOM     59  O   UNL A   1      36.273  33.031  33.936  1.00  0.00    -0.460 OA
BRANCH  59  60
ATOM     60  C   UNL A   1      37.011  32.942  35.079  1.00  0.00     0.338 C 
ATOM     61  O   UNL A   1      36.676  33.194  36.222  1.00  0.00    -0.246 OA
BRANCH  60  62
ATOM     62  C   UNL A   1      38.275  32.303  34.684  1.00  0.00     0.060 A 
ATOM     63  C   UNL A   1      39.487  32.660  35.285  1.00  0.00     0.016 A 
ATOM     64  C   UNL A   1      38.223  31.244  33.798  1.00  0.00     0.016 A 
ATOM     65  C   UNL A   1      40.617  31.841  35.131  1.00  0.00     0.005 A 
ATOM     66  C   UNL A   1      39.363  30.481  33.598  1.00  0.00     0.005 A 
ATOM     67  C   UNL A   1      40.553  30.691  34.334  1.00  0.00    -0.039 A 
BRANCH  67  68
ATOM     68  C   UNL A   1      41.703  29.664  34.260  1.00  0.00     0.074 C 
ATOM     69  C   UNL A   1      43.032  30.138  34.889  1.00  0.00     0.020 C 
ATOM     70  C   UNL A   1      41.267  28.381  35.001  1.00  0.00     0.270 C 
ATOM     71  C   UNL A   1      44.032  28.981  35.009  1.00  0.00     0.062 C 
ATOM     72  N   UNL A   1      42.237  27.322  35.236  1.00  0.00    -0.333 N 
ATOM     73  C   UNL A   1      43.468  27.816  35.834  1.00  0.00     0.262 C 
ATOM     74  H   UNL A   1      42.545  26.937  34.343  1.00  0.00     0.348 HD
BRANCH  72  75
ATOM     75  C   UNL A   1      41.586  26.215  35.981  1.00  0.00     0.284 C 
BRANCH  75  76
ATOM     76  C   UNL A   1      42.421  25.131  36.730  1.00  0.00     0.180 C 
BRANCH  76  77
ATOM     77  N   UNL A   1      43.378  24.325  35.972  1.00  0.00    -0.337 N 
ATOM     78  C   UNL A   1      43.024  23.711  34.714  1.00  0.00     0.120 C 
ATOM     79  C   UNL A   1      44.664  23.979  36.370  1.00  0.00     0.222 C 
ATOM     80  C   UNL A   1      44.092  22.653  34.502  1.00  0.00     0.031 C 
ATOM     81  C   UNL A   1      45.300  23.215  35.230  1.00  0.00     0.102 C 
ATOM     82  O   UNL A   1      45.229  24.305  37.400  1.00  0.00    -0.275 OA
ENDBRANCH  76  77
ENDBRANCH  75  76
ENDBRANCH  72  75
ENDBRANCH  67  68
ENDBRANCH  60  62
ENDBRANCH  59  60
ENDBRANCH  58  59
ENDBRANCH   1  58
TORSDOF 18
ENDMDL
MODEL 3
REMARK VINA RESULT:     -10.7      1.729      3.017
REMARK SMILES O=C(OCCOCCOC(=O)c1ccc([C@H]2CCC[N@@H+](CCN3CCCC3=O)C2)cc1)c1ccc(-c2c3nc(c(-c4ccccc4)c4ccc([nH]4)c(-c4ccccc4)c4nc(c(-c5ccccc5)c5ccc2[nH]5)C=C4)C=C3)cc1
REMARK SMILES IDX 7 1 6 2 5 3 4 4 3 5 2 6 1 7 32 8 33 9 79 10 34 11 78 12
REMARK SMILES IDX 35 13 36 14 37 15 72 16 38 17 77 18 71 19 73 20 39 21 76 22
REMARK SMILES IDX 70 23 69 24 40 26 62 27 47 28 61 29 48 30 51 31 60 32 74 33
REMARK SMILES IDX 49 34 50 35 59 37 75 38 52 39 41 40 42 41 46 42 43 43 45 44
REMARK SMILES IDX 44 45 63 46 64 47 68 48 65 49 67 50 66 51 53 52 54 53 58 54
REMARK SMILES IDX 55 55 57 56 56 57 8 58 9 59 10 60 11 61 12 62 13 63 31 64
REMARK SMILES IDX 14 65 30 66 15 67 16 68 17 69 29 70 18 71 20 72 19 73 21 75
REMARK SMILES IDX 22 76 23 77 24 78 27 79 25 80 26 81 28 82
REMARK H PARENT 73 25 51 36 20 74
REMARK Flexibility Score: inf
ROOT
ATOM      1  C   UNL A   1      46.061  21.890  24.414  1.00  0.00     0.202 C 
ENDROOT
BRANCH   1   2
ATOM      2  O   UNL A   1      46.402  22.208  25.761  1.00  0.00    -0.374 OA
BRANCH   2   3
ATOM      3  C   UNL A   1      45.998  23.487  26.239  1.00  0.00     0.202 C 
BRANCH   3   4
ATOM      4  C   UNL A   1      46.330  24.635  25.286  1.00  0.00     0.261 C 
BRANCH   4   5
ATOM      5  O   UNL A   1      45.128  25.203  24.742  1.00  0.00    -0.460 OA
BRANCH   5   6
ATOM      6  C   UNL A   1      43.863  25.051  25.203  1.00  0.00     0.338 C 
ATOM      7  O   UNL A   1      43.108  24.274  24.622  1.00  0.00    -0.246 OA
BRANCH   6   8
ATOM      8  C   UNL A   1      43.334  25.774  26.399  1.00  0.00     0.060 A 
ATOM      9  C   UNL A   1      43.527  27.131  26.640  1.00  0.00     0.016 A 
ATOM     10  C   UNL A   1      42.513  25.063  27.290  1.00  0.00     0.016 A 
ATOM     11  C   UNL A   1      42.988  27.765  27.740  1.00  0.00     0.010 A 
ATOM     12  C   UNL A   1      41.911  25.707  28.379  1.00  0.00     0.010 A 
ATOM     13  C   UNL A   1      42.154  27.066  28.602  1.00  0.00    -0.014 A 
BRANCH  13  14
ATOM     14  C   UNL A   1      41.643  27.822  29.755  1.00  0.00     0.031 A 
ATOM     15  C   UNL A   1      42.457  27.844  31.008  1.00  0.00     0.074 A 
ATOM     16  C   UNL A   1      40.595  28.648  29.571  1.00  0.00     0.049 A 
ATOM     17  N   UNL A   1      42.233  28.482  32.123  1.00  0.00    -0.248 NA
ATOM     18  C   UNL A   1      43.707  27.063  30.996  1.00  0.00     0.031 C 
ATOM     19  C   UNL A   1      39.852  28.801  28.313  1.00  0.00     0.029 A 
ATOM     20  N   UNL A   1      40.016  29.561  30.408  1.00  0.00    -0.354 N 
ATOM     21  C   UNL A   1      43.299  28.165  32.953  1.00  0.00     0.074 A 
ATOM     22  C   UNL A   1      44.167  27.271  32.220  1.00  0.00     0.031 C 
ATOM     23  C   UNL A   1      38.948  29.783  28.453  1.00  0.00     0.029 A 
ATOM     24  C   UNL A   1      38.988  30.265  29.826  1.00  0.00     0.049 A 
ATOM     25  H   UNL A   1      40.306  29.701  31.339  1.00  0.00     0.167 HD
ATOM     26  C   UNL A   1      43.522  28.585  34.218  1.00  0.00     0.031 A 
ATOM     27  C   UNL A   1      38.153  31.171  30.364  1.00  0.00     0.031 A 
ATOM     28  C   UNL A   1      42.626  29.461  34.921  1.00  0.00     0.049 A 
ATOM     29  C   UNL A   1      38.350  31.515  31.814  1.00  0.00     0.074 A 
ATOM     30  C   UNL A   1      42.672  29.875  36.238  1.00  0.00     0.029 A 
ATOM     31  N   UNL A   1      41.515  30.064  34.344  1.00  0.00    -0.354 N 
ATOM     32  N   UNL A   1      39.301  31.128  32.632  1.00  0.00    -0.248 NA
ATOM     33  C   UNL A   1      37.354  32.404  32.421  1.00  0.00     0.031 C 
ATOM     34  C   UNL A   1      41.560  30.693  36.471  1.00  0.00     0.029 A 
ATOM     35  C   UNL A   1      40.857  30.836  35.283  1.00  0.00     0.049 A 
ATOM     36  H   UNL A   1      41.237  29.957  33.407  1.00  0.00     0.167 HD
ATOM     37  C   UNL A   1      39.023  31.732  33.850  1.00  0.00     0.074 A 
ATOM     38  C   UNL A   1      37.836  32.542  33.647  1.00  0.00     0.031 C 
ATOM     39  C   UNL A   1      39.675  31.621  35.033  1.00  0.00     0.031 A 
BRANCH  26  40
ATOM     40  C   UNL A   1      44.724  28.025  34.919  1.00  0.00    -0.014 A 
ATOM     41  C   UNL A   1      44.662  26.824  35.643  1.00  0.00     0.009 A 
ATOM     42  C   UNL A   1      45.933  28.737  34.886  1.00  0.00     0.009 A 
ATOM     43  C   UNL A   1      45.778  26.366  36.348  1.00  0.00     0.001 A 
ATOM     44  C   UNL A   1      47.054  28.263  35.570  1.00  0.00     0.001 A 
ATOM     45  C   UNL A   1      46.973  27.085  36.308  1.00  0.00     0.000 A 
ENDBRANCH  26  40
BRANCH  27  46
ATOM     46  C   UNL A   1      37.016  31.725  29.579  1.00  0.00    -0.014 A 
ATOM     47  C   UNL A   1      35.848  30.983  29.356  1.00  0.00     0.009 A 
ATOM     48  C   UNL A   1      37.120  33.002  28.998  1.00  0.00     0.009 A 
ATOM     49  C   UNL A   1      34.829  31.489  28.540  1.00  0.00     0.001 A 
ATOM     50  C   UNL A   1      36.087  33.521  28.216  1.00  0.00     0.001 A 
ATOM     51  C   UNL A   1      34.948  32.757  27.974  1.00  0.00     0.000 A 
ENDBRANCH  27  46
BRANCH  39  52
ATOM     52  C   UNL A   1      39.121  32.421  36.175  1.00  0.00    -0.014 A 
ATOM     53  C   UNL A   1      38.144  31.887  37.029  1.00  0.00     0.009 A 
ATOM     54  C   UNL A   1      39.602  33.718  36.408  1.00  0.00     0.009 A 
ATOM     55  C   UNL A   1      37.628  32.655  38.072  1.00  0.00     0.001 A 
ATOM     56  C   UNL A   1      39.109  34.471  37.473  1.00  0.00     0.001 A 
ATOM     57  C   UNL A   1      38.114  33.944  38.295  1.00  0.00     0.000 A 
ENDBRANCH  39  52
ENDBRANCH  13  14
ENDBRANCH   6   8
ENDBRANCH   5   6
ENDBRANCH   4   5
ENDBRANCH   3   4
ENDBRANCH   2   3
ENDBRANCH   1   2
BRANCH   1  58
ATOM     58  C   UNL A   1      45.994  20.367  24.279  1.00  0.00     0.261 C 
BRANCH  58  59
ATOM     59  O   UNL A   1      44.619  19.961  24.202  1.00  0.00    -0.460 OA
BRANCH  59  60
ATOM     60  C   UNL A   1      44.195  19.091  25.163  1.00  0.00     0.338 C 
ATOM     61  O   UNL A   1      44.720  18.060  25.540  1.00  0.00    -0.246 OA
BRANCH  60  62
ATOM     62  C   UNL A   1      43.036  19.738  25.798  1.00  0.00     0.060 A 
ATOM     63  C   UNL A   1      43.092  21.070  26.220  1.00  0.00     0.016 A 
ATOM     64  C   UNL A   1      41.845  19.041  25.849  1.00  0.00     0.016 A 
ATOM     65  C   UNL A   1      41.909  21.761  26.530  1.00  0.00     0.005 A 
ATOM     66  C   UNL A   1      40.691  19.712  26.223  1.00  0.00     0.005 A 
ATOM     67  C   UNL A   1      40.672  21.106  26.469  1.00  0.00    -0.039 A 
BRANCH  67  68
ATOM     68  C   UNL A   1      39.328  21.847  26.632  1.00  0.00     0.074 C 
ATOM     69  C   UNL A   1      39.455  23.371  26.855  1.00  0.00     0.020 C 
ATOM     70  C   UNL A   1      38.487  21.631  25.355  1.00  0.00     0.270 C 
ATOM     71  C   UNL A   1      38.090  24.063  26.746  1.00  0.00     0.062 C 
ATOM     72  N   UNL A   1      37.249  22.374  25.175  1.00  0.00    -0.333 N 
ATOM     73  C   UNL A   1      37.421  23.803  25.389  1.00  0.00     0.262 C 
ATOM     74  H   UNL A   1      36.581  22.104  25.897  1.00  0.00     0.348 HD
BRANCH  72  75
ATOM     75  C   UNL A   1      36.643  22.010  23.869  1.00  0.00     0.284 C 
BRANCH  75  76
ATOM     76  C   UNL A   1      35.633  22.954  23.146  1.00  0.00     0.180 C 
BRANCH  76  77
ATOM     77  N   UNL A   1      34.200  22.769  23.378  1.00  0.00    -0.337 N 
ATOM     78  C   UNL A   1      33.704  21.793  24.319  1.00  0.00     0.120 C 
ATOM     79  C   UNL A   1      33.165  23.405  22.702  1.00  0.00     0.222 C 
ATOM     80  C   UNL A   1      32.244  21.618  23.940  1.00  0.00     0.031 C 
ATOM     81  C   UNL A   1      31.869  22.961  23.341  1.00  0.00     0.102 C 
ATOM     82  O   UNL A   1      33.265  24.244  21.823  1.00  0.00    -0.275 OA
ENDBRANCH  76  77
ENDBRANCH  75  76
ENDBRANCH  72  75
ENDBRANCH  67  68
ENDBRANCH  60  62
ENDBRANCH  59  60
ENDBRANCH  58  59
ENDBRANCH   1  58
TORSDOF 18
ENDMDL
