MODEL 1
REMARK VINA RESULT:     -11.3      0.000      0.000
REMARK SMILES O=C(OCCOCCOC(=O)c1ccc(-c2c3nc(c(-c4ccccc4)c4ccc([nH]4)c(-c4ccccc4)c4nc(c(-c5ccccc5)c5ccc2[nH]5)C=C4)C=C3)cc1)C1=NN(c2ccc(S(=O)(=O)[O-])cc2)C(=O)/C1=C/Nc1ccccc1
REMARK SMILES IDX 6 1 5 2 4 3 3 4 2 5 1 6 60 7 61 8 75 9 62 10 73 11 76 12
REMARK SMILES IDX 74 13 63 14 64 15 72 16 65 17 71 18 66 19 67 20 68 21 69 22
REMARK SMILES IDX 70 23 77 24 78 26 79 27 83 28 80 29 82 30 81 31 7 32 8 33
REMARK SMILES IDX 9 34 10 35 11 36 12 37 13 38 59 39 14 40 58 41 15 42 16 43
REMARK SMILES IDX 17 44 52 45 18 46 57 47 51 48 53 49 19 50 56 51 50 52 49 53
REMARK SMILES IDX 20 55 42 56 27 57 41 58 28 59 31 60 40 61 54 62 29 63 30 64
REMARK SMILES IDX 39 66 55 67 32 68 21 69 22 70 26 71 23 72 25 73 24 74 43 75
REMARK SMILES IDX 44 76 48 77 45 78 47 79 46 80 33 81 34 82 38 83 35 84 37 85
REMARK SMILES IDX 36 86
REMARK H PARENT 77 25 53 54 31 65
REMARK Flexibility Score: inf
ROOT
ATOM      1  O   UNL A   1      37.670  21.256  24.769  1.00  0.00    -0.374 OA
ENDROOT
BRANCH   1   2
ATOM      2  C   UNL A   1      37.998  22.260  25.737  1.00  0.00     0.202 C 
BRANCH   2   3
ATOM      3  C   UNL A   1      37.488  23.631  25.300  1.00  0.00     0.261 C 
BRANCH   3   4
ATOM      4  O   UNL A   1      36.312  23.994  26.031  1.00  0.00    -0.458 OA
BRANCH   4   5
ATOM      5  C   UNL A   1      35.183  24.229  25.327  1.00  0.00     0.359 C 
ATOM      6  O   UNL A   1      35.177  24.815  24.252  1.00  0.00    -0.244 OA
BRANCH   5   7
ATOM      7  C   UNL A   1      33.975  23.422  25.703  1.00  0.00     0.183 C 
ATOM      8  N   UNL A   1      34.255  22.192  26.049  1.00  0.00    -0.157 NA
ATOM      9  C   UNL A   1      32.511  23.655  25.539  1.00  0.00     0.093 C 
ATOM     10  N   UNL A   1      33.082  21.496  25.969  1.00  0.00    -0.196 N 
ATOM     11  C   UNL A   1      31.948  22.293  25.807  1.00  0.00     0.282 C 
ATOM     12  C   UNL A   1      31.573  24.551  25.180  1.00  0.00     0.099 C 
ATOM     13  O   UNL A   1      30.770  21.977  25.791  1.00  0.00    -0.267 OA
BRANCH  10  14
ATOM     14  C   UNL A   1      33.218  20.164  25.519  1.00  0.00     0.069 A 
ATOM     15  C   UNL A   1      32.518  19.133  26.168  1.00  0.00     0.030 A 
ATOM     16  C   UNL A   1      34.187  19.833  24.563  1.00  0.00     0.030 A 
ATOM     17  C   UNL A   1      32.764  17.798  25.852  1.00  0.00     0.021 A 
ATOM     18  C   UNL A   1      34.457  18.500  24.259  1.00  0.00     0.021 A 
ATOM     19  C   UNL A   1      33.730  17.493  24.893  1.00  0.00     0.054 A 
BRANCH  19  20
ATOM     20  S   UNL A   1      34.008  15.799  24.483  1.00  0.00     0.124 S 
ATOM     21  O   UNL A   1      32.914  15.024  25.020  1.00  0.00    -0.237 OA
ATOM     22  O   UNL A   1      34.373  15.750  23.084  1.00  0.00    -0.237 OA
ATOM     23  O   UNL A   1      35.341  15.370  25.284  1.00  0.00    -0.744 OA
ENDBRANCH  19  20
ENDBRANCH  10  14
BRANCH  12  24
ATOM     24  N   UNL A   1      31.588  25.842  24.725  1.00  0.00    -0.361 N 
ATOM     25  H   UNL A   1      31.281  25.983  23.800  1.00  0.00     0.166 HD
BRANCH  24  26
ATOM     26  C   UNL A   1      32.003  27.013  25.443  1.00  0.00     0.038 A 
ATOM     27  C   UNL A   1      33.338  27.434  25.282  1.00  0.00     0.026 A 
ATOM     28  C   UNL A   1      31.309  27.439  26.588  1.00  0.00     0.026 A 
ATOM     29  C   UNL A   1      33.996  28.153  26.289  1.00  0.00     0.002 A 
ATOM     30  C   UNL A   1      31.968  28.167  27.591  1.00  0.00     0.002 A 
ATOM     31  C   UNL A   1      33.318  28.494  27.456  1.00  0.00     0.000 A 
ENDBRANCH  24  26
ENDBRANCH  12  24
ENDBRANCH   5   7
ENDBRANCH   4   5
ENDBRANCH   3   4
ENDBRANCH   2   3
ENDBRANCH   1   2
BRANCH   1  32
ATOM     32  C   UNL A   1      38.216  19.949  25.020  1.00  0.00     0.202 C 
BRANCH  32  33
ATOM     33  C   UNL A   1      39.427  20.006  25.959  1.00  0.00     0.261 C 
BRANCH  33  34
ATOM     34  O   UNL A   1      40.521  19.221  25.458  1.00  0.00    -0.460 OA
BRANCH  34  35
ATOM     35  C   UNL A   1      41.616  19.356  26.231  1.00  0.00     0.338 C 
ATOM     36  O   UNL A   1      42.390  18.475  26.531  1.00  0.00    -0.246 OA
BRANCH  35  37
ATOM     37  C   UNL A   1      41.969  20.709  26.590  1.00  0.00     0.060 A 
ATOM     38  C   UNL A   1      42.333  21.548  25.520  1.00  0.00     0.016 A 
ATOM     39  C   UNL A   1      41.993  21.125  27.912  1.00  0.00     0.016 A 
ATOM     40  C   UNL A   1      42.729  22.835  25.777  1.00  0.00     0.010 A 
ATOM     41  C   UNL A   1      42.367  22.428  28.169  1.00  0.00     0.010 A 
ATOM     42  C   UNL A   1      42.726  23.270  27.100  1.00  0.00    -0.014 A 
BRANCH  42  43
ATOM     43  C   UNL A   1      43.103  24.650  27.377  1.00  0.00     0.031 A 
ATOM     44  C   UNL A   1      44.545  25.008  27.362  1.00  0.00     0.074 A 
ATOM     45  C   UNL A   1      42.113  25.512  27.650  1.00  0.00     0.049 A 
ATOM     46  N   UNL A   1      45.109  26.126  27.716  1.00  0.00    -0.248 NA
ATOM     47  C   UNL A   1      45.481  23.965  26.904  1.00  0.00     0.031 C 
ATOM     48  C   UNL A   1      40.680  25.189  27.631  1.00  0.00     0.029 A 
ATOM     49  N   UNL A   1      42.157  26.825  28.006  1.00  0.00    -0.354 N 
ATOM     50  C   UNL A   1      46.469  25.921  27.546  1.00  0.00     0.074 A 
ATOM     51  C   UNL A   1      46.650  24.564  27.080  1.00  0.00     0.031 C 
ATOM     52  C   UNL A   1      39.983  26.282  27.971  1.00  0.00     0.029 A 
ATOM     53  C   UNL A   1      40.921  27.349  28.283  1.00  0.00     0.049 A 
ATOM     54  H   UNL A   1      42.991  27.345  28.059  1.00  0.00     0.167 HD
ATOM     55  C   UNL A   1      47.465  26.805  27.768  1.00  0.00     0.031 A 
ATOM     56  C   UNL A   1      40.605  28.556  28.778  1.00  0.00     0.031 A 
ATOM     57  C   UNL A   1      47.224  28.134  28.261  1.00  0.00     0.049 A 
ATOM     58  C   UNL A   1      41.737  29.498  29.058  1.00  0.00     0.074 A 
ATOM     59  C   UNL A   1      48.133  29.130  28.557  1.00  0.00     0.029 A 
ATOM     60  N   UNL A   1      45.959  28.648  28.530  1.00  0.00    -0.354 N 
ATOM     61  N   UNL A   1      43.028  29.300  28.912  1.00  0.00    -0.248 NA
ATOM     62  C   UNL A   1      41.375  30.825  29.556  1.00  0.00     0.031 C 
ATOM     63  C   UNL A   1      47.420  30.231  29.045  1.00  0.00     0.029 A 
ATOM     64  C   UNL A   1      46.062  29.944  28.997  1.00  0.00     0.049 A 
ATOM     65  H   UNL A   1      45.114  28.158  28.406  1.00  0.00     0.167 HD
ATOM     66  C   UNL A   1      43.636  30.487  29.285  1.00  0.00     0.074 A 
ATOM     67  C   UNL A   1      42.565  31.404  29.634  1.00  0.00     0.031 C 
ATOM     68  C   UNL A   1      44.955  30.801  29.343  1.00  0.00     0.031 A 
BRANCH  55  69
ATOM     69  C   UNL A   1      48.868  26.337  27.517  1.00  0.00    -0.014 A 
ATOM     70  C   UNL A   1      49.670  25.839  28.557  1.00  0.00     0.009 A 
ATOM     71  C   UNL A   1      49.408  26.408  26.223  1.00  0.00     0.009 A 
ATOM     72  C   UNL A   1      50.989  25.450  28.314  1.00  0.00     0.001 A 
ATOM     73  C   UNL A   1      50.719  25.993  25.977  1.00  0.00     0.001 A 
ATOM     74  C   UNL A   1      51.511  25.523  27.024  1.00  0.00     0.000 A 
ENDBRANCH  55  69
BRANCH  56  75
ATOM     75  C   UNL A   1      39.189  28.901  29.049  1.00  0.00    -0.014 A 
ATOM     76  C   UNL A   1      38.365  29.398  28.029  1.00  0.00     0.009 A 
ATOM     77  C   UNL A   1      38.639  28.704  30.327  1.00  0.00     0.009 A 
ATOM     78  C   UNL A   1      37.031  29.720  28.290  1.00  0.00     0.001 A 
ATOM     79  C   UNL A   1      37.297  28.995  30.577  1.00  0.00     0.001 A 
ATOM     80  C   UNL A   1      36.496  29.513  29.561  1.00  0.00     0.000 A 
ENDBRANCH  56  75
BRANCH  68  81
ATOM     81  C   UNL A   1      45.276  32.200  29.777  1.00  0.00    -0.014 A 
ATOM     82  C   UNL A   1      45.343  33.252  28.849  1.00  0.00     0.009 A 
ATOM     83  C   UNL A   1      45.512  32.464  31.135  1.00  0.00     0.009 A 
ATOM     84  C   UNL A   1      45.693  34.533  29.270  1.00  0.00     0.001 A 
ATOM     85  C   UNL A   1      45.827  33.755  31.556  1.00  0.00     0.001 A 
ATOM     86  C   UNL A   1      45.932  34.784  30.622  1.00  0.00     0.000 A 
ENDBRANCH  68  81
ENDBRANCH  42  43
ENDBRANCH  35  37
ENDBRANCH  34  35
ENDBRANCH  33  34
ENDBRANCH  32  33
ENDBRANCH   1  32
TORSDOF 18
ENDMDL
MODEL 2
REMARK VINA RESULT:     -11.1      2.430      5.218
REMARK SMILES O=C(OCCOCCOC(=O)c1ccc(-c2c3nc(c(-c4ccccc4)c4ccc([nH]4)c(-c4ccccc4)c4nc(c(-c5ccccc5)c5ccc2[nH]5)C=C4)C=C3)cc1)C1=NN(c2ccc(S(=O)(=O)[O-])cc2)C(=O)/C1=C/Nc1ccccc1
REMARK SMILES IDX 6 1 5 2 4 3 3 4 2 5 1 6 60 7 61 8 75 9 62 10 73 11 76 12
REMARK SMILES IDX 74 13 63 14 64 15 72 16 65 17 71 18 66 19 67 20 68 21 69 22
REMARK SMILES IDX 70 23 77 24 78 26 79 27 83 28 80 29 82 30 81 31 7 32 8 33
REMARK SMILES IDX 9 34 10 35 11 36 12 37 13 38 59 39 14 40 58 41 15 42 16 43
REMARK SMILES IDX 17 44 52 45 18 46 57 47 51 48 53 49 19 50 56 51 50 52 49 53
REMARK SMILES IDX 20 55 42 56 27 57 41 58 28 59 31 60 40 61 54 62 29 63 30 64
REMARK SMILES IDX 39 66 55 67 32 68 21 69 22 70 26 71 23 72 25 73 24 74 43 75
REMARK SMILES IDX 44 76 48 77 45 78 47 79 46 80 33 81 34 82 38 83 35 84 37 85
REMARK SMILES IDX 36 86
REMARK H PARENT 77 25 53 54 31 65
REMARK Flexibility Score: inf
ROOT
ATOM      1  O   UNL A   1      37.690  20.821  24.622  1.00  0.00    -0.374 OA
ENDROOT
BRANCH   1   2
ATOM      2  C   UNL A   1      38.058  21.937  25.443  1.00  0.00     0.202 C 
BRANCH   2   3
ATOM      3  C   UNL A   1      36.849  22.823  25.737  1.00  0.00     0.261 C 
BRANCH   3   4
ATOM      4  O   UNL A   1      35.708  22.031  26.080  1.00  0.00    -0.458 OA
BRANCH   4   5
ATOM      5  C   UNL A   1      34.496  22.629  26.049  1.00  0.00     0.359 C 
ATOM      6  O   UNL A   1      34.124  23.426  26.900  1.00  0.00    -0.244 OA
BRANCH   5   7
ATOM      7  C   UNL A   1      33.759  22.589  24.742  1.00  0.00     0.183 C 
ATOM      8  N   UNL A   1      33.706  23.747  24.136  1.00  0.00    -0.157 NA
ATOM      9  C   UNL A   1      32.879  21.566  24.108  1.00  0.00     0.093 C 
ATOM     10  N   UNL A   1      32.702  23.649  23.213  1.00  0.00    -0.196 N 
ATOM     11  C   UNL A   1      32.229  22.353  23.011  1.00  0.00     0.282 C 
ATOM     12  C   UNL A   1      32.415  20.306  24.198  1.00  0.00     0.099 C 
ATOM     13  O   UNL A   1      31.413  21.939  22.205  1.00  0.00    -0.267 OA
BRANCH  10  14
ATOM     14  C   UNL A   1      31.953  24.833  23.033  1.00  0.00     0.069 A 
ATOM     15  C   UNL A   1      32.541  25.942  22.402  1.00  0.00     0.030 A 
ATOM     16  C   UNL A   1      30.700  24.981  23.642  1.00  0.00     0.030 A 
ATOM     17  C   UNL A   1      31.882  27.170  22.363  1.00  0.00     0.021 A 
ATOM     18  C   UNL A   1      30.045  26.211  23.629  1.00  0.00     0.021 A 
ATOM     19  C   UNL A   1      30.633  27.292  22.973  1.00  0.00     0.054 A 
BRANCH  19  20
ATOM     20  S   UNL A   1      29.799  28.845  22.887  1.00  0.00     0.124 S 
ATOM     21  O   UNL A   1      30.209  29.635  24.025  1.00  0.00    -0.237 OA
ATOM     22  O   UNL A   1      29.926  29.326  21.529  1.00  0.00    -0.237 OA
ATOM     23  O   UNL A   1      28.232  28.508  23.073  1.00  0.00    -0.744 OA
ENDBRANCH  19  20
ENDBRANCH  10  14
BRANCH  12  24
ATOM     24  N   UNL A   1      32.586  19.270  25.077  1.00  0.00    -0.361 N 
ATOM     25  H   UNL A   1      32.334  19.445  26.013  1.00  0.00     0.166 HD
BRANCH  24  26
ATOM     26  C   UNL A   1      33.090  17.958  24.788  1.00  0.00     0.038 A 
ATOM     27  C   UNL A   1      32.410  16.862  25.355  1.00  0.00     0.026 A 
ATOM     28  C   UNL A   1      34.423  17.772  24.385  1.00  0.00     0.026 A 
ATOM     29  C   UNL A   1      33.074  15.658  25.623  1.00  0.00     0.002 A 
ATOM     30  C   UNL A   1      35.084  16.561  24.646  1.00  0.00     0.002 A 
ATOM     31  C   UNL A   1      34.420  15.519  25.294  1.00  0.00     0.000 A 
ENDBRANCH  24  26
ENDBRANCH  12  24
ENDBRANCH   5   7
ENDBRANCH   4   5
ENDBRANCH   3   4
ENDBRANCH   2   3
ENDBRANCH   1   2
BRANCH   1  32
ATOM     32  C   UNL A   1      38.191  19.543  25.051  1.00  0.00     0.202 C 
BRANCH  32  33
ATOM     33  C   UNL A   1      39.370  19.687  26.020  1.00  0.00     0.261 C 
BRANCH  33  34
ATOM     34  O   UNL A   1      40.598  19.232  25.429  1.00  0.00    -0.460 OA
BRANCH  34  35
ATOM     35  C   UNL A   1      41.633  19.366  26.281  1.00  0.00     0.338 C 
ATOM     36  O   UNL A   1      42.361  18.480  26.665  1.00  0.00    -0.246 OA
BRANCH  35  37
ATOM     37  C   UNL A   1      41.987  20.722  26.628  1.00  0.00     0.060 A 
ATOM     38  C   UNL A   1      42.220  21.588  25.544  1.00  0.00     0.016 A 
ATOM     39  C   UNL A   1      42.137  21.116  27.949  1.00  0.00     0.016 A 
ATOM     40  C   UNL A   1      42.609  22.881  25.783  1.00  0.00     0.010 A 
ATOM     41  C   UNL A   1      42.504  22.424  28.191  1.00  0.00     0.010 A 
ATOM     42  C   UNL A   1      42.731  23.293  27.109  1.00  0.00    -0.014 A 
BRANCH  42  43
ATOM     43  C   UNL A   1      43.101  24.678  27.373  1.00  0.00     0.031 A 
ATOM     44  C   UNL A   1      44.533  25.060  27.276  1.00  0.00     0.074 A 
ATOM     45  C   UNL A   1      42.114  25.521  27.709  1.00  0.00     0.049 A 
ATOM     46  N   UNL A   1      45.098  26.186  27.604  1.00  0.00    -0.248 NA
ATOM     47  C   UNL A   1      45.458  24.035  26.757  1.00  0.00     0.031 C 
ATOM     48  C   UNL A   1      40.688  25.174  27.771  1.00  0.00     0.029 A 
ATOM     49  N   UNL A   1      42.157  26.833  28.070  1.00  0.00    -0.354 N 
ATOM     50  C   UNL A   1      46.449  26.004  27.353  1.00  0.00     0.074 A 
ATOM     51  C   UNL A   1      46.625  24.653  26.868  1.00  0.00     0.031 C 
ATOM     52  C   UNL A   1      39.994  26.253  28.158  1.00  0.00     0.029 A 
ATOM     53  C   UNL A   1      40.931  27.334  28.422  1.00  0.00     0.049 A 
ATOM     54  H   UNL A   1      42.984  27.366  28.078  1.00  0.00     0.167 HD
ATOM     55  C   UNL A   1      47.442  26.904  27.522  1.00  0.00     0.031 A 
ATOM     56  C   UNL A   1      40.625  28.532  28.943  1.00  0.00     0.031 A 
ATOM     57  C   UNL A   1      47.208  28.226  28.038  1.00  0.00     0.049 A 
ATOM     58  C   UNL A   1      41.756  29.492  29.163  1.00  0.00     0.074 A 
ATOM     59  C   UNL A   1      48.117  29.234  28.287  1.00  0.00     0.029 A 
ATOM     60  N   UNL A   1      45.953  28.716  28.384  1.00  0.00    -0.354 N 
ATOM     61  N   UNL A   1      43.039  29.317  28.940  1.00  0.00    -0.248 NA
ATOM     62  C   UNL A   1      41.402  30.810  29.690  1.00  0.00     0.031 C 
ATOM     63  C   UNL A   1      47.415  30.321  28.823  1.00  0.00     0.029 A 
ATOM     64  C   UNL A   1      46.062  30.011  28.852  1.00  0.00     0.049 A 
ATOM     65  H   UNL A   1      45.110  28.213  28.306  1.00  0.00     0.167 HD
ATOM     66  C   UNL A   1      43.648  30.511  29.286  1.00  0.00     0.074 A 
ATOM     67  C   UNL A   1      42.584  31.408  29.703  1.00  0.00     0.031 C 
ATOM     68  C   UNL A   1      44.963  30.848  29.269  1.00  0.00     0.031 A 
BRANCH  55  69
ATOM     69  C   UNL A   1      48.836  26.461  27.186  1.00  0.00    -0.014 A 
ATOM     70  C   UNL A   1      49.358  26.609  25.890  1.00  0.00     0.009 A 
ATOM     71  C   UNL A   1      49.639  25.871  28.174  1.00  0.00     0.009 A 
ATOM     72  C   UNL A   1      50.641  26.150  25.584  1.00  0.00     0.001 A 
ATOM     73  C   UNL A   1      50.931  25.437  27.873  1.00  0.00     0.001 A 
ATOM     74  C   UNL A   1      51.428  25.568  26.577  1.00  0.00     0.000 A 
ENDBRANCH  55  69
BRANCH  56  75
ATOM     75  C   UNL A   1      39.221  28.853  29.299  1.00  0.00    -0.014 A 
ATOM     76  C   UNL A   1      38.744  28.635  30.600  1.00  0.00     0.009 A 
ATOM     77  C   UNL A   1      38.354  29.412  28.345  1.00  0.00     0.009 A 
ATOM     78  C   UNL A   1      37.421  28.941  30.928  1.00  0.00     0.001 A 
ATOM     79  C   UNL A   1      37.042  29.747  28.685  1.00  0.00     0.001 A 
ATOM     80  C   UNL A   1      36.574  29.501  29.974  1.00  0.00     0.000 A 
ENDBRANCH  56  75
BRANCH  68  81
ATOM     81  C   UNL A   1      45.286  32.249  29.693  1.00  0.00    -0.014 A 
ATOM     82  C   UNL A   1      45.529  32.563  31.040  1.00  0.00     0.009 A 
ATOM     83  C   UNL A   1      45.346  33.265  28.727  1.00  0.00     0.009 A 
ATOM     84  C   UNL A   1      45.776  33.882  31.416  1.00  0.00     0.001 A 
ATOM     85  C   UNL A   1      45.629  34.577  29.104  1.00  0.00     0.001 A 
ATOM     86  C   UNL A   1      45.829  34.886  30.449  1.00  0.00     0.000 A 
ENDBRANCH  68  81
ENDBRANCH  42  43
ENDBRANCH  35  37
ENDBRANCH  34  35
ENDBRANCH  33  34
ENDBRANCH  32  33
ENDBRANCH   1  32
TORSDOF 18
ENDMDL
MODEL 3
REMARK VINA RESULT:     -11.0      2.490      7.689
REMARK SMILES O=C(OCCOCCOC(=O)c1ccc(-c2c3nc(c(-c4ccccc4)c4ccc([nH]4)c(-c4ccccc4)c4nc(c(-c5ccccc5)c5ccc2[nH]5)C=C4)C=C3)cc1)C1=NN(c2ccc(S(=O)(=O)[O-])cc2)C(=O)/C1=C/Nc1ccccc1
REMARK SMILES IDX 6 1 5 2 4 3 3 4 2 5 1 6 60 7 61 8 75 9 62 10 73 11 76 12
REMARK SMILES IDX 74 13 63 14 64 15 72 16 65 17 71 18 66 19 67 20 68 21 69 22
REMARK SMILES IDX 70 23 77 24 78 26 79 27 83 28 80 29 82 30 81 31 7 32 8 33
REMARK SMILES IDX 9 34 10 35 11 36 12 37 13 38 59 39 14 40 58 41 15 42 16 43
REMARK SMILES IDX 17 44 52 45 18 46 57 47 51 48 53 49 19 50 56 51 50 52 49 53
REMARK SMILES IDX 20 55 42 56 27 57 41 58 28 59 31 60 40 61 54 62 29 63 30 64
REMARK SMILES IDX 39 66 55 67 32 68 21 69 22 70 26 71 23 72 25 73 24 74 43 75
REMARK SMILES IDX 44 76 48 77 45 78 47 79 46 80 33 81 34 82 38 83 35 84 37 85
REMARK SMILES IDX 36 86
REMARK H PARENT 77 25 53 54 31 65
REMARK Flexibility Score: inf
ROOT
ATOM      1  O   UNL A   1      37.587  20.772  24.900  1.00  0.00    -0.374 OA
ENDROOT
BRANCH   1   2
ATOM      2  C   UNL A   1      36.490  21.497  25.470  1.00  0.00     0.202 C 
BRANCH   2   3
ATOM      3  C   UNL A   1      36.888  22.939  25.782  1.00  0.00     0.261 C 
BRANCH   3   4
ATOM      4  O   UNL A   1      35.767  23.817  25.644  1.00  0.00    -0.458 OA
BRANCH   4   5
ATOM      5  C   UNL A   1      34.541  23.318  25.918  1.00  0.00     0.359 C 
ATOM      6  O   UNL A   1      34.067  23.297  27.047  1.00  0.00    -0.244 OA
BRANCH   5   7
ATOM      7  C   UNL A   1      33.612  23.137  24.753  1.00  0.00     0.183 C 
ATOM      8  N   UNL A   1      33.447  24.222  24.043  1.00  0.00    -0.157 NA
ATOM      9  C   UNL A   1      32.662  22.052  24.377  1.00  0.00     0.093 C 
ATOM     10  N   UNL A   1      32.316  24.025  23.302  1.00  0.00    -0.196 N 
ATOM     11  C   UNL A   1      31.838  22.715  23.315  1.00  0.00     0.282 C 
ATOM     12  C   UNL A   1      32.238  20.809  24.672  1.00  0.00     0.099 C 
ATOM     13  O   UNL A   1      30.914  22.216  22.694  1.00  0.00    -0.267 OA
BRANCH  10  14
ATOM     14  C   UNL A   1      31.528  25.183  23.113  1.00  0.00     0.069 A 
ATOM     15  C   UNL A   1      31.868  26.103  22.107  1.00  0.00     0.030 A 
ATOM     16  C   UNL A   1      30.529  25.521  24.036  1.00  0.00     0.030 A 
ATOM     17  C   UNL A   1      31.211  27.328  22.012  1.00  0.00     0.021 A 
ATOM     18  C   UNL A   1      29.884  26.754  23.963  1.00  0.00     0.021 A 
ATOM     19  C   UNL A   1      30.217  27.641  22.940  1.00  0.00     0.054 A 
BRANCH  19  20
ATOM     20  S   UNL A   1      29.373  29.183  22.786  1.00  0.00     0.124 S 
ATOM     21  O   UNL A   1      29.792  30.033  23.877  1.00  0.00    -0.237 OA
ATOM     22  O   UNL A   1      29.480  29.596  21.404  1.00  0.00    -0.237 OA
ATOM     23  O   UNL A   1      27.810  28.849  23.008  1.00  0.00    -0.744 OA
ENDBRANCH  19  20
ENDBRANCH  10  14
BRANCH  12  24
ATOM     24  N   UNL A   1      32.558  19.874  25.619  1.00  0.00    -0.361 N 
ATOM     25  H   UNL A   1      32.323  20.096  26.550  1.00  0.00     0.166 HD
BRANCH  24  26
ATOM     26  C   UNL A   1      33.200  18.607  25.411  1.00  0.00     0.038 A 
ATOM     27  C   UNL A   1      34.183  18.536  24.403  1.00  0.00     0.026 A 
ATOM     28  C   UNL A   1      32.584  17.413  25.819  1.00  0.00     0.026 A 
ATOM     29  C   UNL A   1      34.454  17.332  23.741  1.00  0.00     0.002 A 
ATOM     30  C   UNL A   1      32.864  16.205  25.160  1.00  0.00     0.002 A 
ATOM     31  C   UNL A   1      33.772  16.172  24.101  1.00  0.00     0.000 A 
ENDBRANCH  24  26
ENDBRANCH  12  24
ENDBRANCH   5   7
ENDBRANCH   4   5
ENDBRANCH   3   4
ENDBRANCH   2   3
ENDBRANCH   1   2
BRANCH   1  32
ATOM     32  C   UNL A   1      38.874  21.026  25.493  1.00  0.00     0.202 C 
BRANCH  32  33
ATOM     33  C   UNL A   1      39.482  19.759  26.103  1.00  0.00     0.261 C 
BRANCH  33  34
ATOM     34  O   UNL A   1      40.639  19.322  25.372  1.00  0.00    -0.460 OA
BRANCH  34  35
ATOM     35  C   UNL A   1      41.751  19.383  26.129  1.00  0.00     0.338 C 
ATOM     36  O   UNL A   1      42.451  18.448  26.444  1.00  0.00    -0.246 OA
BRANCH  35  37
ATOM     37  C   UNL A   1      42.221  20.710  26.449  1.00  0.00     0.060 A 
ATOM     38  C   UNL A   1      42.281  21.022  27.820  1.00  0.00     0.016 A 
ATOM     39  C   UNL A   1      42.538  21.626  25.456  1.00  0.00     0.016 A 
ATOM     40  C   UNL A   1      42.671  22.277  28.210  1.00  0.00     0.010 A 
ATOM     41  C   UNL A   1      42.954  22.881  25.849  1.00  0.00     0.010 A 
ATOM     42  C   UNL A   1      43.020  23.193  27.219  1.00  0.00    -0.014 A 
BRANCH  42  43
ATOM     43  C   UNL A   1      43.478  24.515  27.627  1.00  0.00     0.031 A 
ATOM     44  C   UNL A   1      42.468  25.506  28.081  1.00  0.00     0.074 A 
ATOM     45  C   UNL A   1      44.793  24.759  27.546  1.00  0.00     0.049 A 
ATOM     46  N   UNL A   1      42.631  26.769  28.349  1.00  0.00    -0.248 NA
ATOM     47  C   UNL A   1      41.085  25.017  28.239  1.00  0.00     0.031 C 
ATOM     48  C   UNL A   1      45.813  23.783  27.140  1.00  0.00     0.029 A 
ATOM     49  N   UNL A   1      45.498  25.899  27.790  1.00  0.00    -0.354 N 
ATOM     50  C   UNL A   1      41.371  27.237  28.688  1.00  0.00     0.074 A 
ATOM     51  C   UNL A   1      40.448  26.131  28.569  1.00  0.00     0.031 C 
ATOM     52  C   UNL A   1      47.015  24.375  27.155  1.00  0.00     0.029 A 
ATOM     53  C   UNL A   1      46.834  25.773  27.514  1.00  0.00     0.049 A 
ATOM     54  H   UNL A   1      45.088  26.727  28.128  1.00  0.00     0.167 HD
ATOM     55  C   UNL A   1      41.037  28.491  29.062  1.00  0.00     0.031 A 
ATOM     56  C   UNL A   1      47.791  26.715  27.517  1.00  0.00     0.031 A 
ATOM     57  C   UNL A   1      41.998  29.559  29.132  1.00  0.00     0.049 A 
ATOM     58  C   UNL A   1      47.378  28.107  27.891  1.00  0.00     0.074 A 
ATOM     59  C   UNL A   1      41.801  30.883  29.470  1.00  0.00     0.029 A 
ATOM     60  N   UNL A   1      43.352  29.408  28.854  1.00  0.00    -0.354 N 
ATOM     61  N   UNL A   1      46.183  28.557  28.198  1.00  0.00    -0.248 NA
ATOM     62  C   UNL A   1      48.439  29.114  27.932  1.00  0.00     0.031 C 
ATOM     63  C   UNL A   1      43.031  31.541  29.355  1.00  0.00     0.029 A 
ATOM     64  C   UNL A   1      44.005  30.616  29.004  1.00  0.00     0.049 A 
ATOM     65  H   UNL A   1      43.783  28.563  28.589  1.00  0.00     0.167 HD
ATOM     66  C   UNL A   1      46.347  29.902  28.486  1.00  0.00     0.074 A 
ATOM     67  C   UNL A   1      47.767  30.179  28.345  1.00  0.00     0.031 C 
ATOM     68  C   UNL A   1      45.421  30.832  28.832  1.00  0.00     0.031 A 
BRANCH  55  69
ATOM     69  C   UNL A   1      39.593  28.754  29.371  1.00  0.00    -0.014 A 
ATOM     70  C   UNL A   1      38.700  29.190  28.378  1.00  0.00     0.009 A 
ATOM     71  C   UNL A   1      39.114  28.578  30.678  1.00  0.00     0.009 A 
ATOM     72  C   UNL A   1      37.370  29.474  28.693  1.00  0.00     0.001 A 
ATOM     73  C   UNL A   1      37.777  28.836  30.986  1.00  0.00     0.001 A 
ATOM     74  C   UNL A   1      36.908  29.292  29.996  1.00  0.00     0.000 A 
ENDBRANCH  55  69
BRANCH  56  75
ATOM     75  C   UNL A   1      49.181  26.366  27.136  1.00  0.00    -0.014 A 
ATOM     76  C   UNL A   1      49.618  26.509  25.812  1.00  0.00     0.009 A 
ATOM     77  C   UNL A   1      50.093  25.916  28.106  1.00  0.00     0.009 A 
ATOM     78  C   UNL A   1      50.929  26.180  25.460  1.00  0.00     0.001 A 
ATOM     79  C   UNL A   1      51.412  25.620  27.758  1.00  0.00     0.001 A 
ATOM     80  C   UNL A   1      51.827  25.741  26.433  1.00  0.00     0.000 A 
ENDBRANCH  56  75
BRANCH  68  81
ATOM     81  C   UNL A   1      45.946  32.211  29.097  1.00  0.00    -0.014 A 
ATOM     82  C   UNL A   1      46.500  32.551  30.342  1.00  0.00     0.009 A 
ATOM     83  C   UNL A   1      45.885  33.179  28.084  1.00  0.00     0.009 A 
ATOM     84  C   UNL A   1      46.934  33.853  30.582  1.00  0.00     0.001 A 
ATOM     85  C   UNL A   1      46.353  34.471  28.316  1.00  0.00     0.001 A 
ATOM     86  C   UNL A   1      46.864  34.810  29.569  1.00  0.00     0.000 A 
ENDBRANCH  68  81
ENDBRANCH  42  43
ENDBRANCH  35  37
ENDBRANCH  34  35
ENDBRANCH  33  34
ENDBRANCH  32  33
ENDBRANCH   1  32
TORSDOF 18
ENDMDL
