MODEL 1
REMARK VINA RESULT:     -11.4      0.000      0.000
REMARK SMILES Cc1ccc(C(=O)NC2(CC(=O)OCCOCCOC(=O)c3ccc(-c4c5nc(c(-c6ccccc6)c6ccc([nH]6)c(-c6ccccc6)c6nc(c(-c7ccccc7)c7ccc4[nH]7)C=C6)C=C5)cc3)CCC2)cc1
REMARK SMILES IDX 15 1 14 2 13 3 11 4 12 5 10 6 9 7 70 8 72 9 71 10 8 11 6 12
REMARK SMILES IDX 7 13 5 15 1 16 2 17 3 18 74 19 4 20 73 21 16 22 17 23 18 24
REMARK SMILES IDX 19 25 20 26 21 27 22 28 23 29 69 30 24 31 68 32 25 33 26 34
REMARK SMILES IDX 27 35 62 36 28 37 67 38 61 39 63 40 29 41 66 42 60 43 59 44
REMARK SMILES IDX 30 46 52 47 37 48 51 49 38 50 41 51 50 52 64 53 39 54 40 55
REMARK SMILES IDX 49 57 65 58 42 59 31 60 32 61 36 62 33 63 35 64 34 65 53 66
REMARK SMILES IDX 54 67 58 68 55 69 57 70 56 71 43 72 44 73 48 74 45 75 47 76
REMARK SMILES IDX 46 77
REMARK H PARENT 8 14 63 45 41 56
REMARK Flexibility Score: inf
ROOT
ATOM      1  C   UNL A   1      38.791  21.408  25.418  1.00  0.00     0.202 C 
ENDROOT
BRANCH   1   2
ATOM      2  C   UNL A   1      37.308  20.928  25.013  1.00  0.00     0.261 C 
BRANCH   2   3
ATOM      3  O   UNL A   1      35.542  21.037  26.003  1.00  0.00    -0.463 OA
BRANCH   3   4
ATOM      4  C   UNL A   1      34.366  21.788  26.535  1.00  0.00     0.308 C 
ATOM      5  O   UNL A   1      34.106  21.765  27.743  1.00  0.00    -0.252 OA
BRANCH   4   6
ATOM      6  C   UNL A   1      33.498  22.674  25.615  1.00  0.00     0.151 C 
BRANCH   6   7
ATOM      7  C   UNL A   1      32.112  22.205  25.046  1.00  0.00     0.051 C 
ATOM      8  C   UNL A   1      32.234  20.728  24.475  1.00  0.00     0.029 C 
ATOM      9  C   UNL A   1      31.479  22.440  23.565  1.00  0.00     0.029 C 
ATOM     10  C   UNL A   1      32.467  21.379  23.092  1.00  0.00     0.005 C 
BRANCH   7  11
ATOM     11  N   UNL A   1      31.042  22.325  26.057  1.00  0.00    -0.346 N 
ATOM     12  C   UNL A   1      30.468  23.494  26.468  1.00  0.00     0.251 C 
ATOM     13  O   UNL A   1      29.644  23.544  27.371  1.00  0.00    -0.269 OA
ATOM     14  H   UNL A   1      30.716  21.493  26.468  1.00  0.00     0.164 HD
BRANCH  12  15
ATOM     15  C   UNL A   1      31.012  24.734  25.906  1.00  0.00     0.039 A 
ATOM     16  C   UNL A   1      31.119  29.641  24.405  1.00  0.00     0.044 C 
ATOM     17  C   UNL A   1      31.244  28.227  24.929  1.00  0.00    -0.051 A 
ATOM     18  C   UNL A   1      30.098  27.104  24.192  1.00  0.00     0.004 A 
ATOM     19  C   UNL A   1      32.250  27.598  26.206  1.00  0.00     0.004 A 
ATOM     20  C   UNL A   1      29.894  25.414  24.683  1.00  0.00     0.014 A 
ATOM     21  C   UNL A   1      32.203  25.855  26.680  1.00  0.00     0.014 A 
ENDBRANCH  12  15
ENDBRANCH   7  11
ENDBRANCH   6   7
ENDBRANCH   4   6
ENDBRANCH   3   4
ENDBRANCH   2   3
ENDBRANCH   1   2
BRANCH   1  22
ATOM     22  O   UNL A   1      38.745  22.282  26.519  1.00  0.00    -0.374 OA
BRANCH  22  23
ATOM     23  C   UNL A   1      39.975  22.755  27.003  1.00  0.00     0.202 C 
BRANCH  23  24
ATOM     24  C   UNL A   1      39.958  24.197  26.548  1.00  0.00     0.261 C 
BRANCH  24  25
ATOM     25  O   UNL A   1      39.309  24.963  27.619  1.00  0.00    -0.460 OA
BRANCH  25  26
ATOM     26  C   UNL A   1      40.095  25.798  28.375  1.00  0.00     0.338 C 
ATOM     27  O   UNL A   1      41.240  25.545  28.724  1.00  0.00    -0.246 OA
BRANCH  26  28
ATOM     28  C   UNL A   1      39.321  27.011  28.881  1.00  0.00     0.060 A 
ATOM     29  C   UNL A   1      39.279  28.227  28.158  1.00  0.00     0.016 A 
ATOM     30  C   UNL A   1      38.919  27.056  30.215  1.00  0.00     0.016 A 
ATOM     31  C   UNL A   1      39.014  29.487  28.802  1.00  0.00     0.010 A 
ATOM     32  C   UNL A   1      38.790  28.300  30.870  1.00  0.00     0.010 A 
ATOM     33  C   UNL A   1      38.953  29.553  30.208  1.00  0.00    -0.014 A 
BRANCH  33  34
ATOM     34  C   UNL A   1      39.278  30.792  31.072  1.00  0.00     0.031 A 
ATOM     35  C   UNL A   1      40.369  30.434  31.982  1.00  0.00     0.074 A 
ATOM     36  C   UNL A   1      38.756  32.060  31.318  1.00  0.00     0.049 A 
ATOM     37  N   UNL A   1      40.207  30.370  33.268  1.00  0.00    -0.248 NA
ATOM     38  C   UNL A   1      41.610  29.830  31.479  1.00  0.00     0.031 C 
ATOM     39  C   UNL A   1      39.504  33.201  31.889  1.00  0.00     0.029 A 
ATOM     40  N   UNL A   1      37.562  32.726  30.952  1.00  0.00    -0.354 N 
ATOM     41  C   UNL A   1      41.457  30.042  33.711  1.00  0.00     0.074 A 
ATOM     42  C   UNL A   1      42.071  29.321  32.616  1.00  0.00     0.031 C 
ATOM     43  C   UNL A   1      38.751  34.328  31.883  1.00  0.00     0.029 A 
ATOM     44  C   UNL A   1      37.377  34.042  31.435  1.00  0.00     0.049 A 
ATOM     45  H   UNL A   1      36.887  32.291  30.382  1.00  0.00     0.167 HD
ATOM     46  C   UNL A   1      42.119  30.847  34.592  1.00  0.00     0.031 A 
ATOM     47  C   UNL A   1      36.221  34.705  31.849  1.00  0.00     0.031 A 
ATOM     48  C   UNL A   1      41.387  32.095  34.904  1.00  0.00     0.049 A 
ATOM     49  C   UNL A   1      36.301  34.603  33.361  1.00  0.00     0.074 A 
ATOM     50  C   UNL A   1      41.656  33.439  34.679  1.00  0.00     0.029 A 
ATOM     51  N   UNL A   1      40.031  32.069  35.244  1.00  0.00    -0.354 N 
ATOM     52  N   UNL A   1      37.424  34.427  33.994  1.00  0.00    -0.248 NA
ATOM     53  C   UNL A   1      35.148  34.531  34.255  1.00  0.00     0.031 C 
ATOM     54  C   UNL A   1      40.505  34.210  35.017  1.00  0.00     0.029 A 
ATOM     55  C   UNL A   1      39.518  33.346  35.446  1.00  0.00     0.049 A 
ATOM     56  H   UNL A   1      39.502  31.243  35.331  1.00  0.00     0.167 HD
ATOM     57  C   UNL A   1      37.176  33.981  35.247  1.00  0.00     0.074 A 
ATOM     58  C   UNL A   1      35.732  34.102  35.387  1.00  0.00     0.031 C 
ATOM     59  C   UNL A   1      38.186  33.515  36.033  1.00  0.00     0.031 A 
BRANCH  46  60
ATOM     60  C   UNL A   1      43.615  30.624  34.761  1.00  0.00    -0.014 A 
ATOM     61  C   UNL A   1      44.545  31.558  34.297  1.00  0.00     0.009 A 
ATOM     62  C   UNL A   1      44.158  29.456  35.347  1.00  0.00     0.009 A 
ATOM     63  C   UNL A   1      45.921  31.289  34.292  1.00  0.00     0.001 A 
ATOM     64  C   UNL A   1      45.523  29.145  35.280  1.00  0.00     0.001 A 
ATOM     65  C   UNL A   1      46.406  30.067  34.745  1.00  0.00     0.000 A 
ENDBRANCH  46  60
BRANCH  47  66
ATOM     66  C   UNL A   1      34.829  34.803  31.162  1.00  0.00    -0.014 A 
ATOM     67  C   UNL A   1      33.844  35.723  31.605  1.00  0.00     0.009 A 
ATOM     68  C   UNL A   1      34.477  34.111  29.986  1.00  0.00     0.009 A 
ATOM     69  C   UNL A   1      32.768  36.146  30.757  1.00  0.00     0.001 A 
ATOM     70  C   UNL A   1      33.477  34.586  29.102  1.00  0.00     0.001 A 
ATOM     71  C   UNL A   1      32.672  35.660  29.455  1.00  0.00     0.000 A 
ENDBRANCH  47  66
BRANCH  59  72
ATOM     72  C   UNL A   1      37.998  33.202  37.483  1.00  0.00    -0.014 A 
ATOM     73  C   UNL A   1      38.477  34.024  38.508  1.00  0.00     0.009 A 
ATOM     74  C   UNL A   1      37.443  31.965  37.863  1.00  0.00     0.009 A 
ATOM     75  C   UNL A   1      38.279  33.697  39.848  1.00  0.00     0.001 A 
ATOM     76  C   UNL A   1      37.280  31.611  39.197  1.00  0.00     0.001 A 
ATOM     77  C   UNL A   1      37.669  32.495  40.191  1.00  0.00     0.000 A 
ENDBRANCH  59  72
ENDBRANCH  33  34
ENDBRANCH  26  28
ENDBRANCH  25  26
ENDBRANCH  24  25
ENDBRANCH  23  24
ENDBRANCH  22  23
ENDBRANCH   1  22
TORSDOF 17
ENDMDL
MODEL 2
REMARK VINA RESULT:     -11.2      5.753     11.308
REMARK SMILES Cc1ccc(C(=O)NC2(CC(=O)OCCOCCOC(=O)c3ccc(-c4c5nc(c(-c6ccccc6)c6ccc([nH]6)c(-c6ccccc6)c6nc(c(-c7ccccc7)c7ccc4[nH]7)C=C6)C=C5)cc3)CCC2)cc1
REMARK SMILES IDX 15 1 14 2 13 3 11 4 12 5 10 6 9 7 70 8 72 9 71 10 8 11 6 12
REMARK SMILES IDX 7 13 5 15 1 16 2 17 3 18 74 19 4 20 73 21 16 22 17 23 18 24
REMARK SMILES IDX 19 25 20 26 21 27 22 28 23 29 69 30 24 31 68 32 25 33 26 34
REMARK SMILES IDX 27 35 62 36 28 37 67 38 61 39 63 40 29 41 66 42 60 43 59 44
REMARK SMILES IDX 30 46 52 47 37 48 51 49 38 50 41 51 50 52 64 53 39 54 40 55
REMARK SMILES IDX 49 57 65 58 42 59 31 60 32 61 36 62 33 63 35 64 34 65 53 66
REMARK SMILES IDX 54 67 58 68 55 69 57 70 56 71 43 72 44 73 48 74 45 75 47 76
REMARK SMILES IDX 46 77
REMARK H PARENT 8 14 63 45 41 56
REMARK Flexibility Score: inf
ROOT
ATOM      1  C   UNL A   1      33.615  28.637  27.081  1.00  0.00     0.202 C 
ENDROOT
BRANCH   1   2
ATOM      2  C   UNL A   1      33.643  27.712  25.764  1.00  0.00     0.261 C 
BRANCH   2   3
ATOM      3  O   UNL A   1      32.464  27.684  24.115  1.00  0.00    -0.463 OA
BRANCH   3   4
ATOM      4  C   UNL A   1      31.792  26.986  22.979  1.00  0.00     0.308 C 
ATOM      5  O   UNL A   1      31.105  27.623  22.174  1.00  0.00    -0.252 OA
BRANCH   4   6
ATOM      6  C   UNL A   1      32.000  25.476  22.731  1.00  0.00     0.151 C 
BRANCH   6   7
ATOM      7  C   UNL A   1      31.326  24.369  23.617  1.00  0.00     0.051 C 
ATOM      8  C   UNL A   1      29.953  24.908  24.203  1.00  0.00     0.029 C 
ATOM      9  C   UNL A   1      31.561  24.033  25.192  1.00  0.00     0.029 C 
ATOM     10  C   UNL A   1      30.750  25.294  25.472  1.00  0.00     0.005 C 
BRANCH   7  11
ATOM     11  N   UNL A   1      31.156  23.106  22.871  1.00  0.00    -0.346 N 
ATOM     12  C   UNL A   1      32.080  22.103  22.790  1.00  0.00     0.251 C 
ATOM     13  O   UNL A   1      31.921  21.113  22.087  1.00  0.00    -0.269 OA
ATOM     14  H   UNL A   1      30.307  22.977  22.392  1.00  0.00     0.164 HD
BRANCH  12  15
ATOM     15  C   UNL A   1      33.372  22.336  23.444  1.00  0.00     0.039 A 
ATOM     16  C   UNL A   1      38.063  21.281  25.239  1.00  0.00     0.044 C 
ATOM     17  C   UNL A   1      36.753  21.738  24.635  1.00  0.00    -0.051 A 
ATOM     18  C   UNL A   1      35.351  20.868  25.265  1.00  0.00     0.004 A 
ATOM     19  C   UNL A   1      36.457  22.886  23.357  1.00  0.00     0.004 A 
ATOM     20  C   UNL A   1      33.696  21.068  24.666  1.00  0.00     0.014 A 
ATOM     21  C   UNL A   1      34.784  23.251  22.779  1.00  0.00     0.014 A 
ENDBRANCH  12  15
ENDBRANCH   7  11
ENDBRANCH   6   7
ENDBRANCH   4   6
ENDBRANCH   3   4
ENDBRANCH   2   3
ENDBRANCH   1   2
BRANCH   1  22
ATOM     22  O   UNL A   1      33.896  29.976  26.753  1.00  0.00    -0.374 OA
BRANCH  22  23
ATOM     23  C   UNL A   1      34.671  30.703  27.669  1.00  0.00     0.202 C 
BRANCH  23  24
ATOM     24  C   UNL A   1      35.753  29.708  28.026  1.00  0.00     0.261 C 
BRANCH  24  25
ATOM     25  O   UNL A   1      37.022  30.297  27.580  1.00  0.00    -0.460 OA
BRANCH  25  26
ATOM     26  C   UNL A   1      38.114  30.159  28.401  1.00  0.00     0.338 C 
ATOM     27  O   UNL A   1      38.474  30.991  29.223  1.00  0.00    -0.246 OA
BRANCH  26  28
ATOM     28  C   UNL A   1      38.938  28.923  28.056  1.00  0.00     0.060 A 
ATOM     29  C   UNL A   1      39.073  27.838  28.956  1.00  0.00     0.016 A 
ATOM     30  C   UNL A   1      39.840  28.978  26.995  1.00  0.00     0.016 A 
ATOM     31  C   UNL A   1      40.192  26.935  28.897  1.00  0.00     0.010 A 
ATOM     32  C   UNL A   1      41.002  28.177  27.016  1.00  0.00     0.010 A 
ATOM     33  C   UNL A   1      41.271  27.216  28.035  1.00  0.00    -0.014 A 
BRANCH  33  34
ATOM     34  C   UNL A   1      42.735  26.768  28.241  1.00  0.00     0.031 A 
ATOM     35  C   UNL A   1      43.543  27.965  28.485  1.00  0.00     0.074 A 
ATOM     36  C   UNL A   1      43.499  25.608  28.127  1.00  0.00     0.049 A 
ATOM     37  N   UNL A   1      44.452  28.369  27.652  1.00  0.00    -0.248 NA
ATOM     38  C   UNL A   1      43.164  28.940  29.516  1.00  0.00     0.031 C 
ATOM     39  C   UNL A   1      44.801  25.369  28.786  1.00  0.00     0.029 A 
ATOM     40  N   UNL A   1      43.256  24.310  27.616  1.00  0.00    -0.354 N 
ATOM     41  C   UNL A   1      44.963  29.472  28.279  1.00  0.00     0.074 A 
ATOM     42  C   UNL A   1      43.882  29.977  29.098  1.00  0.00     0.031 C 
ATOM     43  C   UNL A   1      45.225  24.098  28.580  1.00  0.00     0.029 A 
ATOM     44  C   UNL A   1      44.326  23.387  27.655  1.00  0.00     0.049 A 
ATOM     45  H   UNL A   1      42.377  24.060  27.250  1.00  0.00     0.167 HD
ATOM     46  C   UNL A   1      46.289  29.544  28.593  1.00  0.00     0.031 A 
ATOM     47  C   UNL A   1      44.694  22.384  26.757  1.00  0.00     0.031 A 
ATOM     48  C   UNL A   1      47.032  28.305  28.274  1.00  0.00     0.049 A 
ATOM     49  C   UNL A   1      45.825  23.032  25.979  1.00  0.00     0.074 A 
ATOM     50  C   UNL A   1      47.701  27.368  29.051  1.00  0.00     0.029 A 
ATOM     51  N   UNL A   1      46.895  27.682  27.029  1.00  0.00    -0.354 N 
ATOM     52  N   UNL A   1      46.532  24.014  26.455  1.00  0.00    -0.248 NA
ATOM     53  C   UNL A   1      46.146  22.750  24.581  1.00  0.00     0.031 C 
ATOM     54  C   UNL A   1      48.073  26.261  28.234  1.00  0.00     0.029 A 
ATOM     55  C   UNL A   1      47.631  26.506  26.949  1.00  0.00     0.049 A 
ATOM     56  H   UNL A   1      46.341  28.036  26.296  1.00  0.00     0.167 HD
ATOM     57  C   UNL A   1      47.174  24.645  25.447  1.00  0.00     0.074 A 
ATOM     58  C   UNL A   1      46.941  23.793  24.289  1.00  0.00     0.031 C 
ATOM     59  C   UNL A   1      47.803  25.836  25.658  1.00  0.00     0.031 A 
BRANCH  46  60
ATOM     60  C   UNL A   1      46.717  30.610  29.591  1.00  0.00    -0.014 A 
ATOM     61  C   UNL A   1      46.484  31.967  29.349  1.00  0.00     0.009 A 
ATOM     62  C   UNL A   1      47.412  30.311  30.787  1.00  0.00     0.009 A 
ATOM     63  C   UNL A   1      47.022  32.966  30.173  1.00  0.00     0.001 A 
ATOM     64  C   UNL A   1      48.015  31.300  31.575  1.00  0.00     0.001 A 
ATOM     65  C   UNL A   1      47.821  32.634  31.261  1.00  0.00     0.000 A 
ENDBRANCH  46  60
BRANCH  47  66
ATOM     66  C   UNL A   1      43.825  21.290  26.073  1.00  0.00    -0.014 A 
ATOM     67  C   UNL A   1      44.409  20.168  25.430  1.00  0.00     0.009 A 
ATOM     68  C   UNL A   1      42.418  21.238  26.147  1.00  0.00     0.009 A 
ATOM     69  C   UNL A   1      43.673  18.962  25.195  1.00  0.00     0.001 A 
ATOM     70  C   UNL A   1      41.701  20.023  26.009  1.00  0.00     0.001 A 
ATOM     71  C   UNL A   1      42.345  18.862  25.609  1.00  0.00     0.000 A 
ENDBRANCH  47  66
BRANCH  59  72
ATOM     72  C   UNL A   1      48.688  26.470  24.634  1.00  0.00    -0.014 A 
ATOM     73  C   UNL A   1      48.249  26.802  23.348  1.00  0.00     0.009 A 
ATOM     74  C   UNL A   1      50.063  26.621  24.897  1.00  0.00     0.009 A 
ATOM     75  C   UNL A   1      49.106  27.393  22.422  1.00  0.00     0.001 A 
ATOM     76  C   UNL A   1      50.934  27.172  23.965  1.00  0.00     0.001 A 
ATOM     77  C   UNL A   1      50.446  27.589  22.736  1.00  0.00     0.000 A 
ENDBRANCH  59  72
ENDBRANCH  33  34
ENDBRANCH  26  28
ENDBRANCH  25  26
ENDBRANCH  24  25
ENDBRANCH  23  24
ENDBRANCH  22  23
ENDBRANCH   1  22
TORSDOF 17
ENDMDL
MODEL 3
REMARK VINA RESULT:     -11.1      4.991     11.156
REMARK SMILES Cc1ccc(C(=O)NC2(CC(=O)OCCOCCOC(=O)c3ccc(-c4c5nc(c(-c6ccccc6)c6ccc([nH]6)c(-c6ccccc6)c6nc(c(-c7ccccc7)c7ccc4[nH]7)C=C6)C=C5)cc3)CCC2)cc1
REMARK SMILES IDX 15 1 14 2 13 3 11 4 12 5 10 6 9 7 70 8 72 9 71 10 8 11 6 12
REMARK SMILES IDX 7 13 5 15 1 16 2 17 3 18 74 19 4 20 73 21 16 22 17 23 18 24
REMARK SMILES IDX 19 25 20 26 21 27 22 28 23 29 69 30 24 31 68 32 25 33 26 34
REMARK SMILES IDX 27 35 62 36 28 37 67 38 61 39 63 40 29 41 66 42 60 43 59 44
REMARK SMILES IDX 30 46 52 47 37 48 51 49 38 50 41 51 50 52 64 53 39 54 40 55
REMARK SMILES IDX 49 57 65 58 42 59 31 60 32 61 36 62 33 63 35 64 34 65 53 66
REMARK SMILES IDX 54 67 58 68 55 69 57 70 56 71 43 72 44 73 48 74 45 75 47 76
REMARK SMILES IDX 46 77
REMARK H PARENT 8 14 63 45 41 56
REMARK Flexibility Score: inf
ROOT
ATOM      1  C   UNL A   1      42.876  29.082  36.474  1.00  0.00     0.202 C 
ENDROOT
BRANCH   1   2
ATOM      2  C   UNL A   1      41.555  29.206  35.564  1.00  0.00     0.261 C 
BRANCH   2   3
ATOM      3  O   UNL A   1      39.663  29.783  36.011  1.00  0.00    -0.463 OA
BRANCH   3   4
ATOM      4  C   UNL A   1      38.615  30.820  36.247  1.00  0.00     0.308 C 
ATOM      5  O   UNL A   1      37.711  30.619  37.065  1.00  0.00    -0.252 OA
BRANCH   4   6
ATOM      6  C   UNL A   1      38.676  32.194  35.545  1.00  0.00     0.151 C 
BRANCH   6   7
ATOM      7  C   UNL A   1      39.814  32.582  34.535  1.00  0.00     0.051 C 
ATOM      8  C   UNL A   1      41.112  33.034  35.331  1.00  0.00     0.029 C 
ATOM      9  C   UNL A   1      40.092  34.009  33.802  1.00  0.00     0.029 C 
ATOM     10  C   UNL A   1      40.604  34.484  35.157  1.00  0.00     0.005 C 
BRANCH   7  11
ATOM     11  N   UNL A   1      40.095  31.485  33.587  1.00  0.00    -0.346 N 
ATOM     12  C   UNL A   1      39.376  31.209  32.459  1.00  0.00     0.251 C 
ATOM     13  O   UNL A   1      39.601  30.235  31.753  1.00  0.00    -0.269 OA
ATOM     14  H   UNL A   1      40.864  30.905  33.785  1.00  0.00     0.164 HD
BRANCH  12  15
ATOM     15  C   UNL A   1      38.186  32.031  32.213  1.00  0.00     0.039 A 
ATOM     16  C   UNL A   1      34.260  34.072  29.613  1.00  0.00     0.044 C 
ATOM     17  C   UNL A   1      35.299  33.435  30.510  1.00  0.00    -0.051 A 
ATOM     18  C   UNL A   1      36.957  33.724  29.975  1.00  0.00     0.004 A 
ATOM     19  C   UNL A   1      35.089  32.388  31.887  1.00  0.00     0.004 A 
ATOM     20  C   UNL A   1      38.391  33.004  30.723  1.00  0.00     0.014 A 
ATOM     21  C   UNL A   1      36.502  31.718  32.793  1.00  0.00     0.014 A 
ENDBRANCH  12  15
ENDBRANCH   7  11
ENDBRANCH   6   7
ENDBRANCH   4   6
ENDBRANCH   3   4
ENDBRANCH   2   3
ENDBRANCH   1   2
BRANCH   1  22
ATOM     22  O   UNL A   1      42.982  27.790  37.021  1.00  0.00    -0.374 OA
BRANCH  22  23
ATOM     23  C   UNL A   1      41.923  26.905  36.762  1.00  0.00     0.202 C 
BRANCH  23  24
ATOM     24  C   UNL A   1      42.456  25.605  37.322  1.00  0.00     0.261 C 
BRANCH  24  25
ATOM     25  O   UNL A   1      43.913  25.644  37.146  1.00  0.00    -0.460 OA
BRANCH  25  26
ATOM     26  C   UNL A   1      44.547  24.475  36.802  1.00  0.00     0.338 C 
ATOM     27  O   UNL A   1      44.985  23.661  37.604  1.00  0.00    -0.246 OA
BRANCH  26  28
ATOM     28  C   UNL A   1      44.802  24.381  35.302  1.00  0.00     0.060 A 
ATOM     29  C   UNL A   1      45.892  25.042  34.685  1.00  0.00     0.016 A 
ATOM     30  C   UNL A   1      43.787  23.922  34.464  1.00  0.00     0.016 A 
ATOM     31  C   UNL A   1      45.878  25.392  33.288  1.00  0.00     0.010 A 
ATOM     32  C   UNL A   1      43.714  24.379  33.130  1.00  0.00     0.010 A 
ATOM     33  C   UNL A   1      44.697  25.227  32.539  1.00  0.00    -0.014 A 
BRANCH  33  34
ATOM     34  C   UNL A   1      44.292  26.046  31.293  1.00  0.00     0.031 A 
ATOM     35  C   UNL A   1      44.162  27.448  31.699  1.00  0.00     0.074 A 
ATOM     36  C   UNL A   1      43.896  25.820  29.977  1.00  0.00     0.049 A 
ATOM     37  N   UNL A   1      43.022  28.069  31.691  1.00  0.00    -0.248 NA
ATOM     38  C   UNL A   1      45.240  28.132  32.424  1.00  0.00     0.031 C 
ATOM     39  C   UNL A   1      43.967  26.805  28.877  1.00  0.00     0.029 A 
ATOM     40  N   UNL A   1      43.553  24.665  29.232  1.00  0.00    -0.354 N 
ATOM     41  C   UNL A   1      43.364  29.327  32.100  1.00  0.00     0.074 A 
ATOM     42  C   UNL A   1      44.546  29.152  32.918  1.00  0.00     0.031 C 
ATOM     43  C   UNL A   1      43.629  26.238  27.693  1.00  0.00     0.029 A 
ATOM     44  C   UNL A   1      43.166  24.853  27.885  1.00  0.00     0.049 A 
ATOM     45  H   UNL A   1      43.584  23.768  29.636  1.00  0.00     0.167 HD
ATOM     46  C   UNL A   1      43.106  30.411  31.313  1.00  0.00     0.031 A 
ATOM     47  C   UNL A   1      42.215  24.187  27.112  1.00  0.00     0.031 A 
ATOM     48  C   UNL A   1      42.533  30.053  29.997  1.00  0.00     0.049 A 
ATOM     49  C   UNL A   1      41.030  25.136  27.152  1.00  0.00     0.074 A 
ATOM     50  C   UNL A   1      42.985  30.193  28.691  1.00  0.00     0.029 A 
ATOM     51  N   UNL A   1      41.465  29.155  29.896  1.00  0.00    -0.354 N 
ATOM     52  N   UNL A   1      41.157  26.408  27.391  1.00  0.00    -0.248 NA
ATOM     53  C   UNL A   1      39.629  24.725  27.089  1.00  0.00     0.031 C 
ATOM     54  C   UNL A   1      42.106  29.491  27.814  1.00  0.00     0.029 A 
ATOM     55  C   UNL A   1      41.112  28.909  28.574  1.00  0.00     0.049 A 
ATOM     56  H   UNL A   1      41.017  28.745  30.671  1.00  0.00     0.167 HD
ATOM     57  C   UNL A   1      39.963  26.925  27.758  1.00  0.00     0.074 A 
ATOM     58  C   UNL A   1      39.018  25.844  27.513  1.00  0.00     0.031 C 
ATOM     59  C   UNL A   1      39.876  28.184  28.269  1.00  0.00     0.031 A 
BRANCH  46  60
ATOM     60  C   UNL A   1      43.821  31.711  31.651  1.00  0.00    -0.014 A 
ATOM     61  C   UNL A   1      43.404  32.514  32.716  1.00  0.00     0.009 A 
ATOM     62  C   UNL A   1      44.908  32.212  30.895  1.00  0.00     0.009 A 
ATOM     63  C   UNL A   1      43.941  33.791  32.932  1.00  0.00     0.001 A 
ATOM     64  C   UNL A   1      45.401  33.514  31.055  1.00  0.00     0.001 A 
ATOM     65  C   UNL A   1      44.909  34.307  32.078  1.00  0.00     0.000 A 
ENDBRANCH  46  60
BRANCH  47  66
ATOM     66  C   UNL A   1      41.967  22.663  26.930  1.00  0.00    -0.014 A 
ATOM     67  C   UNL A   1      42.475  21.954  25.811  1.00  0.00     0.009 A 
ATOM     68  C   UNL A   1      41.356  21.840  27.898  1.00  0.00     0.009 A 
ATOM     69  C   UNL A   1      42.652  20.532  25.832  1.00  0.00     0.001 A 
ATOM     70  C   UNL A   1      41.610  20.448  27.973  1.00  0.00     0.001 A 
ATOM     71  C   UNL A   1      42.330  19.805  26.976  1.00  0.00     0.000 A 
ENDBRANCH  47  66
BRANCH  59  72
ATOM     72  C   UNL A   1      38.567  28.870  28.501  1.00  0.00    -0.014 A 
ATOM     73  C   UNL A   1      38.027  29.799  27.607  1.00  0.00     0.009 A 
ATOM     74  C   UNL A   1      37.898  28.699  29.727  1.00  0.00     0.009 A 
ATOM     75  C   UNL A   1      36.802  30.416  27.858  1.00  0.00     0.001 A 
ATOM     76  C   UNL A   1      36.697  29.342  30.005  1.00  0.00     0.001 A 
ATOM     77  C   UNL A   1      36.132  30.177  29.053  1.00  0.00     0.000 A 
ENDBRANCH  59  72
ENDBRANCH  33  34
ENDBRANCH  26  28
ENDBRANCH  25  26
ENDBRANCH  24  25
ENDBRANCH  23  24
ENDBRANCH  22  23
ENDBRANCH   1  22
TORSDOF 17
ENDMDL
