MODEL 1
REMARK VINA RESULT:      -8.4      0.000      0.000
REMARK SMILES O=C(OCCOCCOC(=O)c1nc(/N=C/c2cccc([N+](=O)[O-])c2)n[nH]1)c1ccc(-c2c3nc(c(-c4ccccc4)c4ccc([nH]4)c(-c4ccccc4)c4nc(c(-c5ccccc5)c5ccc2[nH]5)C=C4)C=C3)cc1
REMARK SMILES IDX 7 1 6 2 5 3 4 4 3 5 2 6 1 7 28 8 29 9 75 10 30 11 74 12
REMARK SMILES IDX 31 13 32 14 33 15 68 16 34 17 73 18 67 19 69 20 35 21 72 22
REMARK SMILES IDX 66 23 65 24 36 26 58 27 43 28 57 29 44 30 47 31 56 32 70 33
REMARK SMILES IDX 45 34 46 35 55 37 71 38 48 39 37 40 38 41 42 42 39 43 41 44
REMARK SMILES IDX 40 45 59 46 60 47 64 48 61 49 63 50 62 51 49 52 50 53 54 54
REMARK SMILES IDX 51 55 53 56 52 57 8 58 9 59 10 60 11 61 12 62 13 63 27 64
REMARK SMILES IDX 14 65 26 66 15 68 16 69 17 70 18 71 25 72 19 73 21 74 20 75
REMARK SMILES IDX 22 76 23 77 24 78
REMARK H PARENT 69 25 47 36 27 67
REMARK Flexibility Score: inf
ROOT
ATOM      1  C   UNL A   1      45.947  21.643  24.576  1.00  0.00     0.202 C 
ENDROOT
BRANCH   1   2
ATOM      2  O   UNL A   1      46.516  20.413  25.059  1.00  0.00    -0.374 OA
BRANCH   2   3
ATOM      3  C   UNL A   1      45.582  19.348  25.251  1.00  0.00     0.202 C 
BRANCH   3   4
ATOM      4  C   UNL A   1      44.219  19.597  24.599  1.00  0.00     0.261 C 
BRANCH   4   5
ATOM      5  O   UNL A   1      43.172  19.218  25.511  1.00  0.00    -0.460 OA
BRANCH   5   6
ATOM      6  C   UNL A   1      42.109  19.942  25.924  1.00  0.00     0.338 C 
ATOM      7  O   UNL A   1      40.978  19.511  25.706  1.00  0.00    -0.246 OA
BRANCH   6   8
ATOM      8  C   UNL A   1      42.228  21.267  26.605  1.00  0.00     0.060 A 
ATOM      9  C   UNL A   1      42.391  21.446  27.981  1.00  0.00     0.016 A 
ATOM     10  C   UNL A   1      42.313  22.399  25.775  1.00  0.00     0.016 A 
ATOM     11  C   UNL A   1      42.583  22.713  28.528  1.00  0.00     0.010 A 
ATOM     12  C   UNL A   1      42.557  23.666  26.311  1.00  0.00     0.010 A 
ATOM     13  C   UNL A   1      42.692  23.826  27.695  1.00  0.00    -0.014 A 
BRANCH  13  14
ATOM     14  C   UNL A   1      42.976  25.148  28.283  1.00  0.00     0.031 A 
ATOM     15  C   UNL A   1      41.860  26.123  28.492  1.00  0.00     0.074 A 
ATOM     16  C   UNL A   1      44.237  25.444  28.652  1.00  0.00     0.049 A 
ATOM     17  N   UNL A   1      41.912  27.353  28.928  1.00  0.00    -0.248 NA
ATOM     18  C   UNL A   1      40.503  25.647  28.177  1.00  0.00     0.031 C 
ATOM     19  C   UNL A   1      45.382  24.537  28.547  1.00  0.00     0.029 A 
ATOM     20  N   UNL A   1      44.765  26.585  29.196  1.00  0.00    -0.354 N 
ATOM     21  C   UNL A   1      40.602  27.809  28.917  1.00  0.00     0.074 A 
ATOM     22  C   UNL A   1      39.775  26.725  28.436  1.00  0.00     0.031 C 
ATOM     23  C   UNL A   1      46.476  25.153  29.022  1.00  0.00     0.029 A 
ATOM     24  C   UNL A   1      46.121  26.515  29.406  1.00  0.00     0.049 A 
ATOM     25  H   UNL A   1      44.226  27.379  29.415  1.00  0.00     0.167 HD
ATOM     26  C   UNL A   1      40.140  29.031  29.268  1.00  0.00     0.031 A 
ATOM     27  C   UNL A   1      46.983  27.459  29.823  1.00  0.00     0.031 A 
ATOM     28  C   UNL A   1      40.976  30.102  29.732  1.00  0.00     0.049 A 
ATOM     29  C   UNL A   1      46.451  28.833  30.121  1.00  0.00     0.074 A 
ATOM     30  C   UNL A   1      40.615  31.384  30.102  1.00  0.00     0.029 A 
ATOM     31  N   UNL A   1      42.353  30.013  29.878  1.00  0.00    -0.354 N 
ATOM     32  N   UNL A   1      45.209  29.256  30.106  1.00  0.00    -0.248 NA
ATOM     33  C   UNL A   1      47.438  29.865  30.468  1.00  0.00     0.031 C 
ATOM     34  C   UNL A   1      41.782  32.086  30.427  1.00  0.00     0.029 A 
ATOM     35  C   UNL A   1      42.862  31.228  30.295  1.00  0.00     0.049 A 
ATOM     36  H   UNL A   1      42.887  29.202  29.710  1.00  0.00     0.167 HD
ATOM     37  C   UNL A   1      45.265  30.602  30.436  1.00  0.00     0.074 A 
ATOM     38  C   UNL A   1      46.659  30.918  30.678  1.00  0.00     0.031 C 
ATOM     39  C   UNL A   1      44.257  31.504  30.517  1.00  0.00     0.031 A 
BRANCH  26  40
ATOM     40  C   UNL A   1      38.672  29.282  29.095  1.00  0.00    -0.014 A 
ATOM     41  C   UNL A   1      38.135  29.655  27.853  1.00  0.00     0.009 A 
ATOM     42  C   UNL A   1      37.812  29.137  30.194  1.00  0.00     0.009 A 
ATOM     43  C   UNL A   1      36.766  29.901  27.724  1.00  0.00     0.001 A 
ATOM     44  C   UNL A   1      36.443  29.367  30.058  1.00  0.00     0.001 A 
ATOM     45  C   UNL A   1      35.921  29.756  28.824  1.00  0.00     0.000 A 
ENDBRANCH  26  40
BRANCH  27  46
ATOM     46  C   UNL A   1      48.439  27.168  29.906  1.00  0.00    -0.014 A 
ATOM     47  C   UNL A   1      49.007  26.662  31.084  1.00  0.00     0.009 A 
ATOM     48  C   UNL A   1      49.274  27.413  28.803  1.00  0.00     0.009 A 
ATOM     49  C   UNL A   1      50.384  26.430  31.162  1.00  0.00     0.001 A 
ATOM     50  C   UNL A   1      50.643  27.153  28.874  1.00  0.00     0.001 A 
ATOM     51  C   UNL A   1      51.199  26.670  30.057  1.00  0.00     0.000 A 
ENDBRANCH  27  46
BRANCH  39  52
ATOM     52  C   UNL A   1      44.637  32.910  30.873  1.00  0.00    -0.014 A 
ATOM     53  C   UNL A   1      44.909  33.851  29.869  1.00  0.00     0.009 A 
ATOM     54  C   UNL A   1      44.675  33.307  32.218  1.00  0.00     0.009 A 
ATOM     55  C   UNL A   1      45.232  35.165  30.206  1.00  0.00     0.001 A 
ATOM     56  C   UNL A   1      44.978  34.627  32.550  1.00  0.00     0.001 A 
ATOM     57  C   UNL A   1      45.261  35.554  31.547  1.00  0.00     0.000 A 
ENDBRANCH  39  52
ENDBRANCH  13  14
ENDBRANCH   6   8
ENDBRANCH   5   6
ENDBRANCH   4   5
ENDBRANCH   3   4
ENDBRANCH   2   3
ENDBRANCH   1   2
BRANCH   1  58
ATOM     58  C   UNL A   1      46.174  22.745  25.621  1.00  0.00     0.261 C 
BRANCH  58  59
ATOM     59  O   UNL A   1      45.474  23.924  25.200  1.00  0.00    -0.457 OA
BRANCH  59  60
ATOM     60  C   UNL A   1      46.302  24.963  24.888  1.00  0.00     0.376 C 
ATOM     61  O   UNL A   1      47.383  24.861  24.324  1.00  0.00    -0.242 OA
BRANCH  60  62
ATOM     62  C   UNL A   1      45.639  26.203  25.175  1.00  0.00     0.237 A 
ATOM     63  N   UNL A   1      46.134  27.236  25.828  1.00  0.00    -0.184 NA
ATOM     64  N   UNL A   1      44.330  26.448  24.888  1.00  0.00    -0.251 N 
ATOM     65  C   UNL A   1      45.076  28.096  25.891  1.00  0.00     0.268 A 
ATOM     66  N   UNL A   1      43.944  27.650  25.346  1.00  0.00    -0.132 NA
ATOM     67  H   UNL A   1      43.742  25.824  24.405  1.00  0.00     0.192 HD
BRANCH  65  68
ATOM     68  N   UNL A   1      45.154  29.398  26.376  1.00  0.00    -0.218 NA
ATOM     69  C   UNL A   1      46.360  29.832  26.207  1.00  0.00     0.123 C 
BRANCH  69  70
ATOM     70  C   UNL A   1      46.795  31.178  26.618  1.00  0.00    -0.000 A 
ATOM     71  C   UNL A   1      47.998  31.277  27.328  1.00  0.00     0.010 A 
ATOM     72  C   UNL A   1      46.044  32.316  26.318  1.00  0.00     0.095 A 
ATOM     73  C   UNL A   1      48.468  32.523  27.737  1.00  0.00     0.008 A 
ATOM     74  C   UNL A   1      46.521  33.562  26.741  1.00  0.00     0.270 A 
ATOM     75  C   UNL A   1      47.732  33.671  27.445  1.00  0.00     0.085 A 
BRANCH  74  76
ATOM     76  N   UNL A   1      45.748  34.776  26.451  1.00  0.00     0.062 N 
ATOM     77  O   UNL A   1      46.080  35.821  27.031  1.00  0.00    -0.258 OA
ATOM     78  O   UNL A   1      44.808  34.686  25.650  1.00  0.00    -0.258 OA
ENDBRANCH  74  76
ENDBRANCH  69  70
ENDBRANCH  65  68
ENDBRANCH  60  62
ENDBRANCH  59  60
ENDBRANCH  58  59
ENDBRANCH   1  58
TORSDOF 17
ENDMDL
MODEL 2
REMARK VINA RESULT:      -8.3      6.562     12.383
REMARK SMILES O=C(OCCOCCOC(=O)c1nc(/N=C/c2cccc([N+](=O)[O-])c2)n[nH]1)c1ccc(-c2c3nc(c(-c4ccccc4)c4ccc([nH]4)c(-c4ccccc4)c4nc(c(-c5ccccc5)c5ccc2[nH]5)C=C4)C=C3)cc1
REMARK SMILES IDX 7 1 6 2 5 3 4 4 3 5 2 6 1 7 28 8 29 9 75 10 30 11 74 12
REMARK SMILES IDX 31 13 32 14 33 15 68 16 34 17 73 18 67 19 69 20 35 21 72 22
REMARK SMILES IDX 66 23 65 24 36 26 58 27 43 28 57 29 44 30 47 31 56 32 70 33
REMARK SMILES IDX 45 34 46 35 55 37 71 38 48 39 37 40 38 41 42 42 39 43 41 44
REMARK SMILES IDX 40 45 59 46 60 47 64 48 61 49 63 50 62 51 49 52 50 53 54 54
REMARK SMILES IDX 51 55 53 56 52 57 8 58 9 59 10 60 11 61 12 62 13 63 27 64
REMARK SMILES IDX 14 65 26 66 15 68 16 69 17 70 18 71 25 72 19 73 21 74 20 75
REMARK SMILES IDX 22 76 23 77 24 78
REMARK H PARENT 69 25 47 36 27 67
REMARK Flexibility Score: inf
ROOT
ATOM      1  C   UNL A   1      32.511  29.141  26.780  1.00  0.00     0.202 C 
ENDROOT
BRANCH   1   2
ATOM      2  O   UNL A   1      32.981  30.242  27.578  1.00  0.00    -0.374 OA
BRANCH   2   3
ATOM      3  C   UNL A   1      32.994  31.509  26.913  1.00  0.00     0.202 C 
BRANCH   3   4
ATOM      4  C   UNL A   1      31.895  32.465  27.383  1.00  0.00     0.261 C 
BRANCH   4   5
ATOM      5  O   UNL A   1      32.396  33.814  27.380  1.00  0.00    -0.460 OA
BRANCH   5   6
ATOM      6  C   UNL A   1      32.963  34.507  28.392  1.00  0.00     0.338 C 
ATOM      7  O   UNL A   1      32.484  35.595  28.707  1.00  0.00    -0.246 OA
BRANCH   6   8
ATOM      8  C   UNL A   1      34.172  34.039  29.135  1.00  0.00     0.060 A 
ATOM      9  C   UNL A   1      34.148  33.193  30.247  1.00  0.00     0.016 A 
ATOM     10  C   UNL A   1      35.421  34.375  28.586  1.00  0.00     0.016 A 
ATOM     11  C   UNL A   1      35.326  32.732  30.830  1.00  0.00     0.010 A 
ATOM     12  C   UNL A   1      36.606  33.875  29.133  1.00  0.00     0.010 A 
ATOM     13  C   UNL A   1      36.560  33.050  30.262  1.00  0.00    -0.014 A 
BRANCH  13  14
ATOM     14  C   UNL A   1      37.794  32.488  30.843  1.00  0.00     0.031 A 
ATOM     15  C   UNL A   1      38.455  31.315  30.189  1.00  0.00     0.074 A 
ATOM     16  C   UNL A   1      38.323  33.064  31.938  1.00  0.00     0.049 A 
ATOM     17  N   UNL A   1      39.500  30.637  30.580  1.00  0.00    -0.248 NA
ATOM     18  C   UNL A   1      37.866  30.849  28.923  1.00  0.00     0.031 C 
ATOM     19  C   UNL A   1      37.788  34.250  32.612  1.00  0.00     0.029 A 
ATOM     20  N   UNL A   1      39.432  32.735  32.674  1.00  0.00    -0.354 N 
ATOM     21  C   UNL A   1      39.682  29.648  29.624  1.00  0.00     0.074 A 
ATOM     22  C   UNL A   1      38.644  29.815  28.631  1.00  0.00     0.031 C 
ATOM     23  C   UNL A   1      38.575  34.555  33.655  1.00  0.00     0.029 A 
ATOM     24  C   UNL A   1      39.631  33.555  33.759  1.00  0.00     0.049 A 
ATOM     25  H   UNL A   1      40.028  31.985  32.448  1.00  0.00     0.167 HD
ATOM     26  C   UNL A   1      40.628  28.682  29.590  1.00  0.00     0.031 A 
ATOM     27  C   UNL A   1      40.541  33.478  34.747  1.00  0.00     0.031 A 
ATOM     28  C   UNL A   1      41.645  28.520  30.591  1.00  0.00     0.049 A 
ATOM     29  C   UNL A   1      41.523  32.341  34.728  1.00  0.00     0.074 A 
ATOM     30  C   UNL A   1      42.646  27.568  30.663  1.00  0.00     0.029 A 
ATOM     31  N   UNL A   1      41.782  29.334  31.706  1.00  0.00    -0.354 N 
ATOM     32  N   UNL A   1      41.687  31.409  33.821  1.00  0.00    -0.248 NA
ATOM     33  C   UNL A   1      42.429  32.230  35.880  1.00  0.00     0.031 C 
ATOM     34  C   UNL A   1      43.358  27.778  31.849  1.00  0.00     0.029 A 
ATOM     35  C   UNL A   1      42.825  28.884  32.493  1.00  0.00     0.049 A 
ATOM     36  H   UNL A   1      41.219  30.117  31.906  1.00  0.00     0.167 HD
ATOM     37  C   UNL A   1      42.708  30.597  34.292  1.00  0.00     0.074 A 
ATOM     38  C   UNL A   1      43.149  31.166  35.550  1.00  0.00     0.031 C 
ATOM     39  C   UNL A   1      43.228  29.472  33.743  1.00  0.00     0.031 A 
BRANCH  26  40
ATOM     40  C   UNL A   1      40.554  27.691  28.467  1.00  0.00    -0.014 A 
ATOM     41  C   UNL A   1      41.228  27.908  27.255  1.00  0.00     0.009 A 
ATOM     42  C   UNL A   1      39.803  26.517  28.630  1.00  0.00     0.009 A 
ATOM     43  C   UNL A   1      41.128  26.976  26.218  1.00  0.00     0.001 A 
ATOM     44  C   UNL A   1      39.718  25.582  27.599  1.00  0.00     0.001 A 
ATOM     45  C   UNL A   1      40.375  25.815  26.391  1.00  0.00     0.000 A 
ENDBRANCH  26  40
BRANCH  27  46
ATOM     46  C   UNL A   1      40.516  34.451  35.872  1.00  0.00    -0.014 A 
ATOM     47  C   UNL A   1      41.302  35.612  35.837  1.00  0.00     0.009 A 
ATOM     48  C   UNL A   1      39.714  34.209  36.999  1.00  0.00     0.009 A 
ATOM     49  C   UNL A   1      41.300  36.499  36.919  1.00  0.00     0.001 A 
ATOM     50  C   UNL A   1      39.692  35.111  38.065  1.00  0.00     0.001 A 
ATOM     51  C   UNL A   1      40.493  36.251  38.028  1.00  0.00     0.000 A 
ENDBRANCH  27  46
BRANCH  39  52
ATOM     52  C   UNL A   1      44.319  28.789  34.511  1.00  0.00    -0.014 A 
ATOM     53  C   UNL A   1      44.019  27.755  35.410  1.00  0.00     0.009 A 
ATOM     54  C   UNL A   1      45.658  29.149  34.297  1.00  0.00     0.009 A 
ATOM     55  C   UNL A   1      45.041  27.103  36.098  1.00  0.00     0.001 A 
ATOM     56  C   UNL A   1      46.679  28.481  34.972  1.00  0.00     0.001 A 
ATOM     57  C   UNL A   1      46.371  27.463  35.875  1.00  0.00     0.000 A 
ENDBRANCH  39  52
ENDBRANCH  13  14
ENDBRANCH   6   8
ENDBRANCH   5   6
ENDBRANCH   4   5
ENDBRANCH   3   4
ENDBRANCH   2   3
ENDBRANCH   1   2
BRANCH   1  58
ATOM     58  C   UNL A   1      32.253  29.634  25.349  1.00  0.00     0.261 C 
BRANCH  58  59
ATOM     59  O   UNL A   1      32.938  28.764  24.437  1.00  0.00    -0.457 OA
BRANCH  59  60
ATOM     60  C   UNL A   1      32.227  28.501  23.302  1.00  0.00     0.376 C 
ATOM     61  O   UNL A   1      31.434  29.266  22.772  1.00  0.00    -0.242 OA
BRANCH  60  62
ATOM     62  C   UNL A   1      32.675  27.259  22.737  1.00  0.00     0.237 A 
ATOM     63  N   UNL A   1      33.372  26.317  23.341  1.00  0.00    -0.184 NA
ATOM     64  N   UNL A   1      32.519  26.923  21.426  1.00  0.00    -0.251 N 
ATOM     65  C   UNL A   1      33.596  25.413  22.343  1.00  0.00     0.268 A 
ATOM     66  N   UNL A   1      33.111  25.749  21.148  1.00  0.00    -0.132 NA
ATOM     67  H   UNL A   1      32.035  27.469  20.766  1.00  0.00     0.192 HD
BRANCH  65  68
ATOM     68  N   UNL A   1      34.185  24.167  22.534  1.00  0.00    -0.218 NA
ATOM     69  C   UNL A   1      33.557  23.553  23.483  1.00  0.00     0.123 C 
BRANCH  69  70
ATOM     70  C   UNL A   1      33.925  22.206  23.950  1.00  0.00    -0.000 A 
ATOM     71  C   UNL A   1      35.207  22.040  24.491  1.00  0.00     0.010 A 
ATOM     72  C   UNL A   1      33.041  21.130  23.861  1.00  0.00     0.095 A 
ATOM     73  C   UNL A   1      35.612  20.792  24.959  1.00  0.00     0.008 A 
ATOM     74  C   UNL A   1      33.461  19.878  24.327  1.00  0.00     0.270 A 
ATOM     75  C   UNL A   1      34.740  19.706  24.879  1.00  0.00     0.085 A 
BRANCH  74  76
ATOM     76  N   UNL A   1      32.557  18.725  24.235  1.00  0.00     0.062 N 
ATOM     77  O   UNL A   1      32.455  18.162  23.135  1.00  0.00    -0.258 OA
ATOM     78  O   UNL A   1      31.947  18.385  25.258  1.00  0.00    -0.258 OA
ENDBRANCH  74  76
ENDBRANCH  69  70
ENDBRANCH  65  68
ENDBRANCH  60  62
ENDBRANCH  59  60
ENDBRANCH  58  59
ENDBRANCH   1  58
TORSDOF 17
ENDMDL
MODEL 3
REMARK VINA RESULT:      -8.3      5.791      8.835
REMARK SMILES O=C(OCCOCCOC(=O)c1nc(/N=C/c2cccc([N+](=O)[O-])c2)n[nH]1)c1ccc(-c2c3nc(c(-c4ccccc4)c4ccc([nH]4)c(-c4ccccc4)c4nc(c(-c5ccccc5)c5ccc2[nH]5)C=C4)C=C3)cc1
REMARK SMILES IDX 7 1 6 2 5 3 4 4 3 5 2 6 1 7 28 8 29 9 75 10 30 11 74 12
REMARK SMILES IDX 31 13 32 14 33 15 68 16 34 17 73 18 67 19 69 20 35 21 72 22
REMARK SMILES IDX 66 23 65 24 36 26 58 27 43 28 57 29 44 30 47 31 56 32 70 33
REMARK SMILES IDX 45 34 46 35 55 37 71 38 48 39 37 40 38 41 42 42 39 43 41 44
REMARK SMILES IDX 40 45 59 46 60 47 64 48 61 49 63 50 62 51 49 52 50 53 54 54
REMARK SMILES IDX 51 55 53 56 52 57 8 58 9 59 10 60 11 61 12 62 13 63 27 64
REMARK SMILES IDX 14 65 26 66 15 68 16 69 17 70 18 71 25 72 19 73 21 74 20 75
REMARK SMILES IDX 22 76 23 77 24 78
REMARK H PARENT 69 25 47 36 27 67
REMARK Flexibility Score: inf
ROOT
ATOM      1  C   UNL A   1      36.001  21.504  25.798  1.00  0.00     0.202 C 
ENDROOT
BRANCH   1   2
ATOM      2  O   UNL A   1      36.212  20.561  24.733  1.00  0.00    -0.374 OA
BRANCH   2   3
ATOM      3  C   UNL A   1      37.233  19.589  24.978  1.00  0.00     0.202 C 
BRANCH   3   4
ATOM      4  C   UNL A   1      38.655  20.138  24.843  1.00  0.00     0.261 C 
BRANCH   4   5
ATOM      5  O   UNL A   1      39.509  19.511  25.816  1.00  0.00    -0.460 OA
BRANCH   5   6
ATOM      6  C   UNL A   1      40.829  19.706  26.031  1.00  0.00     0.338 C 
ATOM      7  O   UNL A   1      41.605  18.773  25.834  1.00  0.00    -0.246 OA
BRANCH   6   8
ATOM      8  C   UNL A   1      41.401  20.991  26.535  1.00  0.00     0.060 A 
ATOM      9  C   UNL A   1      41.878  22.025  25.725  1.00  0.00     0.016 A 
ATOM     10  C   UNL A   1      41.324  21.218  27.920  1.00  0.00     0.016 A 
ATOM     11  C   UNL A   1      42.315  23.229  26.272  1.00  0.00     0.010 A 
ATOM     12  C   UNL A   1      41.711  22.442  28.472  1.00  0.00     0.010 A 
ATOM     13  C   UNL A   1      42.211  23.454  27.645  1.00  0.00    -0.014 A 
BRANCH  13  14
ATOM     14  C   UNL A   1      42.602  24.764  28.198  1.00  0.00     0.031 A 
ATOM     15  C   UNL A   1      41.561  25.816  28.420  1.00  0.00     0.074 A 
ATOM     16  C   UNL A   1      43.890  24.978  28.525  1.00  0.00     0.049 A 
ATOM     17  N   UNL A   1      41.710  27.047  28.830  1.00  0.00    -0.248 NA
ATOM     18  C   UNL A   1      40.166  25.430  28.153  1.00  0.00     0.031 C 
ATOM     19  C   UNL A   1      44.967  23.993  28.406  1.00  0.00     0.029 A 
ATOM     20  N   UNL A   1      44.510  26.091  29.032  1.00  0.00    -0.354 N 
ATOM     21  C   UNL A   1      40.435  27.592  28.848  1.00  0.00     0.074 A 
ATOM     22  C   UNL A   1      39.521  26.559  28.412  1.00  0.00     0.031 C 
ATOM     23  C   UNL A   1      46.114  24.542  28.837  1.00  0.00     0.029 A 
ATOM     24  C   UNL A   1      45.864  25.931  29.204  1.00  0.00     0.049 A 
ATOM     25  H   UNL A   1      44.033  26.923  29.250  1.00  0.00     0.167 HD
ATOM     26  C   UNL A   1      40.067  28.849  29.188  1.00  0.00     0.031 A 
ATOM     27  C   UNL A   1      46.801  26.821  29.578  1.00  0.00     0.031 A 
ATOM     28  C   UNL A   1      40.988  29.868  29.606  1.00  0.00     0.049 A 
ATOM     29  C   UNL A   1      46.372  28.233  29.864  1.00  0.00     0.074 A 
ATOM     30  C   UNL A   1      40.726  31.179  29.962  1.00  0.00     0.029 A 
ATOM     31  N   UNL A   1      42.359  29.687  29.715  1.00  0.00    -0.354 N 
ATOM     32  N   UNL A   1      45.163  28.741  29.876  1.00  0.00    -0.248 NA
ATOM     33  C   UNL A   1      47.437  29.201  30.163  1.00  0.00     0.031 C 
ATOM     34  C   UNL A   1      41.947  31.804  30.239  1.00  0.00     0.029 A 
ATOM     35  C   UNL A   1      42.962  30.871  30.094  1.00  0.00     0.049 A 
ATOM     36  H   UNL A   1      42.832  28.839  29.547  1.00  0.00     0.167 HD
ATOM     37  C   UNL A   1      45.320  30.085  30.178  1.00  0.00     0.074 A 
ATOM     38  C   UNL A   1      46.738  30.308  30.374  1.00  0.00     0.031 C 
ATOM     39  C   UNL A   1      44.379  31.055  30.270  1.00  0.00     0.031 A 
BRANCH  26  40
ATOM     40  C   UNL A   1      38.615  29.197  29.051  1.00  0.00    -0.014 A 
ATOM     41  C   UNL A   1      38.083  29.650  27.834  1.00  0.00     0.009 A 
ATOM     42  C   UNL A   1      37.765  29.064  30.160  1.00  0.00     0.009 A 
ATOM     43  C   UNL A   1      36.730  29.985  27.740  1.00  0.00     0.001 A 
ATOM     44  C   UNL A   1      36.412  29.383  30.058  1.00  0.00     0.001 A 
ATOM     45  C   UNL A   1      35.895  29.851  28.849  1.00  0.00     0.000 A 
ENDBRANCH  26  40
BRANCH  27  46
ATOM     46  C   UNL A   1      48.235  26.432  29.625  1.00  0.00    -0.014 A 
ATOM     47  C   UNL A   1      48.873  26.175  30.848  1.00  0.00     0.009 A 
ATOM     48  C   UNL A   1      48.981  26.332  28.439  1.00  0.00     0.009 A 
ATOM     49  C   UNL A   1      50.232  25.849  30.881  1.00  0.00     0.001 A 
ATOM     50  C   UNL A   1      50.330  25.978  28.473  1.00  0.00     0.001 A 
ATOM     51  C   UNL A   1      50.958  25.745  29.695  1.00  0.00     0.000 A 
ENDBRANCH  27  46
BRANCH  39  52
ATOM     52  C   UNL A   1      44.864  32.438  30.588  1.00  0.00    -0.014 A 
ATOM     53  C   UNL A   1      45.058  32.838  31.918  1.00  0.00     0.009 A 
ATOM     54  C   UNL A   1      45.176  33.327  29.548  1.00  0.00     0.009 A 
ATOM     55  C   UNL A   1      45.539  34.115  32.204  1.00  0.00     0.001 A 
ATOM     56  C   UNL A   1      45.676  34.596  29.838  1.00  0.00     0.001 A 
ATOM     57  C   UNL A   1      45.853  34.991  31.164  1.00  0.00     0.000 A 
ENDBRANCH  39  52
ENDBRANCH  13  14
ENDBRANCH   6   8
ENDBRANCH   5   6
ENDBRANCH   4   5
ENDBRANCH   3   4
ENDBRANCH   2   3
ENDBRANCH   1   2
BRANCH   1  58
ATOM     58  C   UNL A   1      34.518  21.485  26.197  1.00  0.00     0.261 C 
BRANCH  58  59
ATOM     59  O   UNL A   1      33.727  21.372  25.005  1.00  0.00    -0.457 OA
BRANCH  59  60
ATOM     60  C   UNL A   1      32.415  21.089  25.251  1.00  0.00     0.376 C 
ATOM     61  O   UNL A   1      31.933  19.967  25.315  1.00  0.00    -0.242 OA
BRANCH  60  62
ATOM     62  C   UNL A   1      31.721  22.301  25.584  1.00  0.00     0.237 A 
ATOM     63  N   UNL A   1      31.892  23.490  25.040  1.00  0.00    -0.184 NA
ATOM     64  N   UNL A   1      30.834  22.409  26.612  1.00  0.00    -0.251 N 
ATOM     65  C   UNL A   1      31.059  24.286  25.771  1.00  0.00     0.268 A 
ATOM     66  N   UNL A   1      30.405  23.674  26.758  1.00  0.00    -0.132 NA
ATOM     67  H   UNL A   1      30.544  21.657  27.177  1.00  0.00     0.192 HD
BRANCH  65  68
ATOM     68  N   UNL A   1      30.793  25.619  25.477  1.00  0.00    -0.218 NA
ATOM     69  C   UNL A   1      30.525  25.720  24.215  1.00  0.00     0.123 C 
BRANCH  69  70
ATOM     70  C   UNL A   1      30.203  26.999  23.562  1.00  0.00    -0.000 A 
ATOM     71  C   UNL A   1      31.247  27.671  22.912  1.00  0.00     0.010 A 
ATOM     72  C   UNL A   1      28.913  27.532  23.584  1.00  0.00     0.095 A 
ATOM     73  C   UNL A   1      31.004  28.881  22.267  1.00  0.00     0.008 A 
ATOM     74  C   UNL A   1      28.682  28.753  22.940  1.00  0.00     0.270 A 
ATOM     75  C   UNL A   1      29.721  29.427  22.278  1.00  0.00     0.085 A 
BRANCH  74  76
ATOM     76  N   UNL A   1      27.338  29.344  22.956  1.00  0.00     0.062 N 
ATOM     77  O   UNL A   1      27.197  30.464  22.442  1.00  0.00    -0.258 OA
ATOM     78  O   UNL A   1      26.427  28.694  23.485  1.00  0.00    -0.258 OA
ENDBRANCH  74  76
ENDBRANCH  69  70
ENDBRANCH  65  68
ENDBRANCH  60  62
ENDBRANCH  59  60
ENDBRANCH  58  59
ENDBRANCH   1  58
TORSDOF 17
ENDMDL
