MODEL 1
REMARK VINA RESULT:     -11.5      0.000      0.000
REMARK SMILES O=C(NC1(C(=O)OCCOCCOC(=O)c2ccc(-c3c4nc(c(-c5ccccc5)c5ccc([nH]5)c(-c5ccccc5)c5nc(c(-c6ccccc6)c6ccc3[nH]6)C=C5)C=C4)cc2)CC[NH2+]CC1)OCC1c2ccccc2-c2ccccc21
REMARK SMILES IDX 9 1 8 2 7 3 5 4 6 5 4 6 64 7 68 8 65 9 67 10 66 11 3 14 1 15
REMARK SMILES IDX 2 16 69 18 70 19 71 20 72 21 83 22 73 23 77 24 78 25 82 26
REMARK SMILES IDX 74 27 76 28 79 29 81 30 75 31 80 32 10 33 11 34 12 35 13 36
REMARK SMILES IDX 14 37 15 38 16 39 17 40 63 41 18 42 62 43 19 44 20 45 21 46
REMARK SMILES IDX 56 47 22 48 61 49 55 50 57 51 23 52 60 53 54 54 53 55 24 57
REMARK SMILES IDX 46 58 31 59 45 60 32 61 35 62 44 63 58 64 33 65 34 66 43 68
REMARK SMILES IDX 59 69 36 70 25 71 26 72 30 73 27 74 29 75 28 76 47 77 48 78
REMARK SMILES IDX 52 79 49 80 51 81 50 82 37 83 38 84 42 85 39 86 41 87 40 88
REMARK H PARENT 66 12 66 13 3 17 57 56 35 67
REMARK Flexibility Score: inf
ROOT
ATOM      1  C   UNL A   1      35.088  21.371  25.630  1.00  0.00     0.202 C 
ENDROOT
BRANCH   1   2
ATOM      2  C   UNL A   1      34.239  20.990  24.403  1.00  0.00     0.261 C 
BRANCH   2   3
ATOM      3  O   UNL A   1      32.849  21.308  24.259  1.00  0.00    -0.461 OA
BRANCH   3   4
ATOM      4  C   UNL A   1      32.470  22.001  23.155  1.00  0.00     0.332 C 
ATOM      5  O   UNL A   1      31.975  21.415  22.195  1.00  0.00    -0.249 OA
BRANCH   4   6
ATOM      6  C   UNL A   1      32.714  23.658  23.259  1.00  0.00     0.151 C 
ATOM      7  C   UNL A   1      31.041  23.965  23.850  1.00  0.00     0.102 C 
ATOM      8  C   UNL A   1      34.185  24.721  24.001  1.00  0.00     0.102 C 
ATOM      9  C   UNL A   1      30.795  24.210  25.602  1.00  0.00     0.263 C 
ATOM     10  C   UNL A   1      33.990  25.220  25.919  1.00  0.00     0.263 C 
ATOM     11  N   UNL A   1      32.062  24.831  26.639  1.00  0.00    -0.346 N 
ATOM     12  H   UNL A   1      32.169  24.156  27.395  1.00  0.00     0.346 HD
ATOM     13  H   UNL A   1      31.721  25.768  26.857  1.00  0.00     0.346 HD
BRANCH   6  14
ATOM     14  N   UNL A   1      33.022  23.799  21.871  1.00  0.00    -0.305 N 
ATOM     15  O   UNL A   1      33.071  25.221  20.118  1.00  0.00    -0.225 OA
ATOM     16  C   UNL A   1      32.880  25.064  21.319  1.00  0.00     0.408 C 
ATOM     17  H   UNL A   1      33.322  23.033  21.329  1.00  0.00     0.168 HD
BRANCH  16  18
ATOM     18  O   UNL A   1      32.436  26.102  22.119  1.00  0.00    -0.449 OA
BRANCH  18  19
ATOM     19  C   UNL A   1      32.884  27.506  22.430  1.00  0.00     0.248 C 
BRANCH  19  20
ATOM     20  C   UNL A   1      32.045  28.554  23.333  1.00  0.00     0.088 C 
ATOM     21  C   UNL A   1      32.717  28.996  24.663  1.00  0.00    -0.029 A 
ATOM     22  C   UNL A   1      30.271  28.696  23.723  1.00  0.00    -0.029 A 
ATOM     23  C   UNL A   1      33.964  28.629  25.160  1.00  0.00     0.005 A 
ATOM     24  C   UNL A   1      31.913  29.901  25.394  1.00  0.00    -0.014 A 
ATOM     25  C   UNL A   1      30.660  30.127  24.729  1.00  0.00    -0.014 A 
ATOM     26  C   UNL A   1      28.626  28.787  22.625  1.00  0.00     0.005 A 
ATOM     27  C   UNL A   1      34.334  29.059  26.438  1.00  0.00     0.000 A 
ATOM     28  C   UNL A   1      32.280  30.336  26.657  1.00  0.00     0.009 A 
ATOM     29  C   UNL A   1      29.719  31.577  24.547  1.00  0.00     0.009 A 
ATOM     30  C   UNL A   1      27.678  30.311  22.587  1.00  0.00     0.000 A 
ATOM     31  C   UNL A   1      33.493  29.896  27.184  1.00  0.00     0.001 A 
ATOM     32  C   UNL A   1      28.306  31.682  23.499  1.00  0.00     0.001 A 
ENDBRANCH  19  20
ENDBRANCH  18  19
ENDBRANCH  16  18
ENDBRANCH   6  14
ENDBRANCH   4   6
ENDBRANCH   3   4
ENDBRANCH   2   3
ENDBRANCH   1   2
BRANCH   1  33
ATOM     33  O   UNL A   1      36.199  22.243  25.650  1.00  0.00    -0.374 OA
BRANCH  33  34
ATOM     34  C   UNL A   1      37.306  22.064  24.801  1.00  0.00     0.202 C 
BRANCH  34  35
ATOM     35  C   UNL A   1      38.520  21.368  25.414  1.00  0.00     0.261 C 
BRANCH  35  36
ATOM     36  O   UNL A   1      39.015  21.972  26.617  1.00  0.00    -0.460 OA
BRANCH  36  37
ATOM     37  C   UNL A   1      40.136  22.714  26.439  1.00  0.00     0.338 C 
ATOM     38  O   UNL A   1      41.191  22.356  25.942  1.00  0.00    -0.246 OA
BRANCH  37  39
ATOM     39  C   UNL A   1      39.917  24.102  26.880  1.00  0.00     0.060 A 
ATOM     40  C   UNL A   1      40.585  25.127  26.197  1.00  0.00     0.016 A 
ATOM     41  C   UNL A   1      39.200  24.371  28.047  1.00  0.00     0.016 A 
ATOM     42  C   UNL A   1      40.609  26.414  26.726  1.00  0.00     0.010 A 
ATOM     43  C   UNL A   1      39.237  25.661  28.583  1.00  0.00     0.010 A 
ATOM     44  C   UNL A   1      39.991  26.670  27.956  1.00  0.00    -0.014 A 
BRANCH  44  45
ATOM     45  C   UNL A   1      40.300  27.923  28.685  1.00  0.00     0.031 A 
ATOM     46  C   UNL A   1      41.628  28.045  29.382  1.00  0.00     0.074 A 
ATOM     47  C   UNL A   1      39.431  28.946  28.712  1.00  0.00     0.049 A 
ATOM     48  N   UNL A   1      42.084  29.015  30.131  1.00  0.00    -0.248 NA
ATOM     49  C   UNL A   1      42.565  26.922  29.209  1.00  0.00     0.031 C 
ATOM     50  C   UNL A   1      38.152  28.975  28.014  1.00  0.00     0.029 A 
ATOM     51  N   UNL A   1      39.490  30.154  29.360  1.00  0.00    -0.354 N 
ATOM     52  C   UNL A   1      43.354  28.617  30.527  1.00  0.00     0.074 A 
ATOM     53  C   UNL A   1      43.583  27.303  29.965  1.00  0.00     0.031 C 
ATOM     54  C   UNL A   1      37.529  30.133  28.286  1.00  0.00     0.029 A 
ATOM     55  C   UNL A   1      38.354  30.909  29.210  1.00  0.00     0.049 A 
ATOM     56  H   UNL A   1      40.271  30.449  29.882  1.00  0.00     0.167 HD
ATOM     57  C   UNL A   1      44.251  29.289  31.287  1.00  0.00     0.031 A 
ATOM     58  C   UNL A   1      38.008  32.080  29.777  1.00  0.00     0.031 A 
ATOM     59  C   UNL A   1      44.011  30.587  31.858  1.00  0.00     0.049 A 
ATOM     60  C   UNL A   1      38.978  32.760  30.706  1.00  0.00     0.074 A 
ATOM     61  C   UNL A   1      44.859  31.359  32.632  1.00  0.00     0.029 A 
ATOM     62  N   UNL A   1      42.828  31.300  31.726  1.00  0.00    -0.354 N 
ATOM     63  N   UNL A   1      40.184  32.384  31.060  1.00  0.00    -0.248 NA
ATOM     64  C   UNL A   1      38.545  34.032  31.300  1.00  0.00     0.031 C 
ATOM     65  C   UNL A   1      44.165  32.507  33.026  1.00  0.00     0.029 A 
ATOM     66  C   UNL A   1      42.912  32.488  32.434  1.00  0.00     0.049 A 
ATOM     67  H   UNL A   1      42.047  31.006  31.205  1.00  0.00     0.167 HD
ATOM     68  C   UNL A   1      40.667  33.391  31.887  1.00  0.00     0.074 A 
ATOM     69  C   UNL A   1      39.628  34.397  31.971  1.00  0.00     0.031 C 
ATOM     70  C   UNL A   1      41.867  33.477  32.513  1.00  0.00     0.031 A 
BRANCH  57  71
ATOM     71  C   UNL A   1      45.557  28.602  31.581  1.00  0.00    -0.014 A 
ATOM     72  C   UNL A   1      45.687  27.692  32.642  1.00  0.00     0.009 A 
ATOM     73  C   UNL A   1      46.673  28.859  30.768  1.00  0.00     0.009 A 
ATOM     74  C   UNL A   1      46.917  27.084  32.907  1.00  0.00     0.001 A 
ATOM     75  C   UNL A   1      47.892  28.225  31.014  1.00  0.00     0.001 A 
ATOM     76  C   UNL A   1      48.016  27.348  32.090  1.00  0.00     0.000 A 
ENDBRANCH  57  71
BRANCH  58  77
ATOM     77  C   UNL A   1      36.675  32.679  29.498  1.00  0.00    -0.014 A 
ATOM     78  C   UNL A   1      35.571  32.384  30.310  1.00  0.00     0.009 A 
ATOM     79  C   UNL A   1      36.498  33.542  28.403  1.00  0.00     0.009 A 
ATOM     80  C   UNL A   1      34.314  32.918  30.019  1.00  0.00     0.001 A 
ATOM     81  C   UNL A   1      35.248  34.101  28.132  1.00  0.00     0.001 A 
ATOM     82  C   UNL A   1      34.154  33.780  28.934  1.00  0.00     0.000 A 
ENDBRANCH  58  77
BRANCH  70  83
ATOM     83  C   UNL A   1      42.140  34.724  33.309  1.00  0.00    -0.014 A 
ATOM     84  C   UNL A   1      42.861  35.799  32.767  1.00  0.00     0.009 A 
ATOM     85  C   UNL A   1      41.630  34.838  34.613  1.00  0.00     0.009 A 
ATOM     86  C   UNL A   1      43.098  36.946  33.529  1.00  0.00     0.001 A 
ATOM     87  C   UNL A   1      41.838  35.999  35.358  1.00  0.00     0.001 A 
ATOM     88  C   UNL A   1      42.581  37.047  34.820  1.00  0.00     0.000 A 
ENDBRANCH  70  83
ENDBRANCH  44  45
ENDBRANCH  37  39
ENDBRANCH  36  37
ENDBRANCH  35  36
ENDBRANCH  34  35
ENDBRANCH  33  34
ENDBRANCH   1  33
TORSDOF 18
ENDMDL
MODEL 2
REMARK VINA RESULT:     -11.5      0.851      5.740
REMARK SMILES O=C(NC1(C(=O)OCCOCCOC(=O)c2ccc(-c3c4nc(c(-c5ccccc5)c5ccc([nH]5)c(-c5ccccc5)c5nc(c(-c6ccccc6)c6ccc3[nH]6)C=C5)C=C4)cc2)CC[NH2+]CC1)OCC1c2ccccc2-c2ccccc21
REMARK SMILES IDX 9 1 8 2 7 3 5 4 6 5 4 6 64 7 68 8 65 9 67 10 66 11 3 14 1 15
REMARK SMILES IDX 2 16 69 18 70 19 71 20 72 21 83 22 73 23 77 24 78 25 82 26
REMARK SMILES IDX 74 27 76 28 79 29 81 30 75 31 80 32 10 33 11 34 12 35 13 36
REMARK SMILES IDX 14 37 15 38 16 39 17 40 63 41 18 42 62 43 19 44 20 45 21 46
REMARK SMILES IDX 56 47 22 48 61 49 55 50 57 51 23 52 60 53 54 54 53 55 24 57
REMARK SMILES IDX 46 58 31 59 45 60 32 61 35 62 44 63 58 64 33 65 34 66 43 68
REMARK SMILES IDX 59 69 36 70 25 71 26 72 30 73 27 74 29 75 28 76 47 77 48 78
REMARK SMILES IDX 52 79 49 80 51 81 50 82 37 83 38 84 42 85 39 86 41 87 40 88
REMARK H PARENT 66 12 66 13 3 17 57 56 35 67
REMARK Flexibility Score: inf
ROOT
ATOM      1  C   UNL A   1      34.267  20.061  24.710  1.00  0.00     0.202 C 
ENDROOT
BRANCH   1   2
ATOM      2  C   UNL A   1      32.770  20.165  24.366  1.00  0.00     0.261 C 
BRANCH   2   3
ATOM      3  O   UNL A   1      32.054  21.402  24.261  1.00  0.00    -0.461 OA
BRANCH   3   4
ATOM      4  C   UNL A   1      32.104  22.063  23.076  1.00  0.00     0.332 C 
ATOM      5  O   UNL A   1      31.795  21.489  22.034  1.00  0.00    -0.249 OA
BRANCH   4   6
ATOM      6  C   UNL A   1      32.579  23.667  23.196  1.00  0.00     0.151 C 
ATOM      7  C   UNL A   1      30.952  24.209  23.746  1.00  0.00     0.102 C 
ATOM      8  C   UNL A   1      34.167  24.507  23.981  1.00  0.00     0.102 C 
ATOM      9  C   UNL A   1      30.699  24.484  25.492  1.00  0.00     0.263 C 
ATOM     10  C   UNL A   1      33.996  25.025  25.896  1.00  0.00     0.263 C 
ATOM     11  N   UNL A   1      32.014  24.915  26.565  1.00  0.00    -0.346 N 
ATOM     12  H   UNL A   1      32.004  24.229  27.320  1.00  0.00     0.346 HD
ATOM     13  H   UNL A   1      31.805  25.890  26.780  1.00  0.00     0.346 HD
BRANCH   6  14
ATOM     14  N   UNL A   1      32.940  23.766  21.817  1.00  0.00    -0.305 N 
ATOM     15  O   UNL A   1      33.068  25.136  20.027  1.00  0.00    -0.225 OA
ATOM     16  C   UNL A   1      32.832  25.015  21.224  1.00  0.00     0.408 C 
ATOM     17  H   UNL A   1      33.253  22.982  21.309  1.00  0.00     0.168 HD
BRANCH  16  18
ATOM     18  O   UNL A   1      32.368  26.080  21.978  1.00  0.00    -0.449 OA
BRANCH  18  19
ATOM     19  C   UNL A   1      32.980  27.249  22.704  1.00  0.00     0.248 C 
BRANCH  19  20
ATOM     20  C   UNL A   1      32.137  28.357  23.527  1.00  0.00     0.088 C 
ATOM     21  C   UNL A   1      32.807  28.899  24.821  1.00  0.00    -0.029 A 
ATOM     22  C   UNL A   1      30.362  28.521  23.905  1.00  0.00    -0.029 A 
ATOM     23  C   UNL A   1      34.056  28.576  25.344  1.00  0.00     0.005 A 
ATOM     24  C   UNL A   1      31.999  29.852  25.482  1.00  0.00    -0.014 A 
ATOM     25  C   UNL A   1      30.746  30.024  24.803  1.00  0.00    -0.014 A 
ATOM     26  C   UNL A   1      28.718  28.523  22.804  1.00  0.00     0.005 A 
ATOM     27  C   UNL A   1      34.424  29.101  26.586  1.00  0.00     0.000 A 
ATOM     28  C   UNL A   1      32.364  30.381  26.709  1.00  0.00     0.009 A 
ATOM     29  C   UNL A   1      29.798  31.452  24.513  1.00  0.00     0.009 A 
ATOM     30  C   UNL A   1      27.764  30.036  22.652  1.00  0.00     0.000 A 
ATOM     31  C   UNL A   1      33.579  29.986  27.268  1.00  0.00     0.001 A 
ATOM     32  C   UNL A   1      28.386  31.474  23.460  1.00  0.00     0.001 A 
ENDBRANCH  19  20
ENDBRANCH  18  19
ENDBRANCH  16  18
ENDBRANCH   6  14
ENDBRANCH   4   6
ENDBRANCH   3   4
ENDBRANCH   2   3
ENDBRANCH   1   2
BRANCH   1  33
ATOM     33  O   UNL A   1      35.194  21.125  24.777  1.00  0.00    -0.374 OA
BRANCH  33  34
ATOM     34  C   UNL A   1      36.144  21.226  25.809  1.00  0.00     0.202 C 
BRANCH  34  35
ATOM     35  C   UNL A   1      37.603  21.349  25.372  1.00  0.00     0.261 C 
BRANCH  35  36
ATOM     36  O   UNL A   1      38.387  22.268  26.145  1.00  0.00    -0.460 OA
BRANCH  36  37
ATOM     37  C   UNL A   1      38.176  23.569  25.830  1.00  0.00     0.338 C 
ATOM     38  O   UNL A   1      37.342  24.021  25.063  1.00  0.00    -0.246 OA
BRANCH  37  39
ATOM     39  C   UNL A   1      39.073  24.444  26.603  1.00  0.00     0.060 A 
ATOM     40  C   UNL A   1      38.858  24.562  27.983  1.00  0.00     0.016 A 
ATOM     41  C   UNL A   1      40.002  25.260  25.955  1.00  0.00     0.016 A 
ATOM     42  C   UNL A   1      39.509  25.556  28.707  1.00  0.00     0.010 A 
ATOM     43  C   UNL A   1      40.644  26.266  26.681  1.00  0.00     0.010 A 
ATOM     44  C   UNL A   1      40.355  26.455  28.045  1.00  0.00    -0.014 A 
BRANCH  44  45
ATOM     45  C   UNL A   1      40.772  27.704  28.724  1.00  0.00     0.031 A 
ATOM     46  C   UNL A   1      39.772  28.818  28.865  1.00  0.00     0.074 A 
ATOM     47  C   UNL A   1      42.009  27.844  29.228  1.00  0.00     0.049 A 
ATOM     48  N   UNL A   1      39.932  30.018  29.360  1.00  0.00    -0.248 NA
ATOM     49  C   UNL A   1      38.407  28.541  28.385  1.00  0.00     0.031 C 
ATOM     50  C   UNL A   1      43.036  26.810  29.220  1.00  0.00     0.029 A 
ATOM     51  N   UNL A   1      42.611  28.915  29.836  1.00  0.00    -0.354 N 
ATOM     52  C   UNL A   1      38.697  30.642  29.242  1.00  0.00     0.074 A 
ATOM     53  C   UNL A   1      37.806  29.701  28.596  1.00  0.00     0.031 C 
ATOM     54  C   UNL A   1      44.157  27.301  29.776  1.00  0.00     0.029 A 
ATOM     55  C   UNL A   1      43.931  28.697  30.142  1.00  0.00     0.049 A 
ATOM     56  H   UNL A   1      42.143  29.759  30.033  1.00  0.00     0.167 HD
ATOM     57  C   UNL A   1      38.336  31.884  29.640  1.00  0.00     0.031 A 
ATOM     58  C   UNL A   1      44.860  29.538  30.636  1.00  0.00     0.031 A 
ATOM     59  C   UNL A   1      39.232  32.822  30.264  1.00  0.00     0.049 A 
ATOM     60  C   UNL A   1      44.464  30.951  30.972  1.00  0.00     0.074 A 
ATOM     61  C   UNL A   1      38.962  34.101  30.716  1.00  0.00     0.029 A 
ATOM     62  N   UNL A   1      40.575  32.583  30.513  1.00  0.00    -0.354 N 
ATOM     63  N   UNL A   1      43.289  31.525  30.873  1.00  0.00    -0.248 NA
ATOM     64  C   UNL A   1      45.519  31.826  31.502  1.00  0.00     0.031 C 
ATOM     65  C   UNL A   1      40.158  34.662  31.175  1.00  0.00     0.029 A 
ATOM     66  C   UNL A   1      41.156  33.705  31.080  1.00  0.00     0.049 A 
ATOM     67  H   UNL A   1      41.045  31.741  30.317  1.00  0.00     0.167 HD
ATOM     68  C   UNL A   1      43.455  32.815  31.363  1.00  0.00     0.074 A 
ATOM     69  C   UNL A   1      44.840  32.933  31.768  1.00  0.00     0.031 C 
ATOM     70  C   UNL A   1      42.538  33.809  31.474  1.00  0.00     0.031 A 
BRANCH  57  71
ATOM     71  C   UNL A   1      36.921  32.313  29.363  1.00  0.00    -0.014 A 
ATOM     72  C   UNL A   1      36.557  32.904  28.142  1.00  0.00     0.009 A 
ATOM     73  C   UNL A   1      35.932  32.105  30.336  1.00  0.00     0.009 A 
ATOM     74  C   UNL A   1      35.240  33.313  27.919  1.00  0.00     0.001 A 
ATOM     75  C   UNL A   1      34.609  32.484  30.098  1.00  0.00     0.001 A 
ATOM     76  C   UNL A   1      34.267  33.098  28.896  1.00  0.00     0.000 A 
ENDBRANCH  57  71
BRANCH  58  77
ATOM     77  C   UNL A   1      46.260  29.074  30.828  1.00  0.00    -0.014 A 
ATOM     78  C   UNL A   1      47.202  29.189  29.795  1.00  0.00     0.009 A 
ATOM     79  C   UNL A   1      46.658  28.499  32.047  1.00  0.00     0.009 A 
ATOM     80  C   UNL A   1      48.504  28.715  29.969  1.00  0.00     0.001 A 
ATOM     81  C   UNL A   1      47.970  28.056  32.229  1.00  0.00     0.001 A 
ATOM     82  C   UNL A   1      48.888  28.154  31.186  1.00  0.00     0.000 A 
ENDBRANCH  58  77
BRANCH  70  83
ATOM     83  C   UNL A   1      42.995  35.099  32.101  1.00  0.00    -0.014 A 
ATOM     84  C   UNL A   1      43.590  36.117  31.339  1.00  0.00     0.009 A 
ATOM     85  C   UNL A   1      42.789  35.312  33.474  1.00  0.00     0.009 A 
ATOM     86  C   UNL A   1      44.003  37.304  31.947  1.00  0.00     0.001 A 
ATOM     87  C   UNL A   1      43.170  36.513  34.071  1.00  0.00     0.001 A 
ATOM     88  C   UNL A   1      43.787  37.503  33.310  1.00  0.00     0.000 A 
ENDBRANCH  70  83
ENDBRANCH  44  45
ENDBRANCH  37  39
ENDBRANCH  36  37
ENDBRANCH  35  36
ENDBRANCH  34  35
ENDBRANCH  33  34
ENDBRANCH   1  33
TORSDOF 18
ENDMDL
MODEL 3
REMARK VINA RESULT:     -11.4      2.094      3.287
REMARK SMILES O=C(NC1(C(=O)OCCOCCOC(=O)c2ccc(-c3c4nc(c(-c5ccccc5)c5ccc([nH]5)c(-c5ccccc5)c5nc(c(-c6ccccc6)c6ccc3[nH]6)C=C5)C=C4)cc2)CC[NH2+]CC1)OCC1c2ccccc2-c2ccccc21
REMARK SMILES IDX 9 1 8 2 7 3 5 4 6 5 4 6 64 7 68 8 65 9 67 10 66 11 3 14 1 15
REMARK SMILES IDX 2 16 69 18 70 19 71 20 72 21 83 22 73 23 77 24 78 25 82 26
REMARK SMILES IDX 74 27 76 28 79 29 81 30 75 31 80 32 10 33 11 34 12 35 13 36
REMARK SMILES IDX 14 37 15 38 16 39 17 40 63 41 18 42 62 43 19 44 20 45 21 46
REMARK SMILES IDX 56 47 22 48 61 49 55 50 57 51 23 52 60 53 54 54 53 55 24 57
REMARK SMILES IDX 46 58 31 59 45 60 32 61 35 62 44 63 58 64 33 65 34 66 43 68
REMARK SMILES IDX 59 69 36 70 25 71 26 72 30 73 27 74 29 75 28 76 47 77 48 78
REMARK SMILES IDX 52 79 49 80 51 81 50 82 37 83 38 84 42 85 39 86 41 87 40 88
REMARK H PARENT 66 12 66 13 3 17 57 56 35 67
REMARK Flexibility Score: inf
ROOT
ATOM      1  C   UNL A   1      34.737  21.237  25.625  1.00  0.00     0.202 C 
ENDROOT
BRANCH   1   2
ATOM      2  C   UNL A   1      33.961  20.871  24.346  1.00  0.00     0.261 C 
BRANCH   2   3
ATOM      3  O   UNL A   1      32.606  21.260  24.090  1.00  0.00    -0.461 OA
BRANCH   3   4
ATOM      4  C   UNL A   1      32.358  21.986  22.970  1.00  0.00     0.332 C 
ATOM      5  O   UNL A   1      31.904  21.440  21.967  1.00  0.00    -0.249 OA
BRANCH   4   6
ATOM      6  C   UNL A   1      32.693  23.623  23.116  1.00  0.00     0.151 C 
ATOM      7  C   UNL A   1      31.043  24.006  23.725  1.00  0.00     0.102 C 
ATOM      8  C   UNL A   1      34.224  24.583  23.876  1.00  0.00     0.102 C 
ATOM      9  C   UNL A   1      30.819  24.219  25.484  1.00  0.00     0.263 C 
ATOM     10  C   UNL A   1      34.067  25.041  25.808  1.00  0.00     0.263 C 
ATOM     11  N   UNL A   1      32.123  24.741  26.529  1.00  0.00    -0.346 N 
ATOM     12  H   UNL A   1      32.196  24.041  27.267  1.00  0.00     0.346 HD
ATOM     13  H   UNL A   1      31.836  25.689  26.773  1.00  0.00     0.346 HD
BRANCH   6  14
ATOM     14  N   UNL A   1      33.003  23.783  21.730  1.00  0.00    -0.305 N 
ATOM     15  O   UNL A   1      33.037  25.225  19.992  1.00  0.00    -0.225 OA
ATOM     16  C   UNL A   1      32.846  25.052  21.192  1.00  0.00     0.408 C 
ATOM     17  H   UNL A   1      33.314  23.027  21.180  1.00  0.00     0.168 HD
BRANCH  16  18
ATOM     18  O   UNL A   1      32.387  26.076  22.002  1.00  0.00    -0.449 OA
BRANCH  18  19
ATOM     19  C   UNL A   1      32.851  27.457  22.381  1.00  0.00     0.248 C 
BRANCH  19  20
ATOM     20  C   UNL A   1      31.995  28.496  23.278  1.00  0.00     0.088 C 
ATOM     21  C   UNL A   1      32.633  28.911  24.634  1.00  0.00    -0.029 A 
ATOM     22  C   UNL A   1      30.211  28.644  23.621  1.00  0.00    -0.029 A 
ATOM     23  C   UNL A   1      33.863  28.527  25.159  1.00  0.00     0.005 A 
ATOM     24  C   UNL A   1      31.815  29.809  25.357  1.00  0.00    -0.014 A 
ATOM     25  C   UNL A   1      30.582  30.055  24.662  1.00  0.00    -0.014 A 
ATOM     26  C   UNL A   1      28.598  28.765  22.480  1.00  0.00     0.005 A 
ATOM     27  C   UNL A   1      34.200  28.933  26.453  1.00  0.00     0.000 A 
ATOM     28  C   UNL A   1      32.149  30.220  26.636  1.00  0.00     0.009 A 
ATOM     29  C   UNL A   1      29.655  31.514  24.478  1.00  0.00     0.009 A 
ATOM     30  C   UNL A   1      27.662  30.296  22.442  1.00  0.00     0.000 A 
ATOM     31  C   UNL A   1      33.344  29.763  27.189  1.00  0.00     0.001 A 
ATOM     32  C   UNL A   1      28.273  31.647  23.393  1.00  0.00     0.001 A 
ENDBRANCH  19  20
ENDBRANCH  18  19
ENDBRANCH  16  18
ENDBRANCH   6  14
ENDBRANCH   4   6
ENDBRANCH   3   4
ENDBRANCH   2   3
ENDBRANCH   1   2
BRANCH   1  33
ATOM     33  O   UNL A   1      36.103  21.586  25.711  1.00  0.00    -0.374 OA
BRANCH  33  34
ATOM     34  C   UNL A   1      37.100  20.887  25.006  1.00  0.00     0.202 C 
BRANCH  34  35
ATOM     35  C   UNL A   1      38.545  21.225  25.367  1.00  0.00     0.261 C 
BRANCH  35  36
ATOM     36  O   UNL A   1      39.126  20.385  26.373  1.00  0.00    -0.460 OA
BRANCH  36  37
ATOM     37  C   UNL A   1      40.435  20.099  26.161  1.00  0.00     0.338 C 
ATOM     38  O   UNL A   1      40.899  19.116  25.606  1.00  0.00    -0.246 OA
BRANCH  37  39
ATOM     39  C   UNL A   1      41.292  21.193  26.648  1.00  0.00     0.060 A 
ATOM     40  C   UNL A   1      41.246  21.516  28.010  1.00  0.00     0.016 A 
ATOM     41  C   UNL A   1      42.002  21.992  25.750  1.00  0.00     0.016 A 
ATOM     42  C   UNL A   1      41.839  22.689  28.468  1.00  0.00     0.010 A 
ATOM     43  C   UNL A   1      42.584  23.176  26.209  1.00  0.00     0.010 A 
ATOM     44  C   UNL A   1      42.453  23.557  27.558  1.00  0.00    -0.014 A 
BRANCH  44  45
ATOM     45  C   UNL A   1      42.773  24.944  27.968  1.00  0.00     0.031 A 
ATOM     46  C   UNL A   1      44.215  25.325  28.165  1.00  0.00     0.074 A 
ATOM     47  C   UNL A   1      41.806  25.860  28.143  1.00  0.00     0.049 A 
ATOM     48  N   UNL A   1      44.723  26.454  28.584  1.00  0.00    -0.248 NA
ATOM     49  C   UNL A   1      45.216  24.293  27.845  1.00  0.00     0.031 C 
ATOM     50  C   UNL A   1      40.386  25.631  27.909  1.00  0.00     0.029 A 
ATOM     51  N   UNL A   1      41.874  27.163  28.566  1.00  0.00    -0.354 N 
ATOM     52  C   UNL A   1      46.099  26.267  28.588  1.00  0.00     0.074 A 
ATOM     53  C   UNL A   1      46.345  24.905  28.164  1.00  0.00     0.031 C 
ATOM     54  C   UNL A   1      39.706  26.749  28.213  1.00  0.00     0.029 A 
ATOM     55  C   UNL A   1      40.645  27.757  28.700  1.00  0.00     0.049 A 
ATOM     56  H   UNL A   1      42.722  27.626  28.756  1.00  0.00     0.167 HD
ATOM     57  C   UNL A   1      47.071  27.153  28.911  1.00  0.00     0.031 A 
ATOM     58  C   UNL A   1      40.312  28.968  29.186  1.00  0.00     0.031 A 
ATOM     59  C   UNL A   1      46.820  28.500  29.350  1.00  0.00     0.049 A 
ATOM     60  C   UNL A   1      41.404  29.899  29.643  1.00  0.00     0.074 A 
ATOM     61  C   UNL A   1      47.735  29.480  29.690  1.00  0.00     0.029 A 
ATOM     62  N   UNL A   1      45.559  29.051  29.521  1.00  0.00    -0.354 N 
ATOM     63  N   UNL A   1      42.703  29.719  29.626  1.00  0.00    -0.248 NA
ATOM     64  C   UNL A   1      40.984  31.205  30.170  1.00  0.00     0.031 C 
ATOM     65  C   UNL A   1      47.027  30.602  30.132  1.00  0.00     0.029 A 
ATOM     66  C   UNL A   1      45.672  30.348  29.996  1.00  0.00     0.049 A 
ATOM     67  H   UNL A   1      44.710  28.590  29.332  1.00  0.00     0.167 HD
ATOM     68  C   UNL A   1      43.256  30.901  30.104  1.00  0.00     0.074 A 
ATOM     69  C   UNL A   1      42.151  31.793  30.390  1.00  0.00     0.031 C 
ATOM     70  C   UNL A   1      44.562  31.221  30.281  1.00  0.00     0.031 A 
BRANCH  57  71
ATOM     71  C   UNL A   1      48.494  26.668  28.848  1.00  0.00    -0.014 A 
ATOM     72  C   UNL A   1      49.290  26.870  27.708  1.00  0.00     0.009 A 
ATOM     73  C   UNL A   1      49.053  26.015  29.957  1.00  0.00     0.009 A 
ATOM     74  C   UNL A   1      50.601  26.391  27.667  1.00  0.00     0.001 A 
ATOM     75  C   UNL A   1      50.375  25.567  29.926  1.00  0.00     0.001 A 
ATOM     76  C   UNL A   1      51.144  25.744  28.778  1.00  0.00     0.000 A 
ENDBRANCH  57  71
BRANCH  58  77
ATOM     77  C   UNL A   1      38.883  29.366  29.285  1.00  0.00    -0.014 A 
ATOM     78  C   UNL A   1      38.123  29.038  30.416  1.00  0.00     0.009 A 
ATOM     79  C   UNL A   1      38.266  30.068  28.235  1.00  0.00     0.009 A 
ATOM     80  C   UNL A   1      36.770  29.380  30.485  1.00  0.00     0.001 A 
ATOM     81  C   UNL A   1      36.922  30.438  28.320  1.00  0.00     0.001 A 
ATOM     82  C   UNL A   1      36.173  30.084  29.440  1.00  0.00     0.000 A 
ENDBRANCH  58  77
BRANCH  70  83
ATOM     83  C   UNL A   1      44.870  32.612  30.768  1.00  0.00    -0.014 A 
ATOM     84  C   UNL A   1      45.058  33.678  29.875  1.00  0.00     0.009 A 
ATOM     85  C   UNL A   1      44.933  32.864  32.148  1.00  0.00     0.009 A 
ATOM     86  C   UNL A   1      45.341  34.959  30.354  1.00  0.00     0.001 A 
ATOM     87  C   UNL A   1      45.181  34.151  32.624  1.00  0.00     0.001 A 
ATOM     88  C   UNL A   1      45.396  35.195  31.727  1.00  0.00     0.000 A 
ENDBRANCH  70  83
ENDBRANCH  44  45
ENDBRANCH  37  39
ENDBRANCH  36  37
ENDBRANCH  35  36
ENDBRANCH  34  35
ENDBRANCH  33  34
ENDBRANCH   1  33
TORSDOF 18
ENDMDL
