MODEL 1
REMARK VINA RESULT:     -11.0      0.000      0.000
REMARK SMILES COc1ccc(NC2=[NH+]C(=O)/C(=C\c3ccccc3C(=O)OCCOCCOC(=O)c3ccc(-c4c5nc(c(-c6ccccc6)c6ccc([nH]6)c(-c6ccccc6)c6nc(c(-c7ccccc7)c7ccc4[nH]7)C=C6)C=C5)cc3)S2)cc1
REMARK SMILES IDX 24 1 23 2 22 3 20 4 21 5 19 6 14 7 15 8 16 9 18 10 17 11
REMARK SMILES IDX 13 12 7 13 8 14 9 16 79 17 10 18 12 20 11 21 6 22 3 23 4 24
REMARK SMILES IDX 81 25 5 26 80 27 2 28 1 29 25 30 26 31 27 32 28 33 29 34
REMARK SMILES IDX 30 35 31 36 32 37 78 38 33 39 77 40 34 41 35 42 36 43 71 44
REMARK SMILES IDX 37 45 76 46 70 47 72 48 38 49 75 50 69 51 68 52 39 54 61 55
REMARK SMILES IDX 46 56 60 57 47 58 50 59 59 60 73 61 48 62 49 63 58 65 74 66
REMARK SMILES IDX 51 67 40 68 41 69 45 70 42 71 44 72 43 73 62 74 63 75 67 76
REMARK SMILES IDX 64 77 66 78 65 79 52 80 53 81 57 82 54 83 56 84 55 85
REMARK H PARENT 7 15 9 19 72 53 50 64
REMARK Flexibility Score: inf
ROOT
ATOM      1  C   UNL A   1      33.994  28.326  23.725  1.00  0.00     0.202 C 
ENDROOT
BRANCH   1   2
ATOM      2  C   UNL A   1      33.599  26.883  23.402  1.00  0.00     0.261 C 
BRANCH   2   3
ATOM      3  O   UNL A   1      34.325  25.970  24.240  1.00  0.00    -0.460 OA
BRANCH   3   4
ATOM      4  C   UNL A   1      34.294  24.663  23.878  1.00  0.00     0.338 C 
ATOM      5  O   UNL A   1      34.442  24.236  22.744  1.00  0.00    -0.246 OA
BRANCH   4   6
ATOM      6  C   UNL A   1      34.242  23.780  25.079  1.00  0.00     0.067 A 
ATOM      7  C   UNL A   1      33.308  23.879  26.135  1.00  0.00    -0.010 A 
ATOM      8  C   UNL A   1      33.417  22.978  27.210  1.00  0.00     0.009 A 
ATOM      9  C   UNL A   1      34.432  22.016  27.250  1.00  0.00     0.001 A 
ATOM     10  C   UNL A   1      35.261  22.810  25.137  1.00  0.00     0.016 A 
ATOM     11  C   UNL A   1      35.362  21.940  26.220  1.00  0.00     0.001 A 
BRANCH   7  12
ATOM     12  C   UNL A   1      32.292  24.942  26.261  1.00  0.00     0.033 C 
ATOM     13  N   UNL A   1      28.559  26.838  23.391  1.00  0.00    -0.235 N 
ATOM     14  C   UNL A   1      29.462  26.052  24.042  1.00  0.00     0.322 C 
ATOM     15  H   UNL A   1      27.743  26.372  23.099  1.00  0.00     0.313 HD
ATOM     16  N   UNL A   1      29.701  24.832  23.678  1.00  0.00    -0.199 N 
ATOM     17  S   UNL A   1      30.289  26.578  25.496  1.00  0.00     0.006 SA
ATOM     18  C   UNL A   1      30.650  24.207  24.454  1.00  0.00     0.346 C 
ATOM     19  H   UNL A   1      29.250  24.395  22.920  1.00  0.00     0.316 HD
ATOM     20  C   UNL A   1      31.197  25.113  25.504  1.00  0.00     0.110 C 
ATOM     21  O   UNL A   1      31.005  23.043  24.309  1.00  0.00    -0.240 OA
BRANCH  13  22
ATOM     22  C   UNL A   1      28.600  28.206  23.065  1.00  0.00     0.125 A 
ATOM     23  C   UNL A   1      28.783  30.909  22.267  1.00  0.00     0.119 A 
ATOM     24  C   UNL A   1      27.659  30.446  22.943  1.00  0.00     0.051 A 
ATOM     25  C   UNL A   1      29.847  30.046  22.036  1.00  0.00     0.051 A 
ATOM     26  C   UNL A   1      27.550  29.098  23.308  1.00  0.00     0.055 A 
ATOM     27  C   UNL A   1      29.755  28.707  22.438  1.00  0.00     0.055 A 
BRANCH  23  28
ATOM     28  O   UNL A   1      28.797  32.231  21.917  1.00  0.00    -0.497 OA
ATOM     29  C   UNL A   1      28.772  33.100  23.051  1.00  0.00     0.278 C 
ENDBRANCH  23  28
ENDBRANCH  13  22
ENDBRANCH   7  12
ENDBRANCH   4   6
ENDBRANCH   3   4
ENDBRANCH   2   3
ENDBRANCH   1   2
BRANCH   1  30
ATOM     30  O   UNL A   1      32.940  29.288  23.692  1.00  0.00    -0.374 OA
BRANCH  30  31
ATOM     31  C   UNL A   1      32.362  29.688  24.932  1.00  0.00     0.202 C 
BRANCH  31  32
ATOM     32  C   UNL A   1      32.980  29.095  26.203  1.00  0.00     0.261 C 
BRANCH  32  33
ATOM     33  O   UNL A   1      34.349  29.481  26.415  1.00  0.00    -0.460 OA
BRANCH  33  34
ATOM     34  C   UNL A   1      34.546  30.266  27.504  1.00  0.00     0.338 C 
ATOM     35  O   UNL A   1      33.735  31.009  28.032  1.00  0.00    -0.246 OA
BRANCH  34  36
ATOM     36  C   UNL A   1      35.878  30.020  28.097  1.00  0.00     0.060 A 
ATOM     37  C   UNL A   1      36.982  30.081  27.241  1.00  0.00     0.016 A 
ATOM     38  C   UNL A   1      36.048  29.653  29.436  1.00  0.00     0.016 A 
ATOM     39  C   UNL A   1      38.253  29.756  27.714  1.00  0.00     0.010 A 
ATOM     40  C   UNL A   1      37.327  29.314  29.905  1.00  0.00     0.010 A 
ATOM     41  C   UNL A   1      38.436  29.352  29.045  1.00  0.00    -0.014 A 
BRANCH  41  42
ATOM     42  C   UNL A   1      39.779  28.879  29.473  1.00  0.00     0.031 A 
ATOM     43  C   UNL A   1      40.291  27.561  28.969  1.00  0.00     0.074 A 
ATOM     44  C   UNL A   1      40.572  29.633  30.257  1.00  0.00     0.049 A 
ATOM     45  N   UNL A   1      41.468  27.014  29.137  1.00  0.00    -0.248 NA
ATOM     46  C   UNL A   1      39.349  26.753  28.182  1.00  0.00     0.031 C 
ATOM     47  C   UNL A   1      40.206  30.934  30.794  1.00  0.00     0.029 A 
ATOM     48  N   UNL A   1      41.858  29.438  30.701  1.00  0.00    -0.354 N 
ATOM     49  C   UNL A   1      41.401  25.785  28.497  1.00  0.00     0.074 A 
ATOM     50  C   UNL A   1      40.077  25.678  27.919  1.00  0.00     0.031 C 
ATOM     51  C   UNL A   1      41.261  31.460  31.436  1.00  0.00     0.029 A 
ATOM     52  C   UNL A   1      42.374  30.518  31.381  1.00  0.00     0.049 A 
ATOM     53  H   UNL A   1      42.362  28.607  30.547  1.00  0.00     0.167 HD
ATOM     54  C   UNL A   1      42.343  24.816  28.426  1.00  0.00     0.031 A 
ATOM     55  C   UNL A   1      43.604  30.732  31.886  1.00  0.00     0.031 A 
ATOM     56  C   UNL A   1      43.635  24.884  29.052  1.00  0.00     0.049 A 
ATOM     57  C   UNL A   1      44.628  29.631  31.805  1.00  0.00     0.074 A 
ATOM     58  C   UNL A   1      44.632  23.924  29.076  1.00  0.00     0.029 A 
ATOM     59  N   UNL A   1      44.104  25.965  29.780  1.00  0.00    -0.354 N 
ATOM     60  N   UNL A   1      44.559  28.483  31.177  1.00  0.00    -0.248 NA
ATOM     61  C   UNL A   1      45.890  29.847  32.529  1.00  0.00     0.031 C 
ATOM     62  C   UNL A   1      45.682  24.403  29.866  1.00  0.00     0.029 A 
ATOM     63  C   UNL A   1      45.367  25.687  30.280  1.00  0.00     0.049 A 
ATOM     64  H   UNL A   1      43.613  26.807  29.923  1.00  0.00     0.167 HD
ATOM     65  C   UNL A   1      45.760  27.836  31.441  1.00  0.00     0.074 A 
ATOM     66  C   UNL A   1      46.561  28.741  32.238  1.00  0.00     0.031 C 
ATOM     67  C   UNL A   1      46.154  26.591  31.075  1.00  0.00     0.031 A 
BRANCH  54  68
ATOM     68  C   UNL A   1      41.958  23.553  27.714  1.00  0.00    -0.014 A 
ATOM     69  C   UNL A   1      41.226  22.543  28.358  1.00  0.00     0.009 A 
ATOM     70  C   UNL A   1      42.343  23.370  26.376  1.00  0.00     0.009 A 
ATOM     71  C   UNL A   1      40.917  21.360  27.684  1.00  0.00     0.001 A 
ATOM     72  C   UNL A   1      42.011  22.198  25.698  1.00  0.00     0.001 A 
ATOM     73  C   UNL A   1      41.307  21.191  26.354  1.00  0.00     0.000 A 
ENDBRANCH  54  68
BRANCH  55  74
ATOM     74  C   UNL A   1      43.957  32.028  32.531  1.00  0.00    -0.014 A 
ATOM     75  C   UNL A   1      43.668  32.245  33.890  1.00  0.00     0.009 A 
ATOM     76  C   UNL A   1      44.525  33.075  31.790  1.00  0.00     0.009 A 
ATOM     77  C   UNL A   1      43.910  33.489  34.480  1.00  0.00     0.001 A 
ATOM     78  C   UNL A   1      44.799  34.306  32.391  1.00  0.00     0.001 A 
ATOM     79  C   UNL A   1      44.478  34.517  33.730  1.00  0.00     0.000 A 
ENDBRANCH  55  74
BRANCH  67  80
ATOM     80  C   UNL A   1      47.513  26.135  31.527  1.00  0.00    -0.014 A 
ATOM     81  C   UNL A   1      48.649  26.327  30.724  1.00  0.00     0.009 A 
ATOM     82  C   UNL A   1      47.668  25.557  32.796  1.00  0.00     0.009 A 
ATOM     83  C   UNL A   1      49.908  25.920  31.172  1.00  0.00     0.001 A 
ATOM     84  C   UNL A   1      48.932  25.178  33.252  1.00  0.00     0.001 A 
ATOM     85  C   UNL A   1      50.049  25.352  32.437  1.00  0.00     0.000 A 
ENDBRANCH  67  80
ENDBRANCH  41  42
ENDBRANCH  34  36
ENDBRANCH  33  34
ENDBRANCH  32  33
ENDBRANCH  31  32
ENDBRANCH  30  31
ENDBRANCH   1  30
TORSDOF 17
ENDMDL
MODEL 2
REMARK VINA RESULT:     -10.9      1.340      5.714
REMARK SMILES COc1ccc(NC2=[NH+]C(=O)/C(=C\c3ccccc3C(=O)OCCOCCOC(=O)c3ccc(-c4c5nc(c(-c6ccccc6)c6ccc([nH]6)c(-c6ccccc6)c6nc(c(-c7ccccc7)c7ccc4[nH]7)C=C6)C=C5)cc3)S2)cc1
REMARK SMILES IDX 24 1 23 2 22 3 20 4 21 5 19 6 14 7 15 8 16 9 18 10 17 11
REMARK SMILES IDX 13 12 7 13 8 14 9 16 79 17 10 18 12 20 11 21 6 22 3 23 4 24
REMARK SMILES IDX 81 25 5 26 80 27 2 28 1 29 25 30 26 31 27 32 28 33 29 34
REMARK SMILES IDX 30 35 31 36 32 37 78 38 33 39 77 40 34 41 35 42 36 43 71 44
REMARK SMILES IDX 37 45 76 46 70 47 72 48 38 49 75 50 69 51 68 52 39 54 61 55
REMARK SMILES IDX 46 56 60 57 47 58 50 59 59 60 73 61 48 62 49 63 58 65 74 66
REMARK SMILES IDX 51 67 40 68 41 69 45 70 42 71 44 72 43 73 62 74 63 75 67 76
REMARK SMILES IDX 64 77 66 78 65 79 52 80 53 81 57 82 54 83 56 84 55 85
REMARK H PARENT 7 15 9 19 72 53 50 64
REMARK Flexibility Score: inf
ROOT
ATOM      1  C   UNL A   1      33.459  28.020  25.127  1.00  0.00     0.202 C 
ENDROOT
BRANCH   1   2
ATOM      2  C   UNL A   1      33.740  27.061  23.967  1.00  0.00     0.261 C 
BRANCH   2   3
ATOM      3  O   UNL A   1      34.617  26.006  24.397  1.00  0.00    -0.460 OA
BRANCH   3   4
ATOM      4  C   UNL A   1      34.362  24.771  23.899  1.00  0.00     0.338 C 
ATOM      5  O   UNL A   1      34.295  24.480  22.715  1.00  0.00    -0.246 OA
BRANCH   4   6
ATOM      6  C   UNL A   1      34.358  23.751  24.988  1.00  0.00     0.067 A 
ATOM      7  C   UNL A   1      33.399  23.652  26.021  1.00  0.00    -0.010 A 
ATOM      8  C   UNL A   1      33.560  22.641  26.987  1.00  0.00     0.009 A 
ATOM      9  C   UNL A   1      34.648  21.764  26.944  1.00  0.00     0.001 A 
ATOM     10  C   UNL A   1      35.451  22.863  24.962  1.00  0.00     0.016 A 
ATOM     11  C   UNL A   1      35.601  21.882  25.940  1.00  0.00     0.001 A 
BRANCH   7  12
ATOM     12  C   UNL A   1      32.298  24.610  26.241  1.00  0.00     0.033 C 
ATOM     13  N   UNL A   1      28.493  26.550  23.498  1.00  0.00    -0.235 N 
ATOM     14  C   UNL A   1      29.440  25.762  24.079  1.00  0.00     0.322 C 
ATOM     15  H   UNL A   1      27.723  26.061  23.126  1.00  0.00     0.313 HD
ATOM     16  N   UNL A   1      29.785  24.617  23.580  1.00  0.00    -0.199 N 
ATOM     17  S   UNL A   1      30.189  26.168  25.612  1.00  0.00     0.006 SA
ATOM     18  C   UNL A   1      30.763  23.977  24.305  1.00  0.00     0.346 C 
ATOM     19  H   UNL A   1      29.388  24.243  22.760  1.00  0.00     0.316 HD
ATOM     20  C   UNL A   1      31.211  24.787  25.474  1.00  0.00     0.110 C 
ATOM     21  O   UNL A   1      31.214  22.870  24.034  1.00  0.00    -0.240 OA
BRANCH  13  22
ATOM     22  C   UNL A   1      28.431  27.947  23.340  1.00  0.00     0.125 A 
ATOM     23  C   UNL A   1      28.452  30.738  22.914  1.00  0.00     0.119 A 
ATOM     24  C   UNL A   1      27.257  30.068  23.153  1.00  0.00     0.051 A 
ATOM     25  C   UNL A   1      29.650  30.034  22.944  1.00  0.00     0.051 A 
ATOM     26  C   UNL A   1      27.240  28.679  23.329  1.00  0.00     0.055 A 
ATOM     27  C   UNL A   1      29.636  28.650  23.160  1.00  0.00     0.055 A 
BRANCH  23  28
ATOM     28  O   UNL A   1      28.379  32.090  22.720  1.00  0.00    -0.497 OA
ATOM     29  C   UNL A   1      28.162  32.438  21.352  1.00  0.00     0.278 C 
ENDBRANCH  23  28
ENDBRANCH  13  22
ENDBRANCH   7  12
ENDBRANCH   4   6
ENDBRANCH   3   4
ENDBRANCH   2   3
ENDBRANCH   1   2
BRANCH   1  30
ATOM     30  O   UNL A   1      32.882  29.277  24.775  1.00  0.00    -0.374 OA
BRANCH  30  31
ATOM     31  C   UNL A   1      32.132  29.969  25.770  1.00  0.00     0.202 C 
BRANCH  31  32
ATOM     32  C   UNL A   1      32.843  30.246  27.101  1.00  0.00     0.261 C 
BRANCH  32  33
ATOM     33  O   UNL A   1      34.198  30.703  26.947  1.00  0.00    -0.460 OA
BRANCH  33  34
ATOM     34  C   UNL A   1      34.616  31.547  27.924  1.00  0.00     0.338 C 
ATOM     35  O   UNL A   1      34.059  32.563  28.307  1.00  0.00    -0.246 OA
BRANCH  34  36
ATOM     36  C   UNL A   1      35.816  31.014  28.603  1.00  0.00     0.060 A 
ATOM     37  C   UNL A   1      37.013  31.720  28.439  1.00  0.00     0.016 A 
ATOM     38  C   UNL A   1      35.804  29.809  29.313  1.00  0.00     0.016 A 
ATOM     39  C   UNL A   1      38.201  31.214  28.965  1.00  0.00     0.010 A 
ATOM     40  C   UNL A   1      37.005  29.297  29.830  1.00  0.00     0.010 A 
ATOM     41  C   UNL A   1      38.213  29.990  29.649  1.00  0.00    -0.014 A 
BRANCH  41  42
ATOM     42  C   UNL A   1      39.519  29.416  30.071  1.00  0.00     0.031 A 
ATOM     43  C   UNL A   1      40.164  29.907  31.334  1.00  0.00     0.074 A 
ATOM     44  C   UNL A   1      40.106  28.425  29.377  1.00  0.00     0.049 A 
ATOM     45  N   UNL A   1      41.243  29.470  31.932  1.00  0.00    -0.248 NA
ATOM     46  C   UNL A   1      39.512  31.041  32.003  1.00  0.00     0.031 C 
ATOM     47  C   UNL A   1      39.577  27.846  28.152  1.00  0.00     0.029 A 
ATOM     48  N   UNL A   1      41.248  27.700  29.622  1.00  0.00    -0.354 N 
ATOM     49  C   UNL A   1      41.415  30.294  33.036  1.00  0.00     0.074 A 
ATOM     50  C   UNL A   1      40.318  31.239  33.036  1.00  0.00     0.031 C 
ATOM     51  C   UNL A   1      40.346  26.809  27.784  1.00  0.00     0.029 A 
ATOM     52  C   UNL A   1      41.443  26.666  28.734  1.00  0.00     0.049 A 
ATOM     53  H   UNL A   1      41.867  27.900  30.361  1.00  0.00     0.167 HD
ATOM     54  C   UNL A   1      42.416  30.288  33.947  1.00  0.00     0.031 A 
ATOM     55  C   UNL A   1      42.386  25.705  28.699  1.00  0.00     0.031 A 
ATOM     56  C   UNL A   1      43.544  29.399  33.917  1.00  0.00     0.049 A 
ATOM     57  C   UNL A   1      43.495  25.732  29.717  1.00  0.00     0.074 A 
ATOM     58  C   UNL A   1      44.633  29.360  34.772  1.00  0.00     0.029 A 
ATOM     59  N   UNL A   1      43.742  28.404  32.974  1.00  0.00    -0.354 N 
ATOM     60  N   UNL A   1      43.632  26.501  30.768  1.00  0.00    -0.248 NA
ATOM     61  C   UNL A   1      44.594  24.773  29.525  1.00  0.00     0.031 C 
ATOM     62  C   UNL A   1      45.516  28.378  34.313  1.00  0.00     0.029 A 
ATOM     63  C   UNL A   1      44.947  27.761  33.211  1.00  0.00     0.049 A 
ATOM     64  H   UNL A   1      43.119  28.186  32.244  1.00  0.00     0.167 HD
ATOM     65  C   UNL A   1      44.837  26.130  31.353  1.00  0.00     0.074 A 
ATOM     66  C   UNL A   1      45.363  25.029  30.574  1.00  0.00     0.031 C 
ATOM     67  C   UNL A   1      45.463  26.670  32.427  1.00  0.00     0.031 A 
BRANCH  54  68
ATOM     68  C   UNL A   1      42.371  31.353  35.003  1.00  0.00    -0.014 A 
ATOM     69  C   UNL A   1      42.890  32.636  34.773  1.00  0.00     0.009 A 
ATOM     70  C   UNL A   1      41.803  31.059  36.254  1.00  0.00     0.009 A 
ATOM     71  C   UNL A   1      42.871  33.595  35.788  1.00  0.00     0.001 A 
ATOM     72  C   UNL A   1      41.762  32.027  37.257  1.00  0.00     0.001 A 
ATOM     73  C   UNL A   1      42.305  33.290  37.027  1.00  0.00     0.000 A 
ENDBRANCH  54  68
BRANCH  55  74
ATOM     74  C   UNL A   1      42.354  24.632  27.664  1.00  0.00    -0.014 A 
ATOM     75  C   UNL A   1      42.977  24.830  26.419  1.00  0.00     0.009 A 
ATOM     76  C   UNL A   1      41.656  23.436  27.883  1.00  0.00     0.009 A 
ATOM     77  C   UNL A   1      42.873  23.869  25.410  1.00  0.00     0.001 A 
ATOM     78  C   UNL A   1      41.585  22.461  26.885  1.00  0.00     0.001 A 
ATOM     79  C   UNL A   1      42.180  22.684  25.646  1.00  0.00     0.000 A 
ENDBRANCH  55  74
BRANCH  67  80
ATOM     80  C   UNL A   1      46.784  26.075  32.829  1.00  0.00    -0.014 A 
ATOM     81  C   UNL A   1      47.989  26.545  32.282  1.00  0.00     0.009 A 
ATOM     82  C   UNL A   1      46.829  25.069  33.806  1.00  0.00     0.009 A 
ATOM     83  C   UNL A   1      49.209  25.999  32.686  1.00  0.00     0.001 A 
ATOM     84  C   UNL A   1      48.052  24.545  34.229  1.00  0.00     0.001 A 
ATOM     85  C   UNL A   1      49.240  25.004  33.663  1.00  0.00     0.000 A 
ENDBRANCH  67  80
ENDBRANCH  41  42
ENDBRANCH  34  36
ENDBRANCH  33  34
ENDBRANCH  32  33
ENDBRANCH  31  32
ENDBRANCH  30  31
ENDBRANCH   1  30
TORSDOF 17
ENDMDL
MODEL 3
REMARK VINA RESULT:     -10.8      3.216      6.006
REMARK SMILES COc1ccc(NC2=[NH+]C(=O)/C(=C\c3ccccc3C(=O)OCCOCCOC(=O)c3ccc(-c4c5nc(c(-c6ccccc6)c6ccc([nH]6)c(-c6ccccc6)c6nc(c(-c7ccccc7)c7ccc4[nH]7)C=C6)C=C5)cc3)S2)cc1
REMARK SMILES IDX 24 1 23 2 22 3 20 4 21 5 19 6 14 7 15 8 16 9 18 10 17 11
REMARK SMILES IDX 13 12 7 13 8 14 9 16 79 17 10 18 12 20 11 21 6 22 3 23 4 24
REMARK SMILES IDX 81 25 5 26 80 27 2 28 1 29 25 30 26 31 27 32 28 33 29 34
REMARK SMILES IDX 30 35 31 36 32 37 78 38 33 39 77 40 34 41 35 42 36 43 71 44
REMARK SMILES IDX 37 45 76 46 70 47 72 48 38 49 75 50 69 51 68 52 39 54 61 55
REMARK SMILES IDX 46 56 60 57 47 58 50 59 59 60 73 61 48 62 49 63 58 65 74 66
REMARK SMILES IDX 51 67 40 68 41 69 45 70 42 71 44 72 43 73 62 74 63 75 67 76
REMARK SMILES IDX 64 77 66 78 65 79 52 80 53 81 57 82 54 83 56 84 55 85
REMARK H PARENT 7 15 9 19 72 53 50 64
REMARK Flexibility Score: inf
ROOT
ATOM      1  C   UNL A   1      34.478  31.396  27.623  1.00  0.00     0.202 C 
ENDROOT
BRANCH   1   2
ATOM      2  C   UNL A   1      33.005  31.145  27.288  1.00  0.00     0.261 C 
BRANCH   2   3
ATOM      3  O   UNL A   1      32.894  30.159  26.248  1.00  0.00    -0.460 OA
BRANCH   3   4
ATOM      4  C   UNL A   1      32.086  29.101  26.505  1.00  0.00     0.338 C 
ATOM      5  O   UNL A   1      31.927  28.574  27.594  1.00  0.00    -0.246 OA
BRANCH   4   6
ATOM      6  C   UNL A   1      31.254  28.767  25.312  1.00  0.00     0.067 A 
ATOM      7  C   UNL A   1      30.892  27.465  24.898  1.00  0.00    -0.010 A 
ATOM      8  C   UNL A   1      30.122  27.326  23.729  1.00  0.00     0.009 A 
ATOM      9  C   UNL A   1      29.735  28.441  22.978  1.00  0.00     0.001 A 
ATOM     10  C   UNL A   1      30.863  29.879  24.542  1.00  0.00     0.016 A 
ATOM     11  C   UNL A   1      30.116  29.717  23.377  1.00  0.00     0.001 A 
BRANCH   7  12
ATOM     12  C   UNL A   1      31.364  26.219  25.533  1.00  0.00     0.033 C 
ATOM     13  N   UNL A   1      34.627  22.503  24.388  1.00  0.00    -0.235 N 
ATOM     14  C   UNL A   1      33.974  23.685  24.564  1.00  0.00     0.322 C 
ATOM     15  H   UNL A   1      35.603  22.583  24.287  1.00  0.00     0.313 HD
ATOM     16  N   UNL A   1      34.310  24.760  23.924  1.00  0.00    -0.199 N 
ATOM     17  S   UNL A   1      32.702  23.887  25.754  1.00  0.00     0.006 SA
ATOM     18  C   UNL A   1      33.526  25.848  24.231  1.00  0.00     0.346 C 
ATOM     19  H   UNL A   1      35.054  24.795  23.280  1.00  0.00     0.316 HD
ATOM     20  C   UNL A   1      32.450  25.502  25.205  1.00  0.00     0.110 C 
ATOM     21  O   UNL A   1      33.687  26.971  23.770  1.00  0.00    -0.240 OA
BRANCH  13  22
ATOM     22  C   UNL A   1      34.139  21.185  24.325  1.00  0.00     0.125 A 
ATOM     23  C   UNL A   1      33.249  18.504  24.351  1.00  0.00     0.119 A 
ATOM     24  C   UNL A   1      32.456  19.507  23.803  1.00  0.00     0.051 A 
ATOM     25  C   UNL A   1      34.513  18.819  24.836  1.00  0.00     0.051 A 
ATOM     26  C   UNL A   1      32.880  20.842  23.820  1.00  0.00     0.055 A 
ATOM     27  C   UNL A   1      34.953  20.149  24.817  1.00  0.00     0.055 A 
BRANCH  23  28
ATOM     28  O   UNL A   1      32.749  17.232  24.323  1.00  0.00    -0.497 OA
ATOM     29  C   UNL A   1      33.428  16.354  25.224  1.00  0.00     0.278 C 
ENDBRANCH  23  28
ENDBRANCH  13  22
ENDBRANCH   7  12
ENDBRANCH   4   6
ENDBRANCH   3   4
ENDBRANCH   2   3
ENDBRANCH   1   2
BRANCH   1  30
ATOM     30  O   UNL A   1      34.822  32.736  27.972  1.00  0.00    -0.374 OA
BRANCH  30  31
ATOM     31  C   UNL A   1      34.114  33.350  29.046  1.00  0.00     0.202 C 
BRANCH  31  32
ATOM     32  C   UNL A   1      34.783  33.308  30.425  1.00  0.00     0.261 C 
BRANCH  32  33
ATOM     33  O   UNL A   1      35.001  31.976  30.922  1.00  0.00    -0.460 OA
BRANCH  33  34
ATOM     34  C   UNL A   1      36.035  31.867  31.792  1.00  0.00     0.338 C 
ATOM     35  O   UNL A   1      36.033  32.153  32.978  1.00  0.00    -0.246 OA
BRANCH  34  36
ATOM     36  C   UNL A   1      37.195  31.210  31.152  1.00  0.00     0.060 A 
ATOM     37  C   UNL A   1      38.174  30.672  31.995  1.00  0.00     0.016 A 
ATOM     38  C   UNL A   1      37.375  31.189  29.765  1.00  0.00     0.016 A 
ATOM     39  C   UNL A   1      39.342  30.135  31.455  1.00  0.00     0.010 A 
ATOM     40  C   UNL A   1      38.559  30.658  29.227  1.00  0.00     0.010 A 
ATOM     41  C   UNL A   1      39.555  30.138  30.069  1.00  0.00    -0.014 A 
BRANCH  41  42
ATOM     42  C   UNL A   1      40.870  29.685  29.543  1.00  0.00     0.031 A 
ATOM     43  C   UNL A   1      41.007  28.290  29.007  1.00  0.00     0.074 A 
ATOM     44  C   UNL A   1      41.926  30.517  29.484  1.00  0.00     0.049 A 
ATOM     45  N   UNL A   1      42.030  27.732  28.411  1.00  0.00    -0.248 NA
ATOM     46  C   UNL A   1      39.842  27.410  29.171  1.00  0.00     0.031 C 
ATOM     47  C   UNL A   1      41.920  31.895  29.948  1.00  0.00     0.029 A 
ATOM     48  N   UNL A   1      43.189  30.343  28.970  1.00  0.00    -0.354 N 
ATOM     49  C   UNL A   1      41.642  26.425  28.152  1.00  0.00     0.074 A 
ATOM     50  C   UNL A   1      40.283  26.282  28.633  1.00  0.00     0.031 C 
ATOM     51  C   UNL A   1      43.093  32.471  29.639  1.00  0.00     0.029 A 
ATOM     52  C   UNL A   1      43.947  31.492  28.977  1.00  0.00     0.049 A 
ATOM     53  H   UNL A   1      43.519  29.481  28.629  1.00  0.00     0.167 HD
ATOM     54  C   UNL A   1      42.362  25.423  27.596  1.00  0.00     0.031 A 
ATOM     55  C   UNL A   1      45.180  31.733  28.492  1.00  0.00     0.031 A 
ATOM     56  C   UNL A   1      43.732  25.536  27.177  1.00  0.00     0.049 A 
ATOM     57  C   UNL A   1      45.964  30.596  27.891  1.00  0.00     0.074 A 
ATOM     58  C   UNL A   1      44.557  24.555  26.653  1.00  0.00     0.029 A 
ATOM     59  N   UNL A   1      44.488  26.695  27.251  1.00  0.00    -0.354 N 
ATOM     60  N   UNL A   1      45.576  29.372  27.631  1.00  0.00    -0.248 NA
ATOM     61  C   UNL A   1      47.367  30.870  27.544  1.00  0.00     0.031 C 
ATOM     62  C   UNL A   1      45.827  25.106  26.461  1.00  0.00     0.029 A 
ATOM     63  C   UNL A   1      45.777  26.447  26.805  1.00  0.00     0.049 A 
ATOM     64  H   UNL A   1      44.159  27.565  27.573  1.00  0.00     0.167 HD
ATOM     65  C   UNL A   1      46.689  28.728  27.103  1.00  0.00     0.074 A 
ATOM     66  C   UNL A   1      47.749  29.710  27.028  1.00  0.00     0.031 C 
ATOM     67  C   UNL A   1      46.826  27.430  26.737  1.00  0.00     0.031 A 
BRANCH  54  68
ATOM     68  C   UNL A   1      41.693  24.084  27.503  1.00  0.00    -0.014 A 
ATOM     69  C   UNL A   1      40.616  23.862  26.631  1.00  0.00     0.009 A 
ATOM     70  C   UNL A   1      42.149  23.028  28.308  1.00  0.00     0.009 A 
ATOM     71  C   UNL A   1      39.986  22.616  26.594  1.00  0.00     0.001 A 
ATOM     72  C   UNL A   1      41.534  21.777  28.250  1.00  0.00     0.001 A 
ATOM     73  C   UNL A   1      40.448  21.576  27.401  1.00  0.00     0.000 A 
ENDBRANCH  54  68
BRANCH  55  74
ATOM     74  C   UNL A   1      45.779  33.097  28.554  1.00  0.00    -0.014 A 
ATOM     75  C   UNL A   1      45.566  34.013  27.509  1.00  0.00     0.009 A 
ATOM     76  C   UNL A   1      46.612  33.473  29.619  1.00  0.00     0.009 A 
ATOM     77  C   UNL A   1      46.199  35.259  27.515  1.00  0.00     0.001 A 
ATOM     78  C   UNL A   1      47.214  34.733  29.640  1.00  0.00     0.001 A 
ATOM     79  C   UNL A   1      47.020  35.619  28.582  1.00  0.00     0.000 A 
ENDBRANCH  55  74
BRANCH  67  80
ATOM     80  C   UNL A   1      48.168  26.997  26.215  1.00  0.00    -0.014 A 
ATOM     81  C   UNL A   1      49.165  26.519  27.080  1.00  0.00     0.009 A 
ATOM     82  C   UNL A   1      48.418  27.015  24.835  1.00  0.00     0.009 A 
ATOM     83  C   UNL A   1      50.397  26.097  26.575  1.00  0.00     0.001 A 
ATOM     84  C   UNL A   1      49.639  26.565  24.330  1.00  0.00     0.001 A 
ATOM     85  C   UNL A   1      50.630  26.114  25.201  1.00  0.00     0.000 A 
ENDBRANCH  67  80
ENDBRANCH  41  42
ENDBRANCH  34  36
ENDBRANCH  33  34
ENDBRANCH  32  33
ENDBRANCH  31  32
ENDBRANCH  30  31
ENDBRANCH   1  30
TORSDOF 17
ENDMDL
