MODEL 1
REMARK VINA RESULT:     -10.7      0.000      0.000
REMARK SMILES CC(C)c1nc(C(=O)OCCOCCOC(=O)c2ccc(-c3c4nc(c(-c5ccccc5)c5ccc([nH]5)c(-c5ccccc5)c5nc(c(-c6ccccc6)c6ccc3[nH]6)C=C5)C=C4)cc2)nn1-c1ccccc1F
REMARK SMILES IDX 13 1 12 2 11 3 10 4 9 5 7 6 8 7 6 8 4 9 5 10 67 11 66 12
REMARK SMILES IDX 2 13 1 14 3 15 68 16 69 17 73 18 70 19 72 20 74 21 71 22
REMARK SMILES IDX 14 23 15 24 16 25 17 26 18 27 19 28 65 29 20 30 64 31 21 32
REMARK SMILES IDX 22 33 23 34 58 35 24 36 63 37 57 38 59 39 25 40 62 41 56 42
REMARK SMILES IDX 55 43 26 45 48 46 33 47 47 48 34 49 37 50 46 51 60 52 35 53
REMARK SMILES IDX 36 54 45 56 61 57 38 58 27 59 28 60 32 61 29 62 31 63 30 64
REMARK SMILES IDX 49 65 50 66 54 67 51 68 53 69 52 70 39 71 40 72 44 73 41 74
REMARK SMILES IDX 43 75 42 76
REMARK H PARENT 59 44 37 55
REMARK Flexibility Score: inf
ROOT
ATOM      1  C   UNL A   1      42.445  19.487  26.595  1.00  0.00     0.202 C 
ENDROOT
BRANCH   1   2
ATOM      2  O   UNL A   1      41.912  20.763  26.254  1.00  0.00    -0.374 OA
BRANCH   2   3
ATOM      3  C   UNL A   1      40.588  20.863  25.732  1.00  0.00     0.202 C 
BRANCH   3   4
ATOM      4  C   UNL A   1      39.592  21.752  26.478  1.00  0.00     0.261 C 
BRANCH   4   5
ATOM      5  O   UNL A   1      38.436  22.069  25.687  1.00  0.00    -0.457 OA
BRANCH   5   6
ATOM      6  C   UNL A   1      37.752  23.200  26.056  1.00  0.00     0.378 C 
ATOM      7  O   UNL A   1      38.272  24.177  26.583  1.00  0.00    -0.242 OA
BRANCH   6   8
ATOM      8  C   UNL A   1      36.335  23.155  25.651  1.00  0.00     0.260 A 
ATOM      9  C   UNL A   1      34.410  22.341  25.152  1.00  0.00     0.136 A 
ATOM     10  N   UNL A   1      35.573  22.010  25.695  1.00  0.00    -0.205 NA
ATOM     11  N   UNL A   1      34.452  23.703  24.864  1.00  0.00    -0.214 N 
ATOM     12  N   UNL A   1      35.674  24.209  25.159  1.00  0.00    -0.138 NA
BRANCH   9  13
ATOM     13  C   UNL A   1      33.428  21.300  24.640  1.00  0.00     0.051 C 
ATOM     14  C   UNL A   1      33.972  19.880  24.891  1.00  0.00     0.016 C 
ATOM     15  C   UNL A   1      32.016  21.349  25.204  1.00  0.00     0.016 C 
ENDBRANCH   9  13
BRANCH  11  16
ATOM     16  C   UNL A   1      33.558  24.528  24.166  1.00  0.00     0.102 A 
ATOM     17  C   UNL A   1      33.566  24.491  22.765  1.00  0.00     0.031 A 
ATOM     18  C   UNL A   1      32.751  25.442  24.831  1.00  0.00     0.148 A 
ATOM     19  C   UNL A   1      32.683  25.297  22.048  1.00  0.00     0.002 A 
ATOM     20  C   UNL A   1      31.866  26.244  24.117  1.00  0.00     0.041 A 
ATOM     21  F   UNL A   1      32.844  25.608  26.157  1.00  0.00    -0.205 F 
ATOM     22  C   UNL A   1      31.821  26.160  22.725  1.00  0.00     0.003 A 
ENDBRANCH  11  16
ENDBRANCH   6   8
ENDBRANCH   5   6
ENDBRANCH   4   5
ENDBRANCH   3   4
ENDBRANCH   2   3
ENDBRANCH   1   2
BRANCH   1  23
ATOM     23  C   UNL A   1      43.428  18.844  25.629  1.00  0.00     0.261 C 
BRANCH  23  24
ATOM     24  O   UNL A   1      43.589  19.602  24.440  1.00  0.00    -0.460 OA
BRANCH  24  25
ATOM     25  C   UNL A   1      44.877  19.867  24.121  1.00  0.00     0.338 C 
ATOM     26  O   UNL A   1      45.745  19.073  23.820  1.00  0.00    -0.246 OA
BRANCH  25  27
ATOM     27  C   UNL A   1      45.123  21.289  24.397  1.00  0.00     0.060 A 
ATOM     28  C   UNL A   1      46.014  21.564  25.435  1.00  0.00     0.016 A 
ATOM     29  C   UNL A   1      44.255  22.265  23.881  1.00  0.00     0.016 A 
ATOM     30  C   UNL A   1      45.851  22.741  26.126  1.00  0.00     0.010 A 
ATOM     31  C   UNL A   1      44.088  23.435  24.578  1.00  0.00     0.010 A 
ATOM     32  C   UNL A   1      44.816  23.608  25.748  1.00  0.00    -0.014 A 
BRANCH  32  33
ATOM     33  C   UNL A   1      44.577  24.767  26.573  1.00  0.00     0.031 A 
ATOM     34  C   UNL A   1      45.648  25.775  26.440  1.00  0.00     0.074 A 
ATOM     35  C   UNL A   1      43.474  24.925  27.327  1.00  0.00     0.049 A 
ATOM     36  N   UNL A   1      46.557  26.057  27.309  1.00  0.00    -0.248 NA
ATOM     37  C   UNL A   1      45.851  26.391  25.121  1.00  0.00     0.031 C 
ATOM     38  C   UNL A   1      42.240  24.138  27.341  1.00  0.00     0.029 A 
ATOM     39  N   UNL A   1      43.203  25.924  28.204  1.00  0.00    -0.354 N 
ATOM     40  C   UNL A   1      47.345  27.034  26.718  1.00  0.00     0.074 A 
ATOM     41  C   UNL A   1      46.983  27.064  25.323  1.00  0.00     0.031 C 
ATOM     42  C   UNL A   1      41.276  24.832  27.996  1.00  0.00     0.029 A 
ATOM     43  C   UNL A   1      41.869  26.030  28.569  1.00  0.00     0.049 A 
ATOM     44  H   UNL A   1      43.899  26.527  28.554  1.00  0.00     0.167 HD
ATOM     45  C   UNL A   1      48.042  27.921  27.475  1.00  0.00     0.031 A 
ATOM     46  C   UNL A   1      41.308  27.069  29.238  1.00  0.00     0.031 A 
ATOM     47  C   UNL A   1      48.162  27.477  28.840  1.00  0.00     0.049 A 
ATOM     48  C   UNL A   1      42.407  27.798  29.919  1.00  0.00     0.074 A 
ATOM     49  C   UNL A   1      48.742  26.388  29.457  1.00  0.00     0.029 A 
ATOM     50  N   UNL A   1      47.266  27.997  29.743  1.00  0.00    -0.354 N 
ATOM     51  N   UNL A   1      43.098  27.290  30.901  1.00  0.00    -0.248 NA
ATOM     52  C   UNL A   1      43.052  28.885  29.197  1.00  0.00     0.031 C 
ATOM     53  C   UNL A   1      47.834  26.029  30.495  1.00  0.00     0.029 A 
ATOM     54  C   UNL A   1      46.794  26.960  30.505  1.00  0.00     0.049 A 
ATOM     55  H   UNL A   1      47.010  28.944  29.829  1.00  0.00     0.167 HD
ATOM     56  C   UNL A   1      44.407  27.671  30.644  1.00  0.00     0.074 A 
ATOM     57  C   UNL A   1      44.307  28.721  29.630  1.00  0.00     0.031 C 
ATOM     58  C   UNL A   1      45.458  26.904  31.058  1.00  0.00     0.031 A 
BRANCH  45  59
ATOM     59  C   UNL A   1      48.202  29.366  27.088  1.00  0.00    -0.014 A 
ATOM     60  C   UNL A   1      49.484  29.937  27.142  1.00  0.00     0.009 A 
ATOM     61  C   UNL A   1      47.115  30.254  26.963  1.00  0.00     0.009 A 
ATOM     62  C   UNL A   1      49.659  31.325  27.155  1.00  0.00     0.001 A 
ATOM     63  C   UNL A   1      47.289  31.638  26.934  1.00  0.00     0.001 A 
ATOM     64  C   UNL A   1      48.561  32.174  27.061  1.00  0.00     0.000 A 
ENDBRANCH  45  59
BRANCH  46  65
ATOM     65  C   UNL A   1      39.970  27.675  29.046  1.00  0.00    -0.014 A 
ATOM     66  C   UNL A   1      39.070  27.794  30.118  1.00  0.00     0.009 A 
ATOM     67  C   UNL A   1      39.691  28.406  27.878  1.00  0.00     0.009 A 
ATOM     68  C   UNL A   1      37.953  28.640  30.035  1.00  0.00     0.001 A 
ATOM     69  C   UNL A   1      38.578  29.252  27.794  1.00  0.00     0.001 A 
ATOM     70  C   UNL A   1      37.716  29.380  28.879  1.00  0.00     0.000 A 
ENDBRANCH  46  65
BRANCH  58  71
ATOM     71  C   UNL A   1      45.176  25.747  31.984  1.00  0.00    -0.014 A 
ATOM     72  C   UNL A   1      45.226  25.848  33.386  1.00  0.00     0.009 A 
ATOM     73  C   UNL A   1      44.661  24.572  31.419  1.00  0.00     0.009 A 
ATOM     74  C   UNL A   1      44.780  24.795  34.194  1.00  0.00     0.001 A 
ATOM     75  C   UNL A   1      44.198  23.530  32.225  1.00  0.00     0.001 A 
ATOM     76  C   UNL A   1      44.259  23.641  33.612  1.00  0.00     0.000 A 
ENDBRANCH  58  71
ENDBRANCH  32  33
ENDBRANCH  25  27
ENDBRANCH  24  25
ENDBRANCH  23  24
ENDBRANCH   1  23
TORSDOF 16
ENDMDL
MODEL 2
REMARK VINA RESULT:     -10.2      3.510      8.267
REMARK SMILES CC(C)c1nc(C(=O)OCCOCCOC(=O)c2ccc(-c3c4nc(c(-c5ccccc5)c5ccc([nH]5)c(-c5ccccc5)c5nc(c(-c6ccccc6)c6ccc3[nH]6)C=C5)C=C4)cc2)nn1-c1ccccc1F
REMARK SMILES IDX 13 1 12 2 11 3 10 4 9 5 7 6 8 7 6 8 4 9 5 10 67 11 66 12
REMARK SMILES IDX 2 13 1 14 3 15 68 16 69 17 73 18 70 19 72 20 74 21 71 22
REMARK SMILES IDX 14 23 15 24 16 25 17 26 18 27 19 28 65 29 20 30 64 31 21 32
REMARK SMILES IDX 22 33 23 34 58 35 24 36 63 37 57 38 59 39 25 40 62 41 56 42
REMARK SMILES IDX 55 43 26 45 48 46 33 47 47 48 34 49 37 50 46 51 60 52 35 53
REMARK SMILES IDX 36 54 45 56 61 57 38 58 27 59 28 60 32 61 29 62 31 63 30 64
REMARK SMILES IDX 49 65 50 66 54 67 51 68 53 69 52 70 39 71 40 72 44 73 41 74
REMARK SMILES IDX 43 75 42 76
REMARK H PARENT 59 44 37 55
REMARK Flexibility Score: inf
ROOT
ATOM      1  C   UNL A   1      33.539  30.691  27.299  1.00  0.00     0.202 C 
ENDROOT
BRANCH   1   2
ATOM      2  O   UNL A   1      34.020  29.388  27.612  1.00  0.00    -0.374 OA
BRANCH   2   3
ATOM      3  C   UNL A   1      34.079  28.389  26.595  1.00  0.00     0.202 C 
BRANCH   3   4
ATOM      4  C   UNL A   1      32.786  27.648  26.246  1.00  0.00     0.261 C 
BRANCH   4   5
ATOM      5  O   UNL A   1      33.030  26.381  25.617  1.00  0.00    -0.457 OA
BRANCH   5   6
ATOM      6  C   UNL A   1      32.415  25.299  26.196  1.00  0.00     0.378 C 
ATOM      7  O   UNL A   1      31.376  25.363  26.843  1.00  0.00    -0.242 OA
BRANCH   6   8
ATOM      8  C   UNL A   1      33.087  24.029  25.867  1.00  0.00     0.260 A 
ATOM      9  C   UNL A   1      34.658  22.666  25.326  1.00  0.00     0.136 A 
ATOM     10  N   UNL A   1      34.453  23.909  25.734  1.00  0.00    -0.205 NA
ATOM     11  N   UNL A   1      33.423  22.022  25.298  1.00  0.00    -0.214 N 
ATOM     12  N   UNL A   1      32.432  22.890  25.618  1.00  0.00    -0.138 NA
BRANCH   9  13
ATOM     13  C   UNL A   1      35.962  22.228  24.679  1.00  0.00     0.051 C 
ATOM     14  C   UNL A   1      36.147  22.927  23.318  1.00  0.00     0.016 C 
ATOM     15  C   UNL A   1      37.237  22.453  25.478  1.00  0.00     0.016 C 
ENDBRANCH   9  13
BRANCH  11  16
ATOM     16  C   UNL A   1      33.050  20.758  24.817  1.00  0.00     0.102 A 
ATOM     17  C   UNL A   1      33.199  19.649  25.660  1.00  0.00     0.031 A 
ATOM     18  C   UNL A   1      32.637  20.580  23.503  1.00  0.00     0.148 A 
ATOM     19  C   UNL A   1      32.829  18.384  25.207  1.00  0.00     0.002 A 
ATOM     20  C   UNL A   1      32.264  19.318  23.050  1.00  0.00     0.041 A 
ATOM     21  F   UNL A   1      32.642  21.600  22.633  1.00  0.00    -0.205 F 
ATOM     22  C   UNL A   1      32.345  18.221  23.909  1.00  0.00     0.003 A 
ENDBRANCH  11  16
ENDBRANCH   6   8
ENDBRANCH   5   6
ENDBRANCH   4   5
ENDBRANCH   3   4
ENDBRANCH   2   3
ENDBRANCH   1   2
BRANCH   1  23
ATOM     23  C   UNL A   1      34.363  31.884  27.758  1.00  0.00     0.261 C 
BRANCH  23  24
ATOM     24  O   UNL A   1      35.758  31.626  27.710  1.00  0.00    -0.460 OA
BRANCH  24  25
ATOM     25  C   UNL A   1      36.489  32.365  28.577  1.00  0.00     0.338 C 
ATOM     26  O   UNL A   1      36.618  33.572  28.597  1.00  0.00    -0.246 OA
BRANCH  25  27
ATOM     27  C   UNL A   1      37.285  31.439  29.393  1.00  0.00     0.060 A 
ATOM     28  C   UNL A   1      38.586  31.850  29.688  1.00  0.00     0.016 A 
ATOM     29  C   UNL A   1      36.871  30.108  29.552  1.00  0.00     0.016 A 
ATOM     30  C   UNL A   1      39.536  30.878  29.893  1.00  0.00     0.010 A 
ATOM     31  C   UNL A   1      37.822  29.138  29.747  1.00  0.00     0.010 A 
ATOM     32  C   UNL A   1      39.152  29.532  29.812  1.00  0.00    -0.014 A 
BRANCH  32  33
ATOM     33  C   UNL A   1      40.190  28.532  29.892  1.00  0.00     0.031 A 
ATOM     34  C   UNL A   1      40.725  28.396  31.261  1.00  0.00     0.074 A 
ATOM     35  C   UNL A   1      40.574  27.778  28.847  1.00  0.00     0.049 A 
ATOM     36  N   UNL A   1      41.875  28.796  31.685  1.00  0.00    -0.248 NA
ATOM     37  C   UNL A   1      39.806  27.949  32.317  1.00  0.00     0.031 C 
ATOM     38  C   UNL A   1      39.952  27.633  27.529  1.00  0.00     0.029 A 
ATOM     39  N   UNL A   1      41.597  26.888  28.795  1.00  0.00    -0.354 N 
ATOM     40  C   UNL A   1      41.904  28.477  33.035  1.00  0.00     0.074 A 
ATOM     41  C   UNL A   1      40.554  28.135  33.404  1.00  0.00     0.031 C 
ATOM     42  C   UNL A   1      40.464  26.538  26.913  1.00  0.00     0.029 A 
ATOM     43  C   UNL A   1      41.545  26.006  27.727  1.00  0.00     0.049 A 
ATOM     44  H   UNL A   1      42.319  26.870  29.464  1.00  0.00     0.167 HD
ATOM     45  C   UNL A   1      43.082  28.265  33.677  1.00  0.00     0.031 A 
ATOM     46  C   UNL A   1      42.305  24.891  27.578  1.00  0.00     0.031 A 
ATOM     47  C   UNL A   1      44.198  28.780  32.926  1.00  0.00     0.049 A 
ATOM     48  C   UNL A   1      43.489  25.045  28.460  1.00  0.00     0.074 A 
ATOM     49  C   UNL A   1      44.579  30.034  32.494  1.00  0.00     0.029 A 
ATOM     50  N   UNL A   1      44.897  27.880  32.156  1.00  0.00    -0.354 N 
ATOM     51  N   UNL A   1      44.417  25.937  28.257  1.00  0.00    -0.248 NA
ATOM     52  C   UNL A   1      43.391  24.544  29.823  1.00  0.00     0.031 C 
ATOM     53  C   UNL A   1      45.112  29.824  31.189  1.00  0.00     0.029 A 
ATOM     54  C   UNL A   1      45.099  28.453  30.927  1.00  0.00     0.049 A 
ATOM     55  H   UNL A   1      45.199  26.986  32.437  1.00  0.00     0.167 HD
ATOM     56  C   UNL A   1      44.714  26.431  29.519  1.00  0.00     0.074 A 
ATOM     57  C   UNL A   1      44.114  25.477  30.453  1.00  0.00     0.031 C 
ATOM     58  C   UNL A   1      45.163  27.709  29.689  1.00  0.00     0.031 A 
BRANCH  45  59
ATOM     59  C   UNL A   1      43.250  27.205  34.732  1.00  0.00    -0.014 A 
ATOM     60  C   UNL A   1      43.198  25.857  34.341  1.00  0.00     0.009 A 
ATOM     61  C   UNL A   1      43.157  27.471  36.113  1.00  0.00     0.009 A 
ATOM     62  C   UNL A   1      42.981  24.840  35.276  1.00  0.00     0.001 A 
ATOM     63  C   UNL A   1      42.982  26.454  37.052  1.00  0.00     0.001 A 
ATOM     64  C   UNL A   1      42.863  25.141  36.629  1.00  0.00     0.000 A 
ENDBRANCH  45  59
BRANCH  46  65
ATOM     65  C   UNL A   1      41.915  23.576  27.018  1.00  0.00    -0.014 A 
ATOM     66  C   UNL A   1      42.797  22.847  26.204  1.00  0.00     0.009 A 
ATOM     67  C   UNL A   1      40.789  22.902  27.525  1.00  0.00     0.009 A 
ATOM     68  C   UNL A   1      42.579  21.486  25.938  1.00  0.00     0.001 A 
ATOM     69  C   UNL A   1      40.572  21.544  27.262  1.00  0.00     0.001 A 
ATOM     70  C   UNL A   1      41.475  20.832  26.480  1.00  0.00     0.000 A 
ENDBRANCH  46  65
BRANCH  58  71
ATOM     71  C   UNL A   1      45.532  28.504  28.460  1.00  0.00    -0.014 A 
ATOM     72  C   UNL A   1      44.613  29.287  27.741  1.00  0.00     0.009 A 
ATOM     73  C   UNL A   1      46.893  28.608  28.137  1.00  0.00     0.009 A 
ATOM     74  C   UNL A   1      45.047  30.142  26.720  1.00  0.00     0.001 A 
ATOM     75  C   UNL A   1      47.328  29.476  27.134  1.00  0.00     0.001 A 
ATOM     76  C   UNL A   1      46.405  30.241  26.424  1.00  0.00     0.000 A 
ENDBRANCH  58  71
ENDBRANCH  32  33
ENDBRANCH  25  27
ENDBRANCH  24  25
ENDBRANCH  23  24
ENDBRANCH   1  23
TORSDOF 16
ENDMDL
MODEL 3
REMARK VINA RESULT:     -10.0      4.097      8.194
REMARK SMILES CC(C)c1nc(C(=O)OCCOCCOC(=O)c2ccc(-c3c4nc(c(-c5ccccc5)c5ccc([nH]5)c(-c5ccccc5)c5nc(c(-c6ccccc6)c6ccc3[nH]6)C=C5)C=C4)cc2)nn1-c1ccccc1F
REMARK SMILES IDX 13 1 12 2 11 3 10 4 9 5 7 6 8 7 6 8 4 9 5 10 67 11 66 12
REMARK SMILES IDX 2 13 1 14 3 15 68 16 69 17 73 18 70 19 72 20 74 21 71 22
REMARK SMILES IDX 14 23 15 24 16 25 17 26 18 27 19 28 65 29 20 30 64 31 21 32
REMARK SMILES IDX 22 33 23 34 58 35 24 36 63 37 57 38 59 39 25 40 62 41 56 42
REMARK SMILES IDX 55 43 26 45 48 46 33 47 47 48 34 49 37 50 46 51 60 52 35 53
REMARK SMILES IDX 36 54 45 56 61 57 38 58 27 59 28 60 32 61 29 62 31 63 30 64
REMARK SMILES IDX 49 65 50 66 54 67 51 68 53 69 52 70 39 71 40 72 44 73 41 74
REMARK SMILES IDX 43 75 42 76
REMARK H PARENT 59 44 37 55
REMARK Flexibility Score: inf
ROOT
ATOM      1  C   UNL A   1      33.998  31.601  28.299  1.00  0.00     0.202 C 
ENDROOT
BRANCH   1   2
ATOM      2  O   UNL A   1      34.655  30.720  27.394  1.00  0.00    -0.374 OA
BRANCH   2   3
ATOM      3  C   UNL A   1      33.913  29.695  26.737  1.00  0.00     0.202 C 
BRANCH   3   4
ATOM      4  C   UNL A   1      32.462  29.996  26.357  1.00  0.00     0.261 C 
BRANCH   4   5
ATOM      5  O   UNL A   1      31.734  28.815  25.983  1.00  0.00    -0.457 OA
BRANCH   5   6
ATOM      6  C   UNL A   1      31.668  27.829  26.934  1.00  0.00     0.378 C 
ATOM      7  O   UNL A   1      31.263  28.002  28.078  1.00  0.00    -0.242 OA
BRANCH   6   8
ATOM      8  C   UNL A   1      32.039  26.507  26.398  1.00  0.00     0.260 A 
ATOM      9  C   UNL A   1      31.930  24.400  25.984  1.00  0.00     0.136 A 
ATOM     10  N   UNL A   1      31.210  25.409  26.453  1.00  0.00    -0.205 NA
ATOM     11  N   UNL A   1      33.157  24.915  25.571  1.00  0.00    -0.214 N 
ATOM     12  N   UNL A   1      33.231  26.239  25.853  1.00  0.00    -0.138 NA
BRANCH   9  13
ATOM     13  C   UNL A   1      31.554  22.949  26.234  1.00  0.00     0.051 C 
ATOM     14  C   UNL A   1      32.585  22.281  27.165  1.00  0.00     0.016 C 
ATOM     15  C   UNL A   1      30.177  22.686  26.823  1.00  0.00     0.016 C 
ENDBRANCH   9  13
BRANCH  11  16
ATOM     16  C   UNL A   1      34.327  24.277  25.133  1.00  0.00     0.102 A 
ATOM     17  C   UNL A   1      35.489  24.404  25.907  1.00  0.00     0.031 A 
ATOM     18  C   UNL A   1      34.375  23.618  23.912  1.00  0.00     0.148 A 
ATOM     19  C   UNL A   1      36.662  23.775  25.497  1.00  0.00     0.002 A 
ATOM     20  C   UNL A   1      35.546  22.986  23.503  1.00  0.00     0.041 A 
ATOM     21  F   UNL A   1      33.323  23.623  23.082  1.00  0.00    -0.205 F 
ATOM     22  C   UNL A   1      36.686  23.050  24.305  1.00  0.00     0.003 A 
ENDBRANCH  11  16
ENDBRANCH   6   8
ENDBRANCH   5   6
ENDBRANCH   4   5
ENDBRANCH   3   4
ENDBRANCH   2   3
ENDBRANCH   1   2
BRANCH   1  23
ATOM     23  C   UNL A   1      34.858  32.415  29.254  1.00  0.00     0.261 C 
BRANCH  23  24
ATOM     24  O   UNL A   1      35.696  31.596  30.054  1.00  0.00    -0.460 OA
BRANCH  24  25
ATOM     25  C   UNL A   1      36.952  32.075  30.214  1.00  0.00     0.338 C 
ATOM     26  O   UNL A   1      37.282  33.162  30.643  1.00  0.00    -0.246 OA
BRANCH  25  27
ATOM     27  C   UNL A   1      37.877  31.125  29.583  1.00  0.00     0.060 A 
ATOM     28  C   UNL A   1      37.365  29.852  29.327  1.00  0.00     0.016 A 
ATOM     29  C   UNL A   1      39.256  31.388  29.572  1.00  0.00     0.016 A 
ATOM     30  C   UNL A   1      38.243  28.796  29.318  1.00  0.00     0.010 A 
ATOM     31  C   UNL A   1      40.131  30.331  29.573  1.00  0.00     0.010 A 
ATOM     32  C   UNL A   1      39.603  29.047  29.548  1.00  0.00    -0.014 A 
BRANCH  32  33
ATOM     33  C   UNL A   1      40.484  27.910  29.672  1.00  0.00     0.031 A 
ATOM     34  C   UNL A   1      41.140  27.857  30.994  1.00  0.00     0.074 A 
ATOM     35  C   UNL A   1      40.636  26.982  28.710  1.00  0.00     0.049 A 
ATOM     36  N   UNL A   1      42.376  28.115  31.254  1.00  0.00    -0.248 NA
ATOM     37  C   UNL A   1      40.285  27.697  32.179  1.00  0.00     0.031 C 
ATOM     38  C   UNL A   1      39.859  26.780  27.485  1.00  0.00     0.029 A 
ATOM     39  N   UNL A   1      41.504  25.939  28.691  1.00  0.00    -0.354 N 
ATOM     40  C   UNL A   1      42.504  27.964  32.627  1.00  0.00     0.074 A 
ATOM     41  C   UNL A   1      41.167  27.891  33.159  1.00  0.00     0.031 C 
ATOM     42  C   UNL A   1      40.132  25.550  26.984  1.00  0.00     0.029 A 
ATOM     43  C   UNL A   1      41.205  24.953  27.763  1.00  0.00     0.049 A 
ATOM     44  H   UNL A   1      42.284  25.887  29.289  1.00  0.00     0.167 HD
ATOM     45  C   UNL A   1      43.701  27.644  33.186  1.00  0.00     0.031 A 
ATOM     46  C   UNL A   1      41.770  23.721  27.702  1.00  0.00     0.031 A 
ATOM     47  C   UNL A   1      44.792  27.877  32.274  1.00  0.00     0.049 A 
ATOM     48  C   UNL A   1      43.053  23.789  28.446  1.00  0.00     0.074 A 
ATOM     49  C   UNL A   1      45.305  28.990  31.641  1.00  0.00     0.029 A 
ATOM     50  N   UNL A   1      45.261  26.789  31.576  1.00  0.00    -0.354 N 
ATOM     51  N   UNL A   1      44.076  24.487  28.040  1.00  0.00    -0.248 NA
ATOM     52  C   UNL A   1      43.032  23.480  29.868  1.00  0.00     0.031 C 
ATOM     53  C   UNL A   1      45.656  28.540  30.335  1.00  0.00     0.029 A 
ATOM     54  C   UNL A   1      45.411  27.167  30.267  1.00  0.00     0.049 A 
ATOM     55  H   UNL A   1      45.457  25.899  31.950  1.00  0.00     0.167 HD
ATOM     56  C   UNL A   1      44.579  25.077  29.190  1.00  0.00     0.074 A 
ATOM     57  C   UNL A   1      43.950  24.354  30.296  1.00  0.00     0.031 C 
ATOM     58  C   UNL A   1      45.228  26.277  29.142  1.00  0.00     0.031 A 
BRANCH  45  59
ATOM     59  C   UNL A   1      43.824  26.708  34.357  1.00  0.00    -0.014 A 
ATOM     60  C   UNL A   1      43.556  25.344  34.155  1.00  0.00     0.009 A 
ATOM     61  C   UNL A   1      43.899  27.151  35.693  1.00  0.00     0.009 A 
ATOM     62  C   UNL A   1      43.294  24.490  35.232  1.00  0.00     0.001 A 
ATOM     63  C   UNL A   1      43.678  26.293  36.770  1.00  0.00     0.001 A 
ATOM     64  C   UNL A   1      43.346  24.968  36.538  1.00  0.00     0.000 A 
ENDBRANCH  45  59
BRANCH  46  65
ATOM     65  C   UNL A   1      41.131  22.428  27.365  1.00  0.00    -0.014 A 
ATOM     66  C   UNL A   1      39.882  22.385  26.724  1.00  0.00     0.009 A 
ATOM     67  C   UNL A   1      41.883  21.240  27.407  1.00  0.00     0.009 A 
ATOM     68  C   UNL A   1      39.421  21.207  26.116  1.00  0.00     0.001 A 
ATOM     69  C   UNL A   1      41.424  20.064  26.800  1.00  0.00     0.001 A 
ATOM     70  C   UNL A   1      40.198  20.051  26.142  1.00  0.00     0.000 A 
ENDBRANCH  46  65
BRANCH  58  71
ATOM     71  C   UNL A   1      45.574  26.846  27.788  1.00  0.00    -0.014 A 
ATOM     72  C   UNL A   1      46.815  26.643  27.158  1.00  0.00     0.009 A 
ATOM     73  C   UNL A   1      44.544  27.447  27.052  1.00  0.00     0.009 A 
ATOM     74  C   UNL A   1      47.015  27.041  25.831  1.00  0.00     0.001 A 
ATOM     75  C   UNL A   1      44.738  27.825  25.722  1.00  0.00     0.001 A 
ATOM     76  C   UNL A   1      45.973  27.624  25.112  1.00  0.00     0.000 A 
ENDBRANCH  58  71
ENDBRANCH  32  33
ENDBRANCH  25  27
ENDBRANCH  24  25
ENDBRANCH  23  24
ENDBRANCH   1  23
TORSDOF 16
ENDMDL
