MODEL 1
REMARK VINA RESULT:     -10.3      0.000      0.000
REMARK SMILES Nc1ccc(-c2cc(O)ccc2Cl)c(C(=O)OCCOCCOC(=O)c2ccc(-c3c4nc(c(-c5ccccc5)c5ccc([nH]5)c(-c5ccccc5)c5nc(c(-c6ccccc6)c6ccc3[nH]6)C=C5)C=C4)cc2)n1
REMARK SMILES IDX 20 1 19 2 18 3 17 4 15 5 16 6 14 7 2 8 3 9 74 10 4 11 5 12
REMARK SMILES IDX 1 13 6 16 7 17 12 18 8 19 11 20 13 21 10 22 9 23 21 25 22 26
REMARK SMILES IDX 23 27 24 28 25 29 26 30 27 31 73 32 28 33 72 34 29 35 30 36
REMARK SMILES IDX 31 37 66 38 32 39 71 40 65 41 67 42 33 43 70 44 64 45 63 46
REMARK SMILES IDX 34 48 56 49 41 50 55 51 42 52 45 53 54 54 68 55 43 56 44 57
REMARK SMILES IDX 53 59 69 60 46 61 35 62 36 63 40 64 37 65 39 66 38 67 57 68
REMARK SMILES IDX 58 69 62 70 59 71 61 72 60 73 47 74 48 75 52 76 49 77 51 78
REMARK SMILES IDX 50 79
REMARK H PARENT 1 14 1 15 9 24 67 47 45 58
REMARK Flexibility Score: inf
ROOT
ATOM      1  O   UNL A   1      38.167  22.080  25.806  1.00  0.00    -0.374 OA
ENDROOT
BRANCH   1   2
ATOM      2  C   UNL A   1      37.589  23.314  25.378  1.00  0.00     0.202 C 
BRANCH   2   3
ATOM      3  C   UNL A   1      36.599  23.216  24.217  1.00  0.00     0.261 C 
BRANCH   3   4
ATOM      4  O   UNL A   1      35.401  23.945  24.528  1.00  0.00    -0.458 OA
BRANCH   4   5
ATOM      5  C   UNL A   1      34.560  23.333  25.400  1.00  0.00     0.357 C 
ATOM      6  O   UNL A   1      34.343  23.685  26.551  1.00  0.00    -0.244 OA
BRANCH   5   7
ATOM      7  C   UNL A   1      33.806  22.237  24.715  1.00  0.00     0.158 A 
ATOM      8  C   UNL A   1      33.527  19.926  24.711  1.00  0.00     0.124 A 
ATOM      9  C   UNL A   1      32.610  20.013  23.683  1.00  0.00     0.047 A 
ATOM     10  N   UNL A   1      34.120  21.007  25.226  1.00  0.00    -0.224 NA
ATOM     11  C   UNL A   1      32.284  21.270  23.172  1.00  0.00     0.015 A 
ATOM     12  C   UNL A   1      32.863  22.440  23.695  1.00  0.00     0.017 A 
BRANCH   8  13
ATOM     13  N   UNL A   1      33.812  18.722  25.317  1.00  0.00    -0.384 N 
ATOM     14  H   UNL A   1      33.136  18.006  25.333  1.00  0.00     0.158 HD
ATOM     15  H   UNL A   1      34.692  18.576  25.734  1.00  0.00     0.158 HD
ENDBRANCH   8  13
BRANCH  12  16
ATOM     16  C   UNL A   1      32.403  23.752  23.190  1.00  0.00     0.006 A 
ATOM     17  C   UNL A   1      32.975  24.248  21.995  1.00  0.00     0.056 A 
ATOM     18  C   UNL A   1      31.435  24.556  23.826  1.00  0.00     0.049 A 
ATOM     19  C   UNL A   1      32.584  25.475  21.464  1.00  0.00     0.116 A 
ATOM     20  C   UNL A   1      31.014  25.765  23.253  1.00  0.00     0.025 A 
ATOM     21  Cl  UNL A   1      30.757  24.140  25.360  1.00  0.00    -0.084 Cl
ATOM     22  C   UNL A   1      31.587  26.223  22.068  1.00  0.00     0.048 A 
BRANCH  19  23
ATOM     23  O   UNL A   1      33.176  25.985  20.348  1.00  0.00    -0.508 OA
ATOM     24  H   UNL A   1      33.029  25.583  19.514  1.00  0.00     0.293 HD
ENDBRANCH  19  23
ENDBRANCH  12  16
ENDBRANCH   5   7
ENDBRANCH   4   5
ENDBRANCH   3   4
ENDBRANCH   2   3
ENDBRANCH   1   2
BRANCH   1  25
ATOM     25  C   UNL A   1      37.819  20.901  25.080  1.00  0.00     0.202 C 
BRANCH  25  26
ATOM     26  C   UNL A   1      38.865  19.780  25.080  1.00  0.00     0.261 C 
BRANCH  26  27
ATOM     27  O   UNL A   1      39.639  19.741  26.295  1.00  0.00    -0.460 OA
BRANCH  27  28
ATOM     28  C   UNL A   1      40.980  19.719  26.109  1.00  0.00     0.338 C 
ATOM     29  O   UNL A   1      41.636  18.866  25.525  1.00  0.00    -0.246 OA
BRANCH  28  30
ATOM     30  C   UNL A   1      41.587  20.968  26.598  1.00  0.00     0.060 A 
ATOM     31  C   UNL A   1      41.555  21.213  27.977  1.00  0.00     0.016 A 
ATOM     32  C   UNL A   1      42.093  21.927  25.720  1.00  0.00     0.016 A 
ATOM     33  C   UNL A   1      41.991  22.439  28.478  1.00  0.00     0.010 A 
ATOM     34  C   UNL A   1      42.524  23.159  26.224  1.00  0.00     0.010 A 
ATOM     35  C   UNL A   1      42.443  23.433  27.601  1.00  0.00    -0.014 A 
BRANCH  35  36
ATOM     36  C   UNL A   1      42.704  24.802  28.108  1.00  0.00     0.031 A 
ATOM     37  C   UNL A   1      44.109  25.191  28.479  1.00  0.00     0.074 A 
ATOM     38  C   UNL A   1      41.708  25.698  28.217  1.00  0.00     0.049 A 
ATOM     39  N   UNL A   1      44.558  26.326  28.953  1.00  0.00    -0.248 NA
ATOM     40  C   UNL A   1      45.146  24.164  28.290  1.00  0.00     0.031 C 
ATOM     41  C   UNL A   1      40.313  25.460  27.853  1.00  0.00     0.029 A 
ATOM     42  N   UNL A   1      41.726  26.993  28.669  1.00  0.00    -0.354 N 
ATOM     43  C   UNL A   1      45.925  26.148  29.124  1.00  0.00     0.074 A 
ATOM     44  C   UNL A   1      46.229  24.790  28.730  1.00  0.00     0.031 C 
ATOM     45  C   UNL A   1      39.603  26.575  28.100  1.00  0.00     0.029 A 
ATOM     46  C   UNL A   1      40.490  27.591  28.666  1.00  0.00     0.049 A 
ATOM     47  H   UNL A   1      42.545  27.449  28.968  1.00  0.00     0.167 HD
ATOM     48  C   UNL A   1      46.848  27.037  29.564  1.00  0.00     0.031 A 
ATOM     49  C   UNL A   1      40.115  28.814  29.086  1.00  0.00     0.031 A 
ATOM     50  C   UNL A   1      46.549  28.385  29.969  1.00  0.00     0.049 A 
ATOM     51  C   UNL A   1      41.145  29.758  29.644  1.00  0.00     0.074 A 
ATOM     52  C   UNL A   1      47.421  29.367  30.407  1.00  0.00     0.029 A 
ATOM     53  N   UNL A   1      45.279  28.937  29.992  1.00  0.00    -0.354 N 
ATOM     54  N   UNL A   1      42.439  29.589  29.771  1.00  0.00    -0.248 NA
ATOM     55  C   UNL A   1      40.661  31.066  30.110  1.00  0.00     0.031 C 
ATOM     56  C   UNL A   1      46.671  30.497  30.747  1.00  0.00     0.029 A 
ATOM     57  C   UNL A   1      45.338  30.237  30.468  1.00  0.00     0.049 A 
ATOM     58  H   UNL A   1      44.457  28.474  29.713  1.00  0.00     0.167 HD
ATOM     59  C   UNL A   1      42.926  30.775  30.306  1.00  0.00     0.074 A 
ATOM     60  C   UNL A   1      41.791  31.660  30.469  1.00  0.00     0.031 C 
ATOM     61  C   UNL A   1      44.201  31.104  30.630  1.00  0.00     0.031 A 
BRANCH  48  62
ATOM     62  C   UNL A   1      48.269  26.561  29.665  1.00  0.00    -0.014 A 
ATOM     63  C   UNL A   1      49.188  26.782  28.627  1.00  0.00     0.009 A 
ATOM     64  C   UNL A   1      48.701  25.904  30.827  1.00  0.00     0.009 A 
ATOM     65  C   UNL A   1      50.502  26.325  28.738  1.00  0.00     0.001 A 
ATOM     66  C   UNL A   1      50.023  25.471  30.946  1.00  0.00     0.001 A 
ATOM     67  C   UNL A   1      50.919  25.673  29.898  1.00  0.00     0.000 A 
ENDBRANCH  48  62
BRANCH  49  68
ATOM     68  C   UNL A   1      38.688  29.219  29.007  1.00  0.00    -0.014 A 
ATOM     69  C   UNL A   1      37.838  29.059  30.113  1.00  0.00     0.009 A 
ATOM     70  C   UNL A   1      38.165  29.755  27.820  1.00  0.00     0.009 A 
ATOM     71  C   UNL A   1      36.489  29.410  30.022  1.00  0.00     0.001 A 
ATOM     72  C   UNL A   1      36.822  30.127  27.741  1.00  0.00     0.001 A 
ATOM     73  C   UNL A   1      35.984  29.947  28.840  1.00  0.00     0.000 A 
ENDBRANCH  49  68
BRANCH  61  74
ATOM     74  C   UNL A   1      44.443  32.489  31.162  1.00  0.00    -0.014 A 
ATOM     75  C   UNL A   1      44.428  32.751  32.541  1.00  0.00     0.009 A 
ATOM     76  C   UNL A   1      44.729  33.535  30.272  1.00  0.00     0.009 A 
ATOM     77  C   UNL A   1      44.668  34.043  33.014  1.00  0.00     0.001 A 
ATOM     78  C   UNL A   1      44.994  34.820  30.750  1.00  0.00     0.001 A 
ATOM     79  C   UNL A   1      44.954  35.074  32.120  1.00  0.00     0.000 A 
ENDBRANCH  61  74
ENDBRANCH  35  36
ENDBRANCH  28  30
ENDBRANCH  27  28
ENDBRANCH  26  27
ENDBRANCH  25  26
ENDBRANCH   1  25
TORSDOF 17
ENDMDL
MODEL 2
REMARK VINA RESULT:     -10.3      3.498      8.270
REMARK SMILES Nc1ccc(-c2cc(O)ccc2Cl)c(C(=O)OCCOCCOC(=O)c2ccc(-c3c4nc(c(-c5ccccc5)c5ccc([nH]5)c(-c5ccccc5)c5nc(c(-c6ccccc6)c6ccc3[nH]6)C=C5)C=C4)cc2)n1
REMARK SMILES IDX 20 1 19 2 18 3 17 4 15 5 16 6 14 7 2 8 3 9 74 10 4 11 5 12
REMARK SMILES IDX 1 13 6 16 7 17 12 18 8 19 11 20 13 21 10 22 9 23 21 25 22 26
REMARK SMILES IDX 23 27 24 28 25 29 26 30 27 31 73 32 28 33 72 34 29 35 30 36
REMARK SMILES IDX 31 37 66 38 32 39 71 40 65 41 67 42 33 43 70 44 64 45 63 46
REMARK SMILES IDX 34 48 56 49 41 50 55 51 42 52 45 53 54 54 68 55 43 56 44 57
REMARK SMILES IDX 53 59 69 60 46 61 35 62 36 63 40 64 37 65 39 66 38 67 57 68
REMARK SMILES IDX 58 69 62 70 59 71 61 72 60 73 47 74 48 75 52 76 49 77 51 78
REMARK SMILES IDX 50 79
REMARK H PARENT 1 14 1 15 9 24 67 47 45 58
REMARK Flexibility Score: inf
ROOT
ATOM      1  O   UNL A   1      31.645  29.615  26.586  1.00  0.00    -0.374 OA
ENDROOT
BRANCH   1   2
ATOM      2  C   UNL A   1      31.468  28.407  27.326  1.00  0.00     0.202 C 
BRANCH   2   3
ATOM      3  C   UNL A   1      31.063  27.180  26.508  1.00  0.00     0.261 C 
BRANCH   3   4
ATOM      4  O   UNL A   1      31.708  26.006  27.027  1.00  0.00    -0.458 OA
BRANCH   4   5
ATOM      5  C   UNL A   1      31.745  24.944  26.182  1.00  0.00     0.357 C 
ATOM      6  O   UNL A   1      30.814  24.542  25.498  1.00  0.00    -0.244 OA
BRANCH   5   7
ATOM      7  C   UNL A   1      33.137  24.405  26.083  1.00  0.00     0.158 A 
ATOM      8  C   UNL A   1      34.512  22.712  26.898  1.00  0.00     0.124 A 
ATOM      9  C   UNL A   1      35.572  23.176  26.145  1.00  0.00     0.047 A 
ATOM     10  N   UNL A   1      33.315  23.304  26.877  1.00  0.00    -0.224 NA
ATOM     11  C   UNL A   1      35.384  24.292  25.328  1.00  0.00     0.015 A 
ATOM     12  C   UNL A   1      34.136  24.937  25.254  1.00  0.00     0.017 A 
BRANCH   8  13
ATOM     13  N   UNL A   1      34.614  21.559  27.645  1.00  0.00    -0.384 N 
ATOM     14  H   UNL A   1      35.462  21.337  28.093  1.00  0.00     0.158 HD
ATOM     15  H   UNL A   1      33.839  20.958  27.731  1.00  0.00     0.158 HD
ENDBRANCH   8  13
BRANCH  12  16
ATOM     16  C   UNL A   1      33.963  26.049  24.292  1.00  0.00     0.006 A 
ATOM     17  C   UNL A   1      33.658  25.729  22.948  1.00  0.00     0.056 A 
ATOM     18  C   UNL A   1      34.092  27.413  24.619  1.00  0.00     0.049 A 
ATOM     19  C   UNL A   1      33.479  26.728  21.994  1.00  0.00     0.116 A 
ATOM     20  C   UNL A   1      33.860  28.410  23.660  1.00  0.00     0.025 A 
ATOM     21  Cl  UNL A   1      34.597  27.940  26.187  1.00  0.00    -0.084 Cl
ATOM     22  C   UNL A   1      33.549  28.065  22.346  1.00  0.00     0.048 A 
BRANCH  19  23
ATOM     23  O   UNL A   1      33.247  26.424  20.686  1.00  0.00    -0.508 OA
ATOM     24  H   UNL A   1      33.227  27.106  20.043  1.00  0.00     0.293 HD
ENDBRANCH  19  23
ENDBRANCH  12  16
ENDBRANCH   5   7
ENDBRANCH   4   5
ENDBRANCH   3   4
ENDBRANCH   2   3
ENDBRANCH   1   2
BRANCH   1  25
ATOM     25  C   UNL A   1      32.499  30.613  27.145  1.00  0.00     0.202 C 
BRANCH  25  26
ATOM     26  C   UNL A   1      31.888  32.011  27.296  1.00  0.00     0.261 C 
BRANCH  26  27
ATOM     27  O   UNL A   1      32.826  33.063  27.000  1.00  0.00    -0.460 OA
BRANCH  27  28
ATOM     28  C   UNL A   1      33.101  33.884  28.042  1.00  0.00     0.338 C 
ATOM     29  O   UNL A   1      32.374  34.744  28.523  1.00  0.00    -0.246 OA
BRANCH  28  30
ATOM     30  C   UNL A   1      34.390  33.523  28.654  1.00  0.00     0.060 A 
ATOM     31  C   UNL A   1      35.554  33.756  27.911  1.00  0.00     0.016 A 
ATOM     32  C   UNL A   1      34.457  32.880  29.891  1.00  0.00     0.016 A 
ATOM     33  C   UNL A   1      36.787  33.308  28.384  1.00  0.00     0.010 A 
ATOM     34  C   UNL A   1      35.693  32.426  30.362  1.00  0.00     0.010 A 
ATOM     35  C   UNL A   1      36.858  32.607  29.595  1.00  0.00    -0.014 A 
BRANCH  35  36
ATOM     36  C   UNL A   1      38.126  31.950  29.994  1.00  0.00     0.031 A 
ATOM     37  C   UNL A   1      39.042  32.647  30.962  1.00  0.00     0.074 A 
ATOM     38  C   UNL A   1      38.451  30.735  29.518  1.00  0.00     0.049 A 
ATOM     39  N   UNL A   1      40.200  32.261  31.434  1.00  0.00    -0.248 NA
ATOM     40  C   UNL A   1      38.590  33.955  31.466  1.00  0.00     0.031 C 
ATOM     41  C   UNL A   1      37.633  29.937  28.607  1.00  0.00     0.029 A 
ATOM     42  N   UNL A   1      39.564  29.964  29.741  1.00  0.00    -0.354 N 
ATOM     43  C   UNL A   1      40.619  33.278  32.283  1.00  0.00     0.074 A 
ATOM     44  C   UNL A   1      39.605  34.309  32.242  1.00  0.00     0.031 C 
ATOM     45  C   UNL A   1      38.275  28.785  28.344  1.00  0.00     0.029 A 
ATOM     46  C   UNL A   1      39.559  28.781  29.044  1.00  0.00     0.049 A 
ATOM     47  H   UNL A   1      40.295  30.234  30.341  1.00  0.00     0.167 HD
ATOM     48  C   UNL A   1      41.743  33.345  33.035  1.00  0.00     0.031 A 
ATOM     49  C   UNL A   1      40.490  27.812  28.969  1.00  0.00     0.031 A 
ATOM     50  C   UNL A   1      42.760  32.327  33.071  1.00  0.00     0.049 A 
ATOM     51  C   UNL A   1      41.767  27.945  29.754  1.00  0.00     0.074 A 
ATOM     52  C   UNL A   1      43.924  32.297  33.820  1.00  0.00     0.029 A 
ATOM     53  N   UNL A   1      42.738  31.166  32.317  1.00  0.00    -0.354 N 
ATOM     54  N   UNL A   1      42.137  28.896  30.577  1.00  0.00    -0.248 NA
ATOM     55  C   UNL A   1      42.753  26.864  29.602  1.00  0.00     0.031 C 
ATOM     56  C   UNL A   1      44.632  31.140  33.479  1.00  0.00     0.029 A 
ATOM     57  C   UNL A   1      43.883  30.425  32.558  1.00  0.00     0.049 A 
ATOM     58  H   UNL A   1      42.016  30.906  31.700  1.00  0.00     0.167 HD
ATOM     59  C   UNL A   1      43.383  28.516  31.061  1.00  0.00     0.074 A 
ATOM     60  C   UNL A   1      43.702  27.244  30.448  1.00  0.00     0.031 C 
ATOM     61  C   UNL A   1      44.190  29.163  31.938  1.00  0.00     0.031 A 
BRANCH  48  62
ATOM     62  C   UNL A   1      41.948  34.586  33.858  1.00  0.00    -0.014 A 
ATOM     63  C   UNL A   1      42.667  35.682  33.357  1.00  0.00     0.009 A 
ATOM     64  C   UNL A   1      41.389  34.667  35.142  1.00  0.00     0.009 A 
ATOM     65  C   UNL A   1      42.851  36.823  34.141  1.00  0.00     0.001 A 
ATOM     66  C   UNL A   1      41.552  35.819  35.914  1.00  0.00     0.001 A 
ATOM     67  C   UNL A   1      42.290  36.892  35.416  1.00  0.00     0.000 A 
ENDBRANCH  48  62
BRANCH  49  68
ATOM     68  C   UNL A   1      40.259  26.627  28.104  1.00  0.00    -0.014 A 
ATOM     69  C   UNL A   1      39.566  25.509  28.594  1.00  0.00     0.009 A 
ATOM     70  C   UNL A   1      40.742  26.603  26.787  1.00  0.00     0.009 A 
ATOM     71  C   UNL A   1      39.380  24.385  27.787  1.00  0.00     0.001 A 
ATOM     72  C   UNL A   1      40.533  25.487  25.974  1.00  0.00     0.001 A 
ATOM     73  C   UNL A   1      39.859  24.376  26.478  1.00  0.00     0.000 A 
ENDBRANCH  49  68
BRANCH  61  74
ATOM     74  C   UNL A   1      45.480  28.490  32.313  1.00  0.00    -0.014 A 
ATOM     75  C   UNL A   1      45.535  27.548  33.352  1.00  0.00     0.009 A 
ATOM     76  C   UNL A   1      46.649  28.775  31.589  1.00  0.00     0.009 A 
ATOM     77  C   UNL A   1      46.743  26.926  33.676  1.00  0.00     0.001 A 
ATOM     78  C   UNL A   1      47.849  28.132  31.898  1.00  0.00     0.001 A 
ATOM     79  C   UNL A   1      47.896  27.215  32.946  1.00  0.00     0.000 A 
ENDBRANCH  61  74
ENDBRANCH  35  36
ENDBRANCH  28  30
ENDBRANCH  27  28
ENDBRANCH  26  27
ENDBRANCH  25  26
ENDBRANCH   1  25
TORSDOF 17
ENDMDL
MODEL 3
REMARK VINA RESULT:     -10.2      1.665      6.536
REMARK SMILES Nc1ccc(-c2cc(O)ccc2Cl)c(C(=O)OCCOCCOC(=O)c2ccc(-c3c4nc(c(-c5ccccc5)c5ccc([nH]5)c(-c5ccccc5)c5nc(c(-c6ccccc6)c6ccc3[nH]6)C=C5)C=C4)cc2)n1
REMARK SMILES IDX 20 1 19 2 18 3 17 4 15 5 16 6 14 7 2 8 3 9 74 10 4 11 5 12
REMARK SMILES IDX 1 13 6 16 7 17 12 18 8 19 11 20 13 21 10 22 9 23 21 25 22 26
REMARK SMILES IDX 23 27 24 28 25 29 26 30 27 31 73 32 28 33 72 34 29 35 30 36
REMARK SMILES IDX 31 37 66 38 32 39 71 40 65 41 67 42 33 43 70 44 64 45 63 46
REMARK SMILES IDX 34 48 56 49 41 50 55 51 42 52 45 53 54 54 68 55 43 56 44 57
REMARK SMILES IDX 53 59 69 60 46 61 35 62 36 63 40 64 37 65 39 66 38 67 57 68
REMARK SMILES IDX 58 69 62 70 59 71 61 72 60 73 47 74 48 75 52 76 49 77 51 78
REMARK SMILES IDX 50 79
REMARK H PARENT 1 14 1 15 9 24 67 47 45 58
REMARK Flexibility Score: inf
ROOT
ATOM      1  O   UNL A   1      36.829  19.057  24.923  1.00  0.00    -0.374 OA
ENDROOT
BRANCH   1   2
ATOM      2  C   UNL A   1      35.619  19.814  24.885  1.00  0.00     0.202 C 
BRANCH   2   3
ATOM      3  C   UNL A   1      34.325  18.999  24.894  1.00  0.00     0.261 C 
BRANCH   3   4
ATOM      4  O   UNL A   1      33.264  19.765  25.489  1.00  0.00    -0.458 OA
BRANCH   4   5
ATOM      5  C   UNL A   1      32.585  20.575  24.637  1.00  0.00     0.357 C 
ATOM      6  O   UNL A   1      32.269  20.300  23.488  1.00  0.00    -0.244 OA
BRANCH   5   7
ATOM      7  C   UNL A   1      32.136  21.815  25.344  1.00  0.00     0.158 A 
ATOM      8  C   UNL A   1      30.333  22.708  26.514  1.00  0.00     0.124 A 
ATOM      9  C   UNL A   1      31.007  23.899  26.693  1.00  0.00     0.047 A 
ATOM     10  N   UNL A   1      30.874  21.679  25.855  1.00  0.00    -0.224 NA
ATOM     11  C   UNL A   1      32.298  24.029  26.181  1.00  0.00     0.015 A 
ATOM     12  C   UNL A   1      32.921  22.967  25.499  1.00  0.00     0.017 A 
BRANCH   8  13
ATOM     13  N   UNL A   1      29.097  22.492  27.082  1.00  0.00    -0.384 N 
ATOM     14  H   UNL A   1      29.022  22.324  28.049  1.00  0.00     0.158 HD
ATOM     15  H   UNL A   1      28.287  22.506  26.522  1.00  0.00     0.158 HD
ENDBRANCH   8  13
BRANCH  12  16
ATOM     16  C   UNL A   1      34.329  23.122  25.071  1.00  0.00     0.006 A 
ATOM     17  C   UNL A   1      35.328  23.201  26.070  1.00  0.00     0.056 A 
ATOM     18  C   UNL A   1      34.749  23.208  23.728  1.00  0.00     0.049 A 
ATOM     19  C   UNL A   1      36.672  23.344  25.733  1.00  0.00     0.116 A 
ATOM     20  C   UNL A   1      36.109  23.300  23.403  1.00  0.00     0.025 A 
ATOM     21  Cl  UNL A   1      33.626  23.264  22.415  1.00  0.00    -0.084 Cl
ATOM     22  C   UNL A   1      37.073  23.364  24.408  1.00  0.00     0.048 A 
BRANCH  19  23
ATOM     23  O   UNL A   1      37.631  23.483  26.692  1.00  0.00    -0.508 OA
ATOM     24  H   UNL A   1      38.492  23.764  26.454  1.00  0.00     0.293 HD
ENDBRANCH  19  23
ENDBRANCH  12  16
ENDBRANCH   5   7
ENDBRANCH   4   5
ENDBRANCH   3   4
ENDBRANCH   2   3
ENDBRANCH   1   2
BRANCH   1  25
ATOM     25  C   UNL A   1      38.060  19.779  24.929  1.00  0.00     0.202 C 
BRANCH  25  26
ATOM     26  C   UNL A   1      39.210  19.137  25.714  1.00  0.00     0.261 C 
BRANCH  26  27
ATOM     27  O   UNL A   1      40.503  19.441  25.156  1.00  0.00    -0.460 OA
BRANCH  27  28
ATOM     28  C   UNL A   1      41.503  19.536  26.064  1.00  0.00     0.338 C 
ATOM     29  O   UNL A   1      42.319  18.674  26.364  1.00  0.00    -0.246 OA
BRANCH  28  30
ATOM     30  C   UNL A   1      41.591  20.908  26.589  1.00  0.00     0.060 A 
ATOM     31  C   UNL A   1      41.973  21.923  25.703  1.00  0.00     0.016 A 
ATOM     32  C   UNL A   1      41.398  21.186  27.943  1.00  0.00     0.016 A 
ATOM     33  C   UNL A   1      42.205  23.214  26.177  1.00  0.00     0.010 A 
ATOM     34  C   UNL A   1      41.637  22.480  28.418  1.00  0.00     0.010 A 
ATOM     35  C   UNL A   1      42.075  23.491  27.544  1.00  0.00    -0.014 A 
BRANCH  35  36
ATOM     36  C   UNL A   1      42.523  24.799  28.078  1.00  0.00     0.031 A 
ATOM     37  C   UNL A   1      41.509  25.886  28.305  1.00  0.00     0.074 A 
ATOM     38  C   UNL A   1      43.816  25.013  28.379  1.00  0.00     0.049 A 
ATOM     39  N   UNL A   1      41.684  27.105  28.750  1.00  0.00    -0.248 NA
ATOM     40  C   UNL A   1      40.110  25.554  27.988  1.00  0.00     0.031 C 
ATOM     41  C   UNL A   1      44.890  24.032  28.244  1.00  0.00     0.029 A 
ATOM     42  N   UNL A   1      44.440  26.136  28.862  1.00  0.00    -0.354 N 
ATOM     43  C   UNL A   1      40.422  27.686  28.760  1.00  0.00     0.074 A 
ATOM     44  C   UNL A   1      39.495  26.699  28.253  1.00  0.00     0.031 C 
ATOM     45  C   UNL A   1      46.046  24.597  28.633  1.00  0.00     0.029 A 
ATOM     46  C   UNL A   1      45.795  25.986  29.015  1.00  0.00     0.049 A 
ATOM     47  H   UNL A   1      43.961  26.968  29.078  1.00  0.00     0.167 HD
ATOM     48  C   UNL A   1      40.065  28.930  29.163  1.00  0.00     0.031 A 
ATOM     49  C   UNL A   1      46.730  26.874  29.405  1.00  0.00     0.031 A 
ATOM     50  C   UNL A   1      40.984  29.920  29.658  1.00  0.00     0.049 A 
ATOM     51  C   UNL A   1      46.320  28.274  29.773  1.00  0.00     0.074 A 
ATOM     52  C   UNL A   1      40.712  31.199  30.110  1.00  0.00     0.029 A 
ATOM     53  N   UNL A   1      42.354  29.743  29.755  1.00  0.00    -0.354 N 
ATOM     54  N   UNL A   1      45.120  28.801  29.809  1.00  0.00    -0.248 NA
ATOM     55  C   UNL A   1      47.395  29.198  30.161  1.00  0.00     0.031 C 
ATOM     56  C   UNL A   1      41.925  31.816  30.432  1.00  0.00     0.029 A 
ATOM     57  C   UNL A   1      42.947  30.901  30.231  1.00  0.00     0.049 A 
ATOM     58  H   UNL A   1      42.835  28.917  29.519  1.00  0.00     0.167 HD
ATOM     59  C   UNL A   1      45.293  30.108  30.248  1.00  0.00     0.074 A 
ATOM     60  C   UNL A   1      46.711  30.290  30.476  1.00  0.00     0.031 C 
ATOM     61  C   UNL A   1      44.359  31.070  30.448  1.00  0.00     0.031 A 
BRANCH  48  62
ATOM     62  C   UNL A   1      38.613  29.299  29.049  1.00  0.00    -0.014 A 
ATOM     63  C   UNL A   1      37.738  29.167  30.139  1.00  0.00     0.009 A 
ATOM     64  C   UNL A   1      38.120  29.811  27.839  1.00  0.00     0.009 A 
ATOM     65  C   UNL A   1      36.391  29.509  30.009  1.00  0.00     0.001 A 
ATOM     66  C   UNL A   1      36.778  30.177  27.720  1.00  0.00     0.001 A 
ATOM     67  C   UNL A   1      35.913  30.017  28.801  1.00  0.00     0.000 A 
ENDBRANCH  48  62
BRANCH  49  68
ATOM     68  C   UNL A   1      48.159  26.470  29.456  1.00  0.00    -0.014 A 
ATOM     69  C   UNL A   1      49.019  26.749  28.383  1.00  0.00     0.009 A 
ATOM     70  C   UNL A   1      48.666  25.791  30.575  1.00  0.00     0.009 A 
ATOM     71  C   UNL A   1      50.353  26.338  28.423  1.00  0.00     0.001 A 
ATOM     72  C   UNL A   1      50.006  25.403  30.622  1.00  0.00     0.001 A 
ATOM     73  C   UNL A   1      50.847  25.670  29.542  1.00  0.00     0.000 A 
ENDBRANCH  49  68
BRANCH  61  74
ATOM     74  C   UNL A   1      44.836  32.397  30.969  1.00  0.00    -0.014 A 
ATOM     75  C   UNL A   1      45.180  33.441  30.097  1.00  0.00     0.009 A 
ATOM     76  C   UNL A   1      44.904  32.617  32.354  1.00  0.00     0.009 A 
ATOM     77  C   UNL A   1      45.609  34.670  30.603  1.00  0.00     0.001 A 
ATOM     78  C   UNL A   1      45.308  33.854  32.857  1.00  0.00     0.001 A 
ATOM     79  C   UNL A   1      45.668  34.877  31.981  1.00  0.00     0.000 A 
ENDBRANCH  61  74
ENDBRANCH  35  36
ENDBRANCH  28  30
ENDBRANCH  27  28
ENDBRANCH  26  27
ENDBRANCH  25  26
ENDBRANCH   1  25
TORSDOF 17
ENDMDL
