MODEL 1
REMARK VINA RESULT:     -10.7      0.000      0.000
REMARK SMILES CCCc1cc2c(cc1Cl)C=C(C(=O)OCCOCCOC(=O)c1ccc(-c3c4nc(c(-c5ccccc5)c5ccc([nH]5)c(-c5ccccc5)c5nc(c(-c6ccccc6)c6ccc3[nH]6)C=C5)C=C4)cc1)[C@H](C(F)(F)F)O2
REMARK SMILES IDX 18 1 17 2 16 3 15 4 13 5 14 6 12 7 4 8 5 9 9 10 6 11 8 12
REMARK SMILES IDX 10 13 7 14 77 15 11 16 72 17 3 18 2 19 1 20 73 21 74 22
REMARK SMILES IDX 75 23 76 24 19 25 20 26 21 27 22 28 23 29 24 30 25 31 71 32
REMARK SMILES IDX 26 33 70 34 27 35 28 36 29 37 64 38 30 39 69 40 63 41 65 42
REMARK SMILES IDX 31 43 68 44 62 45 61 46 32 48 54 49 39 50 53 51 40 52 43 53
REMARK SMILES IDX 52 54 66 55 41 56 42 57 51 59 67 60 44 61 33 62 34 63 38 64
REMARK SMILES IDX 35 65 37 66 36 67 55 68 56 69 60 70 57 71 59 72 58 73 45 74
REMARK SMILES IDX 46 75 50 76 47 77 49 78 48 79
REMARK H PARENT 65 47 43 58
REMARK Flexibility Score: inf
ROOT
ATOM      1  O   UNL A   1      31.319  31.382  26.143  1.00  0.00    -0.374 OA
ENDROOT
BRANCH   1   2
ATOM      2  C   UNL A   1      32.145  30.392  26.753  1.00  0.00     0.202 C 
BRANCH   2   3
ATOM      3  C   UNL A   1      33.161  29.691  25.850  1.00  0.00     0.261 C 
BRANCH   3   4
ATOM      4  O   UNL A   1      32.576  28.561  25.181  1.00  0.00    -0.460 OA
BRANCH   4   5
ATOM      5  C   UNL A   1      33.144  28.268  23.992  1.00  0.00     0.338 C 
ATOM      6  O   UNL A   1      33.580  29.070  23.182  1.00  0.00    -0.246 OA
BRANCH   5   7
ATOM      7  C   UNL A   1      33.278  26.810  23.827  1.00  0.00     0.087 C 
ATOM      8  C   UNL A   1      34.589  22.059  24.810  1.00  0.00    -0.026 A 
ATOM      9  C   UNL A   1      34.466  22.828  23.635  1.00  0.00     0.052 A 
ATOM     10  C   UNL A   1      34.222  22.644  26.033  1.00  0.00     0.045 A 
ATOM     11  C   UNL A   1      34.017  24.148  23.684  1.00  0.00     0.128 A 
ATOM     12  C   UNL A   1      33.751  23.957  26.078  1.00  0.00     0.032 A 
ATOM     13  Cl  UNL A   1      34.391  21.818  27.541  1.00  0.00    -0.084 Cl
ATOM     14  C   UNL A   1      33.669  24.715  24.908  1.00  0.00     0.019 A 
ATOM     15  O   UNL A   1      34.021  24.841  22.506  1.00  0.00    -0.475 OA
ATOM     16  C   UNL A   1      33.354  26.127  24.978  1.00  0.00     0.027 C 
ATOM     17  C   UNL A   1      33.400  26.161  22.473  1.00  0.00     0.316 C 
BRANCH   8  18
ATOM     18  C   UNL A   1      35.135  20.654  24.703  1.00  0.00     0.037 C 
BRANCH  18  19
ATOM     19  C   UNL A   1      36.589  20.496  25.156  1.00  0.00     0.001 C 
ATOM     20  C   UNL A   1      37.488  21.643  24.719  1.00  0.00     0.004 C 
ENDBRANCH  18  19
ENDBRANCH   8  18
BRANCH  17  21
ATOM     21  C   UNL A   1      32.075  26.078  21.685  1.00  0.00     0.430 C 
ATOM     22  F   UNL A   1      31.428  27.265  21.627  1.00  0.00    -0.167 F 
ATOM     23  F   UNL A   1      32.279  25.660  20.412  1.00  0.00    -0.167 F 
ATOM     24  F   UNL A   1      31.213  25.190  22.240  1.00  0.00    -0.167 F 
ENDBRANCH  17  21
ENDBRANCH   5   7
ENDBRANCH   4   5
ENDBRANCH   3   4
ENDBRANCH   2   3
ENDBRANCH   1   2
BRANCH   1  25
ATOM     25  C   UNL A   1      31.466  32.732  26.590  1.00  0.00     0.202 C 
BRANCH  25  26
ATOM     26  C   UNL A   1      32.550  33.008  27.643  1.00  0.00     0.261 C 
BRANCH  26  27
ATOM     27  O   UNL A   1      32.637  34.408  27.967  1.00  0.00    -0.460 OA
BRANCH  27  28
ATOM     28  C   UNL A   1      33.133  34.694  29.194  1.00  0.00     0.338 C 
ATOM     29  O   UNL A   1      32.566  35.279  30.103  1.00  0.00    -0.246 OA
BRANCH  28  30
ATOM     30  C   UNL A   1      34.414  33.979  29.377  1.00  0.00     0.060 A 
ATOM     31  C   UNL A   1      35.501  34.185  28.528  1.00  0.00     0.016 A 
ATOM     32  C   UNL A   1      34.511  33.076  30.446  1.00  0.00     0.016 A 
ATOM     33  C   UNL A   1      36.702  33.510  28.775  1.00  0.00     0.010 A 
ATOM     34  C   UNL A   1      35.709  32.403  30.689  1.00  0.00     0.010 A 
ATOM     35  C   UNL A   1      36.823  32.633  29.870  1.00  0.00    -0.014 A 
BRANCH  35  36
ATOM     36  C   UNL A   1      38.147  32.072  30.242  1.00  0.00     0.031 A 
ATOM     37  C   UNL A   1      39.081  32.792  31.169  1.00  0.00     0.074 A 
ATOM     38  C   UNL A   1      38.518  30.897  29.695  1.00  0.00     0.049 A 
ATOM     39  N   UNL A   1      40.246  32.400  31.620  1.00  0.00    -0.248 NA
ATOM     40  C   UNL A   1      38.664  34.117  31.650  1.00  0.00     0.031 C 
ATOM     41  C   UNL A   1      37.710  30.123  28.750  1.00  0.00     0.029 A 
ATOM     42  N   UNL A   1      39.657  30.147  29.854  1.00  0.00    -0.354 N 
ATOM     43  C   UNL A   1      40.695  33.418  32.451  1.00  0.00     0.074 A 
ATOM     44  C   UNL A   1      39.700  34.467  32.405  1.00  0.00     0.031 C 
ATOM     45  C   UNL A   1      38.362  28.992  28.443  1.00  0.00     0.029 A 
ATOM     46  C   UNL A   1      39.650  28.978  29.132  1.00  0.00     0.049 A 
ATOM     47  H   UNL A   1      40.406  30.420  30.431  1.00  0.00     0.167 HD
ATOM     48  C   UNL A   1      41.824  33.456  33.197  1.00  0.00     0.031 A 
ATOM     49  C   UNL A   1      40.571  28.000  29.030  1.00  0.00     0.031 A 
ATOM     50  C   UNL A   1      42.820  32.413  33.226  1.00  0.00     0.049 A 
ATOM     51  C   UNL A   1      41.837  28.093  29.835  1.00  0.00     0.074 A 
ATOM     52  C   UNL A   1      43.974  32.355  33.989  1.00  0.00     0.029 A 
ATOM     53  N   UNL A   1      42.791  31.260  32.458  1.00  0.00    -0.354 N 
ATOM     54  N   UNL A   1      42.204  29.019  30.687  1.00  0.00    -0.248 NA
ATOM     55  C   UNL A   1      42.810  27.000  29.683  1.00  0.00     0.031 C 
ATOM     56  C   UNL A   1      44.682  31.210  33.626  1.00  0.00     0.029 A 
ATOM     57  C   UNL A   1      43.927  30.504  32.705  1.00  0.00     0.049 A 
ATOM     58  H   UNL A   1      42.071  31.013  31.833  1.00  0.00     0.167 HD
ATOM     59  C   UNL A   1      43.433  28.610  31.191  1.00  0.00     0.074 A 
ATOM     60  C   UNL A   1      43.740  27.340  30.567  1.00  0.00     0.031 C 
ATOM     61  C   UNL A   1      44.230  29.236  32.089  1.00  0.00     0.031 A 
BRANCH  48  62
ATOM     62  C   UNL A   1      42.064  34.654  34.079  1.00  0.00    -0.014 A 
ATOM     63  C   UNL A   1      42.759  35.767  33.577  1.00  0.00     0.009 A 
ATOM     64  C   UNL A   1      41.751  34.612  35.446  1.00  0.00     0.009 A 
ATOM     65  C   UNL A   1      43.162  36.797  34.430  1.00  0.00     0.001 A 
ATOM     66  C   UNL A   1      42.127  35.658  36.291  1.00  0.00     0.001 A 
ATOM     67  C   UNL A   1      42.845  36.742  35.786  1.00  0.00     0.000 A 
ENDBRANCH  48  62
BRANCH  49  68
ATOM     68  C   UNL A   1      40.301  26.831  28.148  1.00  0.00    -0.014 A 
ATOM     69  C   UNL A   1      39.549  25.740  28.616  1.00  0.00     0.009 A 
ATOM     70  C   UNL A   1      40.831  26.775  26.849  1.00  0.00     0.009 A 
ATOM     71  C   UNL A   1      39.356  24.611  27.817  1.00  0.00     0.001 A 
ATOM     72  C   UNL A   1      40.604  25.662  26.038  1.00  0.00     0.001 A 
ATOM     73  C   UNL A   1      39.878  24.576  26.526  1.00  0.00     0.000 A 
ENDBRANCH  49  68
BRANCH  61  74
ATOM     74  C   UNL A   1      45.521  28.569  32.487  1.00  0.00    -0.014 A 
ATOM     75  C   UNL A   1      46.677  28.771  31.714  1.00  0.00     0.009 A 
ATOM     76  C   UNL A   1      45.568  27.645  33.542  1.00  0.00     0.009 A 
ATOM     77  C   UNL A   1      47.841  28.044  31.968  1.00  0.00     0.001 A 
ATOM     78  C   UNL A   1      46.745  26.945  33.818  1.00  0.00     0.001 A 
ATOM     79  C   UNL A   1      47.875  27.134  33.023  1.00  0.00     0.000 A 
ENDBRANCH  61  74
ENDBRANCH  35  36
ENDBRANCH  28  30
ENDBRANCH  27  28
ENDBRANCH  26  27
ENDBRANCH  25  26
ENDBRANCH   1  25
TORSDOF 17
ENDMDL
MODEL 2
REMARK VINA RESULT:     -10.6      3.737      9.190
REMARK SMILES CCCc1cc2c(cc1Cl)C=C(C(=O)OCCOCCOC(=O)c1ccc(-c3c4nc(c(-c5ccccc5)c5ccc([nH]5)c(-c5ccccc5)c5nc(c(-c6ccccc6)c6ccc3[nH]6)C=C5)C=C4)cc1)[C@H](C(F)(F)F)O2
REMARK SMILES IDX 18 1 17 2 16 3 15 4 13 5 14 6 12 7 4 8 5 9 9 10 6 11 8 12
REMARK SMILES IDX 10 13 7 14 77 15 11 16 72 17 3 18 2 19 1 20 73 21 74 22
REMARK SMILES IDX 75 23 76 24 19 25 20 26 21 27 22 28 23 29 24 30 25 31 71 32
REMARK SMILES IDX 26 33 70 34 27 35 28 36 29 37 64 38 30 39 69 40 63 41 65 42
REMARK SMILES IDX 31 43 68 44 62 45 61 46 32 48 54 49 39 50 53 51 40 52 43 53
REMARK SMILES IDX 52 54 66 55 41 56 42 57 51 59 67 60 44 61 33 62 34 63 38 64
REMARK SMILES IDX 35 65 37 66 36 67 55 68 56 69 60 70 57 71 59 72 58 73 45 74
REMARK SMILES IDX 46 75 50 76 47 77 49 78 48 79
REMARK H PARENT 65 47 43 58
REMARK Flexibility Score: inf
ROOT
ATOM      1  O   UNL A   1      38.450  21.522  25.729  1.00  0.00    -0.374 OA
ENDROOT
BRANCH   1   2
ATOM      2  C   UNL A   1      37.194  22.167  25.531  1.00  0.00     0.202 C 
BRANCH   2   3
ATOM      3  C   UNL A   1      35.947  21.401  25.978  1.00  0.00     0.261 C 
BRANCH   3   4
ATOM      4  O   UNL A   1      34.746  22.113  25.641  1.00  0.00    -0.460 OA
BRANCH   4   5
ATOM      5  C   UNL A   1      34.074  22.598  26.707  1.00  0.00     0.338 C 
ATOM      6  O   UNL A   1      34.223  22.259  27.870  1.00  0.00    -0.246 OA
BRANCH   5   7
ATOM      7  C   UNL A   1      33.185  23.701  26.302  1.00  0.00     0.087 C 
ATOM      8  C   UNL A   1      31.732  28.265  24.783  1.00  0.00    -0.026 A 
ATOM      9  C   UNL A   1      31.195  27.296  25.653  1.00  0.00     0.052 A 
ATOM     10  C   UNL A   1      32.908  27.954  24.080  1.00  0.00     0.045 A 
ATOM     11  C   UNL A   1      31.827  26.066  25.835  1.00  0.00     0.128 A 
ATOM     12  C   UNL A   1      33.527  26.715  24.246  1.00  0.00     0.032 A 
ATOM     13  Cl  UNL A   1      33.688  29.089  23.036  1.00  0.00    -0.084 Cl
ATOM     14  C   UNL A   1      32.999  25.780  25.139  1.00  0.00     0.019 A 
ATOM     15  O   UNL A   1      31.282  25.229  26.770  1.00  0.00    -0.475 OA
ATOM     16  C   UNL A   1      33.737  24.572  25.446  1.00  0.00     0.027 C 
ATOM     17  C   UNL A   1      31.801  23.869  26.873  1.00  0.00     0.316 C 
BRANCH   8  18
ATOM     18  C   UNL A   1      31.036  29.601  24.667  1.00  0.00     0.037 C 
BRANCH  18  19
ATOM     19  C   UNL A   1      30.033  29.703  23.514  1.00  0.00     0.001 C 
ATOM     20  C   UNL A   1      29.697  28.360  22.884  1.00  0.00     0.004 C 
ENDBRANCH  18  19
ENDBRANCH   8  18
BRANCH  17  21
ATOM     21  C   UNL A   1      30.755  22.884  26.308  1.00  0.00     0.430 C 
ATOM     22  F   UNL A   1      29.695  22.720  27.132  1.00  0.00    -0.167 F 
ATOM     23  F   UNL A   1      30.280  23.297  25.107  1.00  0.00    -0.167 F 
ATOM     24  F   UNL A   1      31.282  21.652  26.100  1.00  0.00    -0.167 F 
ENDBRANCH  17  21
ENDBRANCH   5   7
ENDBRANCH   4   5
ENDBRANCH   3   4
ENDBRANCH   2   3
ENDBRANCH   1   2
BRANCH   1  25
ATOM     25  C   UNL A   1      38.663  20.274  25.065  1.00  0.00     0.202 C 
BRANCH  25  26
ATOM     26  C   UNL A   1      39.528  19.233  25.789  1.00  0.00     0.261 C 
BRANCH  26  27
ATOM     27  O   UNL A   1      40.870  19.196  25.269  1.00  0.00    -0.460 OA
BRANCH  27  28
ATOM     28  C   UNL A   1      41.858  19.265  26.193  1.00  0.00     0.338 C 
ATOM     29  O   UNL A   1      42.661  18.392  26.482  1.00  0.00    -0.246 OA
BRANCH  28  30
ATOM     30  C   UNL A   1      41.988  20.661  26.660  1.00  0.00     0.060 A 
ATOM     31  C   UNL A   1      41.814  21.010  27.999  1.00  0.00     0.016 A 
ATOM     32  C   UNL A   1      42.301  21.642  25.707  1.00  0.00     0.016 A 
ATOM     33  C   UNL A   1      41.991  22.342  28.389  1.00  0.00     0.010 A 
ATOM     34  C   UNL A   1      42.476  22.969  26.098  1.00  0.00     0.010 A 
ATOM     35  C   UNL A   1      42.346  23.327  27.446  1.00  0.00    -0.014 A 
BRANCH  35  36
ATOM     36  C   UNL A   1      42.721  24.694  27.892  1.00  0.00     0.031 A 
ATOM     37  C   UNL A   1      44.152  25.095  28.097  1.00  0.00     0.074 A 
ATOM     38  C   UNL A   1      41.734  25.575  28.147  1.00  0.00     0.049 A 
ATOM     39  N   UNL A   1      44.631  26.266  28.436  1.00  0.00    -0.248 NA
ATOM     40  C   UNL A   1      45.177  24.059  27.904  1.00  0.00     0.031 C 
ATOM     41  C   UNL A   1      40.304  25.288  28.021  1.00  0.00     0.029 A 
ATOM     42  N   UNL A   1      41.777  26.885  28.557  1.00  0.00    -0.354 N 
ATOM     43  C   UNL A   1      46.010  26.116  28.479  1.00  0.00     0.074 A 
ATOM     44  C   UNL A   1      46.291  24.729  28.179  1.00  0.00     0.031 C 
ATOM     45  C   UNL A   1      39.609  26.397  28.310  1.00  0.00     0.029 A 
ATOM     46  C   UNL A   1      40.536  27.461  28.685  1.00  0.00     0.049 A 
ATOM     47  H   UNL A   1      42.617  27.365  28.742  1.00  0.00     0.167 HD
ATOM     48  C   UNL A   1      46.951  27.059  28.725  1.00  0.00     0.031 A 
ATOM     49  C   UNL A   1      40.177  28.705  29.059  1.00  0.00     0.031 A 
ATOM     50  C   UNL A   1      46.663  28.436  29.039  1.00  0.00     0.049 A 
ATOM     51  C   UNL A   1      41.243  29.717  29.372  1.00  0.00     0.074 A 
ATOM     52  C   UNL A   1      47.560  29.467  29.260  1.00  0.00     0.029 A 
ATOM     53  N   UNL A   1      45.394  28.974  29.188  1.00  0.00    -0.354 N 
ATOM     54  N   UNL A   1      42.546  29.583  29.319  1.00  0.00    -0.248 NA
ATOM     55  C   UNL A   1      40.795  31.057  29.780  1.00  0.00     0.031 C 
ATOM     56  C   UNL A   1      46.840  30.606  29.621  1.00  0.00     0.029 A 
ATOM     57  C   UNL A   1      45.489  30.313  29.534  1.00  0.00     0.049 A 
ATOM     58  H   UNL A   1      44.551  28.479  29.065  1.00  0.00     0.167 HD
ATOM     59  C   UNL A   1      43.071  30.825  29.658  1.00  0.00     0.074 A 
ATOM     60  C   UNL A   1      41.947  31.706  29.893  1.00  0.00     0.031 C 
ATOM     61  C   UNL A   1      44.370  31.193  29.763  1.00  0.00     0.031 A 
BRANCH  48  62
ATOM     62  C   UNL A   1      48.403  26.665  28.652  1.00  0.00    -0.014 A 
ATOM     63  C   UNL A   1      49.084  26.721  27.424  1.00  0.00     0.009 A 
ATOM     64  C   UNL A   1      49.045  26.084  29.756  1.00  0.00     0.009 A 
ATOM     65  C   UNL A   1      50.364  26.176  27.296  1.00  0.00     0.001 A 
ATOM     66  C   UNL A   1      50.336  25.568  29.633  1.00  0.00     0.001 A 
ATOM     67  C   UNL A   1      50.989  25.600  28.401  1.00  0.00     0.000 A 
ENDBRANCH  48  62
BRANCH  49  68
ATOM     68  C   UNL A   1      38.732  29.060  29.122  1.00  0.00    -0.014 A 
ATOM     69  C   UNL A   1      38.063  29.537  27.983  1.00  0.00     0.009 A 
ATOM     70  C   UNL A   1      38.023  28.969  30.331  1.00  0.00     0.009 A 
ATOM     71  C   UNL A   1      36.727  29.940  28.057  1.00  0.00     0.001 A 
ATOM     72  C   UNL A   1      36.678  29.335  30.393  1.00  0.00     0.001 A 
ATOM     73  C   UNL A   1      36.034  29.832  29.261  1.00  0.00     0.000 A 
ENDBRANCH  49  68
BRANCH  61  74
ATOM     74  C   UNL A   1      44.682  32.619  30.135  1.00  0.00    -0.014 A 
ATOM     75  C   UNL A   1      44.766  32.983  31.491  1.00  0.00     0.009 A 
ATOM     76  C   UNL A   1      44.764  33.625  29.161  1.00  0.00     0.009 A 
ATOM     77  C   UNL A   1      44.897  34.322  31.863  1.00  0.00     0.001 A 
ATOM     78  C   UNL A   1      44.931  34.961  29.535  1.00  0.00     0.001 A 
ATOM     79  C   UNL A   1      44.983  35.309  30.884  1.00  0.00     0.000 A 
ENDBRANCH  61  74
ENDBRANCH  35  36
ENDBRANCH  28  30
ENDBRANCH  27  28
ENDBRANCH  26  27
ENDBRANCH  25  26
ENDBRANCH   1  25
TORSDOF 17
ENDMDL
MODEL 3
REMARK VINA RESULT:     -10.5      3.867      9.155
REMARK SMILES CCCc1cc2c(cc1Cl)C=C(C(=O)OCCOCCOC(=O)c1ccc(-c3c4nc(c(-c5ccccc5)c5ccc([nH]5)c(-c5ccccc5)c5nc(c(-c6ccccc6)c6ccc3[nH]6)C=C5)C=C4)cc1)[C@H](C(F)(F)F)O2
REMARK SMILES IDX 18 1 17 2 16 3 15 4 13 5 14 6 12 7 4 8 5 9 9 10 6 11 8 12
REMARK SMILES IDX 10 13 7 14 77 15 11 16 72 17 3 18 2 19 1 20 73 21 74 22
REMARK SMILES IDX 75 23 76 24 19 25 20 26 21 27 22 28 23 29 24 30 25 31 71 32
REMARK SMILES IDX 26 33 70 34 27 35 28 36 29 37 64 38 30 39 69 40 63 41 65 42
REMARK SMILES IDX 31 43 68 44 62 45 61 46 32 48 54 49 39 50 53 51 40 52 43 53
REMARK SMILES IDX 52 54 66 55 41 56 42 57 51 59 67 60 44 61 33 62 34 63 38 64
REMARK SMILES IDX 35 65 37 66 36 67 55 68 56 69 60 70 57 71 59 72 58 73 45 74
REMARK SMILES IDX 46 75 50 76 47 77 49 78 48 79
REMARK H PARENT 65 47 43 58
REMARK Flexibility Score: inf
ROOT
ATOM      1  O   UNL A   1      38.740  21.559  25.693  1.00  0.00    -0.374 OA
ENDROOT
BRANCH   1   2
ATOM      2  C   UNL A   1      37.467  22.201  25.674  1.00  0.00     0.202 C 
BRANCH   2   3
ATOM      3  C   UNL A   1      36.254  21.317  25.378  1.00  0.00     0.261 C 
BRANCH   3   4
ATOM      4  O   UNL A   1      35.080  22.106  25.122  1.00  0.00    -0.460 OA
BRANCH   4   5
ATOM      5  C   UNL A   1      34.277  22.264  26.195  1.00  0.00     0.338 C 
ATOM      6  O   UNL A   1      34.288  21.589  27.212  1.00  0.00    -0.246 OA
BRANCH   5   7
ATOM      7  C   UNL A   1      33.425  23.456  26.034  1.00  0.00     0.087 C 
ATOM      8  C   UNL A   1      32.123  28.231  25.166  1.00  0.00    -0.026 A 
ATOM      9  C   UNL A   1      31.650  27.218  26.024  1.00  0.00     0.052 A 
ATOM     10  C   UNL A   1      33.149  27.915  24.261  1.00  0.00     0.045 A 
ATOM     11  C   UNL A   1      32.203  25.938  25.996  1.00  0.00     0.128 A 
ATOM     12  C   UNL A   1      33.686  26.628  24.219  1.00  0.00     0.032 A 
ATOM     13  Cl  UNL A   1      33.848  29.094  23.208  1.00  0.00    -0.084 Cl
ATOM     14  C   UNL A   1      33.229  25.647  25.100  1.00  0.00     0.019 A 
ATOM     15  O   UNL A   1      31.743  25.051  26.930  1.00  0.00    -0.475 OA
ATOM     16  C   UNL A   1      33.907  24.369  25.180  1.00  0.00     0.027 C 
ATOM     17  C   UNL A   1      32.162  23.656  26.831  1.00  0.00     0.316 C 
BRANCH   8  18
ATOM     18  C   UNL A   1      31.524  29.614  25.280  1.00  0.00     0.037 C 
BRANCH  18  19
ATOM     19  C   UNL A   1      32.032  30.436  26.468  1.00  0.00     0.001 C 
ATOM     20  C   UNL A   1      33.455  30.091  26.879  1.00  0.00     0.004 C 
ENDBRANCH  18  19
ENDBRANCH   8  18
BRANCH  17  21
ATOM     21  C   UNL A   1      30.968  22.801  26.356  1.00  0.00     0.430 C 
ATOM     22  F   UNL A   1      31.324  21.531  26.053  1.00  0.00    -0.167 F 
ATOM     23  F   UNL A   1      29.994  22.740  27.297  1.00  0.00    -0.167 F 
ATOM     24  F   UNL A   1      30.386  23.319  25.245  1.00  0.00    -0.167 F 
ENDBRANCH  17  21
ENDBRANCH   5   7
ENDBRANCH   4   5
ENDBRANCH   3   4
ENDBRANCH   2   3
ENDBRANCH   1   2
BRANCH   1  25
ATOM     25  C   UNL A   1      38.810  20.217  25.207  1.00  0.00     0.202 C 
BRANCH  25  26
ATOM     26  C   UNL A   1      39.789  19.265  25.910  1.00  0.00     0.261 C 
BRANCH  26  27
ATOM     27  O   UNL A   1      41.087  19.274  25.286  1.00  0.00    -0.460 OA
BRANCH  27  28
ATOM     28  C   UNL A   1      42.140  19.384  26.129  1.00  0.00     0.338 C 
ATOM     29  O   UNL A   1      42.976  18.531  26.383  1.00  0.00    -0.246 OA
BRANCH  28  30
ATOM     30  C   UNL A   1      42.285  20.796  26.541  1.00  0.00     0.060 A 
ATOM     31  C   UNL A   1      42.197  21.187  27.877  1.00  0.00     0.016 A 
ATOM     32  C   UNL A   1      42.523  21.748  25.538  1.00  0.00     0.016 A 
ATOM     33  C   UNL A   1      42.384  22.533  28.211  1.00  0.00     0.010 A 
ATOM     34  C   UNL A   1      42.709  23.089  25.874  1.00  0.00     0.010 A 
ATOM     35  C   UNL A   1      42.665  23.490  27.216  1.00  0.00    -0.014 A 
BRANCH  35  36
ATOM     36  C   UNL A   1      43.054  24.873  27.591  1.00  0.00     0.031 A 
ATOM     37  C   UNL A   1      42.031  25.933  27.879  1.00  0.00     0.074 A 
ATOM     38  C   UNL A   1      44.366  25.177  27.638  1.00  0.00     0.049 A 
ATOM     39  N   UNL A   1      42.223  27.170  28.265  1.00  0.00    -0.248 NA
ATOM     40  C   UNL A   1      40.617  25.569  27.709  1.00  0.00     0.031 C 
ATOM     41  C   UNL A   1      45.451  24.241  27.341  1.00  0.00     0.029 A 
ATOM     42  N   UNL A   1      45.011  26.347  27.955  1.00  0.00    -0.354 N 
ATOM     43  C   UNL A   1      40.960  27.726  28.404  1.00  0.00     0.074 A 
ATOM     44  C   UNL A   1      40.007  26.709  28.014  1.00  0.00     0.031 C 
ATOM     45  C   UNL A   1      46.626  24.861  27.526  1.00  0.00     0.029 A 
ATOM     46  C   UNL A   1      46.381  26.249  27.910  1.00  0.00     0.049 A 
ATOM     47  H   UNL A   1      44.537  27.177  28.191  1.00  0.00     0.167 HD
ATOM     48  C   UNL A   1      40.631  28.966  28.838  1.00  0.00     0.031 A 
ATOM     49  C   UNL A   1      47.339  27.165  28.151  1.00  0.00     0.031 A 
ATOM     50  C   UNL A   1      41.586  29.980  29.210  1.00  0.00     0.049 A 
ATOM     51  C   UNL A   1      46.942  28.548  28.587  1.00  0.00     0.074 A 
ATOM     52  C   UNL A   1      41.335  31.250  29.703  1.00  0.00     0.029 A 
ATOM     53  N   UNL A   1      42.963  29.852  29.124  1.00  0.00    -0.354 N 
ATOM     54  N   UNL A   1      45.742  29.031  28.802  1.00  0.00    -0.248 NA
ATOM     55  C   UNL A   1      48.027  29.510  28.832  1.00  0.00     0.031 C 
ATOM     56  C   UNL A   1      42.552  31.917  29.837  1.00  0.00     0.029 A 
ATOM     57  C   UNL A   1      43.570  31.034  29.518  1.00  0.00     0.049 A 
ATOM     58  H   UNL A   1      43.439  29.042  28.827  1.00  0.00     0.167 HD
ATOM     59  C   UNL A   1      45.928  30.340  29.232  1.00  0.00     0.074 A 
ATOM     60  C   UNL A   1      47.357  30.569  29.270  1.00  0.00     0.031 C 
ATOM     61  C   UNL A   1      44.994  31.262  29.562  1.00  0.00     0.031 A 
BRANCH  48  62
ATOM     62  C   UNL A   1      39.173  29.321  28.966  1.00  0.00    -0.014 A 
ATOM     63  C   UNL A   1      38.478  29.022  30.151  1.00  0.00     0.009 A 
ATOM     64  C   UNL A   1      38.451  29.799  27.862  1.00  0.00     0.009 A 
ATOM     65  C   UNL A   1      37.091  29.162  30.215  1.00  0.00     0.001 A 
ATOM     66  C   UNL A   1      37.068  29.967  27.939  1.00  0.00     0.001 A 
ATOM     67  C   UNL A   1      36.386  29.634  29.110  1.00  0.00     0.000 A 
ENDBRANCH  48  62
BRANCH  49  68
ATOM     68  C   UNL A   1      48.770  26.780  28.014  1.00  0.00    -0.014 A 
ATOM     69  C   UNL A   1      49.412  26.844  26.766  1.00  0.00     0.009 A 
ATOM     70  C   UNL A   1      49.493  26.302  29.119  1.00  0.00     0.009 A 
ATOM     71  C   UNL A   1      50.733  26.415  26.620  1.00  0.00     0.001 A 
ATOM     72  C   UNL A   1      50.826  25.910  28.978  1.00  0.00     0.001 A 
ATOM     73  C   UNL A   1      51.441  25.954  27.728  1.00  0.00     0.000 A 
ENDBRANCH  49  68
BRANCH  61  74
ATOM     74  C   UNL A   1      45.459  32.620  30.019  1.00  0.00    -0.014 A 
ATOM     75  C   UNL A   1      45.635  32.872  31.391  1.00  0.00     0.009 A 
ATOM     76  C   UNL A   1      45.598  33.684  29.115  1.00  0.00     0.009 A 
ATOM     77  C   UNL A   1      45.911  34.161  31.849  1.00  0.00     0.001 A 
ATOM     78  C   UNL A   1      45.910  34.967  29.573  1.00  0.00     0.001 A 
ATOM     79  C   UNL A   1      46.052  35.206  30.940  1.00  0.00     0.000 A 
ENDBRANCH  61  74
ENDBRANCH  35  36
ENDBRANCH  28  30
ENDBRANCH  27  28
ENDBRANCH  26  27
ENDBRANCH  25  26
ENDBRANCH   1  25
TORSDOF 17
ENDMDL
