MODEL 1
REMARK VINA RESULT:     -12.4      0.000      0.000
REMARK SMILES CN1C(=O)C[C@H](C(=O)Nc2ccc(C(=O)OCCOCCOC(=O)c3ccc(-c4c5nc(c(-c6ccccc6)c6ccc([nH]6)c(-c6ccccc6)c6nc(c(-c7ccccc7)c7ccc4[nH]7)C=C6)C=C5)cc3)cc2)S/C1=[NH+]\c1cccc(C(F)(F)F)c1
REMARK SMILES IDX 18 1 17 2 16 3 14 4 15 5 13 6 10 7 11 8 74 9 12 10 73 11
REMARK SMILES IDX 9 12 7 13 8 14 6 16 1 17 2 18 3 19 76 20 4 21 5 22 75 23
REMARK SMILES IDX 77 24 78 26 79 27 87 28 80 29 82 30 81 31 83 32 84 33 85 34
REMARK SMILES IDX 86 35 19 36 20 37 21 38 22 39 23 40 24 41 25 42 26 43 72 44
REMARK SMILES IDX 27 45 71 46 28 47 29 48 30 49 65 50 31 51 70 52 64 53 66 54
REMARK SMILES IDX 32 55 69 56 63 57 62 58 33 60 55 61 40 62 54 63 41 64 44 65
REMARK SMILES IDX 53 66 67 67 42 68 43 69 52 71 68 72 45 73 34 74 35 75 39 76
REMARK SMILES IDX 36 77 38 78 37 79 56 80 57 81 61 82 58 83 60 84 59 85 46 86
REMARK SMILES IDX 47 87 51 88 48 89 50 90 49 91
REMARK H PARENT 9 15 77 25 66 59 44 70
REMARK Flexibility Score: inf
ROOT
ATOM      1  C   UNL A   1      34.702  33.404  29.576  1.00  0.00     0.202 C 
ENDROOT
BRANCH   1   2
ATOM      2  C   UNL A   1      34.094  33.401  28.173  1.00  0.00     0.261 C 
BRANCH   2   3
ATOM      3  O   UNL A   1      33.488  32.139  27.867  1.00  0.00    -0.460 OA
BRANCH   3   4
ATOM      4  C   UNL A   1      34.355  31.187  27.447  1.00  0.00     0.338 C 
ATOM      5  O   UNL A   1      35.574  31.250  27.469  1.00  0.00    -0.246 OA
BRANCH   4   6
ATOM      6  C   UNL A   1      33.639  29.967  27.001  1.00  0.00     0.060 A 
ATOM      7  C   UNL A   1      32.291  27.559  26.799  1.00  0.00     0.041 A 
ATOM      8  C   UNL A   1      31.578  28.706  27.130  1.00  0.00     0.027 A 
ATOM      9  C   UNL A   1      33.603  27.652  26.340  1.00  0.00     0.027 A 
ATOM     10  C   UNL A   1      32.260  29.911  27.253  1.00  0.00     0.018 A 
ATOM     11  C   UNL A   1      34.292  28.861  26.452  1.00  0.00     0.018 A 
BRANCH   7  12
ATOM     12  N   UNL A   1      31.650  26.337  26.941  1.00  0.00    -0.325 N 
ATOM     13  C   UNL A   1      30.626  25.781  26.240  1.00  0.00     0.238 C 
ATOM     14  O   UNL A   1      30.135  24.759  26.744  1.00  0.00    -0.273 OA
ATOM     15  H   UNL A   1      31.995  25.778  27.674  1.00  0.00     0.169 HD
BRANCH  13  16
ATOM     16  C   UNL A   1      30.188  26.184  24.815  1.00  0.00     0.160 C 
ATOM     17  C   UNL A   1      33.839  26.936  22.501  1.00  0.00     0.301 C 
ATOM     18  N   UNL A   1      32.572  26.606  23.153  1.00  0.00    -0.194 N 
ATOM     19  C   UNL A   1      31.746  27.697  23.407  1.00  0.00     0.311 C 
ATOM     20  C   UNL A   1      32.262  25.256  23.322  1.00  0.00     0.319 C 
ATOM     21  O   UNL A   1      32.028  28.837  23.020  1.00  0.00    -0.247 OA
ATOM     22  C   UNL A   1      30.434  27.501  24.137  1.00  0.00     0.153 C 
ATOM     23  S   UNL A   1      30.589  24.873  23.648  1.00  0.00    -0.024 SA
ATOM     24  N   UNL A   1      33.187  24.361  23.150  1.00  0.00    -0.235 N 
ATOM     25  H   UNL A   1      34.125  24.642  23.044  1.00  0.00     0.313 HD
BRANCH  24  26
ATOM     26  C   UNL A   1      32.861  23.002  23.117  1.00  0.00     0.126 A 
ATOM     27  C   UNL A   1      32.232  22.435  22.012  1.00  0.00     0.052 A 
ATOM     28  C   UNL A   1      33.175  22.201  24.221  1.00  0.00     0.064 A 
ATOM     29  C   UNL A   1      31.975  21.063  21.983  1.00  0.00     0.005 A 
ATOM     30  C   UNL A   1      32.958  20.820  24.194  1.00  0.00     0.060 A 
ATOM     31  C   UNL A   1      32.348  20.258  23.063  1.00  0.00     0.013 A 
BRANCH  30  32
ATOM     32  C   UNL A   1      33.399  19.959  25.347  1.00  0.00     0.416 C 
ATOM     33  F   UNL A   1      32.445  19.066  25.728  1.00  0.00    -0.166 F 
ATOM     34  F   UNL A   1      34.507  19.223  25.054  1.00  0.00    -0.166 F 
ATOM     35  F   UNL A   1      33.714  20.669  26.467  1.00  0.00    -0.166 F 
ENDBRANCH  30  32
ENDBRANCH  24  26
ENDBRANCH  13  16
ENDBRANCH   7  12
ENDBRANCH   4   6
ENDBRANCH   3   4
ENDBRANCH   2   3
ENDBRANCH   1   2
BRANCH   1  36
ATOM     36  O   UNL A   1      33.840  33.685  30.678  1.00  0.00    -0.374 OA
BRANCH  36  37
ATOM     37  C   UNL A   1      34.287  34.577  31.696  1.00  0.00     0.202 C 
BRANCH  37  38
ATOM     38  C   UNL A   1      34.792  33.984  33.017  1.00  0.00     0.261 C 
BRANCH  38  39
ATOM     39  O   UNL A   1      35.103  32.583  32.941  1.00  0.00    -0.460 OA
BRANCH  39  40
ATOM     40  C   UNL A   1      36.300  32.262  33.491  1.00  0.00     0.338 C 
ATOM     41  O   UNL A   1      36.697  32.534  34.611  1.00  0.00    -0.246 OA
BRANCH  40  42
ATOM     42  C   UNL A   1      37.065  31.376  32.595  1.00  0.00     0.060 A 
ATOM     43  C   UNL A   1      38.149  30.688  33.156  1.00  0.00     0.016 A 
ATOM     44  C   UNL A   1      36.823  31.326  31.221  1.00  0.00     0.016 A 
ATOM     45  C   UNL A   1      39.046  30.015  32.334  1.00  0.00     0.010 A 
ATOM     46  C   UNL A   1      37.732  30.655  30.394  1.00  0.00     0.010 A 
ATOM     47  C   UNL A   1      38.875  30.047  30.945  1.00  0.00    -0.014 A 
BRANCH  47  48
ATOM     48  C   UNL A   1      40.009  29.637  30.083  1.00  0.00     0.031 A 
ATOM     49  C   UNL A   1      41.123  30.623  29.844  1.00  0.00     0.074 A 
ATOM     50  C   UNL A   1      40.093  28.391  29.590  1.00  0.00     0.049 A 
ATOM     51  N   UNL A   1      42.238  30.469  29.176  1.00  0.00    -0.248 NA
ATOM     52  C   UNL A   1      40.960  31.957  30.446  1.00  0.00     0.031 C 
ATOM     53  C   UNL A   1      39.108  27.329  29.792  1.00  0.00     0.029 A 
ATOM     54  N   UNL A   1      41.070  27.805  28.824  1.00  0.00    -0.354 N 
ATOM     55  C   UNL A   1      42.908  31.683  29.279  1.00  0.00     0.074 A 
ATOM     56  C   UNL A   1      42.062  32.572  30.043  1.00  0.00     0.031 C 
ATOM     57  C   UNL A   1      39.534  26.217  29.169  1.00  0.00     0.029 A 
ATOM     58  C   UNL A   1      40.810  26.495  28.510  1.00  0.00     0.049 A 
ATOM     59  H   UNL A   1      41.879  28.281  28.528  1.00  0.00     0.167 HD
ATOM     60  C   UNL A   1      44.123  32.027  28.791  1.00  0.00     0.031 A 
ATOM     61  C   UNL A   1      41.522  25.621  27.774  1.00  0.00     0.031 A 
ATOM     62  C   UNL A   1      44.963  31.153  28.020  1.00  0.00     0.049 A 
ATOM     63  C   UNL A   1      42.841  26.049  27.187  1.00  0.00     0.074 A 
ATOM     64  C   UNL A   1      46.207  31.414  27.470  1.00  0.00     0.029 A 
ATOM     65  N   UNL A   1      44.642  29.848  27.688  1.00  0.00    -0.354 N 
ATOM     66  N   UNL A   1      43.466  27.195  27.301  1.00  0.00    -0.248 NA
ATOM     67  C   UNL A   1      43.558  25.049  26.381  1.00  0.00     0.031 C 
ATOM     68  C   UNL A   1      46.622  30.275  26.772  1.00  0.00     0.029 A 
ATOM     69  C   UNL A   1      45.658  29.292  26.929  1.00  0.00     0.049 A 
ATOM     70  H   UNL A   1      43.815  29.384  27.952  1.00  0.00     0.167 HD
ATOM     71  C   UNL A   1      44.662  27.045  26.611  1.00  0.00     0.074 A 
ATOM     72  C   UNL A   1      44.680  25.693  26.090  1.00  0.00     0.031 C 
ATOM     73  C   UNL A   1      45.661  27.943  26.426  1.00  0.00     0.031 A 
BRANCH  60  74
ATOM     74  C   UNL A   1      44.598  33.426  29.064  1.00  0.00    -0.014 A 
ATOM     75  C   UNL A   1      44.277  34.483  28.198  1.00  0.00     0.009 A 
ATOM     76  C   UNL A   1      45.366  33.690  30.207  1.00  0.00     0.009 A 
ATOM     77  C   UNL A   1      44.744  35.774  28.457  1.00  0.00     0.001 A 
ATOM     78  C   UNL A   1      45.811  34.986  30.477  1.00  0.00     0.001 A 
ATOM     79  C   UNL A   1      45.507  36.024  29.597  1.00  0.00     0.000 A 
ENDBRANCH  60  74
BRANCH  61  80
ATOM     80  C   UNL A   1      41.008  24.247  27.544  1.00  0.00    -0.014 A 
ATOM     81  C   UNL A   1      41.568  23.152  28.219  1.00  0.00     0.009 A 
ATOM     82  C   UNL A   1      39.977  24.022  26.620  1.00  0.00     0.009 A 
ATOM     83  C   UNL A   1      41.122  21.855  27.953  1.00  0.00     0.001 A 
ATOM     84  C   UNL A   1      39.517  22.727  26.374  1.00  0.00     0.001 A 
ATOM     85  C   UNL A   1      40.095  21.644  27.032  1.00  0.00     0.000 A 
ENDBRANCH  61  80
BRANCH  73  86
ATOM     86  C   UNL A   1      46.871  27.477  25.670  1.00  0.00    -0.014 A 
ATOM     87  C   UNL A   1      46.995  27.685  24.288  1.00  0.00     0.009 A 
ATOM     88  C   UNL A   1      47.916  26.841  26.360  1.00  0.00     0.009 A 
ATOM     89  C   UNL A   1      48.126  27.232  23.605  1.00  0.00     0.001 A 
ATOM     90  C   UNL A   1      49.057  26.413  25.680  1.00  0.00     0.001 A 
ATOM     91  C   UNL A   1      49.156  26.600  24.302  1.00  0.00     0.000 A 
ENDBRANCH  73  86
ENDBRANCH  47  48
ENDBRANCH  40  42
ENDBRANCH  39  40
ENDBRANCH  38  39
ENDBRANCH  37  38
ENDBRANCH  36  37
ENDBRANCH   1  36
TORSDOF 18
ENDMDL
MODEL 2
REMARK VINA RESULT:     -12.2      0.530      5.498
REMARK SMILES CN1C(=O)C[C@H](C(=O)Nc2ccc(C(=O)OCCOCCOC(=O)c3ccc(-c4c5nc(c(-c6ccccc6)c6ccc([nH]6)c(-c6ccccc6)c6nc(c(-c7ccccc7)c7ccc4[nH]7)C=C6)C=C5)cc3)cc2)S/C1=[NH+]\c1cccc(C(F)(F)F)c1
REMARK SMILES IDX 18 1 17 2 16 3 14 4 15 5 13 6 10 7 11 8 74 9 12 10 73 11
REMARK SMILES IDX 9 12 7 13 8 14 6 16 1 17 2 18 3 19 76 20 4 21 5 22 75 23
REMARK SMILES IDX 77 24 78 26 79 27 87 28 80 29 82 30 81 31 83 32 84 33 85 34
REMARK SMILES IDX 86 35 19 36 20 37 21 38 22 39 23 40 24 41 25 42 26 43 72 44
REMARK SMILES IDX 27 45 71 46 28 47 29 48 30 49 65 50 31 51 70 52 64 53 66 54
REMARK SMILES IDX 32 55 69 56 63 57 62 58 33 60 55 61 40 62 54 63 41 64 44 65
REMARK SMILES IDX 53 66 67 67 42 68 43 69 52 71 68 72 45 73 34 74 35 75 39 76
REMARK SMILES IDX 36 77 38 78 37 79 56 80 57 81 61 82 58 83 60 84 59 85 46 86
REMARK SMILES IDX 47 87 51 88 48 89 50 90 49 91
REMARK H PARENT 9 15 77 25 66 59 44 70
REMARK Flexibility Score: inf
ROOT
ATOM      1  C   UNL A   1      34.429  33.554  29.614  1.00  0.00     0.202 C 
ENDROOT
BRANCH   1   2
ATOM      2  C   UNL A   1      33.843  33.507  28.202  1.00  0.00     0.261 C 
BRANCH   2   3
ATOM      3  O   UNL A   1      33.301  32.214  27.903  1.00  0.00    -0.460 OA
BRANCH   3   4
ATOM      4  C   UNL A   1      34.213  31.307  27.481  1.00  0.00     0.338 C 
ATOM      5  O   UNL A   1      35.427  31.427  27.508  1.00  0.00    -0.246 OA
BRANCH   4   6
ATOM      6  C   UNL A   1      33.557  30.057  27.026  1.00  0.00     0.060 A 
ATOM      7  C   UNL A   1      32.299  27.602  26.810  1.00  0.00     0.041 A 
ATOM      8  C   UNL A   1      31.535  28.729  27.092  1.00  0.00     0.027 A 
ATOM      9  C   UNL A   1      33.625  27.732  26.404  1.00  0.00     0.027 A 
ATOM     10  C   UNL A   1      32.172  29.958  27.222  1.00  0.00     0.018 A 
ATOM     11  C   UNL A   1      34.269  28.964  26.524  1.00  0.00     0.018 A 
BRANCH   7  12
ATOM     12  N   UNL A   1      31.693  26.361  26.947  1.00  0.00    -0.325 N 
ATOM     13  C   UNL A   1      30.689  25.777  26.241  1.00  0.00     0.238 C 
ATOM     14  O   UNL A   1      30.226  24.740  26.740  1.00  0.00    -0.273 OA
ATOM     15  H   UNL A   1      32.052  25.810  27.680  1.00  0.00     0.169 HD
BRANCH  13  16
ATOM     16  C   UNL A   1      30.245  26.171  24.815  1.00  0.00     0.160 C 
ATOM     17  C   UNL A   1      33.884  26.928  22.486  1.00  0.00     0.301 C 
ATOM     18  N   UNL A   1      32.621  26.595  23.143  1.00  0.00    -0.194 N 
ATOM     19  C   UNL A   1      31.791  27.684  23.395  1.00  0.00     0.311 C 
ATOM     20  C   UNL A   1      32.317  25.246  23.319  1.00  0.00     0.319 C 
ATOM     21  O   UNL A   1      32.067  28.824  23.001  1.00  0.00    -0.247 OA
ATOM     22  C   UNL A   1      30.482  27.487  24.130  1.00  0.00     0.153 C 
ATOM     23  S   UNL A   1      30.647  24.856  23.653  1.00  0.00    -0.024 SA
ATOM     24  N   UNL A   1      33.245  24.353  23.149  1.00  0.00    -0.235 N 
ATOM     25  H   UNL A   1      34.182  24.638  23.038  1.00  0.00     0.313 HD
BRANCH  24  26
ATOM     26  C   UNL A   1      32.926  22.993  23.124  1.00  0.00     0.126 A 
ATOM     27  C   UNL A   1      32.191  22.441  22.077  1.00  0.00     0.052 A 
ATOM     28  C   UNL A   1      33.354  22.175  24.175  1.00  0.00     0.064 A 
ATOM     29  C   UNL A   1      31.940  21.068  22.049  1.00  0.00     0.005 A 
ATOM     30  C   UNL A   1      33.143  20.792  24.144  1.00  0.00     0.060 A 
ATOM     31  C   UNL A   1      32.425  20.246  23.071  1.00  0.00     0.013 A 
BRANCH  30  32
ATOM     32  C   UNL A   1      33.703  19.914  25.231  1.00  0.00     0.416 C 
ATOM     33  F   UNL A   1      35.063  19.946  25.281  1.00  0.00    -0.166 F 
ATOM     34  F   UNL A   1      33.273  20.281  26.470  1.00  0.00    -0.166 F 
ATOM     35  F   UNL A   1      33.365  18.601  25.098  1.00  0.00    -0.166 F 
ENDBRANCH  30  32
ENDBRANCH  24  26
ENDBRANCH  13  16
ENDBRANCH   7  12
ENDBRANCH   4   6
ENDBRANCH   3   4
ENDBRANCH   2   3
ENDBRANCH   1   2
BRANCH   1  36
ATOM     36  O   UNL A   1      33.701  34.261  30.617  1.00  0.00    -0.374 OA
BRANCH  36  37
ATOM     37  C   UNL A   1      34.324  34.514  31.874  1.00  0.00     0.202 C 
BRANCH  37  38
ATOM     38  C   UNL A   1      34.240  33.436  32.961  1.00  0.00     0.261 C 
BRANCH  38  39
ATOM     39  O   UNL A   1      34.955  32.233  32.641  1.00  0.00    -0.460 OA
BRANCH  39  40
ATOM     40  C   UNL A   1      36.246  32.242  33.054  1.00  0.00     0.338 C 
ATOM     41  O   UNL A   1      36.695  32.744  34.070  1.00  0.00    -0.246 OA
BRANCH  40  42
ATOM     42  C   UNL A   1      37.084  31.412  32.169  1.00  0.00     0.060 A 
ATOM     43  C   UNL A   1      38.041  30.594  32.784  1.00  0.00     0.016 A 
ATOM     44  C   UNL A   1      37.036  31.532  30.779  1.00  0.00     0.016 A 
ATOM     45  C   UNL A   1      39.009  29.958  32.014  1.00  0.00     0.010 A 
ATOM     46  C   UNL A   1      38.016  30.898  30.007  1.00  0.00     0.010 A 
ATOM     47  C   UNL A   1      39.037  30.156  30.629  1.00  0.00    -0.014 A 
BRANCH  47  48
ATOM     48  C   UNL A   1      40.259  29.770  29.884  1.00  0.00     0.031 A 
ATOM     49  C   UNL A   1      40.289  28.429  29.198  1.00  0.00     0.074 A 
ATOM     50  C   UNL A   1      41.288  30.622  29.746  1.00  0.00     0.049 A 
ATOM     51  N   UNL A   1      41.221  27.902  28.446  1.00  0.00    -0.248 NA
ATOM     52  C   UNL A   1      39.105  27.571  29.380  1.00  0.00     0.031 C 
ATOM     53  C   UNL A   1      41.360  31.966  30.316  1.00  0.00     0.029 A 
ATOM     54  N   UNL A   1      42.471  30.479  29.065  1.00  0.00    -0.354 N 
ATOM     55  C   UNL A   1      40.737  26.656  28.065  1.00  0.00     0.074 A 
ATOM     56  C   UNL A   1      39.446  26.491  28.694  1.00  0.00     0.031 C 
ATOM     57  C   UNL A   1      42.526  32.529  29.955  1.00  0.00     0.029 A 
ATOM     58  C   UNL A   1      43.288  31.579  29.147  1.00  0.00     0.049 A 
ATOM     59  H   UNL A   1      42.710  29.665  28.566  1.00  0.00     0.167 HD
ATOM     60  C   UNL A   1      41.308  25.734  27.255  1.00  0.00     0.031 A 
ATOM     61  C   UNL A   1      44.512  31.790  28.628  1.00  0.00     0.031 A 
ATOM     62  C   UNL A   1      42.596  25.885  26.636  1.00  0.00     0.049 A 
ATOM     63  C   UNL A   1      45.154  30.722  27.783  1.00  0.00     0.074 A 
ATOM     64  C   UNL A   1      43.267  25.001  25.809  1.00  0.00     0.029 A 
ATOM     65  N   UNL A   1      43.410  26.997  26.781  1.00  0.00    -0.354 N 
ATOM     66  N   UNL A   1      44.681  29.554  27.424  1.00  0.00    -0.248 NA
ATOM     67  C   UNL A   1      46.498  31.014  27.262  1.00  0.00     0.031 C 
ATOM     68  C   UNL A   1      44.506  25.564  25.482  1.00  0.00     0.029 A 
ATOM     69  C   UNL A   1      44.583  26.817  26.068  1.00  0.00     0.049 A 
ATOM     70  H   UNL A   1      43.187  27.796  27.311  1.00  0.00     0.167 HD
ATOM     71  C   UNL A   1      45.652  28.986  26.609  1.00  0.00     0.074 A 
ATOM     72  C   UNL A   1      46.736  29.942  26.518  1.00  0.00     0.031 C 
ATOM     73  C   UNL A   1      45.647  27.782  25.985  1.00  0.00     0.031 A 
BRANCH  60  74
ATOM     74  C   UNL A   1      40.541  24.464  27.016  1.00  0.00    -0.014 A 
ATOM     75  C   UNL A   1      39.334  24.469  26.301  1.00  0.00     0.009 A 
ATOM     76  C   UNL A   1      41.041  23.247  27.503  1.00  0.00     0.009 A 
ATOM     77  C   UNL A   1      38.625  23.282  26.105  1.00  0.00     0.001 A 
ATOM     78  C   UNL A   1      40.342  22.058  27.285  1.00  0.00     0.001 A 
ATOM     79  C   UNL A   1      39.131  22.078  26.595  1.00  0.00     0.000 A 
ENDBRANCH  60  74
BRANCH  61  80
ATOM     80  C   UNL A   1      45.221  33.069  28.888  1.00  0.00    -0.014 A 
ATOM     81  C   UNL A   1      46.028  33.222  30.025  1.00  0.00     0.009 A 
ATOM     82  C   UNL A   1      45.065  34.155  28.013  1.00  0.00     0.009 A 
ATOM     83  C   UNL A   1      46.643  34.447  30.296  1.00  0.00     0.001 A 
ATOM     84  C   UNL A   1      45.701  35.370  28.274  1.00  0.00     0.001 A 
ATOM     85  C   UNL A   1      46.481  35.519  29.419  1.00  0.00     0.000 A 
ENDBRANCH  61  80
BRANCH  73  86
ATOM     86  C   UNL A   1      46.828  27.455  25.118  1.00  0.00    -0.014 A 
ATOM     87  C   UNL A   1      47.881  26.654  25.587  1.00  0.00     0.009 A 
ATOM     88  C   UNL A   1      46.872  27.936  23.799  1.00  0.00     0.009 A 
ATOM     89  C   UNL A   1      48.974  26.373  24.764  1.00  0.00     0.001 A 
ATOM     90  C   UNL A   1      47.953  27.631  22.970  1.00  0.00     0.001 A 
ATOM     91  C   UNL A   1      49.007  26.860  23.457  1.00  0.00     0.000 A 
ENDBRANCH  73  86
ENDBRANCH  47  48
ENDBRANCH  40  42
ENDBRANCH  39  40
ENDBRANCH  38  39
ENDBRANCH  37  38
ENDBRANCH  36  37
ENDBRANCH   1  36
TORSDOF 18
ENDMDL
MODEL 3
REMARK VINA RESULT:     -11.4      4.915      9.929
REMARK SMILES CN1C(=O)C[C@H](C(=O)Nc2ccc(C(=O)OCCOCCOC(=O)c3ccc(-c4c5nc(c(-c6ccccc6)c6ccc([nH]6)c(-c6ccccc6)c6nc(c(-c7ccccc7)c7ccc4[nH]7)C=C6)C=C5)cc3)cc2)S/C1=[NH+]\c1cccc(C(F)(F)F)c1
REMARK SMILES IDX 18 1 17 2 16 3 14 4 15 5 13 6 10 7 11 8 74 9 12 10 73 11
REMARK SMILES IDX 9 12 7 13 8 14 6 16 1 17 2 18 3 19 76 20 4 21 5 22 75 23
REMARK SMILES IDX 77 24 78 26 79 27 87 28 80 29 82 30 81 31 83 32 84 33 85 34
REMARK SMILES IDX 86 35 19 36 20 37 21 38 22 39 23 40 24 41 25 42 26 43 72 44
REMARK SMILES IDX 27 45 71 46 28 47 29 48 30 49 65 50 31 51 70 52 64 53 66 54
REMARK SMILES IDX 32 55 69 56 63 57 62 58 33 60 55 61 40 62 54 63 41 64 44 65
REMARK SMILES IDX 53 66 67 67 42 68 43 69 52 71 68 72 45 73 34 74 35 75 39 76
REMARK SMILES IDX 36 77 38 78 37 79 56 80 57 81 61 82 58 83 60 84 59 85 46 86
REMARK SMILES IDX 47 87 51 88 48 89 50 90 49 91
REMARK H PARENT 9 15 77 25 66 59 44 70
REMARK Flexibility Score: inf
ROOT
ATOM      1  C   UNL A   1      38.217  21.448  25.358  1.00  0.00     0.202 C 
ENDROOT
BRANCH   1   2
ATOM      2  C   UNL A   1      36.726  21.343  25.683  1.00  0.00     0.261 C 
BRANCH   2   3
ATOM      3  O   UNL A   1      35.976  20.874  24.556  1.00  0.00    -0.460 OA
BRANCH   3   4
ATOM      4  C   UNL A   1      34.911  20.099  24.873  1.00  0.00     0.338 C 
ATOM      5  O   UNL A   1      34.858  18.881  24.830  1.00  0.00    -0.246 OA
BRANCH   4   6
ATOM      6  C   UNL A   1      33.781  20.918  25.375  1.00  0.00     0.060 A 
ATOM      7  C   UNL A   1      32.004  22.932  26.042  1.00  0.00     0.041 A 
ATOM      8  C   UNL A   1      31.959  22.389  24.763  1.00  0.00     0.027 A 
ATOM      9  C   UNL A   1      32.754  22.318  27.043  1.00  0.00     0.027 A 
ATOM     10  C   UNL A   1      32.868  21.393  24.423  1.00  0.00     0.018 A 
ATOM     11  C   UNL A   1      33.662  21.312  26.710  1.00  0.00     0.018 A 
BRANCH   7  12
ATOM     12  N   UNL A   1      31.280  24.092  26.277  1.00  0.00    -0.325 N 
ATOM     13  C   UNL A   1      31.688  25.379  26.439  1.00  0.00     0.238 C 
ATOM     14  O   UNL A   1      30.815  26.162  26.844  1.00  0.00    -0.273 OA
ATOM     15  H   UNL A   1      30.306  23.960  26.336  1.00  0.00     0.169 HD
BRANCH  13  16
ATOM     16  C   UNL A   1      33.041  25.959  25.972  1.00  0.00     0.160 C 
ATOM     17  C   UNL A   1      32.896  26.228  21.596  1.00  0.00     0.301 C 
ATOM     18  N   UNL A   1      33.002  26.279  23.054  1.00  0.00    -0.194 N 
ATOM     19  C   UNL A   1      33.905  25.374  23.605  1.00  0.00     0.311 C 
ATOM     20  C   UNL A   1      32.316  27.295  23.719  1.00  0.00     0.319 C 
ATOM     21  O   UNL A   1      34.627  24.657  22.900  1.00  0.00    -0.247 OA
ATOM     22  C   UNL A   1      34.062  25.278  25.107  1.00  0.00     0.153 C 
ATOM     23  S   UNL A   1      32.818  27.636  25.357  1.00  0.00    -0.024 SA
ATOM     24  N   UNL A   1      31.417  27.982  23.082  1.00  0.00    -0.235 N 
ATOM     25  H   UNL A   1      31.124  27.694  22.187  1.00  0.00     0.313 HD
BRANCH  24  26
ATOM     26  C   UNL A   1      30.859  29.127  23.659  1.00  0.00     0.126 A 
ATOM     27  C   UNL A   1      31.466  29.763  24.739  1.00  0.00     0.052 A 
ATOM     28  C   UNL A   1      29.666  29.639  23.137  1.00  0.00     0.064 A 
ATOM     29  C   UNL A   1      30.918  30.939  25.254  1.00  0.00     0.005 A 
ATOM     30  C   UNL A   1      29.124  30.836  23.616  1.00  0.00     0.060 A 
ATOM     31  C   UNL A   1      29.761  31.480  24.687  1.00  0.00     0.013 A 
BRANCH  30  32
ATOM     32  C   UNL A   1      27.899  31.427  22.972  1.00  0.00     0.416 C 
ATOM     33  F   UNL A   1      27.371  30.619  22.013  1.00  0.00    -0.166 F 
ATOM     34  F   UNL A   1      26.897  31.650  23.867  1.00  0.00    -0.166 F 
ATOM     35  F   UNL A   1      28.126  32.626  22.366  1.00  0.00    -0.166 F 
ENDBRANCH  30  32
ENDBRANCH  24  26
ENDBRANCH  13  16
ENDBRANCH   7  12
ENDBRANCH   4   6
ENDBRANCH   3   4
ENDBRANCH   2   3
ENDBRANCH   1   2
BRANCH   1  36
ATOM     36  O   UNL A   1      39.139  21.477  26.446  1.00  0.00    -0.374 OA
BRANCH  36  37
ATOM     37  C   UNL A   1      40.533  21.580  26.169  1.00  0.00     0.202 C 
BRANCH  37  38
ATOM     38  C   UNL A   1      41.229  22.925  26.414  1.00  0.00     0.261 C 
BRANCH  38  39
ATOM     39  O   UNL A   1      40.337  24.051  26.396  1.00  0.00    -0.460 OA
BRANCH  39  40
ATOM     40  C   UNL A   1      40.950  25.225  26.109  1.00  0.00     0.338 C 
ATOM     41  O   UNL A   1      41.720  25.453  25.192  1.00  0.00    -0.246 OA
BRANCH  40  42
ATOM     42  C   UNL A   1      40.453  26.301  26.985  1.00  0.00     0.060 A 
ATOM     43  C   UNL A   1      41.020  27.571  26.815  1.00  0.00     0.016 A 
ATOM     44  C   UNL A   1      39.566  26.051  28.033  1.00  0.00     0.016 A 
ATOM     45  C   UNL A   1      40.767  28.575  27.744  1.00  0.00     0.010 A 
ATOM     46  C   UNL A   1      39.320  27.060  28.972  1.00  0.00     0.010 A 
ATOM     47  C   UNL A   1      39.965  28.305  28.859  1.00  0.00    -0.014 A 
BRANCH  47  48
ATOM     48  C   UNL A   1      39.995  29.253  29.998  1.00  0.00     0.031 A 
ATOM     49  C   UNL A   1      38.970  30.356  30.043  1.00  0.00     0.074 A 
ATOM     50  C   UNL A   1      40.858  29.091  31.014  1.00  0.00     0.049 A 
ATOM     51  N   UNL A   1      38.767  31.264  30.964  1.00  0.00    -0.248 NA
ATOM     52  C   UNL A   1      38.045  30.441  28.899  1.00  0.00     0.031 C 
ATOM     53  C   UNL A   1      41.863  28.034  31.115  1.00  0.00     0.029 A 
ATOM     54  N   UNL A   1      41.012  29.818  32.169  1.00  0.00    -0.354 N 
ATOM     55  C   UNL A   1      37.694  32.024  30.512  1.00  0.00     0.074 A 
ATOM     56  C   UNL A   1      37.311  31.494  29.222  1.00  0.00     0.031 C 
ATOM     57  C   UNL A   1      42.528  28.177  32.275  1.00  0.00     0.029 A 
ATOM     58  C   UNL A   1      42.009  29.345  32.985  1.00  0.00     0.049 A 
ATOM     59  H   UNL A   1      40.461  30.603  32.389  1.00  0.00     0.167 HD
ATOM     60  C   UNL A   1      37.075  33.063  31.119  1.00  0.00     0.031 A 
ATOM     61  C   UNL A   1      42.450  29.805  34.171  1.00  0.00     0.031 A 
ATOM     62  C   UNL A   1      37.458  33.603  32.394  1.00  0.00     0.049 A 
ATOM     63  C   UNL A   1      41.786  31.003  34.795  1.00  0.00     0.074 A 
ATOM     64  C   UNL A   1      36.900  34.665  33.086  1.00  0.00     0.029 A 
ATOM     65  N   UNL A   1      38.501  33.122  33.167  1.00  0.00    -0.354 N 
ATOM     66  N   UNL A   1      40.768  31.705  34.362  1.00  0.00    -0.248 NA
ATOM     67  C   UNL A   1      42.329  31.461  36.082  1.00  0.00     0.031 C 
ATOM     68  C   UNL A   1      37.632  34.849  34.264  1.00  0.00     0.029 A 
ATOM     69  C   UNL A   1      38.613  33.873  34.326  1.00  0.00     0.049 A 
ATOM     70  H   UNL A   1      39.078  32.360  32.929  1.00  0.00     0.167 HD
ATOM     71  C   UNL A   1      40.526  32.665  35.337  1.00  0.00     0.074 A 
ATOM     72  C   UNL A   1      41.498  32.449  36.388  1.00  0.00     0.031 C 
ATOM     73  C   UNL A   1      39.582  33.638  35.363  1.00  0.00     0.031 A 
BRANCH  60  74
ATOM     74  C   UNL A   1      35.927  33.698  30.385  1.00  0.00    -0.014 A 
ATOM     75  C   UNL A   1      36.033  34.040  29.028  1.00  0.00     0.009 A 
ATOM     76  C   UNL A   1      34.721  33.944  31.059  1.00  0.00     0.009 A 
ATOM     77  C   UNL A   1      34.963  34.646  28.367  1.00  0.00     0.001 A 
ATOM     78  C   UNL A   1      33.644  34.528  30.389  1.00  0.00     0.001 A 
ATOM     79  C   UNL A   1      33.768  34.886  29.048  1.00  0.00     0.000 A 
ENDBRANCH  60  74
BRANCH  61  80
ATOM     80  C   UNL A   1      43.583  29.133  34.857  1.00  0.00    -0.014 A 
ATOM     81  C   UNL A   1      43.349  28.166  35.846  1.00  0.00     0.009 A 
ATOM     82  C   UNL A   1      44.906  29.483  34.547  1.00  0.00     0.009 A 
ATOM     83  C   UNL A   1      44.418  27.582  36.531  1.00  0.00     0.001 A 
ATOM     84  C   UNL A   1      45.973  28.880  35.216  1.00  0.00     0.001 A 
ATOM     85  C   UNL A   1      45.729  27.938  36.213  1.00  0.00     0.000 A 
ENDBRANCH  61  80
BRANCH  73  86
ATOM     86  C   UNL A   1      39.528  34.507  36.586  1.00  0.00    -0.014 A 
ATOM     87  C   UNL A   1      40.144  35.768  36.615  1.00  0.00     0.009 A 
ATOM     88  C   UNL A   1      38.826  34.065  37.719  1.00  0.00     0.009 A 
ATOM     89  C   UNL A   1      40.089  36.553  37.768  1.00  0.00     0.001 A 
ATOM     90  C   UNL A   1      38.750  34.864  38.861  1.00  0.00     0.001 A 
ATOM     91  C   UNL A   1      39.390  36.102  38.888  1.00  0.00     0.000 A 
ENDBRANCH  73  86
ENDBRANCH  47  48
ENDBRANCH  40  42
ENDBRANCH  39  40
ENDBRANCH  38  39
ENDBRANCH  37  38
ENDBRANCH  36  37
ENDBRANCH   1  36
TORSDOF 18
ENDMDL
