MODEL 1
REMARK VINA RESULT:     -10.1      0.000      0.000
REMARK SMILES CN(C(=O)N1CCC(C(=O)OCCOCCOC(=O)c2ccc(-c3c4nc(c(-c5ccccc5)c5ccc([nH]5)c(-c5ccccc5)c5nc(c(-c6ccccc6)c6ccc3[nH]6)C=C5)C=C4)cc2)CC1)[C@H]1CCSC1
REMARK SMILES IDX 14 1 13 2 12 3 11 4 9 5 10 6 8 7 3 8 4 9 5 10 6 11 69 12
REMARK SMILES IDX 7 13 68 14 2 15 1 16 70 17 71 18 74 19 72 20 73 21 15 22
REMARK SMILES IDX 16 23 17 24 18 25 19 26 20 27 21 28 67 29 22 30 66 31 23 32
REMARK SMILES IDX 24 33 25 34 60 35 26 36 65 37 59 38 61 39 27 40 64 41 58 42
REMARK SMILES IDX 57 43 28 45 50 46 35 47 49 48 36 49 39 50 48 51 62 52 37 53
REMARK SMILES IDX 38 54 47 56 63 57 40 58 29 59 30 60 34 61 31 62 33 63 32 64
REMARK SMILES IDX 51 65 52 66 56 67 53 68 55 69 54 70 41 71 42 72 46 73 43 74
REMARK SMILES IDX 45 75 44 76
REMARK H PARENT 61 44 39 55
REMARK Flexibility Score: inf
ROOT
ATOM      1  O   UNL A   1      42.452  19.689  25.354  1.00  0.00    -0.374 OA
ENDROOT
BRANCH   1   2
ATOM      2  C   UNL A   1      41.455  19.552  26.363  1.00  0.00     0.202 C 
BRANCH   2   3
ATOM      3  C   UNL A   1      40.640  20.804  26.690  1.00  0.00     0.261 C 
BRANCH   3   4
ATOM      4  O   UNL A   1      39.568  21.004  25.752  1.00  0.00    -0.463 OA
BRANCH   4   5
ATOM      5  C   UNL A   1      38.793  22.094  25.978  1.00  0.00     0.309 C 
ATOM      6  O   UNL A   1      39.026  22.969  26.804  1.00  0.00    -0.252 OA
BRANCH   5   7
ATOM      7  C   UNL A   1      37.538  22.112  25.135  1.00  0.00     0.103 C 
ATOM      8  C   UNL A   1      33.470  23.013  24.326  1.00  0.00     0.320 C 
ATOM      9  O   UNL A   1      32.665  22.262  24.878  1.00  0.00    -0.248 OA
ATOM     10  N   UNL A   1      34.826  22.712  24.313  1.00  0.00    -0.325 N 
ATOM     11  C   UNL A   1      35.223  21.334  24.613  1.00  0.00     0.122 C 
ATOM     12  C   UNL A   1      35.914  23.642  24.001  1.00  0.00     0.122 C 
ATOM     13  C   UNL A   1      36.367  21.258  25.622  1.00  0.00     0.037 C 
ATOM     14  C   UNL A   1      37.075  23.554  24.981  1.00  0.00     0.037 C 
BRANCH   8  15
ATOM     15  N   UNL A   1      33.046  24.184  23.718  1.00  0.00    -0.324 N 
ATOM     16  C   UNL A   1      32.718  24.250  22.296  1.00  0.00     0.149 C 
BRANCH  15  17
ATOM     17  C   UNL A   1      32.507  25.295  24.520  1.00  0.00     0.097 C 
ATOM     18  C   UNL A   1      33.564  26.331  24.916  1.00  0.00     0.037 C 
ATOM     19  C   UNL A   1      31.345  26.105  23.926  1.00  0.00     0.094 C 
ATOM     20  C   UNL A   1      32.844  27.353  25.779  1.00  0.00     0.072 C 
ATOM     21  S   UNL A   1      31.199  27.548  25.037  1.00  0.00    -0.160 SA
ENDBRANCH  15  17
ENDBRANCH   8  15
ENDBRANCH   5   7
ENDBRANCH   4   5
ENDBRANCH   3   4
ENDBRANCH   2   3
ENDBRANCH   1   2
BRANCH   1  22
ATOM     22  C   UNL A   1      43.707  20.247  25.740  1.00  0.00     0.202 C 
BRANCH  22  23
ATOM     23  C   UNL A   1      44.179  21.479  24.956  1.00  0.00     0.261 C 
BRANCH  23  24
ATOM     24  O   UNL A   1      43.261  22.582  25.073  1.00  0.00    -0.460 OA
BRANCH  24  25
ATOM     25  C   UNL A   1      43.841  23.806  25.079  1.00  0.00     0.338 C 
ATOM     26  O   UNL A   1      44.758  24.195  24.369  1.00  0.00    -0.246 OA
BRANCH  25  27
ATOM     27  C   UNL A   1      43.092  24.722  25.957  1.00  0.00     0.060 A 
ATOM     28  C   UNL A   1      43.465  26.072  25.953  1.00  0.00     0.016 A 
ATOM     29  C   UNL A   1      42.110  24.260  26.834  1.00  0.00     0.016 A 
ATOM     30  C   UNL A   1      42.895  26.959  26.863  1.00  0.00     0.010 A 
ATOM     31  C   UNL A   1      41.546  25.147  27.757  1.00  0.00     0.010 A 
ATOM     32  C   UNL A   1      41.964  26.491  27.799  1.00  0.00    -0.014 A 
BRANCH  32  33
ATOM     33  C   UNL A   1      41.548  27.366  28.920  1.00  0.00     0.031 A 
ATOM     34  C   UNL A   1      42.304  27.293  30.218  1.00  0.00     0.074 A 
ATOM     35  C   UNL A   1      40.527  28.230  28.783  1.00  0.00     0.049 A 
ATOM     36  N   UNL A   1      42.083  27.924  31.343  1.00  0.00    -0.248 NA
ATOM     37  C   UNL A   1      43.463  26.387  30.250  1.00  0.00     0.031 C 
ATOM     38  C   UNL A   1      39.750  28.434  27.563  1.00  0.00     0.029 A 
ATOM     39  N   UNL A   1      39.967  29.093  29.692  1.00  0.00    -0.354 N 
ATOM     40  C   UNL A   1      43.069  27.487  32.218  1.00  0.00     0.074 A 
ATOM     41  C   UNL A   1      43.874  26.519  31.503  1.00  0.00     0.031 C 
ATOM     42  C   UNL A   1      38.796  29.351  27.805  1.00  0.00     0.029 A 
ATOM     43  C   UNL A   1      38.878  29.771  29.203  1.00  0.00     0.049 A 
ATOM     44  H   UNL A   1      40.312  29.211  30.606  1.00  0.00     0.167 HD
ATOM     45  C   UNL A   1      43.289  27.859  33.502  1.00  0.00     0.031 A 
ATOM     46  C   UNL A   1      38.027  30.612  29.821  1.00  0.00     0.031 A 
ATOM     47  C   UNL A   1      42.479  28.802  34.222  1.00  0.00     0.049 A 
ATOM     48  C   UNL A   1      38.236  30.943  31.274  1.00  0.00     0.074 A 
ATOM     49  C   UNL A   1      42.623  29.246  35.525  1.00  0.00     0.029 A 
ATOM     50  N   UNL A   1      41.364  29.440  33.701  1.00  0.00    -0.354 N 
ATOM     51  N   UNL A   1      39.183  30.538  32.086  1.00  0.00    -0.248 NA
ATOM     52  C   UNL A   1      37.261  31.853  31.895  1.00  0.00     0.031 C 
ATOM     53  C   UNL A   1      41.565  30.116  35.808  1.00  0.00     0.029 A 
ATOM     54  C   UNL A   1      40.795  30.255  34.664  1.00  0.00     0.049 A 
ATOM     55  H   UNL A   1      41.028  29.329  32.783  1.00  0.00     0.167 HD
ATOM     56  C   UNL A   1      38.931  31.159  33.303  1.00  0.00     0.074 A 
ATOM     57  C   UNL A   1      37.750  31.977  33.121  1.00  0.00     0.031 C 
ATOM     58  C   UNL A   1      39.619  31.063  34.467  1.00  0.00     0.031 A 
BRANCH  45  59
ATOM     59  C   UNL A   1      44.438  27.206  34.218  1.00  0.00    -0.014 A 
ATOM     60  C   UNL A   1      45.714  27.791  34.232  1.00  0.00     0.009 A 
ATOM     61  C   UNL A   1      44.236  25.998  34.902  1.00  0.00     0.009 A 
ATOM     62  C   UNL A   1      46.773  27.159  34.888  1.00  0.00     0.001 A 
ATOM     63  C   UNL A   1      45.290  25.381  35.578  1.00  0.00     0.001 A 
ATOM     64  C   UNL A   1      46.560  25.958  35.562  1.00  0.00     0.000 A 
ENDBRANCH  45  59
BRANCH  46  65
ATOM     65  C   UNL A   1      36.872  31.174  29.074  1.00  0.00    -0.014 A 
ATOM     66  C   UNL A   1      35.773  30.371  28.740  1.00  0.00     0.009 A 
ATOM     67  C   UNL A   1      36.871  32.524  28.688  1.00  0.00     0.009 A 
ATOM     68  C   UNL A   1      34.703  30.905  28.018  1.00  0.00     0.001 A 
ATOM     69  C   UNL A   1      35.788  33.060  27.989  1.00  0.00     0.001 A 
ATOM     70  C   UNL A   1      34.708  32.250  27.648  1.00  0.00     0.000 A 
ENDBRANCH  46  65
BRANCH  58  71
ATOM     71  C   UNL A   1      39.139  31.888  35.626  1.00  0.00    -0.014 A 
ATOM     72  C   UNL A   1      38.181  31.392  36.524  1.00  0.00     0.009 A 
ATOM     73  C   UNL A   1      39.698  33.154  35.857  1.00  0.00     0.009 A 
ATOM     74  C   UNL A   1      37.777  32.161  37.619  1.00  0.00     0.001 A 
ATOM     75  C   UNL A   1      39.310  33.910  36.964  1.00  0.00     0.001 A 
ATOM     76  C   UNL A   1      38.346  33.415  37.841  1.00  0.00     0.000 A 
ENDBRANCH  58  71
ENDBRANCH  32  33
ENDBRANCH  25  27
ENDBRANCH  24  25
ENDBRANCH  23  24
ENDBRANCH  22  23
ENDBRANCH   1  22
TORSDOF 16
ENDMDL
MODEL 2
REMARK VINA RESULT:      -9.9      3.989      9.256
REMARK SMILES CN(C(=O)N1CCC(C(=O)OCCOCCOC(=O)c2ccc(-c3c4nc(c(-c5ccccc5)c5ccc([nH]5)c(-c5ccccc5)c5nc(c(-c6ccccc6)c6ccc3[nH]6)C=C5)C=C4)cc2)CC1)[C@H]1CCSC1
REMARK SMILES IDX 14 1 13 2 12 3 11 4 9 5 10 6 8 7 3 8 4 9 5 10 6 11 69 12
REMARK SMILES IDX 7 13 68 14 2 15 1 16 70 17 71 18 74 19 72 20 73 21 15 22
REMARK SMILES IDX 16 23 17 24 18 25 19 26 20 27 21 28 67 29 22 30 66 31 23 32
REMARK SMILES IDX 24 33 25 34 60 35 26 36 65 37 59 38 61 39 27 40 64 41 58 42
REMARK SMILES IDX 57 43 28 45 50 46 35 47 49 48 36 49 39 50 48 51 62 52 37 53
REMARK SMILES IDX 38 54 47 56 63 57 40 58 29 59 30 60 34 61 31 62 33 63 32 64
REMARK SMILES IDX 51 65 52 66 56 67 53 68 55 69 54 70 41 71 42 72 46 73 43 74
REMARK SMILES IDX 45 75 44 76
REMARK H PARENT 61 44 39 55
REMARK Flexibility Score: inf
ROOT
ATOM      1  O   UNL A   1      34.754  33.786  29.177  1.00  0.00    -0.374 OA
ENDROOT
BRANCH   1   2
ATOM      2  C   UNL A   1      34.441  32.397  29.096  1.00  0.00     0.202 C 
BRANCH   2   3
ATOM      3  C   UNL A   1      34.438  31.779  27.696  1.00  0.00     0.261 C 
BRANCH   3   4
ATOM      4  O   UNL A   1      33.659  30.572  27.647  1.00  0.00    -0.463 OA
BRANCH   4   5
ATOM      5  C   UNL A   1      32.523  30.642  26.908  1.00  0.00     0.309 C 
ATOM      6  O   UNL A   1      31.767  31.606  26.863  1.00  0.00    -0.252 OA
BRANCH   5   7
ATOM      7  C   UNL A   1      32.225  29.363  26.159  1.00  0.00     0.103 C 
ATOM      8  C   UNL A   1      33.238  25.882  23.953  1.00  0.00     0.320 C 
ATOM      9  O   UNL A   1      33.517  26.093  22.771  1.00  0.00    -0.248 OA
ATOM     10  N   UNL A   1      32.675  26.880  24.737  1.00  0.00    -0.325 N 
ATOM     11  C   UNL A   1      32.071  28.027  24.054  1.00  0.00     0.122 C 
ATOM     12  C   UNL A   1      32.600  26.889  26.201  1.00  0.00     0.122 C 
ATOM     13  C   UNL A   1      32.504  29.363  24.656  1.00  0.00     0.037 C 
ATOM     14  C   UNL A   1      32.997  28.225  26.811  1.00  0.00     0.037 C 
BRANCH   8  15
ATOM     15  N   UNL A   1      33.494  24.649  24.532  1.00  0.00    -0.324 N 
ATOM     16  C   UNL A   1      32.448  23.649  24.734  1.00  0.00     0.149 C 
BRANCH  15  17
ATOM     17  C   UNL A   1      34.866  24.117  24.592  1.00  0.00     0.097 C 
ATOM     18  C   UNL A   1      35.207  23.458  25.931  1.00  0.00     0.037 C 
ATOM     19  C   UNL A   1      35.283  23.100  23.519  1.00  0.00     0.094 C 
ATOM     20  C   UNL A   1      36.661  23.031  25.829  1.00  0.00     0.072 C 
ATOM     21  S   UNL A   1      36.881  22.453  24.121  1.00  0.00    -0.160 SA
ENDBRANCH  15  17
ENDBRANCH   8  15
ENDBRANCH   5   7
ENDBRANCH   4   5
ENDBRANCH   3   4
ENDBRANCH   2   3
ENDBRANCH   1   2
BRANCH   1  22
ATOM     22  C   UNL A   1      33.890  34.696  28.497  1.00  0.00     0.202 C 
BRANCH  22  23
ATOM     23  C   UNL A   1      33.082  35.659  29.376  1.00  0.00     0.261 C 
BRANCH  23  24
ATOM     24  O   UNL A   1      32.537  35.007  30.538  1.00  0.00    -0.460 OA
BRANCH  24  25
ATOM     25  C   UNL A   1      32.831  35.606  31.717  1.00  0.00     0.338 C 
ATOM     26  O   UNL A   1      32.195  36.487  32.279  1.00  0.00    -0.246 OA
BRANCH  25  27
ATOM     27  C   UNL A   1      33.964  34.925  32.368  1.00  0.00     0.060 A 
ATOM     28  C   UNL A   1      35.220  35.539  32.289  1.00  0.00     0.016 A 
ATOM     29  C   UNL A   1      33.823  33.670  32.962  1.00  0.00     0.016 A 
ATOM     30  C   UNL A   1      36.353  34.878  32.758  1.00  0.00     0.010 A 
ATOM     31  C   UNL A   1      34.962  33.000  33.422  1.00  0.00     0.010 A 
ATOM     32  C   UNL A   1      36.235  33.587  33.288  1.00  0.00    -0.014 A 
BRANCH  32  33
ATOM     33  C   UNL A   1      37.455  32.788  33.551  1.00  0.00     0.031 A 
ATOM     34  C   UNL A   1      38.214  33.020  34.829  1.00  0.00     0.074 A 
ATOM     35  C   UNL A   1      37.874  31.855  32.679  1.00  0.00     0.049 A 
ATOM     36  N   UNL A   1      39.331  32.476  35.241  1.00  0.00    -0.248 NA
ATOM     37  C   UNL A   1      37.633  33.993  35.767  1.00  0.00     0.031 C 
ATOM     38  C   UNL A   1      37.201  31.500  31.432  1.00  0.00     0.029 A 
ATOM     39  N   UNL A   1      38.980  31.042  32.712  1.00  0.00    -0.354 N 
ATOM     40  C   UNL A   1      39.590  33.046  36.480  1.00  0.00     0.074 A 
ATOM     41  C   UNL A   1      38.530  33.995  36.743  1.00  0.00     0.031 C 
ATOM     42  C   UNL A   1      37.921  30.551  30.806  1.00  0.00     0.029 A 
ATOM     43  C   UNL A   1      39.117  30.259  31.593  1.00  0.00     0.049 A 
ATOM     44  H   UNL A   1      39.613  31.024  33.465  1.00  0.00     0.167 HD
ATOM     45  C   UNL A   1      40.619  32.800  37.328  1.00  0.00     0.031 A 
ATOM     46  C   UNL A   1      40.110  29.425  31.231  1.00  0.00     0.031 A 
ATOM     47  C   UNL A   1      41.685  31.875  37.060  1.00  0.00     0.049 A 
ATOM     48  C   UNL A   1      41.289  29.233  32.146  1.00  0.00     0.074 A 
ATOM     49  C   UNL A   1      42.770  31.555  37.857  1.00  0.00     0.029 A 
ATOM     50  N   UNL A   1      41.806  31.128  35.899  1.00  0.00    -0.354 N 
ATOM     51  N   UNL A   1      41.515  29.764  33.324  1.00  0.00    -0.248 NA
ATOM     52  C   UNL A   1      42.348  28.324  31.684  1.00  0.00     0.031 C 
ATOM     53  C   UNL A   1      43.574  30.650  37.157  1.00  0.00     0.029 A 
ATOM     54  C   UNL A   1      42.960  30.366  35.946  1.00  0.00     0.049 A 
ATOM     55  H   UNL A   1      41.165  31.138  35.152  1.00  0.00     0.167 HD
ATOM     56  C   UNL A   1      42.727  29.236  33.753  1.00  0.00     0.074 A 
ATOM     57  C   UNL A   1      43.183  28.336  32.715  1.00  0.00     0.031 C 
ATOM     58  C   UNL A   1      43.400  29.474  34.905  1.00  0.00     0.031 A 
BRANCH  45  59
ATOM     59  C   UNL A   1      40.651  33.581  38.611  1.00  0.00    -0.014 A 
ATOM     60  C   UNL A   1      40.037  33.093  39.775  1.00  0.00     0.009 A 
ATOM     61  C   UNL A   1      41.320  34.813  38.660  1.00  0.00     0.009 A 
ATOM     62  C   UNL A   1      40.062  33.843  40.954  1.00  0.00     0.001 A 
ATOM     63  C   UNL A   1      41.366  35.548  39.845  1.00  0.00     0.001 A 
ATOM     64  C   UNL A   1      40.728  35.067  40.989  1.00  0.00     0.000 A 
ENDBRANCH  45  59
BRANCH  46  65
ATOM     65  C   UNL A   1      40.050  28.731  29.919  1.00  0.00    -0.014 A 
ATOM     66  C   UNL A   1      40.526  29.351  28.755  1.00  0.00     0.009 A 
ATOM     67  C   UNL A   1      39.507  27.439  29.827  1.00  0.00     0.009 A 
ATOM     68  C   UNL A   1      40.444  28.698  27.523  1.00  0.00     0.001 A 
ATOM     69  C   UNL A   1      39.450  26.780  28.598  1.00  0.00     0.001 A 
ATOM     70  C   UNL A   1      39.912  27.412  27.446  1.00  0.00     0.000 A 
ENDBRANCH  46  65
BRANCH  58  71
ATOM     71  C   UNL A   1      44.683  28.725  35.125  1.00  0.00    -0.014 A 
ATOM     72  C   UNL A   1      45.919  29.271  34.746  1.00  0.00     0.009 A 
ATOM     73  C   UNL A   1      44.659  27.483  35.778  1.00  0.00     0.009 A 
ATOM     74  C   UNL A   1      47.103  28.574  34.996  1.00  0.00     0.001 A 
ATOM     75  C   UNL A   1      45.845  26.800  36.049  1.00  0.00     0.001 A 
ATOM     76  C   UNL A   1      47.066  27.343  35.652  1.00  0.00     0.000 A 
ENDBRANCH  58  71
ENDBRANCH  32  33
ENDBRANCH  25  27
ENDBRANCH  24  25
ENDBRANCH  23  24
ENDBRANCH  22  23
ENDBRANCH   1  22
TORSDOF 16
ENDMDL
MODEL 3
REMARK VINA RESULT:      -9.7      3.384      8.299
REMARK SMILES CN(C(=O)N1CCC(C(=O)OCCOCCOC(=O)c2ccc(-c3c4nc(c(-c5ccccc5)c5ccc([nH]5)c(-c5ccccc5)c5nc(c(-c6ccccc6)c6ccc3[nH]6)C=C5)C=C4)cc2)CC1)[C@H]1CCSC1
REMARK SMILES IDX 14 1 13 2 12 3 11 4 9 5 10 6 8 7 3 8 4 9 5 10 6 11 69 12
REMARK SMILES IDX 7 13 68 14 2 15 1 16 70 17 71 18 74 19 72 20 73 21 15 22
REMARK SMILES IDX 16 23 17 24 18 25 19 26 20 27 21 28 67 29 22 30 66 31 23 32
REMARK SMILES IDX 24 33 25 34 60 35 26 36 65 37 59 38 61 39 27 40 64 41 58 42
REMARK SMILES IDX 57 43 28 45 50 46 35 47 49 48 36 49 39 50 48 51 62 52 37 53
REMARK SMILES IDX 38 54 47 56 63 57 40 58 29 59 30 60 34 61 31 62 33 63 32 64
REMARK SMILES IDX 51 65 52 66 56 67 53 68 55 69 54 70 41 71 42 72 46 73 43 74
REMARK SMILES IDX 45 75 44 76
REMARK H PARENT 61 44 39 55
REMARK Flexibility Score: inf
ROOT
ATOM      1  O   UNL A   1      32.364  29.308  24.089  1.00  0.00    -0.374 OA
ENDROOT
BRANCH   1   2
ATOM      2  C   UNL A   1      31.976  28.906  22.777  1.00  0.00     0.202 C 
BRANCH   2   3
ATOM      3  C   UNL A   1      30.473  28.797  22.514  1.00  0.00     0.261 C 
BRANCH   3   4
ATOM      4  O   UNL A   1      30.053  27.428  22.375  1.00  0.00    -0.463 OA
BRANCH   4   5
ATOM      5  C   UNL A   1      29.549  26.857  23.498  1.00  0.00     0.309 C 
ATOM      6  O   UNL A   1      28.376  26.903  23.850  1.00  0.00    -0.252 OA
BRANCH   5   7
ATOM      7  C   UNL A   1      30.606  26.181  24.342  1.00  0.00     0.103 C 
ATOM      8  C   UNL A   1      32.301  22.948  26.507  1.00  0.00     0.320 C 
ATOM      9  O   UNL A   1      31.798  22.761  27.616  1.00  0.00    -0.248 OA
ATOM     10  N   UNL A   1      32.010  24.096  25.781  1.00  0.00    -0.325 N 
ATOM     11  C   UNL A   1      31.425  25.230  26.502  1.00  0.00     0.122 C 
ATOM     12  C   UNL A   1      32.255  24.299  24.351  1.00  0.00     0.122 C 
ATOM     13  C   UNL A   1      30.219  25.827  25.778  1.00  0.00     0.037 C 
ATOM     14  C   UNL A   1      31.073  24.923  23.624  1.00  0.00     0.037 C 
BRANCH   8  15
ATOM     15  N   UNL A   1      33.157  22.011  25.950  1.00  0.00    -0.324 N 
ATOM     16  C   UNL A   1      34.567  21.924  26.322  1.00  0.00     0.149 C 
BRANCH  15  17
ATOM     17  C   UNL A   1      32.626  20.810  25.285  1.00  0.00     0.097 C 
ATOM     18  C   UNL A   1      32.807  20.823  23.764  1.00  0.00     0.037 C 
ATOM     19  C   UNL A   1      33.159  19.445  25.746  1.00  0.00     0.094 C 
ATOM     20  C   UNL A   1      32.152  19.550  23.254  1.00  0.00     0.072 C 
ATOM     21  S   UNL A   1      32.530  18.277  24.492  1.00  0.00    -0.160 SA
ENDBRANCH  15  17
ENDBRANCH   8  15
ENDBRANCH   5   7
ENDBRANCH   4   5
ENDBRANCH   3   4
ENDBRANCH   2   3
ENDBRANCH   1   2
BRANCH   1  22
ATOM     22  C   UNL A   1      31.329  29.699  24.990  1.00  0.00     0.202 C 
BRANCH  22  23
ATOM     23  C   UNL A   1      31.709  30.727  26.064  1.00  0.00     0.261 C 
BRANCH  23  24
ATOM     24  O   UNL A   1      32.974  30.426  26.682  1.00  0.00    -0.460 OA
BRANCH  24  25
ATOM     25  C   UNL A   1      33.594  31.484  27.257  1.00  0.00     0.338 C 
ATOM     26  O   UNL A   1      33.112  32.583  27.497  1.00  0.00    -0.246 OA
BRANCH  25  27
ATOM     27  C   UNL A   1      34.927  31.093  27.746  1.00  0.00     0.060 A 
ATOM     28  C   UNL A   1      35.139  29.739  28.035  1.00  0.00     0.016 A 
ATOM     29  C   UNL A   1      35.920  32.038  28.005  1.00  0.00     0.016 A 
ATOM     30  C   UNL A   1      36.327  29.329  28.635  1.00  0.00     0.010 A 
ATOM     31  C   UNL A   1      37.109  31.628  28.619  1.00  0.00     0.010 A 
ATOM     32  C   UNL A   1      37.301  30.278  28.969  1.00  0.00    -0.014 A 
BRANCH  32  33
ATOM     33  C   UNL A   1      38.443  29.885  29.826  1.00  0.00     0.031 A 
ATOM     34  C   UNL A   1      39.493  28.967  29.263  1.00  0.00     0.074 A 
ATOM     35  C   UNL A   1      38.561  30.352  31.082  1.00  0.00     0.049 A 
ATOM     36  N   UNL A   1      40.546  28.453  29.846  1.00  0.00    -0.248 NA
ATOM     37  C   UNL A   1      39.333  28.578  27.853  1.00  0.00     0.031 C 
ATOM     38  C   UNL A   1      37.641  31.286  31.726  1.00  0.00     0.029 A 
ATOM     39  N   UNL A   1      39.508  30.091  32.041  1.00  0.00    -0.354 N 
ATOM     40  C   UNL A   1      41.169  27.676  28.879  1.00  0.00     0.074 A 
ATOM     41  C   UNL A   1      40.365  27.765  27.679  1.00  0.00     0.031 C 
ATOM     42  C   UNL A   1      38.058  31.505  32.986  1.00  0.00     0.029 A 
ATOM     43  C   UNL A   1      39.252  30.702  33.242  1.00  0.00     0.049 A 
ATOM     44  H   UNL A   1      40.292  29.518  31.881  1.00  0.00     0.167 HD
ATOM     45  C   UNL A   1      42.311  26.954  28.978  1.00  0.00     0.031 A 
ATOM     46  C   UNL A   1      39.892  30.603  34.423  1.00  0.00     0.031 A 
ATOM     47  C   UNL A   1      43.100  26.846  30.174  1.00  0.00     0.049 A 
ATOM     48  C   UNL A   1      41.109  29.724  34.536  1.00  0.00     0.074 A 
ATOM     49  C   UNL A   1      44.274  26.141  30.373  1.00  0.00     0.029 A 
ATOM     50  N   UNL A   1      42.787  27.453  31.380  1.00  0.00    -0.354 N 
ATOM     51  N   UNL A   1      41.699  29.008  33.609  1.00  0.00    -0.248 NA
ATOM     52  C   UNL A   1      41.750  29.644  35.857  1.00  0.00     0.031 C 
ATOM     53  C   UNL A   1      44.646  26.282  31.714  1.00  0.00     0.029 A 
ATOM     54  C   UNL A   1      43.732  27.119  32.335  1.00  0.00     0.049 A 
ATOM     55  H   UNL A   1      42.009  28.035  31.534  1.00  0.00     0.167 HD
ATOM     56  C   UNL A   1      42.791  28.412  34.228  1.00  0.00     0.074 A 
ATOM     57  C   UNL A   1      42.789  28.859  35.606  1.00  0.00     0.031 C 
ATOM     58  C   UNL A   1      43.716  27.573  33.701  1.00  0.00     0.031 A 
BRANCH  45  59
ATOM     59  C   UNL A   1      42.749  26.193  27.758  1.00  0.00    -0.014 A 
ATOM     60  C   UNL A   1      42.367  24.858  27.557  1.00  0.00     0.009 A 
ATOM     61  C   UNL A   1      43.541  26.829  26.789  1.00  0.00     0.009 A 
ATOM     62  C   UNL A   1      42.800  24.163  26.425  1.00  0.00     0.001 A 
ATOM     63  C   UNL A   1      43.951  26.140  25.647  1.00  0.00     0.001 A 
ATOM     64  C   UNL A   1      43.589  24.804  25.471  1.00  0.00     0.000 A 
ENDBRANCH  45  59
BRANCH  46  65
ATOM     65  C   UNL A   1      39.371  31.331  35.609  1.00  0.00    -0.014 A 
ATOM     66  C   UNL A   1      39.970  32.523  36.041  1.00  0.00     0.009 A 
ATOM     67  C   UNL A   1      38.269  30.827  36.318  1.00  0.00     0.009 A 
ATOM     68  C   UNL A   1      39.485  33.187  37.170  1.00  0.00     0.001 A 
ATOM     69  C   UNL A   1      37.772  31.508  37.432  1.00  0.00     0.001 A 
ATOM     70  C   UNL A   1      38.384  32.682  37.861  1.00  0.00     0.000 A 
ENDBRANCH  46  65
BRANCH  58  71
ATOM     71  C   UNL A   1      44.824  27.109  34.602  1.00  0.00    -0.014 A 
ATOM     72  C   UNL A   1      46.047  27.793  34.665  1.00  0.00     0.009 A 
ATOM     73  C   UNL A   1      44.617  26.006  35.446  1.00  0.00     0.009 A 
ATOM     74  C   UNL A   1      47.050  27.366  35.539  1.00  0.00     0.001 A 
ATOM     75  C   UNL A   1      45.610  25.596  36.335  1.00  0.00     0.001 A 
ATOM     76  C   UNL A   1      46.829  26.273  36.377  1.00  0.00     0.000 A 
ENDBRANCH  58  71
ENDBRANCH  32  33
ENDBRANCH  25  27
ENDBRANCH  24  25
ENDBRANCH  23  24
ENDBRANCH  22  23
ENDBRANCH   1  22
TORSDOF 16
ENDMDL
