MODEL 1
REMARK VINA RESULT:     -10.0      0.000      0.000
REMARK SMILES COc1ccc([C@@H]([NH3+])[C@](C)(C(N)=O)C(=O)OCCOCCOC(=O)c2ccc(-c3c4nc(c(-c5ccccc5)c5ccc([nH]5)c(-c5ccccc5)c5nc(c(-c6ccccc6)c6ccc3[nH]6)C=C5)C=C4)cc2)cc1OC
REMARK SMILES IDX 18 1 17 2 16 3 14 4 15 5 9 6 10 7 7 8 6 9 3 10 4 11 74 12
REMARK SMILES IDX 5 13 73 14 2 15 1 16 75 17 76 18 8 19 11 23 12 24 13 25
REMARK SMILES IDX 19 28 20 29 21 30 22 31 23 32 24 33 25 34 26 35 72 36 27 37
REMARK SMILES IDX 71 38 28 39 29 40 30 41 65 42 31 43 70 44 64 45 66 46 32 47
REMARK SMILES IDX 69 48 63 49 62 50 33 52 55 53 40 54 54 55 41 56 44 57 53 58
REMARK SMILES IDX 67 59 42 60 43 61 52 63 68 64 45 65 34 66 35 67 39 68 36 69
REMARK SMILES IDX 38 70 37 71 56 72 57 73 61 74 58 75 60 76 59 77 46 78 47 79
REMARK SMILES IDX 51 80 48 81 50 82 49 83
REMARK H PARENT 8 20 8 21 8 22 12 26 12 27 66 51 44 62
REMARK Flexibility Score: inf
ROOT
ATOM      1  C   UNL A   1      31.564  27.372  26.154  1.00  0.00     0.202 C 
ENDROOT
BRANCH   1   2
ATOM      2  C   UNL A   1      32.484  26.149  26.261  1.00  0.00     0.261 C 
BRANCH   2   3
ATOM      3  O   UNL A   1      32.257  25.215  25.185  1.00  0.00    -0.462 OA
BRANCH   3   4
ATOM      4  C   UNL A   1      33.121  25.305  24.132  1.00  0.00     0.328 C 
ATOM      5  O   UNL A   1      34.281  25.680  24.259  1.00  0.00    -0.251 OA
BRANCH   4   6
ATOM      6  C   UNL A   1      32.505  24.870  22.797  1.00  0.00     0.198 C 
ATOM      7  C   UNL A   1      31.023  24.524  23.095  1.00  0.00     0.041 C 
BRANCH   6   8
ATOM      8  C   UNL A   1      33.346  23.657  22.269  1.00  0.00     0.239 C 
BRANCH   8   9
ATOM      9  C   UNL A   1      33.286  22.432  23.185  1.00  0.00     0.015 A 
ATOM     10  C   UNL A   1      33.080  20.276  24.990  1.00  0.00     0.160 A 
ATOM     11  C   UNL A   1      32.185  20.390  23.922  1.00  0.00     0.051 A 
ATOM     12  C   UNL A   1      34.124  21.197  25.133  1.00  0.00     0.161 A 
ATOM     13  C   UNL A   1      32.292  21.453  23.026  1.00  0.00     0.014 A 
ATOM     14  C   UNL A   1      34.208  22.271  24.231  1.00  0.00     0.060 A 
BRANCH  10  15
ATOM     15  O   UNL A   1      32.936  19.202  25.829  1.00  0.00    -0.493 OA
ATOM     16  C   UNL A   1      33.073  17.971  25.117  1.00  0.00     0.278 C 
ENDBRANCH  10  15
BRANCH  12  17
ATOM     17  O   UNL A   1      35.123  21.217  26.071  1.00  0.00    -0.493 OA
ATOM     18  C   UNL A   1      36.439  21.539  25.649  1.00  0.00     0.278 C 
ENDBRANCH  12  17
ENDBRANCH   8   9
BRANCH   8  19
ATOM     19  N   UNL A   1      33.003  23.216  20.905  1.00  0.00    -0.350 N 
ATOM     20  H   UNL A   1      32.027  22.925  20.877  1.00  0.00     0.345 HD
ATOM     21  H   UNL A   1      33.600  22.432  20.641  1.00  0.00     0.345 HD
ATOM     22  H   UNL A   1      33.147  23.987  20.253  1.00  0.00     0.345 HD
ENDBRANCH   8  19
ENDBRANCH   6   8
BRANCH   6  23
ATOM     23  C   UNL A   1      32.431  25.949  21.698  1.00  0.00     0.241 C 
ATOM     24  N   UNL A   1      31.436  26.871  21.684  1.00  0.00    -0.368 N 
ATOM     25  O   UNL A   1      33.300  26.076  20.830  1.00  0.00    -0.274 OA
ATOM     26  H   UNL A   1      30.714  26.825  22.351  1.00  0.00     0.159 HD
ATOM     27  H   UNL A   1      31.438  27.586  21.008  1.00  0.00     0.159 HD
ENDBRANCH   6  23
ENDBRANCH   4   6
ENDBRANCH   3   4
ENDBRANCH   2   3
ENDBRANCH   1   2
BRANCH   1  28
ATOM     28  O   UNL A   1      32.137  28.637  26.478  1.00  0.00    -0.374 OA
BRANCH  28  29
ATOM     29  C   UNL A   1      31.693  29.783  25.753  1.00  0.00     0.202 C 
BRANCH  29  30
ATOM     30  C   UNL A   1      31.883  31.143  26.429  1.00  0.00     0.261 C 
BRANCH  30  31
ATOM     31  O   UNL A   1      32.747  31.045  27.575  1.00  0.00    -0.460 OA
BRANCH  31  32
ATOM     32  C   UNL A   1      33.582  32.096  27.733  1.00  0.00     0.338 C 
ATOM     33  O   UNL A   1      33.276  33.274  27.860  1.00  0.00    -0.246 OA
BRANCH  32  34
ATOM     34  C   UNL A   1      34.967  31.627  27.918  1.00  0.00     0.060 A 
ATOM     35  C   UNL A   1      35.156  30.243  28.027  1.00  0.00     0.016 A 
ATOM     36  C   UNL A   1      36.040  32.508  28.078  1.00  0.00     0.016 A 
ATOM     37  C   UNL A   1      36.397  29.739  28.395  1.00  0.00     0.010 A 
ATOM     38  C   UNL A   1      37.289  31.997  28.449  1.00  0.00     0.010 A 
ATOM     39  C   UNL A   1      37.454  30.617  28.669  1.00  0.00    -0.014 A 
BRANCH  39  40
ATOM     40  C   UNL A   1      38.632  30.096  29.403  1.00  0.00     0.031 A 
ATOM     41  C   UNL A   1      38.775  30.433  30.865  1.00  0.00     0.074 A 
ATOM     42  C   UNL A   1      39.511  29.266  28.815  1.00  0.00     0.049 A 
ATOM     43  N   UNL A   1      39.687  30.047  31.721  1.00  0.00    -0.248 NA
ATOM     44  C   UNL A   1      37.751  31.322  31.439  1.00  0.00     0.031 C 
ATOM     45  C   UNL A   1      39.455  28.820  27.425  1.00  0.00     0.029 A 
ATOM     46  N   UNL A   1      40.619  28.641  29.328  1.00  0.00    -0.354 N 
ATOM     47  C   UNL A   1      39.348  30.647  32.928  1.00  0.00     0.074 A 
ATOM     48  C   UNL A   1      38.171  31.452  32.687  1.00  0.00     0.031 C 
ATOM     49  C   UNL A   1      40.485  27.986  27.195  1.00  0.00     0.029 A 
ATOM     50  C   UNL A   1      41.281  27.859  28.414  1.00  0.00     0.049 A 
ATOM     51  H   UNL A   1      40.911  28.743  30.263  1.00  0.00     0.167 HD
ATOM     52  C   UNL A   1      39.952  30.532  34.134  1.00  0.00     0.031 A 
ATOM     53  C   UNL A   1      42.405  27.129  28.547  1.00  0.00     0.031 A 
ATOM     54  C   UNL A   1      41.125  29.738  34.380  1.00  0.00     0.049 A 
ATOM     55  C   UNL A   1      43.097  27.069  29.882  1.00  0.00     0.074 A 
ATOM     56  C   UNL A   1      41.809  29.554  35.569  1.00  0.00     0.029 A 
ATOM     57  N   UNL A   1      41.789  28.998  33.416  1.00  0.00    -0.354 N 
ATOM     58  N   UNL A   1      42.754  27.625  31.019  1.00  0.00    -0.248 NA
ATOM     59  C   UNL A   1      44.324  26.262  29.955  1.00  0.00     0.031 C 
ATOM     60  C   UNL A   1      42.916  28.740  35.313  1.00  0.00     0.029 A 
ATOM     61  C   UNL A   1      42.887  28.370  33.978  1.00  0.00     0.049 A 
ATOM     62  H   UNL A   1      41.520  28.928  32.471  1.00  0.00     0.167 HD
ATOM     63  C   UNL A   1      43.702  27.209  31.947  1.00  0.00     0.074 A 
ATOM     64  C   UNL A   1      44.627  26.346  31.243  1.00  0.00     0.031 C 
ATOM     65  C   UNL A   1      43.795  27.509  33.265  1.00  0.00     0.031 A 
BRANCH  52  66
ATOM     66  C   UNL A   1      39.364  31.315  35.275  1.00  0.00    -0.014 A 
ATOM     67  C   UNL A   1      38.392  30.757  36.120  1.00  0.00     0.009 A 
ATOM     68  C   UNL A   1      39.805  32.625  35.518  1.00  0.00     0.009 A 
ATOM     69  C   UNL A   1      37.848  31.508  37.164  1.00  0.00     0.001 A 
ATOM     70  C   UNL A   1      39.280  33.363  36.579  1.00  0.00     0.001 A 
ATOM     71  C   UNL A   1      38.296  32.808  37.395  1.00  0.00     0.000 A 
ENDBRANCH  52  66
BRANCH  53  72
ATOM     72  C   UNL A   1      42.958  26.395  27.379  1.00  0.00    -0.014 A 
ATOM     73  C   UNL A   1      42.578  25.070  27.117  1.00  0.00     0.009 A 
ATOM     74  C   UNL A   1      43.892  27.014  26.533  1.00  0.00     0.009 A 
ATOM     75  C   UNL A   1      43.144  24.371  26.049  1.00  0.00     0.001 A 
ATOM     76  C   UNL A   1      44.434  26.322  25.448  1.00  0.00     0.001 A 
ATOM     77  C   UNL A   1      44.067  24.998  25.213  1.00  0.00     0.000 A 
ENDBRANCH  53  72
BRANCH  65  78
ATOM     78  C   UNL A   1      44.905  26.861  34.045  1.00  0.00    -0.014 A 
ATOM     79  C   UNL A   1      44.735  25.614  34.665  1.00  0.00     0.009 A 
ATOM     80  C   UNL A   1      46.155  27.496  34.123  1.00  0.00     0.009 A 
ATOM     81  C   UNL A   1      45.786  25.034  35.380  1.00  0.00     0.001 A 
ATOM     82  C   UNL A   1      47.210  26.900  34.815  1.00  0.00     0.001 A 
ATOM     83  C   UNL A   1      47.022  25.674  35.451  1.00  0.00     0.000 A 
ENDBRANCH  65  78
ENDBRANCH  39  40
ENDBRANCH  32  34
ENDBRANCH  31  32
ENDBRANCH  30  31
ENDBRANCH  29  30
ENDBRANCH  28  29
ENDBRANCH   1  28
TORSDOF 20
ENDMDL
MODEL 2
REMARK VINA RESULT:      -9.7      3.616      8.432
REMARK SMILES COc1ccc([C@@H]([NH3+])[C@](C)(C(N)=O)C(=O)OCCOCCOC(=O)c2ccc(-c3c4nc(c(-c5ccccc5)c5ccc([nH]5)c(-c5ccccc5)c5nc(c(-c6ccccc6)c6ccc3[nH]6)C=C5)C=C4)cc2)cc1OC
REMARK SMILES IDX 18 1 17 2 16 3 14 4 15 5 9 6 10 7 7 8 6 9 3 10 4 11 74 12
REMARK SMILES IDX 5 13 73 14 2 15 1 16 75 17 76 18 8 19 11 23 12 24 13 25
REMARK SMILES IDX 19 28 20 29 21 30 22 31 23 32 24 33 25 34 26 35 72 36 27 37
REMARK SMILES IDX 71 38 28 39 29 40 30 41 65 42 31 43 70 44 64 45 66 46 32 47
REMARK SMILES IDX 69 48 63 49 62 50 33 52 55 53 40 54 54 55 41 56 44 57 53 58
REMARK SMILES IDX 67 59 42 60 43 61 52 63 68 64 45 65 34 66 35 67 39 68 36 69
REMARK SMILES IDX 38 70 37 71 56 72 57 73 61 74 58 75 60 76 59 77 46 78 47 79
REMARK SMILES IDX 51 80 48 81 50 82 49 83
REMARK H PARENT 8 20 8 21 8 22 12 26 12 27 66 51 44 62
REMARK Flexibility Score: inf
ROOT
ATOM      1  C   UNL A   1      36.683  22.894  24.224  1.00  0.00     0.202 C 
ENDROOT
BRANCH   1   2
ATOM      2  C   UNL A   1      35.602  22.947  23.137  1.00  0.00     0.261 C 
BRANCH   2   3
ATOM      3  O   UNL A   1      34.827  24.161  23.213  1.00  0.00    -0.462 OA
BRANCH   3   4
ATOM      4  C   UNL A   1      33.681  24.180  22.471  1.00  0.00     0.328 C 
ATOM      5  O   UNL A   1      33.614  23.696  21.347  1.00  0.00    -0.251 OA
BRANCH   4   6
ATOM      6  C   UNL A   1      32.498  24.836  23.191  1.00  0.00     0.198 C 
ATOM      7  C   UNL A   1      33.074  25.479  24.478  1.00  0.00     0.041 C 
BRANCH   6   8
ATOM      8  C   UNL A   1      31.437  23.714  23.463  1.00  0.00     0.239 C 
BRANCH   8   9
ATOM      9  C   UNL A   1      32.052  22.406  23.965  1.00  0.00     0.015 A 
ATOM     10  C   UNL A   1      33.025  19.960  24.975  1.00  0.00     0.160 A 
ATOM     11  C   UNL A   1      32.511  20.033  23.677  1.00  0.00     0.051 A 
ATOM     12  C   UNL A   1      33.117  21.116  25.760  1.00  0.00     0.161 A 
ATOM     13  C   UNL A   1      32.036  21.245  23.177  1.00  0.00     0.014 A 
ATOM     14  C   UNL A   1      32.620  22.326  25.246  1.00  0.00     0.060 A 
BRANCH  10  15
ATOM     15  O   UNL A   1      33.491  18.747  25.408  1.00  0.00    -0.493 OA
ATOM     16  C   UNL A   1      32.893  17.675  24.676  1.00  0.00     0.278 C 
ENDBRANCH  10  15
BRANCH  12  17
ATOM     17  O   UNL A   1      33.638  21.253  27.020  1.00  0.00    -0.493 OA
ATOM     18  C   UNL A   1      33.084  22.239  27.877  1.00  0.00     0.278 C 
ENDBRANCH  12  17
ENDBRANCH   8   9
BRANCH   8  19
ATOM     19  N   UNL A   1      30.362  24.095  24.397  1.00  0.00    -0.350 N 
ATOM     20  H   UNL A   1      30.720  24.774  25.068  1.00  0.00     0.345 HD
ATOM     21  H   UNL A   1      30.034  23.266  24.894  1.00  0.00     0.345 HD
ATOM     22  H   UNL A   1      29.589  24.508  23.875  1.00  0.00     0.345 HD
ENDBRANCH   8  19
ENDBRANCH   6   8
BRANCH   6  23
ATOM     23  C   UNL A   1      31.816  26.007  22.452  1.00  0.00     0.241 C 
ATOM     24  N   UNL A   1      31.892  26.125  21.104  1.00  0.00    -0.368 N 
ATOM     25  O   UNL A   1      31.116  26.841  23.031  1.00  0.00    -0.274 OA
ATOM     26  H   UNL A   1      32.433  25.489  20.583  1.00  0.00     0.159 HD
ATOM     27  H   UNL A   1      31.403  26.846  20.645  1.00  0.00     0.159 HD
ENDBRANCH   6  23
ENDBRANCH   4   6
ENDBRANCH   3   4
ENDBRANCH   2   3
ENDBRANCH   1   2
BRANCH   1  28
ATOM     28  O   UNL A   1      36.521  21.909  25.243  1.00  0.00    -0.374 OA
BRANCH  28  29
ATOM     29  C   UNL A   1      36.810  20.550  24.917  1.00  0.00     0.202 C 
BRANCH  29  30
ATOM     30  C   UNL A   1      38.273  20.110  25.027  1.00  0.00     0.261 C 
BRANCH  30  31
ATOM     31  O   UNL A   1      38.825  20.435  26.315  1.00  0.00    -0.460 OA
BRANCH  31  32
ATOM     32  C   UNL A   1      40.129  20.786  26.288  1.00  0.00     0.338 C 
ATOM     33  O   UNL A   1      41.028  20.253  25.651  1.00  0.00    -0.246 OA
BRANCH  32  34
ATOM     34  C   UNL A   1      40.333  22.054  27.011  1.00  0.00     0.060 A 
ATOM     35  C   UNL A   1      39.582  23.155  26.582  1.00  0.00     0.016 A 
ATOM     36  C   UNL A   1      41.297  22.196  28.014  1.00  0.00     0.016 A 
ATOM     37  C   UNL A   1      39.858  24.422  27.081  1.00  0.00     0.010 A 
ATOM     38  C   UNL A   1      41.574  23.473  28.515  1.00  0.00     0.010 A 
ATOM     39  C   UNL A   1      40.898  24.597  28.004  1.00  0.00    -0.014 A 
BRANCH  39  40
ATOM     40  C   UNL A   1      41.411  25.968  28.237  1.00  0.00     0.031 A 
ATOM     41  C   UNL A   1      42.715  26.366  27.596  1.00  0.00     0.074 A 
ATOM     42  C   UNL A   1      40.696  26.874  28.926  1.00  0.00     0.049 A 
ATOM     43  N   UNL A   1      43.330  27.521  27.611  1.00  0.00    -0.248 NA
ATOM     44  C   UNL A   1      43.419  25.322  26.832  1.00  0.00     0.031 C 
ATOM     45  C   UNL A   1      39.396  26.632  29.549  1.00  0.00     0.029 A 
ATOM     46  N   UNL A   1      40.964  28.191  29.202  1.00  0.00    -0.354 N 
ATOM     47  C   UNL A   1      44.489  27.341  26.866  1.00  0.00     0.074 A 
ATOM     48  C   UNL A   1      44.513  25.958  26.443  1.00  0.00     0.031 C 
ATOM     49  C   UNL A   1      38.977  27.769  30.133  1.00  0.00     0.029 A 
ATOM     50  C   UNL A   1      39.988  28.808  29.943  1.00  0.00     0.049 A 
ATOM     51  H   UNL A   1      41.780  28.650  28.896  1.00  0.00     0.167 HD
ATOM     52  C   UNL A   1      45.446  28.245  26.549  1.00  0.00     0.031 A 
ATOM     53  C   UNL A   1      39.921  30.066  30.418  1.00  0.00     0.031 A 
ATOM     54  C   UNL A   1      45.433  29.619  26.970  1.00  0.00     0.049 A 
ATOM     55  C   UNL A   1      41.029  31.036  30.107  1.00  0.00     0.074 A 
ATOM     56  C   UNL A   1      46.354  30.614  26.696  1.00  0.00     0.029 A 
ATOM     57  N   UNL A   1      44.447  30.190  27.757  1.00  0.00    -0.354 N 
ATOM     58  N   UNL A   1      42.108  30.857  29.384  1.00  0.00    -0.248 NA
ATOM     59  C   UNL A   1      40.897  32.390  30.665  1.00  0.00     0.031 C 
ATOM     60  C   UNL A   1      45.950  31.777  27.359  1.00  0.00     0.029 A 
ATOM     61  C   UNL A   1      44.746  31.521  27.996  1.00  0.00     0.049 A 
ATOM     62  H   UNL A   1      43.650  29.721  28.096  1.00  0.00     0.167 HD
ATOM     63  C   UNL A   1      42.765  32.082  29.373  1.00  0.00     0.074 A 
ATOM     64  C   UNL A   1      41.958  32.998  30.152  1.00  0.00     0.031 C 
ATOM     65  C   UNL A   1      43.929  32.421  28.767  1.00  0.00     0.031 A 
BRANCH  52  66
ATOM     66  C   UNL A   1      46.607  27.758  25.727  1.00  0.00    -0.014 A 
ATOM     67  C   UNL A   1      47.733  27.172  26.327  1.00  0.00     0.009 A 
ATOM     68  C   UNL A   1      46.564  27.873  24.329  1.00  0.00     0.009 A 
ATOM     69  C   UNL A   1      48.807  26.743  25.545  1.00  0.00     0.001 A 
ATOM     70  C   UNL A   1      47.627  27.417  23.548  1.00  0.00     0.001 A 
ATOM     71  C   UNL A   1      48.751  26.861  24.157  1.00  0.00     0.000 A 
ENDBRANCH  52  66
BRANCH  53  72
ATOM     72  C   UNL A   1      38.762  30.487  31.247  1.00  0.00    -0.014 A 
ATOM     73  C   UNL A   1      37.609  31.024  30.654  1.00  0.00     0.009 A 
ATOM     74  C   UNL A   1      38.816  30.377  32.646  1.00  0.00     0.009 A 
ATOM     75  C   UNL A   1      36.547  31.467  31.444  1.00  0.00     0.001 A 
ATOM     76  C   UNL A   1      37.741  30.794  33.433  1.00  0.00     0.001 A 
ATOM     77  C   UNL A   1      36.612  31.348  32.832  1.00  0.00     0.000 A 
ENDBRANCH  53  72
BRANCH  65  78
ATOM     78  C   UNL A   1      44.376  33.852  28.879  1.00  0.00    -0.014 A 
ATOM     79  C   UNL A   1      45.223  34.277  29.913  1.00  0.00     0.009 A 
ATOM     80  C   UNL A   1      43.972  34.779  27.904  1.00  0.00     0.009 A 
ATOM     81  C   UNL A   1      45.625  35.613  29.990  1.00  0.00     0.001 A 
ATOM     82  C   UNL A   1      44.400  36.105  27.968  1.00  0.00     0.001 A 
ATOM     83  C   UNL A   1      45.218  36.524  29.016  1.00  0.00     0.000 A 
ENDBRANCH  65  78
ENDBRANCH  39  40
ENDBRANCH  32  34
ENDBRANCH  31  32
ENDBRANCH  30  31
ENDBRANCH  29  30
ENDBRANCH  28  29
ENDBRANCH   1  28
TORSDOF 20
ENDMDL
MODEL 3
REMARK VINA RESULT:      -9.7      2.602      4.461
REMARK SMILES COc1ccc([C@@H]([NH3+])[C@](C)(C(N)=O)C(=O)OCCOCCOC(=O)c2ccc(-c3c4nc(c(-c5ccccc5)c5ccc([nH]5)c(-c5ccccc5)c5nc(c(-c6ccccc6)c6ccc3[nH]6)C=C5)C=C4)cc2)cc1OC
REMARK SMILES IDX 18 1 17 2 16 3 14 4 15 5 9 6 10 7 7 8 6 9 3 10 4 11 74 12
REMARK SMILES IDX 5 13 73 14 2 15 1 16 75 17 76 18 8 19 11 23 12 24 13 25
REMARK SMILES IDX 19 28 20 29 21 30 22 31 23 32 24 33 25 34 26 35 72 36 27 37
REMARK SMILES IDX 71 38 28 39 29 40 30 41 65 42 31 43 70 44 64 45 66 46 32 47
REMARK SMILES IDX 69 48 63 49 62 50 33 52 55 53 40 54 54 55 41 56 44 57 53 58
REMARK SMILES IDX 67 59 42 60 43 61 52 63 68 64 45 65 34 66 35 67 39 68 36 69
REMARK SMILES IDX 38 70 37 71 56 72 57 73 61 74 58 75 60 76 59 77 46 78 47 79
REMARK SMILES IDX 51 80 48 81 50 82 49 83
REMARK H PARENT 8 20 8 21 8 22 12 26 12 27 66 51 44 62
REMARK Flexibility Score: inf
ROOT
ATOM      1  C   UNL A   1      32.390  28.559  27.285  1.00  0.00     0.202 C 
ENDROOT
BRANCH   1   2
ATOM      2  C   UNL A   1      31.229  27.644  26.873  1.00  0.00     0.261 C 
BRANCH   2   3
ATOM      3  O   UNL A   1      31.645  26.267  26.770  1.00  0.00    -0.462 OA
BRANCH   3   4
ATOM      4  C   UNL A   1      30.706  25.398  26.295  1.00  0.00     0.328 C 
ATOM      5  O   UNL A   1      29.534  25.431  26.653  1.00  0.00    -0.251 OA
BRANCH   4   6
ATOM      6  C   UNL A   1      31.256  24.408  25.262  1.00  0.00     0.198 C 
ATOM      7  C   UNL A   1      32.783  24.665  25.183  1.00  0.00     0.041 C 
BRANCH   6   8
ATOM      8  C   UNL A   1      30.498  24.671  23.915  1.00  0.00     0.239 C 
BRANCH   8   9
ATOM      9  C   UNL A   1      30.368  26.156  23.571  1.00  0.00     0.015 A 
ATOM     10  C   UNL A   1      30.120  28.846  22.760  1.00  0.00     0.160 A 
ATOM     11  C   UNL A   1      28.994  28.126  23.173  1.00  0.00     0.051 A 
ATOM     12  C   UNL A   1      31.388  28.254  22.807  1.00  0.00     0.161 A 
ATOM     13  C   UNL A   1      29.120  26.798  23.580  1.00  0.00     0.014 A 
ATOM     14  C   UNL A   1      31.494  26.910  23.205  1.00  0.00     0.060 A 
BRANCH  10  15
ATOM     15  O   UNL A   1      29.939  30.151  22.386  1.00  0.00    -0.493 OA
ATOM     16  C   UNL A   1      28.652  30.343  21.796  1.00  0.00     0.278 C 
ENDBRANCH  10  15
BRANCH  12  17
ATOM     17  O   UNL A   1      32.602  28.811  22.502  1.00  0.00    -0.493 OA
ATOM     18  C   UNL A   1      33.725  27.954  22.373  1.00  0.00     0.278 C 
ENDBRANCH  12  17
ENDBRANCH   8   9
BRANCH   8  19
ATOM     19  N   UNL A   1      31.070  23.985  22.742  1.00  0.00    -0.350 N 
ATOM     20  H   UNL A   1      32.074  23.868  22.873  1.00  0.00     0.345 HD
ATOM     21  H   UNL A   1      30.900  24.544  21.905  1.00  0.00     0.345 HD
ATOM     22  H   UNL A   1      30.632  23.071  22.635  1.00  0.00     0.345 HD
ENDBRANCH   8  19
ENDBRANCH   6   8
BRANCH   6  23
ATOM     23  C   UNL A   1      31.139  22.913  25.623  1.00  0.00     0.241 C 
ATOM     24  N   UNL A   1      30.136  22.457  26.413  1.00  0.00    -0.368 N 
ATOM     25  O   UNL A   1      31.897  22.056  25.160  1.00  0.00    -0.274 OA
ATOM     26  H   UNL A   1      29.497  23.091  26.812  1.00  0.00     0.159 HD
ATOM     27  H   UNL A   1      30.045  21.492  26.586  1.00  0.00     0.159 HD
ENDBRANCH   6  23
ENDBRANCH   4   6
ENDBRANCH   3   4
ENDBRANCH   2   3
ENDBRANCH   1   2
BRANCH   1  28
ATOM     28  O   UNL A   1      32.692  29.646  26.413  1.00  0.00    -0.374 OA
BRANCH  28  29
ATOM     29  C   UNL A   1      32.294  30.958  26.809  1.00  0.00     0.202 C 
BRANCH  29  30
ATOM     30  C   UNL A   1      33.274  31.741  27.686  1.00  0.00     0.261 C 
BRANCH  30  31
ATOM     31  O   UNL A   1      33.251  33.146  27.376  1.00  0.00    -0.460 OA
BRANCH  31  32
ATOM     32  C   UNL A   1      33.371  33.955  28.451  1.00  0.00     0.338 C 
ATOM     33  O   UNL A   1      32.521  34.702  28.917  1.00  0.00    -0.246 OA
BRANCH  32  34
ATOM     34  C   UNL A   1      34.648  33.701  29.143  1.00  0.00     0.060 A 
ATOM     35  C   UNL A   1      35.817  34.078  28.471  1.00  0.00     0.016 A 
ATOM     36  C   UNL A   1      34.714  33.027  30.365  1.00  0.00     0.016 A 
ATOM     37  C   UNL A   1      37.058  33.698  28.967  1.00  0.00     0.010 A 
ATOM     38  C   UNL A   1      35.965  32.643  30.863  1.00  0.00     0.010 A 
ATOM     39  C   UNL A   1      37.135  32.924  30.133  1.00  0.00    -0.014 A 
BRANCH  39  40
ATOM     40  C   UNL A   1      38.409  32.229  30.435  1.00  0.00     0.031 A 
ATOM     41  C   UNL A   1      39.333  32.833  31.461  1.00  0.00     0.074 A 
ATOM     42  C   UNL A   1      38.704  31.040  29.882  1.00  0.00     0.049 A 
ATOM     43  N   UNL A   1      40.468  32.379  31.927  1.00  0.00    -0.248 NA
ATOM     44  C   UNL A   1      38.919  34.122  32.041  1.00  0.00     0.031 C 
ATOM     45  C   UNL A   1      37.871  30.323  28.919  1.00  0.00     0.029 A 
ATOM     46  N   UNL A   1      39.788  30.220  30.069  1.00  0.00    -0.354 N 
ATOM     47  C   UNL A   1      40.903  33.324  32.848  1.00  0.00     0.074 A 
ATOM     48  C   UNL A   1      39.931  34.395  32.849  1.00  0.00     0.031 C 
ATOM     49  C   UNL A   1      38.475  29.164  28.601  1.00  0.00     0.029 A 
ATOM     50  C   UNL A   1      39.743  29.070  29.321  1.00  0.00     0.049 A 
ATOM     51  H   UNL A   1      40.527  30.436  30.682  1.00  0.00     0.167 HD
ATOM     52  C   UNL A   1      42.004  33.302  33.634  1.00  0.00     0.031 A 
ATOM     53  C   UNL A   1      40.629  28.060  29.225  1.00  0.00     0.031 A 
ATOM     54  C   UNL A   1      42.978  32.244  33.635  1.00  0.00     0.049 A 
ATOM     55  C   UNL A   1      41.880  28.088  30.061  1.00  0.00     0.074 A 
ATOM     56  C   UNL A   1      44.126  32.129  34.398  1.00  0.00     0.029 A 
ATOM     57  N   UNL A   1      42.916  31.120  32.829  1.00  0.00    -0.354 N 
ATOM     58  N   UNL A   1      42.267  28.979  30.942  1.00  0.00    -0.248 NA
ATOM     59  C   UNL A   1      42.808  26.960  29.900  1.00  0.00     0.031 C 
ATOM     60  C   UNL A   1      44.785  30.955  34.018  1.00  0.00     0.029 A 
ATOM     61  C   UNL A   1      44.017  30.312  33.062  1.00  0.00     0.049 A 
ATOM     62  H   UNL A   1      42.196  30.922  32.186  1.00  0.00     0.167 HD
ATOM     63  C   UNL A   1      43.464  28.501  31.464  1.00  0.00     0.074 A 
ATOM     64  C   UNL A   1      43.733  27.239  30.808  1.00  0.00     0.031 C 
ATOM     65  C   UNL A   1      44.267  29.055  32.405  1.00  0.00     0.031 A 
BRANCH  52  66
ATOM     66  C   UNL A   1      42.228  34.482  34.539  1.00  0.00    -0.014 A 
ATOM     67  C   UNL A   1      41.749  34.492  35.858  1.00  0.00     0.009 A 
ATOM     68  C   UNL A   1      42.945  35.592  34.067  1.00  0.00     0.009 A 
ATOM     69  C   UNL A   1      41.954  35.606  36.675  1.00  0.00     0.001 A 
ATOM     70  C   UNL A   1      43.173  36.692  34.895  1.00  0.00     0.001 A 
ATOM     71  C   UNL A   1      42.669  36.701  36.195  1.00  0.00     0.000 A 
ENDBRANCH  52  66
BRANCH  53  72
ATOM     72  C   UNL A   1      40.370  26.930  28.295  1.00  0.00    -0.014 A 
ATOM     73  C   UNL A   1      40.860  26.954  26.981  1.00  0.00     0.009 A 
ATOM     74  C   UNL A   1      39.604  25.830  28.714  1.00  0.00     0.009 A 
ATOM     75  C   UNL A   1      40.566  25.914  26.097  1.00  0.00     0.001 A 
ATOM     76  C   UNL A   1      39.336  24.778  27.837  1.00  0.00     0.001 A 
ATOM     77  C   UNL A   1      39.808  24.824  26.527  1.00  0.00     0.000 A 
ENDBRANCH  53  72
BRANCH  65  78
ATOM     78  C   UNL A   1      45.484  28.278  32.821  1.00  0.00    -0.014 A 
ATOM     79  C   UNL A   1      46.732  28.492  32.217  1.00  0.00     0.009 A 
ATOM     80  C   UNL A   1      45.383  27.344  33.865  1.00  0.00     0.009 A 
ATOM     81  C   UNL A   1      47.848  27.757  32.626  1.00  0.00     0.001 A 
ATOM     82  C   UNL A   1      46.506  26.633  34.290  1.00  0.00     0.001 A 
ATOM     83  C   UNL A   1      47.735  26.833  33.664  1.00  0.00     0.000 A 
ENDBRANCH  65  78
ENDBRANCH  39  40
ENDBRANCH  32  34
ENDBRANCH  31  32
ENDBRANCH  30  31
ENDBRANCH  29  30
ENDBRANCH  28  29
ENDBRANCH   1  28
TORSDOF 20
ENDMDL
