MODEL 1
REMARK VINA RESULT:      -9.2      0.000      0.000
REMARK SMILES CC(C)C[C@@H](CNS(=O)(=O)c1ccn(C)c1)C(=O)OCCOCCOC(=O)c1ccc(-c2c3nc(c(-c4ccccc4)c4ccc([nH]4)c(-c4ccccc4)c4nc(c(-c5ccccc5)c5ccc2[nH]5)C=C4)C=C3)cc1
REMARK SMILES IDX 21 1 20 2 19 3 17 4 18 5 5 6 4 7 2 8 1 9 3 10 6 11 7 12 8 14
REMARK SMILES IDX 9 15 10 16 11 17 12 18 16 19 13 20 14 21 15 22 22 23 23 24
REMARK SMILES IDX 24 25 25 26 26 27 27 28 28 29 29 30 75 31 30 32 74 33 31 34
REMARK SMILES IDX 32 35 33 36 68 37 34 38 73 39 67 40 69 41 35 42 72 43 66 44
REMARK SMILES IDX 65 45 36 47 58 48 43 49 57 50 44 51 47 52 56 53 70 54 45 55
REMARK SMILES IDX 46 56 55 58 71 59 48 60 37 61 38 62 42 63 39 64 41 65 40 66
REMARK SMILES IDX 59 67 60 68 64 69 61 70 63 71 62 72 49 73 50 74 54 75 51 76
REMARK SMILES IDX 53 77 52 78
REMARK H PARENT 7 13 69 46 47 57
REMARK Flexibility Score: inf
ROOT
ATOM      1  C   UNL A   1      33.487  26.431  25.651  1.00  0.00     0.202 C 
ENDROOT
BRANCH   1   2
ATOM      2  C   UNL A   1      33.736  25.792  24.282  1.00  0.00     0.261 C 
BRANCH   2   3
ATOM      3  O   UNL A   1      34.719  24.742  24.326  1.00  0.00    -0.463 OA
BRANCH   3   4
ATOM      4  C   UNL A   1      34.678  23.857  23.295  1.00  0.00     0.310 C 
ATOM      5  O   UNL A   1      33.963  23.964  22.305  1.00  0.00    -0.252 OA
BRANCH   4   6
ATOM      6  C   UNL A   1      35.576  22.649  23.500  1.00  0.00     0.114 C 
BRANCH   6   7
ATOM      7  C   UNL A   1      37.027  22.950  23.928  1.00  0.00     0.019 C 
BRANCH   7   8
ATOM      8  C   UNL A   1      37.329  22.636  25.414  1.00  0.00    -0.017 C 
ATOM      9  C   UNL A   1      38.416  21.570  25.576  1.00  0.00     0.007 C 
ATOM     10  C   UNL A   1      37.752  23.909  26.152  1.00  0.00     0.007 C 
ENDBRANCH   7   8
ENDBRANCH   6   7
BRANCH   6  11
ATOM     11  C   UNL A   1      34.846  21.661  24.412  1.00  0.00     0.114 C 
BRANCH  11  12
ATOM     12  N   UNL A   1      33.559  22.225  24.867  1.00  0.00    -0.210 NA
ATOM     13  H   UNL A   1      33.473  23.159  24.469  1.00  0.00     0.141 HD
BRANCH  12  14
ATOM     14  S   UNL A   1      32.166  21.363  24.456  1.00  0.00     0.242 S 
ATOM     15  O   UNL A   1      31.239  21.493  25.556  1.00  0.00    -0.207 OA
ATOM     16  O   UNL A   1      31.820  21.752  23.107  1.00  0.00    -0.207 OA
BRANCH  14  17
ATOM     17  C   UNL A   1      32.510  19.678  24.362  1.00  0.00     0.100 A 
ATOM     18  C   UNL A   1      32.515  18.918  23.165  1.00  0.00     0.041 A 
ATOM     19  C   UNL A   1      32.800  18.813  25.400  1.00  0.00     0.106 A 
ATOM     20  C   UNL A   1      32.749  17.604  23.515  1.00  0.00     0.086 A 
ATOM     21  N   UNL A   1      32.878  17.549  24.877  1.00  0.00    -0.356 N 
ATOM     22  C   UNL A   1      33.018  16.347  25.667  1.00  0.00     0.149 C 
ENDBRANCH  14  17
ENDBRANCH  12  14
ENDBRANCH  11  12
ENDBRANCH   6  11
ENDBRANCH   4   6
ENDBRANCH   3   4
ENDBRANCH   2   3
ENDBRANCH   1   2
BRANCH   1  23
ATOM     23  O   UNL A   1      32.202  27.007  25.870  1.00  0.00    -0.374 OA
BRANCH  23  24
ATOM     24  C   UNL A   1      32.132  28.425  26.010  1.00  0.00     0.202 C 
BRANCH  24  25
ATOM     25  C   UNL A   1      32.766  29.031  27.269  1.00  0.00     0.261 C 
BRANCH  25  26
ATOM     26  O   UNL A   1      34.183  29.249  27.132  1.00  0.00    -0.460 OA
BRANCH  26  27
ATOM     27  C   UNL A   1      34.666  30.307  27.833  1.00  0.00     0.338 C 
ATOM     28  O   UNL A   1      34.056  31.297  28.198  1.00  0.00    -0.246 OA
BRANCH  27  29
ATOM     29  C   UNL A   1      36.049  30.036  28.268  1.00  0.00     0.060 A 
ATOM     30  C   UNL A   1      37.066  30.130  27.309  1.00  0.00     0.016 A 
ATOM     31  C   UNL A   1      36.336  29.612  29.566  1.00  0.00     0.016 A 
ATOM     32  C   UNL A   1      38.376  29.784  27.641  1.00  0.00     0.010 A 
ATOM     33  C   UNL A   1      37.648  29.251  29.893  1.00  0.00     0.010 A 
ATOM     34  C   UNL A   1      38.671  29.316  28.928  1.00  0.00    -0.014 A 
BRANCH  34  35
ATOM     35  C   UNL A   1      40.032  28.824  29.249  1.00  0.00     0.031 A 
ATOM     36  C   UNL A   1      41.017  29.741  29.920  1.00  0.00     0.074 A 
ATOM     37  C   UNL A   1      40.393  27.568  28.928  1.00  0.00     0.049 A 
ATOM     38  N   UNL A   1      42.278  29.535  30.203  1.00  0.00    -0.248 NA
ATOM     39  C   UNL A   1      40.516  31.065  30.325  1.00  0.00     0.031 C 
ATOM     40  C   UNL A   1      39.521  26.570  28.311  1.00  0.00     0.029 A 
ATOM     41  N   UNL A   1      41.600  26.927  29.061  1.00  0.00    -0.354 N 
ATOM     42  C   UNL A   1      42.726  30.704  30.805  1.00  0.00     0.074 A 
ATOM     43  C   UNL A   1      41.606  31.620  30.839  1.00  0.00     0.031 C 
ATOM     44  C   UNL A   1      40.231  25.449  28.092  1.00  0.00     0.029 A 
ATOM     45  C   UNL A   1      41.611  25.665  28.518  1.00  0.00     0.049 A 
ATOM     46  H   UNL A   1      42.382  27.333  29.501  1.00  0.00     0.167 HD
ATOM     47  C   UNL A   1      43.961  30.988  31.282  1.00  0.00     0.031 A 
ATOM     48  C   UNL A   1      42.628  24.798  28.347  1.00  0.00     0.031 A 
ATOM     49  C   UNL A   1      45.075  30.080  31.247  1.00  0.00     0.049 A 
ATOM     50  C   UNL A   1      44.010  25.177  28.809  1.00  0.00     0.074 A 
ATOM     51  C   UNL A   1      46.352  30.265  31.753  1.00  0.00     0.029 A 
ATOM     52  N   UNL A   1      45.055  28.826  30.661  1.00  0.00    -0.354 N 
ATOM     53  N   UNL A   1      44.409  26.264  29.424  1.00  0.00    -0.248 NA
ATOM     54  C   UNL A   1      45.087  24.209  28.545  1.00  0.00     0.031 C 
ATOM     55  C   UNL A   1      47.120  29.146  31.420  1.00  0.00     0.029 A 
ATOM     56  C   UNL A   1      46.307  28.245  30.751  1.00  0.00     0.049 A 
ATOM     57  H   UNL A   1      44.266  28.410  30.244  1.00  0.00     0.167 HD
ATOM     58  C   UNL A   1      45.772  26.102  29.635  1.00  0.00     0.074 A 
ATOM     59  C   UNL A   1      46.131  24.805  29.101  1.00  0.00     0.031 C 
ATOM     60  C   UNL A   1      46.651  26.956  30.214  1.00  0.00     0.031 A 
BRANCH  47  61
ATOM     61  C   UNL A   1      44.194  32.356  31.856  1.00  0.00    -0.014 A 
ATOM     62  C   UNL A   1      44.180  32.579  33.240  1.00  0.00     0.009 A 
ATOM     63  C   UNL A   1      44.515  33.419  30.996  1.00  0.00     0.009 A 
ATOM     64  C   UNL A   1      44.469  33.845  33.752  1.00  0.00     0.001 A 
ATOM     65  C   UNL A   1      44.821  34.679  31.511  1.00  0.00     0.001 A 
ATOM     66  C   UNL A   1      44.795  34.892  32.889  1.00  0.00     0.000 A 
ENDBRANCH  47  61
BRANCH  48  67
ATOM     67  C   UNL A   1      42.402  23.506  27.648  1.00  0.00    -0.014 A 
ATOM     68  C   UNL A   1      42.579  23.396  26.261  1.00  0.00     0.009 A 
ATOM     69  C   UNL A   1      41.961  22.382  28.367  1.00  0.00     0.009 A 
ATOM     70  C   UNL A   1      42.290  22.198  25.605  1.00  0.00     0.001 A 
ATOM     71  C   UNL A   1      41.703  21.177  27.713  1.00  0.00     0.001 A 
ATOM     72  C   UNL A   1      41.856  21.089  26.330  1.00  0.00     0.000 A 
ENDBRANCH  48  67
BRANCH  60  73
ATOM     73  C   UNL A   1      48.081  26.509  30.318  1.00  0.00    -0.014 A 
ATOM     74  C   UNL A   1      49.015  26.839  29.324  1.00  0.00     0.009 A 
ATOM     75  C   UNL A   1      48.511  25.793  31.446  1.00  0.00     0.009 A 
ATOM     76  C   UNL A   1      50.347  26.439  29.447  1.00  0.00     0.001 A 
ATOM     77  C   UNL A   1      49.848  25.417  31.578  1.00  0.00     0.001 A 
ATOM     78  C   UNL A   1      50.763  25.734  30.576  1.00  0.00     0.000 A 
ENDBRANCH  60  73
ENDBRANCH  34  35
ENDBRANCH  27  29
ENDBRANCH  26  27
ENDBRANCH  25  26
ENDBRANCH  24  25
ENDBRANCH  23  24
ENDBRANCH   1  23
TORSDOF 20
ENDMDL
MODEL 2
REMARK VINA RESULT:      -9.0      3.417      5.703
REMARK SMILES CC(C)C[C@@H](CNS(=O)(=O)c1ccn(C)c1)C(=O)OCCOCCOC(=O)c1ccc(-c2c3nc(c(-c4ccccc4)c4ccc([nH]4)c(-c4ccccc4)c4nc(c(-c5ccccc5)c5ccc2[nH]5)C=C4)C=C3)cc1
REMARK SMILES IDX 21 1 20 2 19 3 17 4 18 5 5 6 4 7 2 8 1 9 3 10 6 11 7 12 8 14
REMARK SMILES IDX 9 15 10 16 11 17 12 18 16 19 13 20 14 21 15 22 22 23 23 24
REMARK SMILES IDX 24 25 25 26 26 27 27 28 28 29 29 30 75 31 30 32 74 33 31 34
REMARK SMILES IDX 32 35 33 36 68 37 34 38 73 39 67 40 69 41 35 42 72 43 66 44
REMARK SMILES IDX 65 45 36 47 58 48 43 49 57 50 44 51 47 52 56 53 70 54 45 55
REMARK SMILES IDX 46 56 55 58 71 59 48 60 37 61 38 62 42 63 39 64 41 65 40 66
REMARK SMILES IDX 59 67 60 68 64 69 61 70 63 71 62 72 49 73 50 74 54 75 51 76
REMARK SMILES IDX 53 77 52 78
REMARK H PARENT 7 13 69 46 47 57
REMARK Flexibility Score: inf
ROOT
ATOM      1  C   UNL A   1      32.550  30.351  26.718  1.00  0.00     0.202 C 
ENDROOT
BRANCH   1   2
ATOM      2  C   UNL A   1      32.227  28.961  27.272  1.00  0.00     0.261 C 
BRANCH   2   3
ATOM      3  O   UNL A   1      33.062  27.930  26.715  1.00  0.00    -0.463 OA
BRANCH   3   4
ATOM      4  C   UNL A   1      32.420  26.788  26.351  1.00  0.00     0.310 C 
ATOM      5  O   UNL A   1      31.347  26.410  26.808  1.00  0.00    -0.252 OA
BRANCH   4   6
ATOM      6  C   UNL A   1      33.193  25.955  25.343  1.00  0.00     0.114 C 
BRANCH   6   7
ATOM      7  C   UNL A   1      32.893  24.442  25.345  1.00  0.00     0.019 C 
BRANCH   7   8
ATOM      8  C   UNL A   1      34.119  23.552  25.662  1.00  0.00    -0.017 C 
ATOM      9  C   UNL A   1      35.442  24.314  25.540  1.00  0.00     0.007 C 
ATOM     10  C   UNL A   1      34.000  22.964  27.070  1.00  0.00     0.007 C 
ENDBRANCH   7   8
ENDBRANCH   6   7
BRANCH   6  11
ATOM     11  C   UNL A   1      33.055  26.618  23.971  1.00  0.00     0.114 C 
BRANCH  11  12
ATOM     12  N   UNL A   1      31.902  27.541  23.952  1.00  0.00    -0.210 NA
ATOM     13  H   UNL A   1      32.240  28.452  23.646  1.00  0.00     0.141 HD
BRANCH  12  14
ATOM     14  S   UNL A   1      30.606  27.115  22.956  1.00  0.00     0.242 S 
ATOM     15  O   UNL A   1      31.142  26.852  21.640  1.00  0.00    -0.207 OA
ATOM     16  O   UNL A   1      29.828  26.136  23.681  1.00  0.00    -0.207 OA
BRANCH  14  17
ATOM     17  C   UNL A   1      29.549  28.459  22.743  1.00  0.00     0.100 A 
ATOM     18  C   UNL A   1      28.173  28.469  23.086  1.00  0.00     0.041 A 
ATOM     19  C   UNL A   1      29.845  29.694  22.198  1.00  0.00     0.106 A 
ATOM     20  C   UNL A   1      27.660  29.686  22.687  1.00  0.00     0.086 A 
ATOM     21  N   UNL A   1      28.676  30.402  22.113  1.00  0.00    -0.356 N 
ATOM     22  C   UNL A   1      28.545  31.684  21.458  1.00  0.00     0.149 C 
ENDBRANCH  14  17
ENDBRANCH  12  14
ENDBRANCH  11  12
ENDBRANCH   6  11
ENDBRANCH   4   6
ENDBRANCH   3   4
ENDBRANCH   2   3
ENDBRANCH   1   2
BRANCH   1  23
ATOM     23  O   UNL A   1      31.450  31.139  26.269  1.00  0.00    -0.374 OA
BRANCH  23  24
ATOM     24  C   UNL A   1      31.428  32.514  26.649  1.00  0.00     0.202 C 
BRANCH  24  25
ATOM     25  C   UNL A   1      32.688  33.068  27.328  1.00  0.00     0.261 C 
BRANCH  25  26
ATOM     26  O   UNL A   1      32.397  33.801  28.533  1.00  0.00    -0.460 OA
BRANCH  26  27
ATOM     27  C   UNL A   1      33.274  34.799  28.817  1.00  0.00     0.338 C 
ATOM     28  O   UNL A   1      33.087  36.000  28.726  1.00  0.00    -0.246 OA
BRANCH  27  29
ATOM     29  C   UNL A   1      34.491  34.241  29.435  1.00  0.00     0.060 A 
ATOM     30  C   UNL A   1      35.696  34.362  28.730  1.00  0.00     0.016 A 
ATOM     31  C   UNL A   1      34.441  33.537  30.638  1.00  0.00     0.016 A 
ATOM     32  C   UNL A   1      36.857  33.763  29.220  1.00  0.00     0.010 A 
ATOM     33  C   UNL A   1      35.604  32.923  31.120  1.00  0.00     0.010 A 
ATOM     34  C   UNL A   1      36.812  33.017  30.405  1.00  0.00    -0.014 A 
BRANCH  34  35
ATOM     35  C   UNL A   1      38.009  32.270  30.862  1.00  0.00     0.031 A 
ATOM     36  C   UNL A   1      38.891  32.857  31.928  1.00  0.00     0.074 A 
ATOM     37  C   UNL A   1      38.316  31.079  30.314  1.00  0.00     0.049 A 
ATOM     38  N   UNL A   1      40.027  32.409  32.400  1.00  0.00    -0.248 NA
ATOM     39  C   UNL A   1      38.436  34.115  32.543  1.00  0.00     0.031 C 
ATOM     40  C   UNL A   1      37.523  30.385  29.301  1.00  0.00     0.029 A 
ATOM     41  N   UNL A   1      39.393  30.254  30.524  1.00  0.00    -0.354 N 
ATOM     42  C   UNL A   1      40.430  33.333  33.355  1.00  0.00     0.074 A 
ATOM     43  C   UNL A   1      39.423  34.373  33.391  1.00  0.00     0.031 C 
ATOM     44  C   UNL A   1      38.155  29.250  28.956  1.00  0.00     0.029 A 
ATOM     45  C   UNL A   1      39.412  29.159  29.695  1.00  0.00     0.049 A 
ATOM     46  H   UNL A   1      40.085  30.431  31.202  1.00  0.00     0.167 HD
ATOM     47  C   UNL A   1      41.541  33.318  34.129  1.00  0.00     0.031 A 
ATOM     48  C   UNL A   1      40.355  28.212  29.521  1.00  0.00     0.031 A 
ATOM     49  C   UNL A   1      42.542  32.287  34.095  1.00  0.00     0.049 A 
ATOM     50  C   UNL A   1      41.621  28.270  30.335  1.00  0.00     0.074 A 
ATOM     51  C   UNL A   1      43.677  32.164  34.880  1.00  0.00     0.029 A 
ATOM     52  N   UNL A   1      42.542  31.214  33.220  1.00  0.00    -0.354 N 
ATOM     53  N   UNL A   1      41.965  29.120  31.272  1.00  0.00    -0.248 NA
ATOM     54  C   UNL A   1      42.634  27.238  30.060  1.00  0.00     0.031 C 
ATOM     55  C   UNL A   1      44.394  31.048  34.438  1.00  0.00     0.029 A 
ATOM     56  C   UNL A   1      43.679  30.450  33.413  1.00  0.00     0.049 A 
ATOM     57  H   UNL A   1      41.836  31.023  32.559  1.00  0.00     0.167 HD
ATOM     58  C   UNL A   1      43.221  28.716  31.708  1.00  0.00     0.074 A 
ATOM     59  C   UNL A   1      43.571  27.534  30.949  1.00  0.00     0.031 C 
ATOM     60  C   UNL A   1      44.015  29.278  32.650  1.00  0.00     0.031 A 
BRANCH  47  61
ATOM     61  C   UNL A   1      41.760  34.472  35.064  1.00  0.00    -0.014 A 
ATOM     62  C   UNL A   1      41.296  34.438  36.387  1.00  0.00     0.009 A 
ATOM     63  C   UNL A   1      42.517  35.574  34.634  1.00  0.00     0.009 A 
ATOM     64  C   UNL A   1      41.574  35.494  37.258  1.00  0.00     0.001 A 
ATOM     65  C   UNL A   1      42.809  36.619  35.512  1.00  0.00     0.001 A 
ATOM     66  C   UNL A   1      42.335  36.580  36.822  1.00  0.00     0.000 A 
ENDBRANCH  47  61
BRANCH  48  67
ATOM     67  C   UNL A   1      40.178  27.159  28.488  1.00  0.00    -0.014 A 
ATOM     68  C   UNL A   1      39.499  25.967  28.782  1.00  0.00     0.009 A 
ATOM     69  C   UNL A   1      40.732  27.326  27.208  1.00  0.00     0.009 A 
ATOM     70  C   UNL A   1      39.405  24.953  27.826  1.00  0.00     0.001 A 
ATOM     71  C   UNL A   1      40.609  26.323  26.244  1.00  0.00     0.001 A 
ATOM     72  C   UNL A   1      39.957  25.133  26.559  1.00  0.00     0.000 A 
ENDBRANCH  48  67
BRANCH  60  73
ATOM     73  C   UNL A   1      45.334  28.614  32.926  1.00  0.00    -0.014 A 
ATOM     74  C   UNL A   1      45.439  27.575  33.864  1.00  0.00     0.009 A 
ATOM     75  C   UNL A   1      46.475  28.997  32.203  1.00  0.00     0.009 A 
ATOM     76  C   UNL A   1      46.666  26.950  34.090  1.00  0.00     0.001 A 
ATOM     77  C   UNL A   1      47.695  28.352  32.413  1.00  0.00     0.001 A 
ATOM     78  C   UNL A   1      47.791  27.335  33.361  1.00  0.00     0.000 A 
ENDBRANCH  60  73
ENDBRANCH  34  35
ENDBRANCH  27  29
ENDBRANCH  26  27
ENDBRANCH  25  26
ENDBRANCH  24  25
ENDBRANCH  23  24
ENDBRANCH   1  23
TORSDOF 20
ENDMDL
MODEL 3
REMARK VINA RESULT:      -9.0      3.788      8.350
REMARK SMILES CC(C)C[C@@H](CNS(=O)(=O)c1ccn(C)c1)C(=O)OCCOCCOC(=O)c1ccc(-c2c3nc(c(-c4ccccc4)c4ccc([nH]4)c(-c4ccccc4)c4nc(c(-c5ccccc5)c5ccc2[nH]5)C=C4)C=C3)cc1
REMARK SMILES IDX 21 1 20 2 19 3 17 4 18 5 5 6 4 7 2 8 1 9 3 10 6 11 7 12 8 14
REMARK SMILES IDX 9 15 10 16 11 17 12 18 16 19 13 20 14 21 15 22 22 23 23 24
REMARK SMILES IDX 24 25 25 26 26 27 27 28 28 29 29 30 75 31 30 32 74 33 31 34
REMARK SMILES IDX 32 35 33 36 68 37 34 38 73 39 67 40 69 41 35 42 72 43 66 44
REMARK SMILES IDX 65 45 36 47 58 48 43 49 57 50 44 51 47 52 56 53 70 54 45 55
REMARK SMILES IDX 46 56 55 58 71 59 48 60 37 61 38 62 42 63 39 64 41 65 40 66
REMARK SMILES IDX 59 67 60 68 64 69 61 70 63 71 62 72 49 73 50 74 54 75 51 76
REMARK SMILES IDX 53 77 52 78
REMARK H PARENT 7 13 69 46 47 57
REMARK Flexibility Score: inf
ROOT
ATOM      1  C   UNL A   1      32.954  30.173  26.904  1.00  0.00     0.202 C 
ENDROOT
BRANCH   1   2
ATOM      2  C   UNL A   1      32.985  28.683  27.257  1.00  0.00     0.261 C 
BRANCH   2   3
ATOM      3  O   UNL A   1      33.716  27.897  26.298  1.00  0.00    -0.463 OA
BRANCH   3   4
ATOM      4  C   UNL A   1      33.077  26.790  25.837  1.00  0.00     0.310 C 
ATOM      5  O   UNL A   1      32.174  26.204  26.425  1.00  0.00    -0.252 OA
BRANCH   4   6
ATOM      6  C   UNL A   1      33.628  26.279  24.517  1.00  0.00     0.114 C 
BRANCH   6   7
ATOM      7  C   UNL A   1      33.231  24.839  24.131  1.00  0.00     0.019 C 
BRANCH   7   8
ATOM      8  C   UNL A   1      34.082  23.741  24.814  1.00  0.00    -0.017 C 
ATOM      9  C   UNL A   1      34.006  22.400  24.078  1.00  0.00     0.007 C 
ATOM     10  C   UNL A   1      35.544  24.184  24.911  1.00  0.00     0.007 C 
ENDBRANCH   7   8
ENDBRANCH   6   7
BRANCH   6  11
ATOM     11  C   UNL A   1      33.325  27.321  23.439  1.00  0.00     0.114 C 
BRANCH  11  12
ATOM     12  N   UNL A   1      32.043  28.000  23.716  1.00  0.00    -0.210 NA
ATOM     13  H   UNL A   1      32.153  28.982  23.465  1.00  0.00     0.141 HD
BRANCH  12  14
ATOM     14  S   UNL A   1      30.682  27.414  22.905  1.00  0.00     0.242 S 
ATOM     15  O   UNL A   1      31.111  26.995  21.590  1.00  0.00    -0.207 OA
ATOM     16  O   UNL A   1      30.008  26.518  23.818  1.00  0.00    -0.207 OA
BRANCH  14  17
ATOM     17  C   UNL A   1      29.560  28.690  22.619  1.00  0.00     0.100 A 
ATOM     18  C   UNL A   1      28.219  28.708  23.082  1.00  0.00     0.041 A 
ATOM     19  C   UNL A   1      29.761  29.850  21.897  1.00  0.00     0.106 A 
ATOM     20  C   UNL A   1      27.628  29.848  22.579  1.00  0.00     0.086 A 
ATOM     21  N   UNL A   1      28.563  30.510  21.828  1.00  0.00    -0.356 N 
ATOM     22  C   UNL A   1      28.327  31.692  21.030  1.00  0.00     0.149 C 
ENDBRANCH  14  17
ENDBRANCH  12  14
ENDBRANCH  11  12
ENDBRANCH   6  11
ENDBRANCH   4   6
ENDBRANCH   3   4
ENDBRANCH   2   3
ENDBRANCH   1   2
BRANCH   1  23
ATOM     23  O   UNL A   1      31.706  30.707  26.470  1.00  0.00    -0.374 OA
BRANCH  23  24
ATOM     24  C   UNL A   1      31.472  32.096  26.694  1.00  0.00     0.202 C 
BRANCH  24  25
ATOM     25  C   UNL A   1      32.636  32.913  27.272  1.00  0.00     0.261 C 
BRANCH  25  26
ATOM     26  O   UNL A   1      32.285  33.604  28.486  1.00  0.00    -0.460 OA
BRANCH  26  27
ATOM     27  C   UNL A   1      33.045  34.696  28.758  1.00  0.00     0.338 C 
ATOM     28  O   UNL A   1      32.736  35.867  28.623  1.00  0.00    -0.246 OA
BRANCH  27  29
ATOM     29  C   UNL A   1      34.297  34.289  29.423  1.00  0.00     0.060 A 
ATOM     30  C   UNL A   1      35.496  34.454  28.717  1.00  0.00     0.016 A 
ATOM     31  C   UNL A   1      34.290  33.677  30.677  1.00  0.00     0.016 A 
ATOM     32  C   UNL A   1      36.696  33.991  29.257  1.00  0.00     0.010 A 
ATOM     33  C   UNL A   1      35.493  33.200  31.210  1.00  0.00     0.010 A 
ATOM     34  C   UNL A   1      36.698  33.336  30.496  1.00  0.00    -0.014 A 
BRANCH  34  35
ATOM     35  C   UNL A   1      37.947  32.727  31.015  1.00  0.00     0.031 A 
ATOM     36  C   UNL A   1      38.493  31.484  30.369  1.00  0.00     0.074 A 
ATOM     37  C   UNL A   1      38.581  33.273  32.070  1.00  0.00     0.049 A 
ATOM     38  N   UNL A   1      39.515  30.749  30.725  1.00  0.00    -0.248 NA
ATOM     39  C   UNL A   1      37.796  31.006  29.164  1.00  0.00     0.031 C 
ATOM     40  C   UNL A   1      38.175  34.495  32.760  1.00  0.00     0.029 A 
ATOM     41  N   UNL A   1      39.693  32.850  32.755  1.00  0.00    -0.354 N 
ATOM     42  C   UNL A   1      39.577  29.715  29.800  1.00  0.00     0.074 A 
ATOM     43  C   UNL A   1      38.485  29.911  28.871  1.00  0.00     0.031 C 
ATOM     44  C   UNL A   1      39.012  34.711  33.790  1.00  0.00     0.029 A 
ATOM     45  C   UNL A   1      39.984  33.623  33.853  1.00  0.00     0.049 A 
ATOM     46  H   UNL A   1      40.229  32.069  32.486  1.00  0.00     0.167 HD
ATOM     47  C   UNL A   1      40.463  28.692  29.735  1.00  0.00     0.031 A 
ATOM     48  C   UNL A   1      40.904  33.450  34.821  1.00  0.00     0.031 A 
ATOM     49  C   UNL A   1      41.547  28.495  30.657  1.00  0.00     0.049 A 
ATOM     50  C   UNL A   1      41.819  32.255  34.770  1.00  0.00     0.074 A 
ATOM     51  C   UNL A   1      42.525  27.514  30.639  1.00  0.00     0.029 A 
ATOM     52  N   UNL A   1      41.789  29.280  31.773  1.00  0.00    -0.354 N 
ATOM     53  N   UNL A   1      41.901  31.314  33.861  1.00  0.00    -0.248 NA
ATOM     54  C   UNL A   1      42.765  32.095  35.886  1.00  0.00     0.031 C 
ATOM     55  C   UNL A   1      43.322  27.670  31.777  1.00  0.00     0.029 A 
ATOM     56  C   UNL A   1      42.870  28.778  32.475  1.00  0.00     0.049 A 
ATOM     57  H   UNL A   1      41.268  30.076  32.027  1.00  0.00     0.167 HD
ATOM     58  C   UNL A   1      42.915  30.464  34.285  1.00  0.00     0.074 A 
ATOM     59  C   UNL A   1      43.434  31.010  35.522  1.00  0.00     0.031 C 
ATOM     60  C   UNL A   1      43.373  29.329  33.704  1.00  0.00     0.031 A 
BRANCH  47  61
ATOM     61  C   UNL A   1      40.281  27.676  28.645  1.00  0.00    -0.014 A 
ATOM     62  C   UNL A   1      40.883  27.838  27.388  1.00  0.00     0.009 A 
ATOM     63  C   UNL A   1      39.565  26.498  28.912  1.00  0.00     0.009 A 
ATOM     64  C   UNL A   1      40.757  26.844  26.415  1.00  0.00     0.001 A 
ATOM     65  C   UNL A   1      39.457  25.499  27.944  1.00  0.00     0.001 A 
ATOM     66  C   UNL A   1      40.050  25.674  26.695  1.00  0.00     0.000 A 
ENDBRANCH  47  61
BRANCH  48  67
ATOM     67  C   UNL A   1      40.972  34.394  35.968  1.00  0.00    -0.014 A 
ATOM     68  C   UNL A   1      40.188  34.194  37.113  1.00  0.00     0.009 A 
ATOM     69  C   UNL A   1      41.794  35.530  35.899  1.00  0.00     0.009 A 
ATOM     70  C   UNL A   1      40.203  35.127  38.152  1.00  0.00     0.001 A 
ATOM     71  C   UNL A   1      41.831  36.446  36.952  1.00  0.00     0.001 A 
ATOM     72  C   UNL A   1      41.026  36.250  38.072  1.00  0.00     0.000 A 
ENDBRANCH  48  67
BRANCH  60  73
ATOM     73  C   UNL A   1      44.501  28.610  34.389  1.00  0.00    -0.014 A 
ATOM     74  C   UNL A   1      45.835  28.985  34.173  1.00  0.00     0.009 A 
ATOM     75  C   UNL A   1      44.221  27.578  35.298  1.00  0.00     0.009 A 
ATOM     76  C   UNL A   1      46.870  28.324  34.837  1.00  0.00     0.001 A 
ATOM     77  C   UNL A   1      45.257  26.936  35.980  1.00  0.00     0.001 A 
ATOM     78  C   UNL A   1      46.579  27.305  35.743  1.00  0.00     0.000 A 
ENDBRANCH  60  73
ENDBRANCH  34  35
ENDBRANCH  27  29
ENDBRANCH  26  27
ENDBRANCH  25  26
ENDBRANCH  24  25
ENDBRANCH  23  24
ENDBRANCH   1  23
TORSDOF 20
ENDMDL
