MODEL 1
REMARK VINA RESULT:     -10.6      0.000      0.000
REMARK SMILES Cc1cc(C(=O)N2CCC[C@@H]2C(C)C)sc1/C=C/C(=O)OCCOCCOC(=O)c1ccc(-c2c3nc(c(-c4ccccc4)c4ccc([nH]4)c(-c4ccccc4)c4nc(c(-c5ccccc5)c5ccc2[nH]5)C=C4)C=C3)cc1
REMARK SMILES IDX 23 1 22 2 21 3 19 4 20 5 18 6 17 7 16 8 1 9 2 10 3 11 4 12
REMARK SMILES IDX 15 13 5 14 6 15 7 16 8 17 11 18 9 19 10 20 12 21 13 22 14 23
REMARK SMILES IDX 24 24 25 25 26 26 27 27 28 28 29 29 30 30 31 31 77 32 32 33
REMARK SMILES IDX 76 34 33 35 34 36 35 37 70 38 36 39 75 40 69 41 71 42 37 43
REMARK SMILES IDX 74 44 68 45 67 46 38 48 60 49 45 50 59 51 46 52 49 53 58 54
REMARK SMILES IDX 72 55 47 56 48 57 57 59 73 60 50 61 39 62 40 63 44 64 41 65
REMARK SMILES IDX 43 66 42 67 61 68 62 69 66 70 63 71 65 72 64 73 51 74 52 75
REMARK SMILES IDX 56 76 53 77 55 78 54 79
REMARK H PARENT 71 47 49 58
REMARK Flexibility Score: inf
ROOT
ATOM      1  C   UNL A   1      44.634  18.956  25.032  1.00  0.00     0.202 C 
ENDROOT
BRANCH   1   2
ATOM      2  C   UNL A   1      43.329  18.597  25.744  1.00  0.00     0.261 C 
BRANCH   2   3
ATOM      3  O   UNL A   1      42.264  19.478  25.345  1.00  0.00    -0.460 OA
BRANCH   3   4
ATOM      4  C   UNL A   1      41.836  20.330  26.305  1.00  0.00     0.330 C 
ATOM      5  O   UNL A   1      42.366  20.532  27.387  1.00  0.00    -0.247 OA
BRANCH   4   6
ATOM      6  C   UNL A   1      40.652  21.102  25.886  1.00  0.00     0.095 C 
ATOM      7  C   UNL A   1      39.825  21.804  26.678  1.00  0.00     0.027 C 
BRANCH   7   8
ATOM      8  C   UNL A   1      38.673  22.496  26.166  1.00  0.00     0.031 A 
ATOM      9  C   UNL A   1      38.773  24.722  27.468  1.00  0.00     0.046 C 
ATOM     10  C   UNL A   1      38.173  23.754  26.497  1.00  0.00    -0.032 A 
ATOM     11  C   UNL A   1      36.997  24.082  25.728  1.00  0.00     0.029 A 
ATOM     12  C   UNL A   1      36.629  23.100  24.830  1.00  0.00     0.093 A 
ATOM     13  S   UNL A   1      37.667  21.761  24.976  1.00  0.00    -0.130 S 
BRANCH  12  14
ATOM     14  C   UNL A   1      35.597  23.189  23.794  1.00  0.00     0.264 C 
ATOM     15  O   UNL A   1      35.862  23.136  22.593  1.00  0.00    -0.268 OA
BRANCH  14  16
ATOM     16  N   UNL A   1      34.281  23.191  24.230  1.00  0.00    -0.335 N 
ATOM     17  C   UNL A   1      33.553  24.439  24.361  1.00  0.00     0.120 C 
ATOM     18  C   UNL A   1      33.354  22.073  24.009  1.00  0.00     0.088 C 
ATOM     19  C   UNL A   1      32.280  24.016  25.050  1.00  0.00     0.024 C 
ATOM     20  C   UNL A   1      31.976  22.671  24.396  1.00  0.00     0.027 C 
BRANCH  18  21
ATOM     21  C   UNL A   1      33.729  20.787  24.808  1.00  0.00     0.005 C 
ATOM     22  C   UNL A   1      33.861  21.053  26.316  1.00  0.00     0.009 C 
ATOM     23  C   UNL A   1      32.692  19.666  24.635  1.00  0.00     0.009 C 
ENDBRANCH  18  21
ENDBRANCH  14  16
ENDBRANCH  12  14
ENDBRANCH   7   8
ENDBRANCH   4   6
ENDBRANCH   3   4
ENDBRANCH   2   3
ENDBRANCH   1   2
BRANCH   1  24
ATOM     24  O   UNL A   1      44.534  19.997  24.060  1.00  0.00    -0.374 OA
BRANCH  24  25
ATOM     25  C   UNL A   1      45.096  21.263  24.416  1.00  0.00     0.202 C 
BRANCH  25  26
ATOM     26  C   UNL A   1      44.391  22.487  23.815  1.00  0.00     0.261 C 
BRANCH  26  27
ATOM     27  O   UNL A   1      43.788  23.306  24.835  1.00  0.00    -0.460 OA
BRANCH  27  28
ATOM     28  C   UNL A   1      44.486  24.417  25.165  1.00  0.00     0.338 C 
ATOM     29  O   UNL A   1      45.541  24.804  24.681  1.00  0.00    -0.246 OA
BRANCH  28  30
ATOM     30  C   UNL A   1      43.705  25.239  26.110  1.00  0.00     0.060 A 
ATOM     31  C   UNL A   1      43.988  26.610  26.161  1.00  0.00     0.016 A 
ATOM     32  C   UNL A   1      42.761  24.678  26.972  1.00  0.00     0.016 A 
ATOM     33  C   UNL A   1      43.362  27.418  27.107  1.00  0.00     0.010 A 
ATOM     34  C   UNL A   1      42.139  25.489  27.927  1.00  0.00     0.010 A 
ATOM     35  C   UNL A   1      42.461  26.855  28.021  1.00  0.00    -0.014 A 
BRANCH  35  36
ATOM     36  C   UNL A   1      41.963  27.669  29.157  1.00  0.00     0.031 A 
ATOM     37  C   UNL A   1      42.682  27.602  30.477  1.00  0.00     0.074 A 
ATOM     38  C   UNL A   1      40.900  28.478  29.011  1.00  0.00     0.049 A 
ATOM     39  N   UNL A   1      42.407  28.211  31.602  1.00  0.00    -0.248 NA
ATOM     40  C   UNL A   1      43.869  26.734  30.534  1.00  0.00     0.031 C 
ATOM     41  C   UNL A   1      40.141  28.666  27.775  1.00  0.00     0.029 A 
ATOM     42  N   UNL A   1      40.273  29.294  29.920  1.00  0.00    -0.354 N 
ATOM     43  C   UNL A   1      43.380  27.796  32.502  1.00  0.00     0.074 A 
ATOM     44  C   UNL A   1      44.236  26.862  31.801  1.00  0.00     0.031 C 
ATOM     45  C   UNL A   1      39.145  29.539  28.005  1.00  0.00     0.029 A 
ATOM     46  C   UNL A   1      39.178  29.946  29.408  1.00  0.00     0.049 A 
ATOM     47  H   UNL A   1      40.579  29.401  30.849  1.00  0.00     0.167 HD
ATOM     48  C   UNL A   1      43.553  28.162  33.793  1.00  0.00     0.031 A 
ATOM     49  C   UNL A   1      38.293  30.763  30.009  1.00  0.00     0.031 A 
ATOM     50  C   UNL A   1      42.698  29.078  34.499  1.00  0.00     0.049 A 
ATOM     51  C   UNL A   1      38.460  31.095  31.468  1.00  0.00     0.074 A 
ATOM     52  C   UNL A   1      42.800  29.522  35.807  1.00  0.00     0.029 A 
ATOM     53  N   UNL A   1      41.576  29.685  33.957  1.00  0.00    -0.354 N 
ATOM     54  N   UNL A   1      39.399  30.716  32.300  1.00  0.00    -0.248 NA
ATOM     55  C   UNL A   1      37.445  31.976  32.067  1.00  0.00     0.031 C 
ATOM     56  C   UNL A   1      41.710  30.357  36.071  1.00  0.00     0.029 A 
ATOM     57  C   UNL A   1      40.962  30.478  34.911  1.00  0.00     0.049 A 
ATOM     58  H   UNL A   1      41.263  29.571  33.031  1.00  0.00     0.167 HD
ATOM     59  C   UNL A   1      39.105  31.332  33.511  1.00  0.00     0.074 A 
ATOM     60  C   UNL A   1      37.908  32.119  33.301  1.00  0.00     0.031 C 
ATOM     61  C   UNL A   1      39.769  31.255  34.689  1.00  0.00     0.031 A 
BRANCH  48  62
ATOM     62  C   UNL A   1      44.700  27.540  34.540  1.00  0.00    -0.014 A 
ATOM     63  C   UNL A   1      44.555  26.311  35.203  1.00  0.00     0.009 A 
ATOM     64  C   UNL A   1      45.949  28.178  34.555  1.00  0.00     0.009 A 
ATOM     65  C   UNL A   1      45.632  25.751  35.895  1.00  0.00     0.001 A 
ATOM     66  C   UNL A   1      47.030  27.603  35.225  1.00  0.00     0.001 A 
ATOM     67  C   UNL A   1      46.869  26.395  35.901  1.00  0.00     0.000 A 
ENDBRANCH  48  62
BRANCH  49  68
ATOM     68  C   UNL A   1      37.149  31.316  29.238  1.00  0.00    -0.014 A 
ATOM     69  C   UNL A   1      37.183  32.629  28.747  1.00  0.00     0.009 A 
ATOM     70  C   UNL A   1      36.006  30.533  29.006  1.00  0.00     0.009 A 
ATOM     71  C   UNL A   1      36.087  33.155  28.059  1.00  0.00     0.001 A 
ATOM     72  C   UNL A   1      34.923  31.053  28.294  1.00  0.00     0.001 A 
ATOM     73  C   UNL A   1      34.960  32.366  27.830  1.00  0.00     0.000 A 
ENDBRANCH  49  68
BRANCH  61  74
ATOM     74  C   UNL A   1      39.238  32.068  35.836  1.00  0.00    -0.014 A 
ATOM     75  C   UNL A   1      39.668  33.385  36.058  1.00  0.00     0.009 A 
ATOM     76  C   UNL A   1      38.260  31.520  36.681  1.00  0.00     0.009 A 
ATOM     77  C   UNL A   1      39.152  34.126  37.124  1.00  0.00     0.001 A 
ATOM     78  C   UNL A   1      37.726  32.273  37.729  1.00  0.00     0.001 A 
ATOM     79  C   UNL A   1      38.179  33.571  37.955  1.00  0.00     0.000 A 
ENDBRANCH  61  74
ENDBRANCH  35  36
ENDBRANCH  28  30
ENDBRANCH  27  28
ENDBRANCH  26  27
ENDBRANCH  25  26
ENDBRANCH  24  25
ENDBRANCH   1  24
TORSDOF 18
ENDMDL
MODEL 2
REMARK VINA RESULT:     -10.3      0.775      5.944
REMARK SMILES Cc1cc(C(=O)N2CCC[C@@H]2C(C)C)sc1/C=C/C(=O)OCCOCCOC(=O)c1ccc(-c2c3nc(c(-c4ccccc4)c4ccc([nH]4)c(-c4ccccc4)c4nc(c(-c5ccccc5)c5ccc2[nH]5)C=C4)C=C3)cc1
REMARK SMILES IDX 23 1 22 2 21 3 19 4 20 5 18 6 17 7 16 8 1 9 2 10 3 11 4 12
REMARK SMILES IDX 15 13 5 14 6 15 7 16 8 17 11 18 9 19 10 20 12 21 13 22 14 23
REMARK SMILES IDX 24 24 25 25 26 26 27 27 28 28 29 29 30 30 31 31 77 32 32 33
REMARK SMILES IDX 76 34 33 35 34 36 35 37 70 38 36 39 75 40 69 41 71 42 37 43
REMARK SMILES IDX 74 44 68 45 67 46 38 48 60 49 45 50 59 51 46 52 49 53 58 54
REMARK SMILES IDX 72 55 47 56 48 57 57 59 73 60 50 61 39 62 40 63 44 64 41 65
REMARK SMILES IDX 43 66 42 67 61 68 62 69 66 70 63 71 65 72 64 73 51 74 52 75
REMARK SMILES IDX 56 76 53 77 55 78 54 79
REMARK H PARENT 71 47 49 58
REMARK Flexibility Score: inf
ROOT
ATOM      1  C   UNL A   1      44.216  19.232  25.370  1.00  0.00     0.202 C 
ENDROOT
BRANCH   1   2
ATOM      2  C   UNL A   1      42.794  18.992  25.880  1.00  0.00     0.261 C 
BRANCH   2   3
ATOM      3  O   UNL A   1      41.925  20.077  25.510  1.00  0.00    -0.460 OA
BRANCH   3   4
ATOM      4  C   UNL A   1      41.704  20.990  26.483  1.00  0.00     0.330 C 
ATOM      5  O   UNL A   1      42.424  21.220  27.443  1.00  0.00    -0.247 OA
BRANCH   4   6
ATOM      6  C   UNL A   1      40.492  21.793  26.237  1.00  0.00     0.095 C 
ATOM      7  C   UNL A   1      39.251  21.331  26.005  1.00  0.00     0.027 C 
BRANCH   7   8
ATOM      8  C   UNL A   1      38.142  22.207  25.741  1.00  0.00     0.031 A 
ATOM      9  C   UNL A   1      38.894  24.378  26.918  1.00  0.00     0.046 C 
ATOM     10  C   UNL A   1      37.941  23.529  26.136  1.00  0.00    -0.032 A 
ATOM     11  C   UNL A   1      36.692  24.052  25.638  1.00  0.00     0.029 A 
ATOM     12  C   UNL A   1      35.977  23.150  24.876  1.00  0.00     0.093 A 
ATOM     13  S   UNL A   1      36.789  21.657  24.828  1.00  0.00    -0.130 S 
BRANCH  12  14
ATOM     14  C   UNL A   1      34.766  23.416  24.094  1.00  0.00     0.264 C 
ATOM     15  O   UNL A   1      34.807  23.741  22.907  1.00  0.00    -0.268 OA
BRANCH  14  16
ATOM     16  N   UNL A   1      33.557  23.142  24.713  1.00  0.00    -0.335 N 
ATOM     17  C   UNL A   1      33.005  21.801  24.686  1.00  0.00     0.120 C 
ATOM     18  C   UNL A   1      33.063  23.881  25.883  1.00  0.00     0.088 C 
ATOM     19  C   UNL A   1      31.626  21.992  25.265  1.00  0.00     0.024 C 
ATOM     20  C   UNL A   1      31.865  23.022  26.366  1.00  0.00     0.027 C 
BRANCH  18  21
ATOM     21  C   UNL A   1      32.689  25.362  25.572  1.00  0.00     0.005 C 
ATOM     22  C   UNL A   1      33.900  26.303  25.660  1.00  0.00     0.009 C 
ATOM     23  C   UNL A   1      32.084  25.532  24.169  1.00  0.00     0.009 C 
ENDBRANCH  18  21
ENDBRANCH  14  16
ENDBRANCH  12  14
ENDBRANCH   7   8
ENDBRANCH   4   6
ENDBRANCH   3   4
ENDBRANCH   2   3
ENDBRANCH   1   2
BRANCH   1  24
ATOM     24  O   UNL A   1      44.329  20.140  24.274  1.00  0.00    -0.374 OA
BRANCH  24  25
ATOM     25  C   UNL A   1      45.060  21.346  24.512  1.00  0.00     0.202 C 
BRANCH  25  26
ATOM     26  C   UNL A   1      44.559  22.579  23.749  1.00  0.00     0.261 C 
BRANCH  26  27
ATOM     27  O   UNL A   1      43.817  23.469  24.606  1.00  0.00    -0.460 OA
BRANCH  27  28
ATOM     28  C   UNL A   1      44.514  24.532  25.070  1.00  0.00     0.338 C 
ATOM     29  O   UNL A   1      45.590  24.949  24.665  1.00  0.00    -0.246 OA
BRANCH  28  30
ATOM     30  C   UNL A   1      43.707  25.268  26.062  1.00  0.00     0.060 A 
ATOM     31  C   UNL A   1      43.898  26.652  26.153  1.00  0.00     0.016 A 
ATOM     32  C   UNL A   1      42.827  24.615  26.929  1.00  0.00     0.016 A 
ATOM     33  C   UNL A   1      43.246  27.385  27.143  1.00  0.00     0.010 A 
ATOM     34  C   UNL A   1      42.180  25.351  27.927  1.00  0.00     0.010 A 
ATOM     35  C   UNL A   1      42.411  26.732  28.060  1.00  0.00    -0.014 A 
BRANCH  35  36
ATOM     36  C   UNL A   1      41.892  27.472  29.236  1.00  0.00     0.031 A 
ATOM     37  C   UNL A   1      40.580  28.199  29.124  1.00  0.00     0.074 A 
ATOM     38  C   UNL A   1      42.567  27.476  30.399  1.00  0.00     0.049 A 
ATOM     39  N   UNL A   1      39.955  28.921  30.018  1.00  0.00    -0.248 NA
ATOM     40  C   UNL A   1      39.881  28.096  27.834  1.00  0.00     0.031 C 
ATOM     41  C   UNL A   1      43.826  26.778  30.651  1.00  0.00     0.029 A 
ATOM     42  N   UNL A   1      42.281  28.097  31.589  1.00  0.00    -0.354 N 
ATOM     43  C   UNL A   1      38.794  29.365  29.398  1.00  0.00     0.074 A 
ATOM     44  C   UNL A   1      38.814  28.854  28.044  1.00  0.00     0.031 C 
ATOM     45  C   UNL A   1      44.209  27.015  31.918  1.00  0.00     0.029 A 
ATOM     46  C   UNL A   1      43.239  27.904  32.553  1.00  0.00     0.049 A 
ATOM     47  H   UNL A   1      41.467  28.631  31.737  1.00  0.00     0.167 HD
ATOM     48  C   UNL A   1      37.795  30.122  29.909  1.00  0.00     0.031 A 
ATOM     49  C   UNL A   1      43.332  28.403  33.801  1.00  0.00     0.031 A 
ATOM     50  C   UNL A   1      37.776  30.645  31.250  1.00  0.00     0.049 A 
ATOM     51  C   UNL A   1      42.247  29.308  34.321  1.00  0.00     0.074 A 
ATOM     52  C   UNL A   1      36.800  31.412  31.863  1.00  0.00     0.029 A 
ATOM     53  N   UNL A   1      38.784  30.459  32.181  1.00  0.00    -0.354 N 
ATOM     54  N   UNL A   1      41.143  29.698  33.733  1.00  0.00    -0.248 NA
ATOM     55  C   UNL A   1      42.422  29.834  35.683  1.00  0.00     0.031 C 
ATOM     56  C   UNL A   1      37.244  31.735  33.150  1.00  0.00     0.029 A 
ATOM     57  C   UNL A   1      38.468  31.120  33.356  1.00  0.00     0.049 A 
ATOM     58  H   UNL A   1      39.604  29.935  32.031  1.00  0.00     0.167 HD
ATOM     59  C   UNL A   1      40.478  30.492  34.660  1.00  0.00     0.074 A 
ATOM     60  C   UNL A   1      41.298  30.517  35.854  1.00  0.00     0.031 C 
ATOM     61  C   UNL A   1      39.294  31.139  34.535  1.00  0.00     0.031 A 
BRANCH  48  62
ATOM     62  C   UNL A   1      36.650  30.461  28.997  1.00  0.00    -0.014 A 
ATOM     63  C   UNL A   1      35.753  29.475  28.556  1.00  0.00     0.009 A 
ATOM     64  C   UNL A   1      36.448  31.791  28.596  1.00  0.00     0.009 A 
ATOM     65  C   UNL A   1      34.697  29.809  27.705  1.00  0.00     0.001 A 
ATOM     66  C   UNL A   1      35.377  32.126  27.766  1.00  0.00     0.001 A 
ATOM     67  C   UNL A   1      34.508  31.135  27.315  1.00  0.00     0.000 A 
ENDBRANCH  48  62
BRANCH  49  68
ATOM     68  C   UNL A   1      44.508  28.074  34.647  1.00  0.00    -0.014 A 
ATOM     69  C   UNL A   1      45.698  28.808  34.537  1.00  0.00     0.009 A 
ATOM     70  C   UNL A   1      44.449  27.009  35.560  1.00  0.00     0.009 A 
ATOM     71  C   UNL A   1      46.813  28.467  35.307  1.00  0.00     0.001 A 
ATOM     72  C   UNL A   1      45.556  26.688  36.348  1.00  0.00     0.001 A 
ATOM     73  C   UNL A   1      46.740  27.410  36.214  1.00  0.00     0.000 A 
ENDBRANCH  49  68
BRANCH  61  74
ATOM     74  C   UNL A   1      38.795  31.902  35.730  1.00  0.00    -0.014 A 
ATOM     75  C   UNL A   1      38.091  31.264  36.762  1.00  0.00     0.009 A 
ATOM     76  C   UNL A   1      39.072  33.274  35.842  1.00  0.00     0.009 A 
ATOM     77  C   UNL A   1      37.645  31.991  37.868  1.00  0.00     0.001 A 
ATOM     78  C   UNL A   1      38.650  33.993  36.962  1.00  0.00     0.001 A 
ATOM     79  C   UNL A   1      37.930  33.354  37.969  1.00  0.00     0.000 A 
ENDBRANCH  61  74
ENDBRANCH  35  36
ENDBRANCH  28  30
ENDBRANCH  27  28
ENDBRANCH  26  27
ENDBRANCH  25  26
ENDBRANCH  24  25
ENDBRANCH   1  24
TORSDOF 18
ENDMDL
MODEL 3
REMARK VINA RESULT:      -9.8      5.326     10.812
REMARK SMILES Cc1cc(C(=O)N2CCC[C@@H]2C(C)C)sc1/C=C/C(=O)OCCOCCOC(=O)c1ccc(-c2c3nc(c(-c4ccccc4)c4ccc([nH]4)c(-c4ccccc4)c4nc(c(-c5ccccc5)c5ccc2[nH]5)C=C4)C=C3)cc1
REMARK SMILES IDX 23 1 22 2 21 3 19 4 20 5 18 6 17 7 16 8 1 9 2 10 3 11 4 12
REMARK SMILES IDX 15 13 5 14 6 15 7 16 8 17 11 18 9 19 10 20 12 21 13 22 14 23
REMARK SMILES IDX 24 24 25 25 26 26 27 27 28 28 29 29 30 30 31 31 77 32 32 33
REMARK SMILES IDX 76 34 33 35 34 36 35 37 70 38 36 39 75 40 69 41 71 42 37 43
REMARK SMILES IDX 74 44 68 45 67 46 38 48 60 49 45 50 59 51 46 52 49 53 58 54
REMARK SMILES IDX 72 55 47 56 48 57 57 59 73 60 50 61 39 62 40 63 44 64 41 65
REMARK SMILES IDX 43 66 42 67 61 68 62 69 66 70 63 71 65 72 64 73 51 74 52 75
REMARK SMILES IDX 56 76 53 77 55 78 54 79
REMARK H PARENT 71 47 49 58
REMARK Flexibility Score: inf
ROOT
ATOM      1  C   UNL A   1      33.376  36.027  30.529  1.00  0.00     0.202 C 
ENDROOT
BRANCH   1   2
ATOM      2  C   UNL A   1      33.031  34.813  29.664  1.00  0.00     0.261 C 
BRANCH   2   3
ATOM      3  O   UNL A   1      33.797  34.814  28.446  1.00  0.00    -0.460 OA
BRANCH   3   4
ATOM      4  C   UNL A   1      34.957  34.121  28.499  1.00  0.00     0.330 C 
ATOM      5  O   UNL A   1      36.028  34.526  28.926  1.00  0.00    -0.247 OA
BRANCH   4   6
ATOM      6  C   UNL A   1      34.800  32.726  28.049  1.00  0.00     0.095 C 
ATOM      7  C   UNL A   1      33.647  32.086  27.790  1.00  0.00     0.027 C 
BRANCH   7   8
ATOM      8  C   UNL A   1      33.607  30.706  27.389  1.00  0.00     0.031 A 
ATOM      9  C   UNL A   1      36.075  30.006  27.665  1.00  0.00     0.046 C 
ATOM     10  C   UNL A   1      34.642  29.776  27.303  1.00  0.00    -0.032 A 
ATOM     11  C   UNL A   1      34.166  28.484  26.871  1.00  0.00     0.029 A 
ATOM     12  C   UNL A   1      32.804  28.440  26.651  1.00  0.00     0.093 A 
ATOM     13  S   UNL A   1      32.124  29.978  26.900  1.00  0.00    -0.130 S 
BRANCH  12  14
ATOM     14  C   UNL A   1      31.990  27.253  26.374  1.00  0.00     0.264 C 
ATOM     15  O   UNL A   1      31.176  26.809  27.183  1.00  0.00    -0.268 OA
BRANCH  14  16
ATOM     16  N   UNL A   1      32.074  26.731  25.092  1.00  0.00    -0.335 N 
ATOM     17  C   UNL A   1      32.807  25.503  24.846  1.00  0.00     0.120 C 
ATOM     18  C   UNL A   1      31.037  26.927  24.070  1.00  0.00     0.088 C 
ATOM     19  C   UNL A   1      32.829  25.420  23.341  1.00  0.00     0.024 C 
ATOM     20  C   UNL A   1      31.440  25.925  22.957  1.00  0.00     0.027 C 
BRANCH  18  21
ATOM     21  C   UNL A   1      30.922  28.402  23.576  1.00  0.00     0.005 C 
ATOM     22  C   UNL A   1      32.244  28.931  23.000  1.00  0.00     0.009 C 
ATOM     23  C   UNL A   1      29.852  28.574  22.488  1.00  0.00     0.009 C 
ENDBRANCH  18  21
ENDBRANCH  14  16
ENDBRANCH  12  14
ENDBRANCH   7   8
ENDBRANCH   4   6
ENDBRANCH   3   4
ENDBRANCH   2   3
ENDBRANCH   1   2
BRANCH   1  24
ATOM     24  O   UNL A   1      34.149  35.746  31.696  1.00  0.00    -0.374 OA
BRANCH  24  25
ATOM     25  C   UNL A   1      33.482  35.064  32.760  1.00  0.00     0.202 C 
BRANCH  25  26
ATOM     26  C   UNL A   1      34.021  33.665  33.085  1.00  0.00     0.261 C 
BRANCH  26  27
ATOM     27  O   UNL A   1      35.291  33.424  32.448  1.00  0.00    -0.460 OA
BRANCH  27  28
ATOM     28  C   UNL A   1      36.204  32.783  33.214  1.00  0.00     0.338 C 
ATOM     29  O   UNL A   1      36.222  32.697  34.434  1.00  0.00    -0.246 OA
BRANCH  28  30
ATOM     30  C   UNL A   1      37.132  32.021  32.357  1.00  0.00     0.060 A 
ATOM     31  C   UNL A   1      38.142  31.287  32.991  1.00  0.00     0.016 A 
ATOM     32  C   UNL A   1      37.060  32.070  30.963  1.00  0.00     0.016 A 
ATOM     33  C   UNL A   1      39.114  30.635  32.233  1.00  0.00     0.010 A 
ATOM     34  C   UNL A   1      38.041  31.422  30.204  1.00  0.00     0.010 A 
ATOM     35  C   UNL A   1      39.090  30.730  30.835  1.00  0.00    -0.014 A 
BRANCH  35  36
ATOM     36  C   UNL A   1      40.238  30.221  30.045  1.00  0.00     0.031 A 
ATOM     37  C   UNL A   1      41.428  31.113  29.825  1.00  0.00     0.074 A 
ATOM     38  C   UNL A   1      40.234  28.970  29.552  1.00  0.00     0.049 A 
ATOM     39  N   UNL A   1      42.526  30.879  29.152  1.00  0.00    -0.248 NA
ATOM     40  C   UNL A   1      41.374  32.446  30.446  1.00  0.00     0.031 C 
ATOM     41  C   UNL A   1      39.162  27.993  29.730  1.00  0.00     0.029 A 
ATOM     42  N   UNL A   1      41.169  28.312  28.794  1.00  0.00    -0.354 N 
ATOM     43  C   UNL A   1      43.289  32.034  29.263  1.00  0.00     0.074 A 
ATOM     44  C   UNL A   1      42.518  32.978  30.043  1.00  0.00     0.031 C 
ATOM     45  C   UNL A   1      39.498  26.858  29.092  1.00  0.00     0.029 A 
ATOM     46  C   UNL A   1      40.791  27.041  28.438  1.00  0.00     0.049 A 
ATOM     47  H   UNL A   1      42.028  28.713  28.530  1.00  0.00     0.167 HD
ATOM     48  C   UNL A   1      44.523  32.287  28.767  1.00  0.00     0.031 A 
ATOM     49  C   UNL A   1      41.410  26.135  27.657  1.00  0.00     0.031 A 
ATOM     50  C   UNL A   1      45.287  31.357  27.978  1.00  0.00     0.049 A 
ATOM     51  C   UNL A   1      42.748  26.468  27.051  1.00  0.00     0.074 A 
ATOM     52  C   UNL A   1      46.554  31.518  27.442  1.00  0.00     0.029 A 
ATOM     53  N   UNL A   1      44.852  30.096  27.606  1.00  0.00    -0.354 N 
ATOM     54  N   UNL A   1      43.469  27.555  27.185  1.00  0.00    -0.248 NA
ATOM     55  C   UNL A   1      43.358  25.443  26.191  1.00  0.00     0.031 C 
ATOM     56  C   UNL A   1      46.863  30.372  26.701  1.00  0.00     0.029 A 
ATOM     57  C   UNL A   1      45.812  29.477  26.824  1.00  0.00     0.049 A 
ATOM     58  H   UNL A   1      43.988  29.698  27.861  1.00  0.00     0.167 HD
ATOM     59  C   UNL A   1      44.629  27.334  26.451  1.00  0.00     0.074 A 
ATOM     60  C   UNL A   1      44.519  26.005  25.884  1.00  0.00     0.031 C 
ATOM     61  C   UNL A   1      45.689  28.156  26.265  1.00  0.00     0.031 A 
BRANCH  48  62
ATOM     62  C   UNL A   1      45.111  33.643  29.037  1.00  0.00    -0.014 A 
ATOM     63  C   UNL A   1      44.927  34.708  28.141  1.00  0.00     0.009 A 
ATOM     64  C   UNL A   1      45.834  33.867  30.219  1.00  0.00     0.009 A 
ATOM     65  C   UNL A   1      45.485  35.961  28.408  1.00  0.00     0.001 A 
ATOM     66  C   UNL A   1      46.367  35.126  30.496  1.00  0.00     0.001 A 
ATOM     67  C   UNL A   1      46.200  36.169  29.587  1.00  0.00     0.000 A 
ENDBRANCH  48  62
BRANCH  49  68
ATOM     68  C   UNL A   1      40.765  24.825  27.382  1.00  0.00    -0.014 A 
ATOM     69  C   UNL A   1      39.626  24.744  26.569  1.00  0.00     0.009 A 
ATOM     70  C   UNL A   1      41.280  23.649  27.951  1.00  0.00     0.009 A 
ATOM     71  C   UNL A   1      39.001  23.513  26.350  1.00  0.00     0.001 A 
ATOM     72  C   UNL A   1      40.669  22.417  27.708  1.00  0.00     0.001 A 
ATOM     73  C   UNL A   1      39.525  22.351  26.915  1.00  0.00     0.000 A 
ENDBRANCH  49  68
BRANCH  61  74
ATOM     74  C   UNL A   1      46.834  27.632  25.443  1.00  0.00    -0.014 A 
ATOM     75  C   UNL A   1      46.918  27.884  24.065  1.00  0.00     0.009 A 
ATOM     76  C   UNL A   1      47.864  26.910  26.068  1.00  0.00     0.009 A 
ATOM     77  C   UNL A   1      47.996  27.396  23.324  1.00  0.00     0.001 A 
ATOM     78  C   UNL A   1      48.954  26.448  25.329  1.00  0.00     0.001 A 
ATOM     79  C   UNL A   1      49.015  26.683  23.956  1.00  0.00     0.000 A 
ENDBRANCH  61  74
ENDBRANCH  35  36
ENDBRANCH  28  30
ENDBRANCH  27  28
ENDBRANCH  26  27
ENDBRANCH  25  26
ENDBRANCH  24  25
ENDBRANCH   1  24
TORSDOF 18
ENDMDL
