MODEL 1
REMARK VINA RESULT:     -10.9      0.000      0.000
REMARK SMILES Cc1ccc(Cl)c(Nc2ccccc2C(=O)N[C@@H](C)C(=O)OCCOCCOC(=O)c2ccc(-c3c4nc(c(-c5ccccc5)c5ccc([nH]5)c(-c5ccccc5)c5nc(c(-c6ccccc6)c6ccc3[nH]6)C=C5)C=C4)cc2)c1Cl
REMARK SMILES IDX 24 1 23 2 22 3 20 4 21 5 18 6 19 7 17 8 15 9 16 10 14 12
REMARK SMILES IDX 9 13 10 14 11 15 13 16 12 17 8 18 7 20 1 21 2 22 3 23 79 24
REMARK SMILES IDX 4 25 80 26 5 27 6 28 25 29 26 30 27 31 28 32 29 33 30 34
REMARK SMILES IDX 31 35 32 36 78 37 33 38 77 39 34 40 35 41 36 42 71 43 37 44
REMARK SMILES IDX 76 45 70 46 72 47 38 48 75 49 69 50 68 51 39 53 61 54 46 55
REMARK SMILES IDX 60 56 47 57 50 58 59 59 73 60 48 61 49 62 58 64 74 65 51 66
REMARK SMILES IDX 40 67 41 68 45 69 42 70 44 71 43 72 62 73 63 74 67 75 64 76
REMARK SMILES IDX 66 77 65 78 52 79 53 80 57 81 54 82 56 83 55 84
REMARK H PARENT 17 11 8 19 72 52 50 63
REMARK Flexibility Score: inf
ROOT
ATOM      1  C   UNL A   1      42.672  19.660  25.762  1.00  0.00     0.202 C 
ENDROOT
BRANCH   1   2
ATOM      2  C   UNL A   1      41.625  20.516  26.599  1.00  0.00     0.261 C 
BRANCH   2   3
ATOM      3  O   UNL A   1      40.183  20.332  26.399  1.00  0.00    -0.462 OA
BRANCH   3   4
ATOM      4  C   UNL A   1      39.449  21.471  26.124  1.00  0.00     0.328 C 
ATOM      5  O   UNL A   1      39.929  22.599  26.243  1.00  0.00    -0.250 OA
BRANCH   4   6
ATOM      6  C   UNL A   1      38.025  21.246  25.448  1.00  0.00     0.189 C 
ATOM      7  C   UNL A   1      37.910  19.806  24.935  1.00  0.00     0.043 C 
BRANCH   6   8
ATOM      8  N   UNL A   1      37.573  22.148  24.392  1.00  0.00    -0.339 N 
ATOM      9  C   UNL A   1      36.394  22.739  23.993  1.00  0.00     0.254 C 
ATOM     10  O   UNL A   1      36.529  23.231  22.858  1.00  0.00    -0.269 OA
ATOM     11  H   UNL A   1      38.318  22.406  23.802  1.00  0.00     0.164 HD
BRANCH   9  12
ATOM     12  C   UNL A   1      35.028  22.947  24.672  1.00  0.00     0.063 A 
ATOM     13  C   UNL A   1      34.294  24.075  25.132  1.00  0.00     0.051 A 
ATOM     14  C   UNL A   1      32.994  23.892  25.706  1.00  0.00     0.027 A 
ATOM     15  C   UNL A   1      32.368  22.655  25.777  1.00  0.00     0.002 A 
ATOM     16  C   UNL A   1      34.353  21.693  24.825  1.00  0.00     0.016 A 
ATOM     17  C   UNL A   1      33.057  21.546  25.337  1.00  0.00     0.001 A 
BRANCH  13  18
ATOM     18  N   UNL A   1      34.555  25.439  24.866  1.00  0.00    -0.352 N 
ATOM     19  H   UNL A   1      35.451  25.790  25.075  1.00  0.00     0.167 HD
BRANCH  18  20
ATOM     20  C   UNL A   1      33.582  26.344  24.305  1.00  0.00     0.077 A 
ATOM     21  C   UNL A   1      31.467  27.450  26.855  1.00  0.00     0.046 C 
ATOM     22  C   UNL A   1      31.750  27.305  25.393  1.00  0.00    -0.030 A 
ATOM     23  C   UNL A   1      30.885  26.820  24.406  1.00  0.00     0.006 A 
ATOM     24  C   UNL A   1      33.087  27.373  25.091  1.00  0.00     0.069 A 
ATOM     25  C   UNL A   1      31.403  26.192  23.273  1.00  0.00     0.023 A 
ATOM     26  Cl  UNL A   1      34.060  28.573  25.867  1.00  0.00    -0.082 Cl
ATOM     27  C   UNL A   1      32.757  25.878  23.268  1.00  0.00     0.066 A 
ATOM     28  Cl  UNL A   1      33.369  24.784  22.086  1.00  0.00    -0.082 Cl
ENDBRANCH  18  20
ENDBRANCH  13  18
ENDBRANCH   9  12
ENDBRANCH   6   8
ENDBRANCH   4   6
ENDBRANCH   3   4
ENDBRANCH   2   3
ENDBRANCH   1   2
BRANCH   1  29
ATOM     29  O   UNL A   1      43.693  20.310  25.001  1.00  0.00    -0.374 OA
BRANCH  29  30
ATOM     30  C   UNL A   1      43.905  21.721  25.230  1.00  0.00     0.202 C 
BRANCH  30  31
ATOM     31  C   UNL A   1      45.247  22.123  25.890  1.00  0.00     0.261 C 
BRANCH  31  32
ATOM     32  O   UNL A   1      45.071  23.385  26.532  1.00  0.00    -0.460 OA
BRANCH  32  33
ATOM     33  C   UNL A   1      44.895  24.458  25.765  1.00  0.00     0.338 C 
ATOM     34  O   UNL A   1      45.341  24.680  24.628  1.00  0.00    -0.246 OA
BRANCH  33  35
ATOM     35  C   UNL A   1      43.842  25.229  26.414  1.00  0.00     0.060 A 
ATOM     36  C   UNL A   1      44.038  26.616  26.470  1.00  0.00     0.016 A 
ATOM     37  C   UNL A   1      42.745  24.635  27.033  1.00  0.00     0.016 A 
ATOM     38  C   UNL A   1      43.152  27.427  27.151  1.00  0.00     0.010 A 
ATOM     39  C   UNL A   1      41.877  25.444  27.772  1.00  0.00     0.010 A 
ATOM     40  C   UNL A   1      42.120  26.830  27.879  1.00  0.00    -0.014 A 
BRANCH  40  41
ATOM     41  C   UNL A   1      41.583  27.613  29.012  1.00  0.00     0.031 A 
ATOM     42  C   UNL A   1      42.340  27.562  30.314  1.00  0.00     0.074 A 
ATOM     43  C   UNL A   1      40.560  28.469  28.865  1.00  0.00     0.049 A 
ATOM     44  N   UNL A   1      42.091  28.174  31.443  1.00  0.00    -0.248 NA
ATOM     45  C   UNL A   1      43.551  26.722  30.339  1.00  0.00     0.031 C 
ATOM     46  C   UNL A   1      39.819  28.715  27.631  1.00  0.00     0.029 A 
ATOM     47  N   UNL A   1      39.983  29.309  29.784  1.00  0.00    -0.354 N 
ATOM     48  C   UNL A   1      43.098  27.775  32.313  1.00  0.00     0.074 A 
ATOM     49  C   UNL A   1      43.952  26.861  31.591  1.00  0.00     0.031 C 
ATOM     50  C   UNL A   1      38.873  29.640  27.873  1.00  0.00     0.029 A 
ATOM     51  C   UNL A   1      38.923  30.021  29.285  1.00  0.00     0.049 A 
ATOM     52  H   UNL A   1      40.301  29.393  30.712  1.00  0.00     0.167 HD
ATOM     53  C   UNL A   1      43.299  28.136  33.600  1.00  0.00     0.031 A 
ATOM     54  C   UNL A   1      38.076  30.862  29.907  1.00  0.00     0.031 A 
ATOM     55  C   UNL A   1      42.459  29.042  34.332  1.00  0.00     0.049 A 
ATOM     56  C   UNL A   1      38.253  31.161  31.373  1.00  0.00     0.074 A 
ATOM     57  C   UNL A   1      42.579  29.450  35.649  1.00  0.00     0.029 A 
ATOM     58  N   UNL A   1      41.344  29.677  33.814  1.00  0.00    -0.354 N 
ATOM     59  N   UNL A   1      39.189  30.759  32.197  1.00  0.00    -0.248 NA
ATOM     60  C   UNL A   1      37.251  32.044  31.991  1.00  0.00     0.031 C 
ATOM     61  C   UNL A   1      41.503  30.292  35.944  1.00  0.00     0.029 A 
ATOM     62  C   UNL A   1      40.752  30.458  34.792  1.00  0.00     0.049 A 
ATOM     63  H   UNL A   1      41.020  29.587  32.888  1.00  0.00     0.167 HD
ATOM     64  C   UNL A   1      38.909  31.365  33.418  1.00  0.00     0.074 A 
ATOM     65  C   UNL A   1      37.723  32.172  33.222  1.00  0.00     0.031 C 
ATOM     66  C   UNL A   1      39.577  31.265  34.592  1.00  0.00     0.031 A 
BRANCH  53  67
ATOM     67  C   UNL A   1      44.452  27.498  34.318  1.00  0.00    -0.014 A 
ATOM     68  C   UNL A   1      44.315  26.269  34.982  1.00  0.00     0.009 A 
ATOM     69  C   UNL A   1      45.704  28.130  34.303  1.00  0.00     0.009 A 
ATOM     70  C   UNL A   1      45.407  25.700  35.640  1.00  0.00     0.001 A 
ATOM     71  C   UNL A   1      46.801  27.545  34.935  1.00  0.00     0.001 A 
ATOM     72  C   UNL A   1      46.649  26.334  35.609  1.00  0.00     0.000 A 
ENDBRANCH  53  67
BRANCH  54  73
ATOM     73  C   UNL A   1      36.941  31.460  29.157  1.00  0.00    -0.014 A 
ATOM     74  C   UNL A   1      37.000  32.786  28.702  1.00  0.00     0.009 A 
ATOM     75  C   UNL A   1      35.773  30.715  28.937  1.00  0.00     0.009 A 
ATOM     76  C   UNL A   1      35.896  33.363  28.071  1.00  0.00     0.001 A 
ATOM     77  C   UNL A   1      34.683  31.285  28.279  1.00  0.00     0.001 A 
ATOM     78  C   UNL A   1      34.741  32.612  27.857  1.00  0.00     0.000 A 
ENDBRANCH  54  73
BRANCH  66  79
ATOM     79  C   UNL A   1      39.080  32.090  35.748  1.00  0.00    -0.014 A 
ATOM     80  C   UNL A   1      39.476  33.425  35.924  1.00  0.00     0.009 A 
ATOM     81  C   UNL A   1      38.171  31.528  36.659  1.00  0.00     0.009 A 
ATOM     82  C   UNL A   1      39.004  34.165  37.012  1.00  0.00     0.001 A 
ATOM     83  C   UNL A   1      37.677  32.278  37.728  1.00  0.00     0.001 A 
ATOM     84  C   UNL A   1      38.104  33.591  37.911  1.00  0.00     0.000 A 
ENDBRANCH  66  79
ENDBRANCH  40  41
ENDBRANCH  33  35
ENDBRANCH  32  33
ENDBRANCH  31  32
ENDBRANCH  30  31
ENDBRANCH  29  30
ENDBRANCH   1  29
TORSDOF 18
ENDMDL
MODEL 2
REMARK VINA RESULT:     -10.4      1.575      2.468
REMARK SMILES Cc1ccc(Cl)c(Nc2ccccc2C(=O)N[C@@H](C)C(=O)OCCOCCOC(=O)c2ccc(-c3c4nc(c(-c5ccccc5)c5ccc([nH]5)c(-c5ccccc5)c5nc(c(-c6ccccc6)c6ccc3[nH]6)C=C5)C=C4)cc2)c1Cl
REMARK SMILES IDX 24 1 23 2 22 3 20 4 21 5 18 6 19 7 17 8 15 9 16 10 14 12
REMARK SMILES IDX 9 13 10 14 11 15 13 16 12 17 8 18 7 20 1 21 2 22 3 23 79 24
REMARK SMILES IDX 4 25 80 26 5 27 6 28 25 29 26 30 27 31 28 32 29 33 30 34
REMARK SMILES IDX 31 35 32 36 78 37 33 38 77 39 34 40 35 41 36 42 71 43 37 44
REMARK SMILES IDX 76 45 70 46 72 47 38 48 75 49 69 50 68 51 39 53 61 54 46 55
REMARK SMILES IDX 60 56 47 57 50 58 59 59 73 60 48 61 49 62 58 64 74 65 51 66
REMARK SMILES IDX 40 67 41 68 45 69 42 70 44 71 43 72 62 73 63 74 67 75 64 76
REMARK SMILES IDX 66 77 65 78 52 79 53 80 57 81 54 82 56 83 55 84
REMARK H PARENT 17 11 8 19 72 52 50 63
REMARK Flexibility Score: inf
ROOT
ATOM      1  C   UNL A   1      39.874  21.387  26.502  1.00  0.00     0.202 C 
ENDROOT
BRANCH   1   2
ATOM      2  C   UNL A   1      38.508  21.147  25.723  1.00  0.00     0.261 C 
BRANCH   2   3
ATOM      3  O   UNL A   1      37.878  22.237  24.969  1.00  0.00    -0.462 OA
BRANCH   3   4
ATOM      4  C   UNL A   1      36.579  22.026  24.548  1.00  0.00     0.328 C 
ATOM      5  O   UNL A   1      35.987  20.969  24.771  1.00  0.00    -0.250 OA
BRANCH   4   6
ATOM      6  C   UNL A   1      35.819  23.288  23.946  1.00  0.00     0.189 C 
ATOM      7  C   UNL A   1      35.458  24.268  25.069  1.00  0.00     0.043 C 
BRANCH   6   8
ATOM      8  N   UNL A   1      34.637  23.092  23.110  1.00  0.00    -0.339 N 
ATOM      9  C   UNL A   1      33.271  23.011  23.280  1.00  0.00     0.254 C 
ATOM     10  O   UNL A   1      32.740  22.582  22.240  1.00  0.00    -0.269 OA
ATOM     11  H   UNL A   1      34.884  22.991  22.163  1.00  0.00     0.164 HD
BRANCH   9  12
ATOM     12  C   UNL A   1      32.321  23.385  24.431  1.00  0.00     0.063 A 
ATOM     13  C   UNL A   1      31.867  24.604  25.007  1.00  0.00     0.051 A 
ATOM     14  C   UNL A   1      30.925  24.575  26.086  1.00  0.00     0.027 A 
ATOM     15  C   UNL A   1      30.367  23.399  26.568  1.00  0.00     0.002 A 
ATOM     16  C   UNL A   1      31.753  22.205  25.010  1.00  0.00     0.016 A 
ATOM     17  C   UNL A   1      30.789  22.204  26.028  1.00  0.00     0.001 A 
BRANCH  13  18
ATOM     18  N   UNL A   1      32.014  25.910  24.483  1.00  0.00    -0.352 N 
ATOM     19  H   UNL A   1      32.643  26.044  23.737  1.00  0.00     0.167 HD
BRANCH  18  20
ATOM     20  C   UNL A   1      31.295  27.056  24.982  1.00  0.00     0.077 A 
ATOM     21  C   UNL A   1      29.962  28.818  22.277  1.00  0.00     0.046 C 
ATOM     22  C   UNL A   1      30.320  28.772  23.730  1.00  0.00    -0.030 A 
ATOM     23  C   UNL A   1      31.027  29.733  24.459  1.00  0.00     0.006 A 
ATOM     24  C   UNL A   1      30.195  27.520  24.278  1.00  0.00     0.069 A 
ATOM     25  C   UNL A   1      31.789  29.349  25.563  1.00  0.00     0.023 A 
ATOM     26  Cl  UNL A   1      28.810  26.566  23.878  1.00  0.00    -0.082 Cl
ATOM     27  C   UNL A   1      31.989  27.989  25.771  1.00  0.00     0.066 A 
ATOM     28  Cl  UNL A   1      33.208  27.470  26.872  1.00  0.00    -0.082 Cl
ENDBRANCH  18  20
ENDBRANCH  13  18
ENDBRANCH   9  12
ENDBRANCH   6   8
ENDBRANCH   4   6
ENDBRANCH   3   4
ENDBRANCH   2   3
ENDBRANCH   1   2
BRANCH   1  29
ATOM     29  O   UNL A   1      40.864  20.358  26.559  1.00  0.00    -0.374 OA
BRANCH  29  30
ATOM     30  C   UNL A   1      42.242  20.760  26.729  1.00  0.00     0.202 C 
BRANCH  30  31
ATOM     31  C   UNL A   1      42.784  21.817  25.738  1.00  0.00     0.261 C 
BRANCH  31  32
ATOM     32  O   UNL A   1      42.998  23.035  26.452  1.00  0.00    -0.460 OA
BRANCH  32  33
ATOM     33  C   UNL A   1      43.051  24.167  25.756  1.00  0.00     0.338 C 
ATOM     34  O   UNL A   1      43.538  24.364  24.630  1.00  0.00    -0.246 OA
BRANCH  33  35
ATOM     35  C   UNL A   1      42.178  25.097  26.461  1.00  0.00     0.060 A 
ATOM     36  C   UNL A   1      42.439  26.460  26.261  1.00  0.00     0.016 A 
ATOM     37  C   UNL A   1      41.201  24.679  27.360  1.00  0.00     0.016 A 
ATOM     38  C   UNL A   1      41.737  27.422  26.961  1.00  0.00     0.010 A 
ATOM     39  C   UNL A   1      40.529  25.646  28.113  1.00  0.00     0.010 A 
ATOM     40  C   UNL A   1      40.845  27.012  27.954  1.00  0.00    -0.014 A 
BRANCH  40  41
ATOM     41  C   UNL A   1      40.573  27.988  29.030  1.00  0.00     0.031 A 
ATOM     42  C   UNL A   1      41.532  28.028  30.192  1.00  0.00     0.074 A 
ATOM     43  C   UNL A   1      39.614  28.921  28.921  1.00  0.00     0.049 A 
ATOM     44  N   UNL A   1      41.528  28.804  31.244  1.00  0.00    -0.248 NA
ATOM     45  C   UNL A   1      42.656  27.075  30.150  1.00  0.00     0.031 C 
ATOM     46  C   UNL A   1      38.699  29.081  27.794  1.00  0.00     0.029 A 
ATOM     47  N   UNL A   1      39.272  29.930  29.786  1.00  0.00    -0.354 N 
ATOM     48  C   UNL A   1      42.631  28.418  31.996  1.00  0.00     0.074 A 
ATOM     49  C   UNL A   1      43.273  27.332  31.291  1.00  0.00     0.031 C 
ATOM     50  C   UNL A   1      37.888  30.124  28.043  1.00  0.00     0.029 A 
ATOM     51  C   UNL A   1      38.206  30.678  29.360  1.00  0.00     0.049 A 
ATOM     52  H   UNL A   1      39.747  30.099  30.631  1.00  0.00     0.167 HD
ATOM     53  C   UNL A   1      43.075  28.920  33.170  1.00  0.00     0.031 A 
ATOM     54  C   UNL A   1      37.548  31.678  29.976  1.00  0.00     0.031 A 
ATOM     55  C   UNL A   1      42.448  29.997  33.884  1.00  0.00     0.049 A 
ATOM     56  C   UNL A   1      37.995  32.145  31.337  1.00  0.00     0.074 A 
ATOM     57  C   UNL A   1      42.822  30.558  35.093  1.00  0.00     0.029 A 
ATOM     58  N   UNL A   1      41.318  30.673  33.458  1.00  0.00    -0.354 N 
ATOM     59  N   UNL A   1      39.019  31.757  32.055  1.00  0.00    -0.248 NA
ATOM     60  C   UNL A   1      37.187  33.201  31.968  1.00  0.00     0.031 C 
ATOM     61  C   UNL A   1      41.884  31.540  35.425  1.00  0.00     0.029 A 
ATOM     62  C   UNL A   1      40.966  31.633  34.392  1.00  0.00     0.049 A 
ATOM     63  H   UNL A   1      40.837  30.499  32.617  1.00  0.00     0.167 HD
ATOM     64  C   UNL A   1      38.999  32.543  33.204  1.00  0.00     0.074 A 
ATOM     65  C   UNL A   1      37.869  33.438  33.079  1.00  0.00     0.031 C 
ATOM     66  C   UNL A   1      39.846  32.527  34.262  1.00  0.00     0.031 A 
BRANCH  53  67
ATOM     67  C   UNL A   1      44.276  28.263  33.785  1.00  0.00    -0.014 A 
ATOM     68  C   UNL A   1      44.152  27.148  34.629  1.00  0.00     0.009 A 
ATOM     69  C   UNL A   1      45.555  28.757  33.489  1.00  0.00     0.009 A 
ATOM     70  C   UNL A   1      45.288  26.557  35.185  1.00  0.00     0.001 A 
ATOM     71  C   UNL A   1      46.690  28.146  34.022  1.00  0.00     0.001 A 
ATOM     72  C   UNL A   1      46.555  27.052  34.875  1.00  0.00     0.000 A 
ENDBRANCH  53  67
BRANCH  54  73
ATOM     73  C   UNL A   1      36.357  32.289  29.333  1.00  0.00    -0.014 A 
ATOM     74  C   UNL A   1      35.123  31.623  29.326  1.00  0.00     0.009 A 
ATOM     75  C   UNL A   1      36.467  33.527  28.680  1.00  0.00     0.009 A 
ATOM     76  C   UNL A   1      34.031  32.169  28.647  1.00  0.00     0.001 A 
ATOM     77  C   UNL A   1      35.366  34.084  28.029  1.00  0.00     0.001 A 
ATOM     78  C   UNL A   1      34.153  33.399  28.004  1.00  0.00     0.000 A 
ENDBRANCH  54  73
BRANCH  66  79
ATOM     79  C   UNL A   1      39.621  33.543  35.349  1.00  0.00    -0.014 A 
ATOM     80  C   UNL A   1      38.875  33.240  36.497  1.00  0.00     0.009 A 
ATOM     81  C   UNL A   1      40.199  34.818  35.233  1.00  0.00     0.009 A 
ATOM     82  C   UNL A   1      38.676  34.207  37.487  1.00  0.00     0.001 A 
ATOM     83  C   UNL A   1      40.025  35.772  36.237  1.00  0.00     0.001 A 
ATOM     84  C   UNL A   1      39.253  35.471  37.356  1.00  0.00     0.000 A 
ENDBRANCH  66  79
ENDBRANCH  40  41
ENDBRANCH  33  35
ENDBRANCH  32  33
ENDBRANCH  31  32
ENDBRANCH  30  31
ENDBRANCH  29  30
ENDBRANCH   1  29
TORSDOF 18
ENDMDL
MODEL 3
REMARK VINA RESULT:     -10.4      2.036      6.534
REMARK SMILES Cc1ccc(Cl)c(Nc2ccccc2C(=O)N[C@@H](C)C(=O)OCCOCCOC(=O)c2ccc(-c3c4nc(c(-c5ccccc5)c5ccc([nH]5)c(-c5ccccc5)c5nc(c(-c6ccccc6)c6ccc3[nH]6)C=C5)C=C4)cc2)c1Cl
REMARK SMILES IDX 24 1 23 2 22 3 20 4 21 5 18 6 19 7 17 8 15 9 16 10 14 12
REMARK SMILES IDX 9 13 10 14 11 15 13 16 12 17 8 18 7 20 1 21 2 22 3 23 79 24
REMARK SMILES IDX 4 25 80 26 5 27 6 28 25 29 26 30 27 31 28 32 29 33 30 34
REMARK SMILES IDX 31 35 32 36 78 37 33 38 77 39 34 40 35 41 36 42 71 43 37 44
REMARK SMILES IDX 76 45 70 46 72 47 38 48 75 49 69 50 68 51 39 53 61 54 46 55
REMARK SMILES IDX 60 56 47 57 50 58 59 59 73 60 48 61 49 62 58 64 74 65 51 66
REMARK SMILES IDX 40 67 41 68 45 69 42 70 44 71 43 72 62 73 63 74 67 75 64 76
REMARK SMILES IDX 66 77 65 78 52 79 53 80 57 81 54 82 56 83 55 84
REMARK H PARENT 17 11 8 19 72 52 50 63
REMARK Flexibility Score: inf
ROOT
ATOM      1  C   UNL A   1      37.472  20.737  24.867  1.00  0.00     0.202 C 
ENDROOT
BRANCH   1   2
ATOM      2  C   UNL A   1      36.401  21.465  25.791  1.00  0.00     0.261 C 
BRANCH   2   3
ATOM      3  O   UNL A   1      34.990  21.524  25.393  1.00  0.00    -0.462 OA
BRANCH   3   4
ATOM      4  C   UNL A   1      34.063  21.173  26.355  1.00  0.00     0.328 C 
ATOM      5  O   UNL A   1      34.248  21.402  27.551  1.00  0.00    -0.250 OA
BRANCH   4   6
ATOM      6  C   UNL A   1      32.657  20.648  25.822  1.00  0.00     0.189 C 
ATOM      7  C   UNL A   1      32.832  19.977  24.455  1.00  0.00     0.043 C 
BRANCH   6   8
ATOM      8  N   UNL A   1      31.524  21.566  25.742  1.00  0.00    -0.339 N 
ATOM      9  C   UNL A   1      31.293  22.867  25.349  1.00  0.00     0.254 C 
ATOM     10  O   UNL A   1      30.164  23.229  25.728  1.00  0.00    -0.269 OA
ATOM     11  H   UNL A   1      30.696  21.136  26.055  1.00  0.00     0.164 HD
BRANCH   9  12
ATOM     12  C   UNL A   1      32.098  23.885  24.522  1.00  0.00     0.063 A 
ATOM     13  C   UNL A   1      32.382  25.274  24.635  1.00  0.00     0.051 A 
ATOM     14  C   UNL A   1      33.224  25.909  23.665  1.00  0.00     0.027 A 
ATOM     15  C   UNL A   1      33.846  25.216  22.637  1.00  0.00     0.002 A 
ATOM     16  C   UNL A   1      32.722  23.237  23.408  1.00  0.00     0.016 A 
ATOM     17  C   UNL A   1      33.588  23.870  22.505  1.00  0.00     0.001 A 
BRANCH  13  18
ATOM     18  N   UNL A   1      32.159  26.110  25.755  1.00  0.00    -0.352 N 
ATOM     19  H   UNL A   1      32.588  25.870  26.607  1.00  0.00     0.167 HD
BRANCH  18  20
ATOM     20  C   UNL A   1      31.337  27.294  25.715  1.00  0.00     0.077 A 
ATOM     21  C   UNL A   1      30.313  27.850  22.422  1.00  0.00     0.046 C 
ATOM     22  C   UNL A   1      30.475  28.358  23.821  1.00  0.00    -0.030 A 
ATOM     23  C   UNL A   1      31.042  29.572  24.220  1.00  0.00     0.006 A 
ATOM     24  C   UNL A   1      30.325  27.380  24.772  1.00  0.00     0.069 A 
ATOM     25  C   UNL A   1      31.662  29.675  25.466  1.00  0.00     0.023 A 
ATOM     26  Cl  UNL A   1      29.042  26.234  24.599  1.00  0.00    -0.082 Cl
ATOM     27  C   UNL A   1      31.883  28.502  26.179  1.00  0.00     0.066 A 
ATOM     28  Cl  UNL A   1      32.962  28.517  27.521  1.00  0.00    -0.082 Cl
ENDBRANCH  18  20
ENDBRANCH  13  18
ENDBRANCH   9  12
ENDBRANCH   6   8
ENDBRANCH   4   6
ENDBRANCH   3   4
ENDBRANCH   2   3
ENDBRANCH   1   2
BRANCH   1  29
ATOM     29  O   UNL A   1      38.817  20.563  25.317  1.00  0.00    -0.374 OA
BRANCH  29  30
ATOM     30  C   UNL A   1      39.460  21.687  25.958  1.00  0.00     0.202 C 
BRANCH  30  31
ATOM     31  C   UNL A   1      40.996  21.601  26.133  1.00  0.00     0.261 C 
BRANCH  31  32
ATOM     32  O   UNL A   1      41.420  22.703  26.935  1.00  0.00    -0.460 OA
BRANCH  32  33
ATOM     33  C   UNL A   1      41.969  23.748  26.322  1.00  0.00     0.338 C 
ATOM     34  O   UNL A   1      42.633  23.771  25.274  1.00  0.00    -0.246 OA
BRANCH  33  35
ATOM     35  C   UNL A   1      41.411  24.921  26.982  1.00  0.00     0.060 A 
ATOM     36  C   UNL A   1      42.069  26.136  26.742  1.00  0.00     0.016 A 
ATOM     37  C   UNL A   1      40.347  24.848  27.877  1.00  0.00     0.016 A 
ATOM     38  C   UNL A   1      41.684  27.288  27.398  1.00  0.00     0.010 A 
ATOM     39  C   UNL A   1      39.992  25.999  28.587  1.00  0.00     0.010 A 
ATOM     40  C   UNL A   1      40.704  27.201  28.388  1.00  0.00    -0.014 A 
BRANCH  40  41
ATOM     41  C   UNL A   1      40.731  28.252  29.427  1.00  0.00     0.031 A 
ATOM     42  C   UNL A   1      39.629  29.280  29.407  1.00  0.00     0.074 A 
ATOM     43  C   UNL A   1      41.596  28.218  30.453  1.00  0.00     0.049 A 
ATOM     44  N   UNL A   1      39.416  30.284  30.217  1.00  0.00    -0.248 NA
ATOM     45  C   UNL A   1      38.623  29.145  28.338  1.00  0.00     0.031 C 
ATOM     46  C   UNL A   1      42.630  27.210  30.669  1.00  0.00     0.029 A 
ATOM     47  N   UNL A   1      41.717  29.067  31.524  1.00  0.00    -0.354 N 
ATOM     48  C   UNL A   1      38.269  30.909  29.743  1.00  0.00     0.074 A 
ATOM     49  C   UNL A   1      37.839  30.184  28.569  1.00  0.00     0.031 C 
ATOM     50  C   UNL A   1      43.291  27.507  31.801  1.00  0.00     0.029 A 
ATOM     51  C   UNL A   1      42.748  28.742  32.367  1.00  0.00     0.049 A 
ATOM     52  H   UNL A   1      41.120  29.836  31.673  1.00  0.00     0.167 HD
ATOM     53  C   UNL A   1      37.626  31.990  30.238  1.00  0.00     0.031 A 
ATOM     54  C   UNL A   1      43.214  29.385  33.453  1.00  0.00     0.031 A 
ATOM     55  C   UNL A   1      38.040  32.721  31.401  1.00  0.00     0.049 A 
ATOM     56  C   UNL A   1      42.548  30.653  33.920  1.00  0.00     0.074 A 
ATOM     57  C   UNL A   1      37.456  33.843  31.964  1.00  0.00     0.029 A 
ATOM     58  N   UNL A   1      39.141  32.409  32.179  1.00  0.00    -0.354 N 
ATOM     59  N   UNL A   1      41.482  31.255  33.451  1.00  0.00    -0.248 NA
ATOM     60  C   UNL A   1      43.153  31.327  35.080  1.00  0.00     0.031 C 
ATOM     61  C   UNL A   1      38.237  34.242  33.053  1.00  0.00     0.029 A 
ATOM     62  C   UNL A   1      39.268  33.330  33.206  1.00  0.00     0.049 A 
ATOM     63  H   UNL A   1      39.745  31.646  32.026  1.00  0.00     0.167 HD
ATOM     64  C   UNL A   1      41.271  32.355  34.276  1.00  0.00     0.074 A 
ATOM     65  C   UNL A   1      42.311  32.330  35.283  1.00  0.00     0.031 C 
ATOM     66  C   UNL A   1      40.299  33.297  34.209  1.00  0.00     0.031 A 
BRANCH  53  67
ATOM     67  C   UNL A   1      36.428  32.480  29.478  1.00  0.00    -0.014 A 
ATOM     68  C   UNL A   1      36.548  33.419  28.442  1.00  0.00     0.009 A 
ATOM     69  C   UNL A   1      35.159  31.969  29.793  1.00  0.00     0.009 A 
ATOM     70  C   UNL A   1      35.415  33.855  27.753  1.00  0.00     0.001 A 
ATOM     71  C   UNL A   1      34.033  32.384  29.083  1.00  0.00     0.001 A 
ATOM     72  C   UNL A   1      34.161  33.332  28.069  1.00  0.00     0.000 A 
ENDBRANCH  53  67
BRANCH  54  73
ATOM     73  C   UNL A   1      44.411  28.868  34.165  1.00  0.00    -0.014 A 
ATOM     74  C   UNL A   1      45.696  29.316  33.828  1.00  0.00     0.009 A 
ATOM     75  C   UNL A   1      44.269  27.883  35.155  1.00  0.00     0.009 A 
ATOM     76  C   UNL A   1      46.820  28.763  34.446  1.00  0.00     0.001 A 
ATOM     77  C   UNL A   1      45.392  27.355  35.793  1.00  0.00     0.001 A 
ATOM     78  C   UNL A   1      46.667  27.787  35.430  1.00  0.00     0.000 A 
ENDBRANCH  54  73
BRANCH  66  79
ATOM     79  C   UNL A   1      40.275  34.351  35.283  1.00  0.00    -0.014 A 
ATOM     80  C   UNL A   1      39.610  34.144  36.502  1.00  0.00     0.009 A 
ATOM     81  C   UNL A   1      40.961  35.559  35.082  1.00  0.00     0.009 A 
ATOM     82  C   UNL A   1      39.597  35.144  37.478  1.00  0.00     0.001 A 
ATOM     83  C   UNL A   1      40.973  36.544  36.071  1.00  0.00     0.001 A 
ATOM     84  C   UNL A   1      40.281  36.341  37.263  1.00  0.00     0.000 A 
ENDBRANCH  66  79
ENDBRANCH  40  41
ENDBRANCH  33  35
ENDBRANCH  32  33
ENDBRANCH  31  32
ENDBRANCH  30  31
ENDBRANCH  29  30
ENDBRANCH   1  29
TORSDOF 18
ENDMDL
