MODEL 1
REMARK VINA RESULT:      -9.8      0.000      0.000
REMARK SMILES O=C(C[C@H]1C(=O)N[NH+]=C2c3ccc(F)cc3N=CN21)OCCOCCOC(=O)c1ccc(-c2c3nc(c(-c4ccccc4)c4ccc([nH]4)c(-c4ccccc4)c4nc(c(-c5ccccc5)c5ccc2[nH]5)C=C4)C=C3)cc1
REMARK SMILES IDX 24 1 23 2 22 3 21 4 20 5 2 6 1 7 3 8 4 9 5 10 19 11 6 12
REMARK SMILES IDX 7 13 9 14 18 15 8 16 10 18 17 19 11 21 16 22 12 23 15 24
REMARK SMILES IDX 13 25 14 26 25 27 26 28 27 29 28 30 29 31 30 32 76 33 31 34
REMARK SMILES IDX 75 35 32 36 33 37 34 38 69 39 35 40 74 41 68 42 70 43 36 44
REMARK SMILES IDX 73 45 67 46 66 47 37 49 59 50 44 51 58 52 45 53 48 54 57 55
REMARK SMILES IDX 71 56 46 57 47 58 56 60 72 61 49 62 38 63 39 64 43 65 40 66
REMARK SMILES IDX 42 67 41 68 60 69 61 70 65 71 62 72 64 73 63 74 50 75 51 76
REMARK SMILES IDX 55 77 52 78 54 79 53 80
REMARK H PARENT 7 17 8 20 70 48 48 59
REMARK Flexibility Score: inf
ROOT
ATOM      1  C   UNL A   1      32.733  36.413  32.008  1.00  0.00     0.202 C 
ENDROOT
BRANCH   1   2
ATOM      2  O   UNL A   1      33.823  36.924  32.774  1.00  0.00    -0.374 OA
BRANCH   2   3
ATOM      3  C   UNL A   1      34.479  35.981  33.614  1.00  0.00     0.202 C 
BRANCH   3   4
ATOM      4  C   UNL A   1      35.578  35.161  32.948  1.00  0.00     0.261 C 
BRANCH   4   5
ATOM      5  O   UNL A   1      35.599  33.789  33.346  1.00  0.00    -0.463 OA
BRANCH   5   6
ATOM      6  C   UNL A   1      36.272  33.228  34.361  1.00  0.00     0.310 C 
ATOM      7  O   UNL A   1      36.163  33.759  35.469  1.00  0.00    -0.252 OA
BRANCH   6   8
ATOM      8  C   UNL A   1      37.182  32.021  34.224  1.00  0.00     0.183 C 
BRANCH   8   9
ATOM      9  C   UNL A   1      38.525  32.019  34.942  1.00  0.00     0.286 C 
ATOM     10  C   UNL A   1      38.405  31.761  36.453  1.00  0.00     0.300 C 
ATOM     11  N   UNL A   1      39.485  30.958  34.524  1.00  0.00    -0.202 N 
ATOM     12  O   UNL A   1      37.451  31.310  37.069  1.00  0.00    -0.267 OA
ATOM     13  N   UNL A   1      39.612  31.980  37.085  1.00  0.00    -0.193 N 
ATOM     14  C   UNL A   1      40.497  30.684  35.459  1.00  0.00     0.309 C 
ATOM     15  C   UNL A   1      39.376  30.206  33.377  1.00  0.00     0.317 C 
ATOM     16  N   UNL A   1      40.689  31.292  36.601  1.00  0.00    -0.169 N 
ATOM     17  H   UNL A   1      39.693  32.600  37.846  1.00  0.00     0.216 HD
ATOM     18  C   UNL A   1      41.276  29.442  35.228  1.00  0.00     0.092 A 
ATOM     19  N   UNL A   1      40.036  29.124  33.109  1.00  0.00    -0.216 NA
ATOM     20  H   UNL A   1      41.549  31.256  37.079  1.00  0.00     0.340 HD
ATOM     21  C   UNL A   1      42.069  28.921  36.261  1.00  0.00     0.022 A 
ATOM     22  C   UNL A   1      40.911  28.665  34.116  1.00  0.00     0.085 A 
ATOM     23  C   UNL A   1      42.473  27.594  36.201  1.00  0.00     0.040 A 
ATOM     24  C   UNL A   1      41.351  27.344  34.061  1.00  0.00     0.068 A 
ATOM     25  C   UNL A   1      42.105  26.818  35.107  1.00  0.00     0.125 A 
ATOM     26  F   UNL A   1      42.447  25.523  35.084  1.00  0.00    -0.207 F 
ENDBRANCH   8   9
ENDBRANCH   6   8
ENDBRANCH   5   6
ENDBRANCH   4   5
ENDBRANCH   3   4
ENDBRANCH   2   3
ENDBRANCH   1   2
BRANCH   1  27
ATOM     27  C   UNL A   1      33.080  36.143  30.539  1.00  0.00     0.261 C 
BRANCH  27  28
ATOM     28  O   UNL A   1      32.625  34.841  30.142  1.00  0.00    -0.460 OA
BRANCH  28  29
ATOM     29  C   UNL A   1      33.065  34.401  28.937  1.00  0.00     0.338 C 
ATOM     30  O   UNL A   1      32.584  34.637  27.840  1.00  0.00    -0.246 OA
BRANCH  29  31
ATOM     31  C   UNL A   1      34.387  33.758  29.135  1.00  0.00     0.060 A 
ATOM     32  C   UNL A   1      35.457  34.029  28.278  1.00  0.00     0.016 A 
ATOM     33  C   UNL A   1      34.526  32.804  30.154  1.00  0.00     0.016 A 
ATOM     34  C   UNL A   1      36.670  33.370  28.463  1.00  0.00     0.010 A 
ATOM     35  C   UNL A   1      35.745  32.148  30.345  1.00  0.00     0.010 A 
ATOM     36  C   UNL A   1      36.833  32.453  29.518  1.00  0.00    -0.014 A 
BRANCH  36  37
ATOM     37  C   UNL A   1      38.203  32.012  29.867  1.00  0.00     0.031 A 
ATOM     38  C   UNL A   1      39.073  32.765  30.820  1.00  0.00     0.074 A 
ATOM     39  C   UNL A   1      38.627  30.857  29.316  1.00  0.00     0.049 A 
ATOM     40  N   UNL A   1      40.203  32.386  31.360  1.00  0.00    -0.248 NA
ATOM     41  C   UNL A   1      38.635  34.111  31.218  1.00  0.00     0.031 C 
ATOM     42  C   UNL A   1      37.860  30.069  28.347  1.00  0.00     0.029 A 
ATOM     43  N   UNL A   1      39.766  30.123  29.517  1.00  0.00    -0.354 N 
ATOM     44  C   UNL A   1      40.606  33.433  32.176  1.00  0.00     0.074 A 
ATOM     45  C   UNL A   1      39.622  34.485  32.026  1.00  0.00     0.031 C 
ATOM     46  C   UNL A   1      38.513  28.927  28.097  1.00  0.00     0.029 A 
ATOM     47  C   UNL A   1      39.762  28.920  28.852  1.00  0.00     0.049 A 
ATOM     48  H   UNL A   1      40.514  30.428  30.081  1.00  0.00     0.167 HD
ATOM     49  C   UNL A   1      41.691  33.492  32.984  1.00  0.00     0.031 A 
ATOM     50  C   UNL A   1      40.648  27.907  28.866  1.00  0.00     0.031 A 
ATOM     51  C   UNL A   1      42.667  32.436  33.103  1.00  0.00     0.049 A 
ATOM     52  C   UNL A   1      41.852  28.012  29.757  1.00  0.00     0.074 A 
ATOM     53  C   UNL A   1      43.776  32.385  33.929  1.00  0.00     0.029 A 
ATOM     54  N   UNL A   1      42.661  31.258  32.370  1.00  0.00    -0.354 N 
ATOM     55  N   UNL A   1      42.171  28.967  30.599  1.00  0.00    -0.248 NA
ATOM     56  C   UNL A   1      42.806  26.897  29.721  1.00  0.00     0.031 C 
ATOM     57  C   UNL A   1      44.486  31.220  33.637  1.00  0.00     0.029 A 
ATOM     58  C   UNL A   1      43.768  30.493  32.699  1.00  0.00     0.049 A 
ATOM     59  H   UNL A   1      41.973  31.003  31.714  1.00  0.00     0.167 HD
ATOM     60  C   UNL A   1      43.345  28.554  31.214  1.00  0.00     0.074 A 
ATOM     61  C   UNL A   1      43.670  27.254  30.663  1.00  0.00     0.031 C 
ATOM     62  C   UNL A   1      44.083  29.197  32.151  1.00  0.00     0.031 A 
BRANCH  49  63
ATOM     63  C   UNL A   1      41.902  34.725  33.822  1.00  0.00    -0.014 A 
ATOM     64  C   UNL A   1      41.179  34.893  35.015  1.00  0.00     0.009 A 
ATOM     65  C   UNL A   1      42.697  35.786  33.360  1.00  0.00     0.009 A 
ATOM     66  C   UNL A   1      41.223  36.104  35.710  1.00  0.00     0.001 A 
ATOM     67  C   UNL A   1      42.764  36.985  34.074  1.00  0.00     0.001 A 
ATOM     68  C   UNL A   1      42.017  37.148  35.241  1.00  0.00     0.000 A 
ENDBRANCH  49  63
BRANCH  50  69
ATOM     69  C   UNL A   1      40.378  26.688  28.057  1.00  0.00    -0.014 A 
ATOM     70  C   UNL A   1      40.903  26.558  26.760  1.00  0.00     0.009 A 
ATOM     71  C   UNL A   1      39.546  25.672  28.550  1.00  0.00     0.009 A 
ATOM     72  C   UNL A   1      40.579  25.456  25.967  1.00  0.00     0.001 A 
ATOM     73  C   UNL A   1      39.254  24.552  27.770  1.00  0.00     0.001 A 
ATOM     74  C   UNL A   1      39.761  24.450  26.475  1.00  0.00     0.000 A 
ENDBRANCH  50  69
BRANCH  62  75
ATOM     75  C   UNL A   1      45.315  28.508  32.677  1.00  0.00    -0.014 A 
ATOM     76  C   UNL A   1      46.550  28.717  32.039  1.00  0.00     0.009 A 
ATOM     77  C   UNL A   1      45.242  27.573  33.719  1.00  0.00     0.009 A 
ATOM     78  C   UNL A   1      47.678  27.986  32.416  1.00  0.00     0.001 A 
ATOM     79  C   UNL A   1      46.381  26.871  34.121  1.00  0.00     0.001 A 
ATOM     80  C   UNL A   1      47.593  27.068  33.460  1.00  0.00     0.000 A 
ENDBRANCH  62  75
ENDBRANCH  36  37
ENDBRANCH  29  31
ENDBRANCH  28  29
ENDBRANCH  27  28
ENDBRANCH   1  27
TORSDOF 15
ENDMDL
MODEL 2
REMARK VINA RESULT:      -9.0      5.759     10.819
REMARK SMILES O=C(C[C@H]1C(=O)N[NH+]=C2c3ccc(F)cc3N=CN21)OCCOCCOC(=O)c1ccc(-c2c3nc(c(-c4ccccc4)c4ccc([nH]4)c(-c4ccccc4)c4nc(c(-c5ccccc5)c5ccc2[nH]5)C=C4)C=C3)cc1
REMARK SMILES IDX 24 1 23 2 22 3 21 4 20 5 2 6 1 7 3 8 4 9 5 10 19 11 6 12
REMARK SMILES IDX 7 13 9 14 18 15 8 16 10 18 17 19 11 21 16 22 12 23 15 24
REMARK SMILES IDX 13 25 14 26 25 27 26 28 27 29 28 30 29 31 30 32 76 33 31 34
REMARK SMILES IDX 75 35 32 36 33 37 34 38 69 39 35 40 74 41 68 42 70 43 36 44
REMARK SMILES IDX 73 45 67 46 66 47 37 49 59 50 44 51 58 52 45 53 48 54 57 55
REMARK SMILES IDX 71 56 46 57 47 58 56 60 72 61 49 62 38 63 39 64 43 65 40 66
REMARK SMILES IDX 42 67 41 68 60 69 61 70 65 71 62 72 64 73 63 74 50 75 51 76
REMARK SMILES IDX 55 77 52 78 54 79 53 80
REMARK H PARENT 7 17 8 20 70 48 48 59
REMARK Flexibility Score: inf
ROOT
ATOM      1  C   UNL A   1      37.753  21.412  24.731  1.00  0.00     0.202 C 
ENDROOT
BRANCH   1   2
ATOM      2  O   UNL A   1      36.764  20.445  25.081  1.00  0.00    -0.374 OA
BRANCH   2   3
ATOM      3  C   UNL A   1      35.482  20.969  25.409  1.00  0.00     0.202 C 
BRANCH   3   4
ATOM      4  C   UNL A   1      34.293  20.157  24.906  1.00  0.00     0.261 C 
BRANCH   4   5
ATOM      5  O   UNL A   1      33.537  20.811  23.884  1.00  0.00    -0.463 OA
BRANCH   5   6
ATOM      6  C   UNL A   1      32.455  21.591  24.021  1.00  0.00     0.310 C 
ATOM      7  O   UNL A   1      31.839  21.884  22.994  1.00  0.00    -0.252 OA
BRANCH   6   8
ATOM      8  C   UNL A   1      31.972  22.162  25.342  1.00  0.00     0.183 C 
BRANCH   8   9
ATOM      9  C   UNL A   1      31.129  23.430  25.338  1.00  0.00     0.286 C 
ATOM     10  C   UNL A   1      30.266  23.589  26.601  1.00  0.00     0.300 C 
ATOM     11  N   UNL A   1      31.884  24.715  25.317  1.00  0.00    -0.202 N 
ATOM     12  O   UNL A   1      30.374  23.004  27.667  1.00  0.00    -0.267 OA
ATOM     13  N   UNL A   1      29.370  24.629  26.455  1.00  0.00    -0.193 N 
ATOM     14  C   UNL A   1      31.152  25.832  25.754  1.00  0.00     0.309 C 
ATOM     15  C   UNL A   1      33.218  24.838  25.004  1.00  0.00     0.317 C 
ATOM     16  N   UNL A   1      29.896  25.846  26.119  1.00  0.00    -0.169 N 
ATOM     17  H   UNL A   1      28.403  24.501  26.586  1.00  0.00     0.216 HD
ATOM     18  C   UNL A   1      31.942  27.054  26.043  1.00  0.00     0.092 A 
ATOM     19  N   UNL A   1      33.958  25.880  25.215  1.00  0.00    -0.216 NA
ATOM     20  H   UNL A   1      29.366  26.675  26.149  1.00  0.00     0.340 HD
ATOM     21  C   UNL A   1      31.359  28.095  26.781  1.00  0.00     0.022 A 
ATOM     22  C   UNL A   1      33.332  26.964  25.866  1.00  0.00     0.085 A 
ATOM     23  C   UNL A   1      32.180  29.040  27.383  1.00  0.00     0.040 A 
ATOM     24  C   UNL A   1      34.137  27.938  26.455  1.00  0.00     0.068 A 
ATOM     25  C   UNL A   1      33.558  28.948  27.219  1.00  0.00     0.125 A 
ATOM     26  F   UNL A   1      34.348  29.827  27.851  1.00  0.00    -0.207 F 
ENDBRANCH   8   9
ENDBRANCH   6   8
ENDBRANCH   5   6
ENDBRANCH   4   5
ENDBRANCH   3   4
ENDBRANCH   2   3
ENDBRANCH   1   2
BRANCH   1  27
ATOM     27  C   UNL A   1      38.858  21.578  25.780  1.00  0.00     0.261 C 
BRANCH  27  28
ATOM     28  O   UNL A   1      39.032  22.963  26.118  1.00  0.00    -0.460 OA
BRANCH  28  29
ATOM     29  C   UNL A   1      40.290  23.336  26.459  1.00  0.00     0.338 C 
ATOM     30  O   UNL A   1      41.339  22.825  26.100  1.00  0.00    -0.246 OA
BRANCH  29  31
ATOM     31  C   UNL A   1      40.210  24.635  27.170  1.00  0.00     0.060 A 
ATOM     32  C   UNL A   1      39.380  24.799  28.282  1.00  0.00     0.016 A 
ATOM     33  C   UNL A   1      40.921  25.730  26.656  1.00  0.00     0.016 A 
ATOM     34  C   UNL A   1      39.290  26.046  28.896  1.00  0.00     0.010 A 
ATOM     35  C   UNL A   1      40.838  26.979  27.276  1.00  0.00     0.010 A 
ATOM     36  C   UNL A   1      40.045  27.134  28.420  1.00  0.00    -0.014 A 
BRANCH  36  37
ATOM     37  C   UNL A   1      40.159  28.342  29.269  1.00  0.00     0.031 A 
ATOM     38  C   UNL A   1      39.151  29.445  29.240  1.00  0.00     0.074 A 
ATOM     39  C   UNL A   1      41.203  28.389  30.120  1.00  0.00     0.049 A 
ATOM     40  N   UNL A   1      39.026  30.452  30.066  1.00  0.00    -0.248 NA
ATOM     41  C   UNL A   1      38.161  29.429  28.153  1.00  0.00     0.031 C 
ATOM     42  C   UNL A   1      42.258  27.374  30.195  1.00  0.00     0.029 A 
ATOM     43  N   UNL A   1      41.530  29.284  31.104  1.00  0.00    -0.354 N 
ATOM     44  C   UNL A   1      37.936  31.182  29.615  1.00  0.00     0.074 A 
ATOM     45  C   UNL A   1      37.460  30.528  28.414  1.00  0.00     0.031 C 
ATOM     46  C   UNL A   1      43.069  27.662  31.222  1.00  0.00     0.029 A 
ATOM     47  C   UNL A   1      42.620  28.901  31.848  1.00  0.00     0.049 A 
ATOM     48  H   UNL A   1      41.033  30.120  31.262  1.00  0.00     0.167 HD
ATOM     49  C   UNL A   1      37.383  32.286  30.171  1.00  0.00     0.031 A 
ATOM     50  C   UNL A   1      43.183  29.464  32.932  1.00  0.00     0.031 A 
ATOM     51  C   UNL A   1      37.887  32.929  31.360  1.00  0.00     0.049 A 
ATOM     52  C   UNL A   1      42.558  30.699  33.513  1.00  0.00     0.074 A 
ATOM     53  C   UNL A   1      37.367  34.026  32.025  1.00  0.00     0.029 A 
ATOM     54  N   UNL A   1      39.027  32.548  32.052  1.00  0.00    -0.354 N 
ATOM     55  N   UNL A   1      41.468  31.325  33.134  1.00  0.00    -0.248 NA
ATOM     56  C   UNL A   1      43.221  31.297  34.679  1.00  0.00     0.031 C 
ATOM     57  C   UNL A   1      38.235  34.360  33.065  1.00  0.00     0.029 A 
ATOM     58  C   UNL A   1      39.245  33.411  33.113  1.00  0.00     0.049 A 
ATOM     59  H   UNL A   1      39.596  31.777  31.823  1.00  0.00     0.167 HD
ATOM     60  C   UNL A   1      41.298  32.369  34.033  1.00  0.00     0.074 A 
ATOM     61  C   UNL A   1      42.385  32.281  34.987  1.00  0.00     0.031 C 
ATOM     62  C   UNL A   1      40.327  33.313  34.061  1.00  0.00     0.031 A 
BRANCH  49  63
ATOM     63  C   UNL A   1      36.162  32.886  29.525  1.00  0.00    -0.014 A 
ATOM     64  C   UNL A   1      34.885  32.408  29.862  1.00  0.00     0.009 A 
ATOM     65  C   UNL A   1      36.281  33.813  28.477  1.00  0.00     0.009 A 
ATOM     66  C   UNL A   1      33.758  32.821  29.147  1.00  0.00     0.001 A 
ATOM     67  C   UNL A   1      35.148  34.248  27.784  1.00  0.00     0.001 A 
ATOM     68  C   UNL A   1      33.890  33.742  28.111  1.00  0.00     0.000 A 
ENDBRANCH  49  63
BRANCH  50  69
ATOM     69  C   UNL A   1      44.362  28.813  33.566  1.00  0.00    -0.014 A 
ATOM     70  C   UNL A   1      44.194  27.869  34.592  1.00  0.00     0.009 A 
ATOM     71  C   UNL A   1      45.665  29.175  33.191  1.00  0.00     0.009 A 
ATOM     72  C   UNL A   1      45.299  27.324  35.247  1.00  0.00     0.001 A 
ATOM     73  C   UNL A   1      46.770  28.599  33.821  1.00  0.00     0.001 A 
ATOM     74  C   UNL A   1      46.587  27.684  34.857  1.00  0.00     0.000 A 
ENDBRANCH  50  69
BRANCH  62  75
ATOM     75  C   UNL A   1      40.361  34.330  35.173  1.00  0.00    -0.014 A 
ATOM     76  C   UNL A   1      39.634  34.092  36.352  1.00  0.00     0.009 A 
ATOM     77  C   UNL A   1      41.009  35.564  35.015  1.00  0.00     0.009 A 
ATOM     78  C   UNL A   1      39.534  35.076  37.337  1.00  0.00     0.001 A 
ATOM     79  C   UNL A   1      40.940  36.532  36.020  1.00  0.00     0.001 A 
ATOM     80  C   UNL A   1      40.191  36.292  37.172  1.00  0.00     0.000 A 
ENDBRANCH  62  75
ENDBRANCH  36  37
ENDBRANCH  29  31
ENDBRANCH  28  29
ENDBRANCH  27  28
ENDBRANCH   1  27
TORSDOF 15
ENDMDL
MODEL 3
REMARK VINA RESULT:      -8.8      6.219     11.528
REMARK SMILES O=C(C[C@H]1C(=O)N[NH+]=C2c3ccc(F)cc3N=CN21)OCCOCCOC(=O)c1ccc(-c2c3nc(c(-c4ccccc4)c4ccc([nH]4)c(-c4ccccc4)c4nc(c(-c5ccccc5)c5ccc2[nH]5)C=C4)C=C3)cc1
REMARK SMILES IDX 24 1 23 2 22 3 21 4 20 5 2 6 1 7 3 8 4 9 5 10 19 11 6 12
REMARK SMILES IDX 7 13 9 14 18 15 8 16 10 18 17 19 11 21 16 22 12 23 15 24
REMARK SMILES IDX 13 25 14 26 25 27 26 28 27 29 28 30 29 31 30 32 76 33 31 34
REMARK SMILES IDX 75 35 32 36 33 37 34 38 69 39 35 40 74 41 68 42 70 43 36 44
REMARK SMILES IDX 73 45 67 46 66 47 37 49 59 50 44 51 58 52 45 53 48 54 57 55
REMARK SMILES IDX 71 56 46 57 47 58 56 60 72 61 49 62 38 63 39 64 43 65 40 66
REMARK SMILES IDX 42 67 41 68 60 69 61 70 65 71 62 72 64 73 63 74 50 75 51 76
REMARK SMILES IDX 55 77 52 78 54 79 53 80
REMARK H PARENT 7 17 8 20 70 48 48 59
REMARK Flexibility Score: inf
ROOT
ATOM      1  C   UNL A   1      37.823  22.358  25.509  1.00  0.00     0.202 C 
ENDROOT
BRANCH   1   2
ATOM      2  O   UNL A   1      37.267  21.915  24.271  1.00  0.00    -0.374 OA
BRANCH   2   3
ATOM      3  C   UNL A   1      36.635  22.922  23.488  1.00  0.00     0.202 C 
BRANCH   3   4
ATOM      4  C   UNL A   1      35.115  22.971  23.584  1.00  0.00     0.261 C 
BRANCH   4   5
ATOM      5  O   UNL A   1      34.588  24.289  23.750  1.00  0.00    -0.463 OA
BRANCH   5   6
ATOM      6  C   UNL A   1      34.123  24.863  24.869  1.00  0.00     0.310 C 
ATOM      7  O   UNL A   1      34.463  24.360  25.943  1.00  0.00    -0.252 OA
BRANCH   6   8
ATOM      8  C   UNL A   1      33.182  26.054  24.895  1.00  0.00     0.183 C 
BRANCH   8   9
ATOM      9  C   UNL A   1      31.727  25.859  24.490  1.00  0.00     0.286 C 
ATOM     10  C   UNL A   1      30.759  25.861  25.685  1.00  0.00     0.300 C 
ATOM     11  N   UNL A   1      31.145  26.920  23.620  1.00  0.00    -0.202 N 
ATOM     12  O   UNL A   1      30.966  26.254  26.823  1.00  0.00    -0.267 OA
ATOM     13  N   UNL A   1      29.495  25.470  25.293  1.00  0.00    -0.193 N 
ATOM     14  C   UNL A   1      29.741  26.973  23.623  1.00  0.00     0.309 C 
ATOM     15  C   UNL A   1      31.875  27.861  22.933  1.00  0.00     0.317 C 
ATOM     16  N   UNL A   1      28.931  26.170  24.263  1.00  0.00    -0.169 N 
ATOM     17  H   UNL A   1      29.024  24.726  25.733  1.00  0.00     0.216 HD
ATOM     18  C   UNL A   1      29.136  28.191  23.028  1.00  0.00     0.092 A 
ATOM     19  N   UNL A   1      31.406  28.934  22.378  1.00  0.00    -0.216 NA
ATOM     20  H   UNL A   1      27.982  26.075  24.020  1.00  0.00     0.340 HD
ATOM     21  C   UNL A   1      27.786  28.482  23.273  1.00  0.00     0.022 A 
ATOM     22  C   UNL A   1      30.024  29.165  22.543  1.00  0.00     0.085 A 
ATOM     23  C   UNL A   1      27.324  29.776  23.066  1.00  0.00     0.040 A 
ATOM     24  C   UNL A   1      29.534  30.449  22.315  1.00  0.00     0.068 A 
ATOM     25  C   UNL A   1      28.203  30.746  22.596  1.00  0.00     0.125 A 
ATOM     26  F   UNL A   1      27.767  32.004  22.455  1.00  0.00    -0.207 F 
ENDBRANCH   8   9
ENDBRANCH   6   8
ENDBRANCH   5   6
ENDBRANCH   4   5
ENDBRANCH   3   4
ENDBRANCH   2   3
ENDBRANCH   1   2
BRANCH   1  27
ATOM     27  C   UNL A   1      39.164  21.702  25.856  1.00  0.00     0.261 C 
BRANCH  27  28
ATOM     28  O   UNL A   1      39.800  22.392  26.942  1.00  0.00    -0.460 OA
BRANCH  28  29
ATOM     29  C   UNL A   1      40.847  23.188  26.608  1.00  0.00     0.338 C 
ATOM     30  O   UNL A   1      41.699  22.976  25.761  1.00  0.00    -0.246 OA
BRANCH  29  31
ATOM     31  C   UNL A   1      40.666  24.496  27.285  1.00  0.00     0.060 A 
ATOM     32  C   UNL A   1      39.615  24.706  28.180  1.00  0.00     0.016 A 
ATOM     33  C   UNL A   1      41.525  25.553  26.947  1.00  0.00     0.016 A 
ATOM     34  C   UNL A   1      39.445  25.962  28.759  1.00  0.00     0.010 A 
ATOM     35  C   UNL A   1      41.361  26.810  27.534  1.00  0.00     0.010 A 
ATOM     36  C   UNL A   1      40.337  27.011  28.468  1.00  0.00    -0.014 A 
BRANCH  36  37
ATOM     37  C   UNL A   1      40.311  28.220  29.323  1.00  0.00     0.031 A 
ATOM     38  C   UNL A   1      39.264  29.278  29.189  1.00  0.00     0.074 A 
ATOM     39  C   UNL A   1      41.259  28.309  30.277  1.00  0.00     0.049 A 
ATOM     40  N   UNL A   1      39.012  30.276  29.997  1.00  0.00    -0.248 NA
ATOM     41  C   UNL A   1      38.393  29.223  28.006  1.00  0.00     0.031 C 
ATOM     42  C   UNL A   1      42.344  27.340  30.462  1.00  0.00     0.029 A 
ATOM     43  N   UNL A   1      41.444  29.214  31.288  1.00  0.00    -0.354 N 
ATOM     44  C   UNL A   1      37.943  30.960  29.436  1.00  0.00     0.074 A 
ATOM     45  C   UNL A   1      37.622  30.289  28.193  1.00  0.00     0.031 C 
ATOM     46  C   UNL A   1      43.032  27.660  31.566  1.00  0.00     0.029 A 
ATOM     47  C   UNL A   1      42.467  28.876  32.141  1.00  0.00     0.049 A 
ATOM     48  H   UNL A   1      40.897  30.027  31.393  1.00  0.00     0.167 HD
ATOM     49  C   UNL A   1      37.288  32.037  29.930  1.00  0.00     0.031 A 
ATOM     50  C   UNL A   1      42.891  29.459  33.277  1.00  0.00     0.031 A 
ATOM     51  C   UNL A   1      37.639  32.697  31.164  1.00  0.00     0.049 A 
ATOM     52  C   UNL A   1      42.157  30.665  33.788  1.00  0.00     0.074 A 
ATOM     53  C   UNL A   1      37.007  33.769  31.771  1.00  0.00     0.029 A 
ATOM     54  N   UNL A   1      38.718  32.363  31.970  1.00  0.00    -0.354 N 
ATOM     55  N   UNL A   1      41.086  31.244  33.298  1.00  0.00    -0.248 NA
ATOM     56  C   UNL A   1      42.670  31.286  35.016  1.00  0.00     0.031 C 
ATOM     57  C   UNL A   1      37.748  34.136  32.894  1.00  0.00     0.029 A 
ATOM     58  C   UNL A   1      38.789  33.232  33.046  1.00  0.00     0.049 A 
ATOM     59  H   UNL A   1      39.340  31.619  31.802  1.00  0.00     0.167 HD
ATOM     60  C   UNL A   1      40.779  32.277  34.174  1.00  0.00     0.074 A 
ATOM     61  C   UNL A   1      41.766  32.232  35.235  1.00  0.00     0.031 C 
ATOM     62  C   UNL A   1      39.770  33.178  34.101  1.00  0.00     0.031 A 
BRANCH  49  63
ATOM     63  C   UNL A   1      36.116  32.586  29.162  1.00  0.00    -0.014 A 
ATOM     64  C   UNL A   1      36.225  33.825  28.509  1.00  0.00     0.009 A 
ATOM     65  C   UNL A   1      34.862  31.955  29.208  1.00  0.00     0.009 A 
ATOM     66  C   UNL A   1      35.102  34.435  27.946  1.00  0.00     0.001 A 
ATOM     67  C   UNL A   1      33.746  32.553  28.616  1.00  0.00     0.001 A 
ATOM     68  C   UNL A   1      33.864  33.798  27.998  1.00  0.00     0.000 A 
ENDBRANCH  49  63
BRANCH  50  69
ATOM     69  C   UNL A   1      44.026  28.858  34.029  1.00  0.00    -0.014 A 
ATOM     70  C   UNL A   1      43.791  27.977  35.097  1.00  0.00     0.009 A 
ATOM     71  C   UNL A   1      45.350  29.207  33.723  1.00  0.00     0.009 A 
ATOM     72  C   UNL A   1      44.850  27.482  35.859  1.00  0.00     0.001 A 
ATOM     73  C   UNL A   1      46.412  28.680  34.462  1.00  0.00     0.001 A 
ATOM     74  C   UNL A   1      46.160  27.828  35.537  1.00  0.00     0.000 A 
ENDBRANCH  50  69
BRANCH  62  75
ATOM     75  C   UNL A   1      39.646  34.192  35.209  1.00  0.00    -0.014 A 
ATOM     76  C   UNL A   1      40.313  35.424  35.098  1.00  0.00     0.009 A 
ATOM     77  C   UNL A   1      38.972  33.893  36.402  1.00  0.00     0.009 A 
ATOM     78  C   UNL A   1      40.331  36.322  36.167  1.00  0.00     0.001 A 
ATOM     79  C   UNL A   1      38.957  34.811  37.455  1.00  0.00     0.001 A 
ATOM     80  C   UNL A   1      39.648  36.017  37.341  1.00  0.00     0.000 A 
ENDBRANCH  62  75
ENDBRANCH  36  37
ENDBRANCH  29  31
ENDBRANCH  28  29
ENDBRANCH  27  28
ENDBRANCH   1  27
TORSDOF 15
ENDMDL
