MODEL 1
REMARK VINA RESULT:     -10.4      0.000      0.000
REMARK SMILES COc1ccc2c(c1)CCN=C2C[C@H]1CN(C(=O)c2ccco2)CC[C@H]1CC(=O)OCCOCCOC(=O)c1ccc(-c2c3nc(c(-c4ccccc4)c4ccc([nH]4)c(-c4ccccc4)c4nc(c(-c5ccccc5)c5ccc2[nH]5)C=C4)C=C3)cc1
REMARK SMILES IDX 32 1 31 2 30 3 28 4 29 5 27 6 26 7 14 8 15 9 16 10 25 11
REMARK SMILES IDX 24 12 13 13 12 14 3 15 4 16 8 17 5 18 7 19 6 20 9 21 10 22
REMARK SMILES IDX 11 23 2 24 1 25 17 26 18 27 19 28 20 29 23 30 21 31 22 32
REMARK SMILES IDX 33 33 34 34 35 35 36 36 37 37 38 38 39 39 40 40 86 41 41 42
REMARK SMILES IDX 85 43 42 44 43 45 44 46 79 47 45 48 84 49 78 50 80 51 46 52
REMARK SMILES IDX 83 53 77 54 76 55 47 57 69 58 54 59 68 60 55 61 58 62 67 63
REMARK SMILES IDX 81 64 56 65 57 66 66 68 82 69 59 70 48 71 49 72 53 73 50 74
REMARK SMILES IDX 52 75 51 76 70 77 71 78 75 79 72 80 74 81 73 82 60 83 61 84
REMARK SMILES IDX 65 85 62 86 64 87 63 88
REMARK H PARENT 80 56 58 67
REMARK Flexibility Score: inf
ROOT
ATOM      1  C   UNL A   1      32.900  28.882  26.670  1.00  0.00     0.202 C 
ENDROOT
BRANCH   1   2
ATOM      2  C   UNL A   1      34.077  28.634  25.723  1.00  0.00     0.261 C 
BRANCH   2   3
ATOM      3  O   UNL A   1      33.669  27.680  24.733  1.00  0.00    -0.463 OA
BRANCH   3   4
ATOM      4  C   UNL A   1      33.161  28.171  23.579  1.00  0.00     0.306 C 
ATOM      5  O   UNL A   1      33.251  29.338  23.218  1.00  0.00    -0.252 OA
BRANCH   4   6
ATOM      6  C   UNL A   1      32.579  27.083  22.696  1.00  0.00     0.126 C 
BRANCH   6   7
ATOM      7  C   UNL A   1      31.444  26.176  23.246  1.00  0.00     0.007 C 
ATOM      8  C   UNL A   1      31.706  24.647  23.230  1.00  0.00     0.018 C 
ATOM      9  C   UNL A   1      30.548  23.929  23.931  1.00  0.00     0.124 C 
ATOM     10  N   UNL A   1      30.472  24.342  25.314  1.00  0.00    -0.336 N 
ATOM     11  C   UNL A   1      30.936  26.717  24.614  1.00  0.00     0.026 C 
ATOM     12  C   UNL A   1      30.134  25.749  25.500  1.00  0.00     0.120 C 
BRANCH   8  13
ATOM     13  C   UNL A   1      33.103  24.124  23.649  1.00  0.00     0.062 C 
BRANCH  13  14
ATOM     14  C   UNL A   1      33.372  22.617  23.639  1.00  0.00     0.043 C 
ATOM     15  C   UNL A   1      37.126  20.967  24.872  1.00  0.00     0.119 A 
ATOM     16  C   UNL A   1      37.095  22.271  24.380  1.00  0.00     0.047 A 
ATOM     17  C   UNL A   1      35.971  20.193  24.881  1.00  0.00     0.050 A 
ATOM     18  C   UNL A   1      35.889  22.832  23.956  1.00  0.00     0.014 A 
ATOM     19  C   UNL A   1      34.762  20.744  24.451  1.00  0.00    -0.033 A 
ATOM     20  C   UNL A   1      34.715  22.079  24.010  1.00  0.00    -0.001 A 
ATOM     21  C   UNL A   1      33.496  19.941  24.519  1.00  0.00     0.060 C 
ATOM     22  C   UNL A   1      32.547  20.395  23.426  1.00  0.00     0.147 C 
ATOM     23  N   UNL A   1      32.363  21.841  23.439  1.00  0.00    -0.289 NA
BRANCH  15  24
ATOM     24  O   UNL A   1      38.270  20.368  25.321  1.00  0.00    -0.497 OA
ATOM     25  C   UNL A   1      39.205  21.319  25.828  1.00  0.00     0.278 C 
ENDBRANCH  15  24
ENDBRANCH  13  14
ENDBRANCH   8  13
BRANCH  10  26
ATOM     26  C   UNL A   1      30.795  23.387  26.287  1.00  0.00     0.289 C 
ATOM     27  O   UNL A   1      29.908  22.657  26.737  1.00  0.00    -0.265 OA
BRANCH  26  28
ATOM     28  C   UNL A   1      32.166  23.208  26.714  1.00  0.00     0.191 A 
ATOM     29  C   UNL A   1      33.271  24.033  26.826  1.00  0.00     0.056 A 
ATOM     30  O   UNL A   1      32.489  21.970  27.208  1.00  0.00    -0.459 OA
ATOM     31  C   UNL A   1      34.313  23.250  27.387  1.00  0.00     0.043 A 
ATOM     32  C   UNL A   1      33.783  22.000  27.598  1.00  0.00     0.196 A 
ENDBRANCH  26  28
ENDBRANCH  10  26
ENDBRANCH   6   7
ENDBRANCH   4   6
ENDBRANCH   3   4
ENDBRANCH   2   3
ENDBRANCH   1   2
BRANCH   1  33
ATOM     33  O   UNL A   1      32.816  30.197  27.228  1.00  0.00    -0.374 OA
BRANCH  33  34
ATOM     34  C   UNL A   1      31.948  31.133  26.591  1.00  0.00     0.202 C 
BRANCH  34  35
ATOM     35  C   UNL A   1      31.809  32.507  27.255  1.00  0.00     0.261 C 
BRANCH  35  36
ATOM     36  O   UNL A   1      33.022  33.276  27.187  1.00  0.00    -0.460 OA
BRANCH  36  37
ATOM     37  C   UNL A   1      33.220  34.086  28.251  1.00  0.00     0.338 C 
ATOM     38  O   UNL A   1      32.441  34.920  28.703  1.00  0.00    -0.246 OA
BRANCH  37  39
ATOM     39  C   UNL A   1      34.469  33.740  28.949  1.00  0.00     0.060 A 
ATOM     40  C   UNL A   1      35.667  34.066  28.300  1.00  0.00     0.016 A 
ATOM     41  C   UNL A   1      34.481  33.028  30.151  1.00  0.00     0.016 A 
ATOM     42  C   UNL A   1      36.880  33.620  28.812  1.00  0.00     0.010 A 
ATOM     43  C   UNL A   1      35.704  32.576  30.663  1.00  0.00     0.010 A 
ATOM     44  C   UNL A   1      36.903  32.833  29.971  1.00  0.00    -0.014 A 
BRANCH  44  45
ATOM     45  C   UNL A   1      38.167  32.158  30.354  1.00  0.00     0.031 A 
ATOM     46  C   UNL A   1      39.038  32.779  31.413  1.00  0.00     0.074 A 
ATOM     47  C   UNL A   1      38.500  30.971  29.820  1.00  0.00     0.049 A 
ATOM     48  N   UNL A   1      40.169  32.348  31.914  1.00  0.00    -0.248 NA
ATOM     49  C   UNL A   1      38.569  34.050  31.990  1.00  0.00     0.031 C 
ATOM     50  C   UNL A   1      37.713  30.237  28.830  1.00  0.00     0.029 A 
ATOM     51  N   UNL A   1      39.592  30.170  30.046  1.00  0.00    -0.354 N 
ATOM     52  C   UNL A   1      40.549  33.296  32.857  1.00  0.00     0.074 A 
ATOM     53  C   UNL A   1      39.544  34.337  32.839  1.00  0.00     0.031 C 
ATOM     54  C   UNL A   1      38.348  29.089  28.535  1.00  0.00     0.029 A 
ATOM     55  C   UNL A   1      39.600  29.026  29.287  1.00  0.00     0.049 A 
ATOM     56  H   UNL A   1      40.301  30.394  30.691  1.00  0.00     0.167 HD
ATOM     57  C   UNL A   1      41.631  33.296  33.670  1.00  0.00     0.031 A 
ATOM     58  C   UNL A   1      40.521  28.048  29.196  1.00  0.00     0.031 A 
ATOM     59  C   UNL A   1      42.637  32.268  33.682  1.00  0.00     0.049 A 
ATOM     60  C   UNL A   1      41.763  28.119  30.043  1.00  0.00     0.074 A 
ATOM     61  C   UNL A   1      43.765  32.176  34.479  1.00  0.00     0.029 A 
ATOM     62  N   UNL A   1      42.641  31.160  32.851  1.00  0.00    -0.354 N 
ATOM     63  N   UNL A   1      42.100  29.009  30.945  1.00  0.00    -0.248 NA
ATOM     64  C   UNL A   1      42.750  27.045  29.861  1.00  0.00     0.031 C 
ATOM     65  C   UNL A   1      44.483  31.040  34.089  1.00  0.00     0.029 A 
ATOM     66  C   UNL A   1      43.771  30.394  33.092  1.00  0.00     0.049 A 
ATOM     67  H   UNL A   1      41.945  30.948  32.187  1.00  0.00     0.167 HD
ATOM     68  C   UNL A   1      43.322  28.590  31.454  1.00  0.00     0.074 A 
ATOM     69  C   UNL A   1      43.659  27.357  30.773  1.00  0.00     0.031 C 
ATOM     70  C   UNL A   1      44.096  29.173  32.402  1.00  0.00     0.031 A 
BRANCH  57  71
ATOM     71  C   UNL A   1      41.801  34.470  34.594  1.00  0.00    -0.014 A 
ATOM     72  C   UNL A   1      42.360  35.678  34.147  1.00  0.00     0.009 A 
ATOM     73  C   UNL A   1      41.361  34.377  35.924  1.00  0.00     0.009 A 
ATOM     74  C   UNL A   1      42.506  36.756  35.024  1.00  0.00     0.001 A 
ATOM     75  C   UNL A   1      41.482  35.464  36.790  1.00  0.00     0.001 A 
ATOM     76  C   UNL A   1      42.062  36.650  36.342  1.00  0.00     0.000 A 
ENDBRANCH  57  71
BRANCH  58  77
ATOM     77  C   UNL A   1      40.320  26.925  28.244  1.00  0.00    -0.014 A 
ATOM     78  C   UNL A   1      39.617  25.772  28.629  1.00  0.00     0.009 A 
ATOM     79  C   UNL A   1      40.851  26.992  26.946  1.00  0.00     0.009 A 
ATOM     80  C   UNL A   1      39.470  24.704  27.742  1.00  0.00     0.001 A 
ATOM     81  C   UNL A   1      40.677  25.936  26.051  1.00  0.00     0.001 A 
ATOM     82  C   UNL A   1      39.996  24.788  26.453  1.00  0.00     0.000 A 
ENDBRANCH  58  77
BRANCH  70  83
ATOM     83  C   UNL A   1      45.370  28.470  32.780  1.00  0.00    -0.014 A 
ATOM     84  C   UNL A   1      45.395  27.502  33.796  1.00  0.00     0.009 A 
ATOM     85  C   UNL A   1      46.554  28.751  32.080  1.00  0.00     0.009 A 
ATOM     86  C   UNL A   1      46.588  26.855  34.126  1.00  0.00     0.001 A 
ATOM     87  C   UNL A   1      47.738  28.082  32.392  1.00  0.00     0.001 A 
ATOM     88  C   UNL A   1      47.757  27.141  33.421  1.00  0.00     0.000 A 
ENDBRANCH  70  83
ENDBRANCH  44  45
ENDBRANCH  37  39
ENDBRANCH  36  37
ENDBRANCH  35  36
ENDBRANCH  34  35
ENDBRANCH  33  34
ENDBRANCH   1  33
TORSDOF 20
ENDMDL
MODEL 2
REMARK VINA RESULT:     -10.4      2.410      6.849
REMARK SMILES COc1ccc2c(c1)CCN=C2C[C@H]1CN(C(=O)c2ccco2)CC[C@H]1CC(=O)OCCOCCOC(=O)c1ccc(-c2c3nc(c(-c4ccccc4)c4ccc([nH]4)c(-c4ccccc4)c4nc(c(-c5ccccc5)c5ccc2[nH]5)C=C4)C=C3)cc1
REMARK SMILES IDX 32 1 31 2 30 3 28 4 29 5 27 6 26 7 14 8 15 9 16 10 25 11
REMARK SMILES IDX 24 12 13 13 12 14 3 15 4 16 8 17 5 18 7 19 6 20 9 21 10 22
REMARK SMILES IDX 11 23 2 24 1 25 17 26 18 27 19 28 20 29 23 30 21 31 22 32
REMARK SMILES IDX 33 33 34 34 35 35 36 36 37 37 38 38 39 39 40 40 86 41 41 42
REMARK SMILES IDX 85 43 42 44 43 45 44 46 79 47 45 48 84 49 78 50 80 51 46 52
REMARK SMILES IDX 83 53 77 54 76 55 47 57 69 58 54 59 68 60 55 61 58 62 67 63
REMARK SMILES IDX 81 64 56 65 57 66 66 68 82 69 59 70 48 71 49 72 53 73 50 74
REMARK SMILES IDX 52 75 51 76 70 77 71 78 75 79 72 80 74 81 73 82 60 83 61 84
REMARK SMILES IDX 65 85 62 86 64 87 63 88
REMARK H PARENT 80 56 58 67
REMARK Flexibility Score: inf
ROOT
ATOM      1  C   UNL A   1      35.447  33.173  28.979  1.00  0.00     0.202 C 
ENDROOT
BRANCH   1   2
ATOM      2  C   UNL A   1      35.576  32.077  27.918  1.00  0.00     0.261 C 
BRANCH   2   3
ATOM      3  O   UNL A   1      35.154  30.834  28.496  1.00  0.00    -0.463 OA
BRANCH   3   4
ATOM      4  C   UNL A   1      35.609  29.700  27.914  1.00  0.00     0.306 C 
ATOM      5  O   UNL A   1      36.768  29.307  27.963  1.00  0.00    -0.252 OA
BRANCH   4   6
ATOM      6  C   UNL A   1      34.491  28.879  27.300  1.00  0.00     0.126 C 
BRANCH   6   7
ATOM      7  C   UNL A   1      33.761  29.405  26.033  1.00  0.00     0.007 C 
ATOM      8  C   UNL A   1      33.595  28.403  24.860  1.00  0.00     0.018 C 
ATOM      9  C   UNL A   1      32.739  29.046  23.764  1.00  0.00     0.124 C 
ATOM     10  N   UNL A   1      31.419  29.342  24.274  1.00  0.00    -0.336 N 
ATOM     11  C   UNL A   1      32.448  30.138  26.432  1.00  0.00     0.026 C 
ATOM     12  C   UNL A   1      31.397  30.350  25.328  1.00  0.00     0.120 C 
BRANCH   8  13
ATOM     13  C   UNL A   1      33.194  26.941  25.179  1.00  0.00     0.062 C 
BRANCH  13  14
ATOM     14  C   UNL A   1      33.539  25.834  24.178  1.00  0.00     0.043 C 
ATOM     15  C   UNL A   1      35.661  22.299  25.333  1.00  0.00     0.119 A 
ATOM     16  C   UNL A   1      35.845  23.466  26.076  1.00  0.00     0.047 A 
ATOM     17  C   UNL A   1      34.868  22.312  24.191  1.00  0.00     0.050 A 
ATOM     18  C   UNL A   1      35.179  24.639  25.715  1.00  0.00     0.014 A 
ATOM     19  C   UNL A   1      34.205  23.483  23.819  1.00  0.00    -0.033 A 
ATOM     20  C   UNL A   1      34.341  24.646  24.599  1.00  0.00    -0.001 A 
ATOM     21  C   UNL A   1      33.293  23.493  22.627  1.00  0.00     0.060 C 
ATOM     22  C   UNL A   1      33.271  24.879  22.015  1.00  0.00     0.147 C 
ATOM     23  N   UNL A   1      32.994  25.905  23.013  1.00  0.00    -0.289 NA
BRANCH  15  24
ATOM     24  O   UNL A   1      36.268  21.114  25.646  1.00  0.00    -0.497 OA
ATOM     25  C   UNL A   1      37.399  20.861  24.815  1.00  0.00     0.278 C 
ENDBRANCH  15  24
ENDBRANCH  13  14
ENDBRANCH   8  13
BRANCH  10  26
ATOM     26  C   UNL A   1      30.351  28.593  23.762  1.00  0.00     0.289 C 
ATOM     27  O   UNL A   1      30.209  27.420  24.117  1.00  0.00    -0.265 OA
BRANCH  26  28
ATOM     28  C   UNL A   1      29.383  29.205  22.877  1.00  0.00     0.191 A 
ATOM     29  C   UNL A   1      28.005  29.181  22.770  1.00  0.00     0.056 A 
ATOM     30  O   UNL A   1      29.882  30.087  21.952  1.00  0.00    -0.459 OA
ATOM     31  C   UNL A   1      27.659  30.068  21.717  1.00  0.00     0.043 A 
ATOM     32  C   UNL A   1      28.841  30.592  21.252  1.00  0.00     0.196 A 
ENDBRANCH  26  28
ENDBRANCH  10  26
ENDBRANCH   6   7
ENDBRANCH   4   6
ENDBRANCH   3   4
ENDBRANCH   2   3
ENDBRANCH   1   2
BRANCH   1  33
ATOM     33  O   UNL A   1      34.117  33.455  29.425  1.00  0.00    -0.374 OA
BRANCH  33  34
ATOM     34  C   UNL A   1      33.777  34.817  29.676  1.00  0.00     0.202 C 
BRANCH  34  35
ATOM     35  C   UNL A   1      33.520  35.206  31.136  1.00  0.00     0.261 C 
BRANCH  35  36
ATOM     36  O   UNL A   1      34.122  34.286  32.064  1.00  0.00    -0.460 OA
BRANCH  36  37
ATOM     37  C   UNL A   1      35.258  34.746  32.633  1.00  0.00     0.338 C 
ATOM     38  O   UNL A   1      35.373  35.709  33.386  1.00  0.00    -0.246 OA
BRANCH  37  39
ATOM     39  C   UNL A   1      36.383  33.834  32.373  1.00  0.00     0.060 A 
ATOM     40  C   UNL A   1      36.258  32.523  32.848  1.00  0.00     0.016 A 
ATOM     41  C   UNL A   1      37.571  34.263  31.773  1.00  0.00     0.016 A 
ATOM     42  C   UNL A   1      37.342  31.655  32.793  1.00  0.00     0.010 A 
ATOM     43  C   UNL A   1      38.663  33.388  31.723  1.00  0.00     0.010 A 
ATOM     44  C   UNL A   1      38.565  32.095  32.273  1.00  0.00    -0.014 A 
BRANCH  44  45
ATOM     45  C   UNL A   1      39.770  31.249  32.456  1.00  0.00     0.031 A 
ATOM     46  C   UNL A   1      40.058  30.160  31.458  1.00  0.00     0.074 A 
ATOM     47  C   UNL A   1      40.634  31.494  33.455  1.00  0.00     0.049 A 
ATOM     48  N   UNL A   1      41.063  29.320  31.415  1.00  0.00    -0.248 NA
ATOM     49  C   UNL A   1      39.091  29.999  30.360  1.00  0.00     0.031 C 
ATOM     50  C   UNL A   1      40.500  32.555  34.451  1.00  0.00     0.029 A 
ATOM     51  N   UNL A   1      41.807  30.862  33.790  1.00  0.00    -0.354 N 
ATOM     52  C   UNL A   1      40.846  28.530  30.293  1.00  0.00     0.074 A 
ATOM     53  C   UNL A   1      39.602  28.970  29.700  1.00  0.00     0.031 C 
ATOM     54  C   UNL A   1      41.552  32.504  35.286  1.00  0.00     0.029 A 
ATOM     55  C   UNL A   1      42.413  31.385  34.904  1.00  0.00     0.049 A 
ATOM     56  H   UNL A   1      42.177  30.107  33.279  1.00  0.00     0.167 HD
ATOM     57  C   UNL A   1      41.616  27.534  29.795  1.00  0.00     0.031 A 
ATOM     58  C   UNL A   1      43.527  30.996  35.554  1.00  0.00     0.031 A 
ATOM     59  C   UNL A   1      42.847  27.087  30.390  1.00  0.00     0.049 A 
ATOM     60  C   UNL A   1      44.315  29.824  35.034  1.00  0.00     0.074 A 
ATOM     61  C   UNL A   1      43.704  26.091  29.951  1.00  0.00     0.029 A 
ATOM     62  N   UNL A   1      43.392  27.600  31.555  1.00  0.00    -0.354 N 
ATOM     63  N   UNL A   1      44.110  29.099  33.961  1.00  0.00    -0.248 NA
ATOM     64  C   UNL A   1      45.493  29.421  35.816  1.00  0.00     0.031 C 
ATOM     65  C   UNL A   1      44.737  25.963  30.885  1.00  0.00     0.029 A 
ATOM     66  C   UNL A   1      44.556  26.919  31.871  1.00  0.00     0.049 A 
ATOM     67  H   UNL A   1      43.008  28.339  32.081  1.00  0.00     0.167 HD
ATOM     68  C   UNL A   1      45.144  28.173  33.926  1.00  0.00     0.074 A 
ATOM     69  C   UNL A   1      45.984  28.438  35.076  1.00  0.00     0.031 C 
ATOM     70  C   UNL A   1      45.379  27.190  33.022  1.00  0.00     0.031 A 
BRANCH  57  71
ATOM     71  C   UNL A   1      41.125  26.832  28.560  1.00  0.00    -0.014 A 
ATOM     72  C   UNL A   1      40.193  25.785  28.634  1.00  0.00     0.009 A 
ATOM     73  C   UNL A   1      41.576  27.251  27.298  1.00  0.00     0.009 A 
ATOM     74  C   UNL A   1      39.749  25.150  27.472  1.00  0.00     0.001 A 
ATOM     75  C   UNL A   1      41.110  26.633  26.137  1.00  0.00     0.001 A 
ATOM     76  C   UNL A   1      40.204  25.577  26.224  1.00  0.00     0.000 A 
ENDBRANCH  57  71
BRANCH  58  77
ATOM     77  C   UNL A   1      43.952  31.704  36.789  1.00  0.00    -0.014 A 
ATOM     78  C   UNL A   1      44.786  32.831  36.721  1.00  0.00     0.009 A 
ATOM     79  C   UNL A   1      43.539  31.241  38.049  1.00  0.00     0.009 A 
ATOM     80  C   UNL A   1      45.216  33.464  37.890  1.00  0.00     0.001 A 
ATOM     81  C   UNL A   1      43.946  31.893  39.214  1.00  0.00     0.001 A 
ATOM     82  C   UNL A   1      44.792  32.998  39.134  1.00  0.00     0.000 A 
ENDBRANCH  58  77
BRANCH  70  83
ATOM     83  C   UNL A   1      46.607  26.348  33.222  1.00  0.00    -0.014 A 
ATOM     84  C   UNL A   1      46.565  25.166  33.979  1.00  0.00     0.009 A 
ATOM     85  C   UNL A   1      47.814  26.721  32.611  1.00  0.00     0.009 A 
ATOM     86  C   UNL A   1      47.717  24.394  34.147  1.00  0.00     0.001 A 
ATOM     87  C   UNL A   1      48.957  25.932  32.756  1.00  0.00     0.001 A 
ATOM     88  C   UNL A   1      48.910  24.774  33.531  1.00  0.00     0.000 A 
ENDBRANCH  70  83
ENDBRANCH  44  45
ENDBRANCH  37  39
ENDBRANCH  36  37
ENDBRANCH  35  36
ENDBRANCH  34  35
ENDBRANCH  33  34
ENDBRANCH   1  33
TORSDOF 20
ENDMDL
MODEL 3
REMARK VINA RESULT:     -10.4      4.000      7.935
REMARK SMILES COc1ccc2c(c1)CCN=C2C[C@H]1CN(C(=O)c2ccco2)CC[C@H]1CC(=O)OCCOCCOC(=O)c1ccc(-c2c3nc(c(-c4ccccc4)c4ccc([nH]4)c(-c4ccccc4)c4nc(c(-c5ccccc5)c5ccc2[nH]5)C=C4)C=C3)cc1
REMARK SMILES IDX 32 1 31 2 30 3 28 4 29 5 27 6 26 7 14 8 15 9 16 10 25 11
REMARK SMILES IDX 24 12 13 13 12 14 3 15 4 16 8 17 5 18 7 19 6 20 9 21 10 22
REMARK SMILES IDX 11 23 2 24 1 25 17 26 18 27 19 28 20 29 23 30 21 31 22 32
REMARK SMILES IDX 33 33 34 34 35 35 36 36 37 37 38 38 39 39 40 40 86 41 41 42
REMARK SMILES IDX 85 43 42 44 43 45 44 46 79 47 45 48 84 49 78 50 80 51 46 52
REMARK SMILES IDX 83 53 77 54 76 55 47 57 69 58 54 59 68 60 55 61 58 62 67 63
REMARK SMILES IDX 81 64 56 65 57 66 66 68 82 69 59 70 48 71 49 72 53 73 50 74
REMARK SMILES IDX 52 75 51 76 70 77 71 78 75 79 72 80 74 81 73 82 60 83 61 84
REMARK SMILES IDX 65 85 62 86 64 87 63 88
REMARK H PARENT 80 56 58 67
REMARK Flexibility Score: inf
ROOT
ATOM      1  C   UNL A   1      35.066  32.816  29.186  1.00  0.00     0.202 C 
ENDROOT
BRANCH   1   2
ATOM      2  C   UNL A   1      34.806  31.992  27.922  1.00  0.00     0.261 C 
BRANCH   2   3
ATOM      3  O   UNL A   1      34.517  30.642  28.311  1.00  0.00    -0.463 OA
BRANCH   3   4
ATOM      4  C   UNL A   1      35.086  29.657  27.578  1.00  0.00     0.306 C 
ATOM      5  O   UNL A   1      36.287  29.551  27.365  1.00  0.00    -0.252 OA
BRANCH   4   6
ATOM      6  C   UNL A   1      34.081  28.601  27.156  1.00  0.00     0.126 C 
BRANCH   6   7
ATOM      7  C   UNL A   1      33.645  28.511  25.668  1.00  0.00     0.007 C 
ATOM      8  C   UNL A   1      33.014  27.170  25.208  1.00  0.00     0.018 C 
ATOM      9  C   UNL A   1      32.522  27.313  23.764  1.00  0.00     0.124 C 
ATOM     10  N   UNL A   1      31.494  28.326  23.687  1.00  0.00    -0.336 N 
ATOM     11  C   UNL A   1      32.819  29.769  25.271  1.00  0.00     0.026 C 
ATOM     12  C   UNL A   1      31.957  29.673  24.000  1.00  0.00     0.120 C 
BRANCH   8  13
ATOM     13  C   UNL A   1      31.998  26.465  26.141  1.00  0.00     0.062 C 
BRANCH  13  14
ATOM     14  C   UNL A   1      32.045  24.941  26.284  1.00  0.00     0.043 C 
ATOM     15  C   UNL A   1      35.715  22.746  26.070  1.00  0.00     0.119 A 
ATOM     16  C   UNL A   1      35.628  23.975  25.415  1.00  0.00     0.047 A 
ATOM     17  C   UNL A   1      34.602  22.210  26.708  1.00  0.00     0.050 A 
ATOM     18  C   UNL A   1      34.440  24.707  25.454  1.00  0.00     0.014 A 
ATOM     19  C   UNL A   1      33.408  22.933  26.744  1.00  0.00    -0.033 A 
ATOM     20  C   UNL A   1      33.333  24.199  26.136  1.00  0.00    -0.001 A 
ATOM     21  C   UNL A   1      32.218  22.396  27.486  1.00  0.00     0.060 C 
ATOM     22  C   UNL A   1      30.944  22.905  26.841  1.00  0.00     0.147 C 
ATOM     23  N   UNL A   1      30.966  24.354  26.674  1.00  0.00    -0.289 NA
BRANCH  15  24
ATOM     24  O   UNL A   1      36.855  21.991  26.087  1.00  0.00    -0.497 OA
ATOM     25  C   UNL A   1      37.942  22.655  25.445  1.00  0.00     0.278 C 
ENDBRANCH  15  24
ENDBRANCH  13  14
ENDBRANCH   8  13
BRANCH  10  26
ATOM     26  C   UNL A   1      30.191  27.896  23.400  1.00  0.00     0.289 C 
ATOM     27  O   UNL A   1      29.875  26.725  23.630  1.00  0.00    -0.265 OA
BRANCH  26  28
ATOM     28  C   UNL A   1      29.204  28.828  22.902  1.00  0.00     0.191 A 
ATOM     29  C   UNL A   1      28.061  29.411  23.418  1.00  0.00     0.056 A 
ATOM     30  O   UNL A   1      29.442  29.354  21.657  1.00  0.00    -0.459 OA
ATOM     31  C   UNL A   1      27.574  30.308  22.432  1.00  0.00     0.043 A 
ATOM     32  C   UNL A   1      28.452  30.232  21.378  1.00  0.00     0.196 A 
ENDBRANCH  26  28
ENDBRANCH  10  26
ENDBRANCH   6   7
ENDBRANCH   4   6
ENDBRANCH   3   4
ENDBRANCH   2   3
ENDBRANCH   1   2
BRANCH   1  33
ATOM     33  O   UNL A   1      34.302  32.448  30.338  1.00  0.00    -0.374 OA
BRANCH  33  34
ATOM     34  C   UNL A   1      34.858  32.730  31.621  1.00  0.00     0.202 C 
BRANCH  34  35
ATOM     35  C   UNL A   1      36.347  32.421  31.809  1.00  0.00     0.261 C 
BRANCH  35  36
ATOM     36  O   UNL A   1      36.570  31.128  32.398  1.00  0.00    -0.460 OA
BRANCH  36  37
ATOM     37  C   UNL A   1      36.798  30.146  31.498  1.00  0.00     0.338 C 
ATOM     38  O   UNL A   1      35.962  29.424  30.961  1.00  0.00    -0.246 OA
BRANCH  37  39
ATOM     39  C   UNL A   1      38.209  30.129  31.085  1.00  0.00     0.060 A 
ATOM     40  C   UNL A   1      38.470  30.280  29.717  1.00  0.00     0.016 A 
ATOM     41  C   UNL A   1      39.249  29.872  31.983  1.00  0.00     0.016 A 
ATOM     42  C   UNL A   1      39.760  30.104  29.230  1.00  0.00     0.010 A 
ATOM     43  C   UNL A   1      40.547  29.692  31.489  1.00  0.00     0.010 A 
ATOM     44  C   UNL A   1      40.798  29.763  30.106  1.00  0.00    -0.014 A 
BRANCH  44  45
ATOM     45  C   UNL A   1      42.100  29.330  29.541  1.00  0.00     0.031 A 
ATOM     46  C   UNL A   1      42.236  27.933  28.999  1.00  0.00     0.074 A 
ATOM     47  C   UNL A   1      43.126  30.193  29.445  1.00  0.00     0.049 A 
ATOM     48  N   UNL A   1      43.273  27.357  28.443  1.00  0.00    -0.248 NA
ATOM     49  C   UNL A   1      41.045  27.073  29.089  1.00  0.00     0.031 C 
ATOM     50  C   UNL A   1      43.103  31.589  29.879  1.00  0.00     0.029 A 
ATOM     51  N   UNL A   1      44.391  30.016  28.942  1.00  0.00    -0.354 N 
ATOM     52  C   UNL A   1      42.862  26.069  28.123  1.00  0.00     0.074 A 
ATOM     53  C   UNL A   1      41.493  25.938  28.572  1.00  0.00     0.031 C 
ATOM     54  C   UNL A   1      44.300  32.144  29.620  1.00  0.00     0.029 A 
ATOM     55  C   UNL A   1      45.181  31.135  29.036  1.00  0.00     0.049 A 
ATOM     56  H   UNL A   1      44.702  29.168  28.550  1.00  0.00     0.167 HD
ATOM     57  C   UNL A   1      43.557  25.086  27.505  1.00  0.00     0.031 A 
ATOM     58  C   UNL A   1      46.473  31.319  28.706  1.00  0.00     0.031 A 
ATOM     59  C   UNL A   1      44.922  25.209  27.068  1.00  0.00     0.049 A 
ATOM     60  C   UNL A   1      47.253  30.180  28.106  1.00  0.00     0.074 A 
ATOM     61  C   UNL A   1      45.708  24.271  26.421  1.00  0.00     0.029 A 
ATOM     62  N   UNL A   1      45.706  26.338  27.242  1.00  0.00    -0.354 N 
ATOM     63  N   UNL A   1      46.847  28.974  27.790  1.00  0.00    -0.248 NA
ATOM     64  C   UNL A   1      48.672  30.432  27.813  1.00  0.00     0.031 C 
ATOM     65  C   UNL A   1      46.988  24.813  26.256  1.00  0.00     0.029 A 
ATOM     66  C   UNL A   1      46.979  26.109  26.746  1.00  0.00     0.049 A 
ATOM     67  H   UNL A   1      45.404  27.178  27.657  1.00  0.00     0.167 HD
ATOM     68  C   UNL A   1      47.950  28.334  27.240  1.00  0.00     0.074 A 
ATOM     69  C   UNL A   1      49.038  29.291  27.249  1.00  0.00     0.031 C 
ATOM     70  C   UNL A   1      48.053  27.067  26.767  1.00  0.00     0.031 A 
BRANCH  57  71
ATOM     71  C   UNL A   1      42.859  23.770  27.297  1.00  0.00    -0.014 A 
ATOM     72  C   UNL A   1      42.249  23.451  26.074  1.00  0.00     0.009 A 
ATOM     73  C   UNL A   1      42.844  22.821  28.331  1.00  0.00     0.009 A 
ATOM     74  C   UNL A   1      41.609  22.220  25.903  1.00  0.00     0.001 A 
ATOM     75  C   UNL A   1      42.228  21.583  28.149  1.00  0.00     0.001 A 
ATOM     76  C   UNL A   1      41.603  21.286  26.939  1.00  0.00     0.000 A 
ENDBRANCH  57  71
BRANCH  58  77
ATOM     77  C   UNL A   1      47.126  32.629  28.961  1.00  0.00    -0.014 A 
ATOM     78  C   UNL A   1      47.137  33.631  27.978  1.00  0.00     0.009 A 
ATOM     79  C   UNL A   1      47.761  32.877  30.189  1.00  0.00     0.009 A 
ATOM     80  C   UNL A   1      47.790  34.843  28.211  1.00  0.00     0.001 A 
ATOM     81  C   UNL A   1      48.388  34.100  30.430  1.00  0.00     0.001 A 
ATOM     82  C   UNL A   1      48.410  35.079  29.438  1.00  0.00     0.000 A 
ENDBRANCH  58  77
BRANCH  70  83
ATOM     83  C   UNL A   1      49.379  26.652  26.195  1.00  0.00    -0.014 A 
ATOM     84  C   UNL A   1      49.764  27.028  24.898  1.00  0.00     0.009 A 
ATOM     85  C   UNL A   1      50.274  25.907  26.980  1.00  0.00     0.009 A 
ATOM     86  C   UNL A   1      51.004  26.637  24.388  1.00  0.00     0.001 A 
ATOM     87  C   UNL A   1      51.524  25.542  26.478  1.00  0.00     0.001 A 
ATOM     88  C   UNL A   1      51.885  25.899  25.180  1.00  0.00     0.000 A 
ENDBRANCH  70  83
ENDBRANCH  44  45
ENDBRANCH  37  39
ENDBRANCH  36  37
ENDBRANCH  35  36
ENDBRANCH  34  35
ENDBRANCH  33  34
ENDBRANCH   1  33
TORSDOF 20
ENDMDL
