MODEL 1
REMARK VINA RESULT:     -11.4      0.000      0.000
REMARK SMILES O=C(OCCOCCOC(=O)[C@@H]1C[C@@H]1C(=O)N1CC2(CCCC2)c2c(F)cccc21)c1ccc(-c2c3nc(c(-c4ccccc4)c4ccc([nH]4)c(-c4ccccc4)c4nc(c(-c5ccccc5)c5ccc2[nH]5)C=C4)C=C3)cc1
REMARK SMILES IDX 6 1 5 2 4 3 3 4 2 5 1 6 31 7 32 8 78 9 33 10 77 11 34 12
REMARK SMILES IDX 35 13 36 14 71 15 37 16 76 17 70 18 72 19 38 20 75 21 69 22
REMARK SMILES IDX 68 23 39 25 61 26 46 27 60 28 47 29 50 30 59 31 73 32 48 33
REMARK SMILES IDX 49 34 58 36 74 37 51 38 40 39 41 40 45 41 42 42 44 43 43 44
REMARK SMILES IDX 62 45 63 46 67 47 64 48 66 49 65 50 52 51 53 52 57 53 54 54
REMARK SMILES IDX 56 55 55 56 7 57 8 58 9 59 10 60 11 61 12 62 13 63 14 64
REMARK SMILES IDX 15 65 16 66 17 67 18 68 30 69 19 70 24 71 29 72 20 73 23 74
REMARK SMILES IDX 25 75 28 76 21 77 22 78 26 79 27 80
REMARK H PARENT 72 24 50 35
REMARK Flexibility Score: inf
ROOT
ATOM      1  O   UNL A   1      36.693  20.332  24.858  1.00  0.00    -0.374 OA
ENDROOT
BRANCH   1   2
ATOM      2  C   UNL A   1      37.919  19.608  24.746  1.00  0.00     0.202 C 
BRANCH   2   3
ATOM      3  C   UNL A   1      38.921  19.874  25.869  1.00  0.00     0.261 C 
BRANCH   3   4
ATOM      4  O   UNL A   1      40.107  19.076  25.723  1.00  0.00    -0.460 OA
BRANCH   4   5
ATOM      5  C   UNL A   1      41.398  19.376  25.977  1.00  0.00     0.338 C 
ATOM      6  O   UNL A   1      42.236  18.489  25.812  1.00  0.00    -0.246 OA
BRANCH   5   7
ATOM      7  C   UNL A   1      41.885  20.692  26.513  1.00  0.00     0.060 A 
ATOM      8  C   UNL A   1      42.024  21.038  27.856  1.00  0.00     0.016 A 
ATOM      9  C   UNL A   1      42.268  21.655  25.554  1.00  0.00     0.016 A 
ATOM     10  C   UNL A   1      42.550  22.266  28.243  1.00  0.00     0.010 A 
ATOM     11  C   UNL A   1      42.764  22.908  25.930  1.00  0.00     0.010 A 
ATOM     12  C   UNL A   1      42.895  23.212  27.283  1.00  0.00    -0.014 A 
BRANCH  12  13
ATOM     13  C   UNL A   1      43.247  24.553  27.767  1.00  0.00     0.031 A 
ATOM     14  C   UNL A   1      44.689  24.950  27.738  1.00  0.00     0.074 A 
ATOM     15  C   UNL A   1      42.278  25.438  28.053  1.00  0.00     0.049 A 
ATOM     16  N   UNL A   1      45.222  26.127  27.913  1.00  0.00    -0.248 NA
ATOM     17  C   UNL A   1      45.659  23.884  27.423  1.00  0.00     0.031 C 
ATOM     18  C   UNL A   1      40.843  25.163  27.995  1.00  0.00     0.029 A 
ATOM     19  N   UNL A   1      42.360  26.757  28.408  1.00  0.00    -0.354 N 
ATOM     20  C   UNL A   1      46.579  25.954  27.693  1.00  0.00     0.074 A 
ATOM     21  C   UNL A   1      46.798  24.557  27.390  1.00  0.00     0.031 C 
ATOM     22  C   UNL A   1      40.175  26.290  28.297  1.00  0.00     0.029 A 
ATOM     23  C   UNL A   1      41.136  27.351  28.583  1.00  0.00     0.049 A 
ATOM     24  H   UNL A   1      43.213  27.233  28.527  1.00  0.00     0.167 HD
ATOM     25  C   UNL A   1      47.556  26.884  27.742  1.00  0.00     0.031 A 
ATOM     26  C   UNL A   1      40.833  28.615  28.936  1.00  0.00     0.031 A 
ATOM     27  C   UNL A   1      47.330  28.251  28.111  1.00  0.00     0.049 A 
ATOM     28  C   UNL A   1      41.952  29.596  29.143  1.00  0.00     0.074 A 
ATOM     29  C   UNL A   1      48.256  29.266  28.254  1.00  0.00     0.029 A 
ATOM     30  N   UNL A   1      46.088  28.781  28.423  1.00  0.00    -0.354 N 
ATOM     31  N   UNL A   1      43.237  29.426  28.940  1.00  0.00    -0.248 NA
ATOM     32  C   UNL A   1      41.591  30.934  29.630  1.00  0.00     0.031 C 
ATOM     33  C   UNL A   1      47.578  30.399  28.712  1.00  0.00     0.029 A 
ATOM     34  C   UNL A   1      46.226  30.102  28.801  1.00  0.00     0.049 A 
ATOM     35  H   UNL A   1      45.235  28.290  28.381  1.00  0.00     0.167 HD
ATOM     36  C   UNL A   1      43.838  30.633  29.262  1.00  0.00     0.074 A 
ATOM     37  C   UNL A   1      42.777  31.531  29.673  1.00  0.00     0.031 C 
ATOM     38  C   UNL A   1      45.150  30.967  29.214  1.00  0.00     0.031 A 
BRANCH  25  39
ATOM     39  C   UNL A   1      48.953  26.432  27.450  1.00  0.00    -0.014 A 
ATOM     40  C   UNL A   1      49.798  25.985  28.477  1.00  0.00     0.009 A 
ATOM     41  C   UNL A   1      49.419  26.434  26.128  1.00  0.00     0.009 A 
ATOM     42  C   UNL A   1      51.094  25.559  28.182  1.00  0.00     0.001 A 
ATOM     43  C   UNL A   1      50.710  25.993  25.836  1.00  0.00     0.001 A 
ATOM     44  C   UNL A   1      51.548  25.559  26.863  1.00  0.00     0.000 A 
ENDBRANCH  25  39
BRANCH  26  45
ATOM     45  C   UNL A   1      39.409  28.989  29.120  1.00  0.00    -0.014 A 
ATOM     46  C   UNL A   1      38.653  29.496  28.055  1.00  0.00     0.009 A 
ATOM     47  C   UNL A   1      38.774  28.751  30.351  1.00  0.00     0.009 A 
ATOM     48  C   UNL A   1      37.288  29.748  28.215  1.00  0.00     0.001 A 
ATOM     49  C   UNL A   1      37.407  28.988  30.504  1.00  0.00     0.001 A 
ATOM     50  C   UNL A   1      36.664  29.484  29.435  1.00  0.00     0.000 A 
ENDBRANCH  26  45
BRANCH  38  51
ATOM     51  C   UNL A   1      45.542  32.357  29.619  1.00  0.00    -0.014 A 
ATOM     52  C   UNL A   1      45.971  32.621  30.926  1.00  0.00     0.009 A 
ATOM     53  C   UNL A   1      45.659  33.355  28.638  1.00  0.00     0.009 A 
ATOM     54  C   UNL A   1      46.527  33.862  31.243  1.00  0.00     0.001 A 
ATOM     55  C   UNL A   1      46.231  34.587  28.954  1.00  0.00     0.001 A 
ATOM     56  C   UNL A   1      46.668  34.837  30.254  1.00  0.00     0.000 A 
ENDBRANCH  38  51
ENDBRANCH  12  13
ENDBRANCH   5   7
ENDBRANCH   4   5
ENDBRANCH   3   4
ENDBRANCH   2   3
ENDBRANCH   1   2
BRANCH   1  57
ATOM     57  C   UNL A   1      36.829  21.676  25.347  1.00  0.00     0.202 C 
BRANCH  57  58
ATOM     58  C   UNL A   1      36.989  22.668  24.191  1.00  0.00     0.261 C 
BRANCH  58  59
ATOM     59  O   UNL A   1      35.754  22.752  23.470  1.00  0.00    -0.463 OA
BRANCH  59  60
ATOM     60  C   UNL A   1      34.815  23.563  24.003  1.00  0.00     0.309 C 
ATOM     61  O   UNL A   1      35.019  24.514  24.737  1.00  0.00    -0.252 OA
BRANCH  60  62
ATOM     62  C   UNL A   1      33.451  23.287  23.491  1.00  0.00     0.112 C 
ATOM     63  C   UNL A   1      33.184  23.113  22.025  1.00  0.00     0.030 C 
ATOM     64  C   UNL A   1      32.532  24.256  22.775  1.00  0.00     0.094 C 
BRANCH  64  65
ATOM     65  C   UNL A   1      32.862  25.658  22.399  1.00  0.00     0.231 C 
ATOM     66  O   UNL A   1      33.878  25.944  21.779  1.00  0.00    -0.274 OA
BRANCH  65  67
ATOM     67  N   UNL A   1      31.995  26.589  22.915  1.00  0.00    -0.311 N 
ATOM     68  C   UNL A   1      30.981  27.254  22.096  1.00  0.00     0.137 C 
ATOM     69  C   UNL A   1      32.374  27.471  23.940  1.00  0.00     0.050 A 
ATOM     70  C   UNL A   1      30.436  28.448  22.932  1.00  0.00     0.018 C 
ATOM     71  C   UNL A   1      31.492  28.546  24.001  1.00  0.00     0.020 A 
ATOM     72  C   UNL A   1      33.482  27.386  24.771  1.00  0.00     0.027 A 
ATOM     73  C   UNL A   1      30.285  29.711  22.065  1.00  0.00     0.014 C 
ATOM     74  C   UNL A   1      29.031  28.172  23.515  1.00  0.00     0.014 C 
ATOM     75  C   UNL A   1      31.678  29.524  24.962  1.00  0.00     0.129 A 
ATOM     76  C   UNL A   1      33.680  28.391  25.720  1.00  0.00     0.005 A 
ATOM     77  C   UNL A   1      28.811  29.731  21.695  1.00  0.00     0.001 C 
ATOM     78  C   UNL A   1      28.139  29.293  22.984  1.00  0.00     0.001 C 
ATOM     79  F   UNL A   1      30.818  30.544  25.069  1.00  0.00    -0.207 F 
ATOM     80  C   UNL A   1      32.770  29.452  25.824  1.00  0.00     0.040 A 
ENDBRANCH  65  67
ENDBRANCH  64  65
ENDBRANCH  60  62
ENDBRANCH  59  60
ENDBRANCH  58  59
ENDBRANCH  57  58
ENDBRANCH   1  57
TORSDOF 16
ENDMDL
MODEL 2
REMARK VINA RESULT:     -11.4      1.217      2.349
REMARK SMILES O=C(OCCOCCOC(=O)[C@@H]1C[C@@H]1C(=O)N1CC2(CCCC2)c2c(F)cccc21)c1ccc(-c2c3nc(c(-c4ccccc4)c4ccc([nH]4)c(-c4ccccc4)c4nc(c(-c5ccccc5)c5ccc2[nH]5)C=C4)C=C3)cc1
REMARK SMILES IDX 6 1 5 2 4 3 3 4 2 5 1 6 31 7 32 8 78 9 33 10 77 11 34 12
REMARK SMILES IDX 35 13 36 14 71 15 37 16 76 17 70 18 72 19 38 20 75 21 69 22
REMARK SMILES IDX 68 23 39 25 61 26 46 27 60 28 47 29 50 30 59 31 73 32 48 33
REMARK SMILES IDX 49 34 58 36 74 37 51 38 40 39 41 40 45 41 42 42 44 43 43 44
REMARK SMILES IDX 62 45 63 46 67 47 64 48 66 49 65 50 52 51 53 52 57 53 54 54
REMARK SMILES IDX 56 55 55 56 7 57 8 58 9 59 10 60 11 61 12 62 13 63 14 64
REMARK SMILES IDX 15 65 16 66 17 67 18 68 30 69 19 70 24 71 29 72 20 73 23 74
REMARK SMILES IDX 25 75 28 76 21 77 22 78 26 79 27 80
REMARK H PARENT 72 24 50 35
REMARK Flexibility Score: inf
ROOT
ATOM      1  O   UNL A   1      36.324  20.033  24.973  1.00  0.00    -0.374 OA
ENDROOT
BRANCH   1   2
ATOM      2  C   UNL A   1      37.518  19.249  24.939  1.00  0.00     0.202 C 
BRANCH   2   3
ATOM      3  C   UNL A   1      38.790  20.012  25.312  1.00  0.00     0.261 C 
BRANCH   3   4
ATOM      4  O   UNL A   1      39.874  19.118  25.614  1.00  0.00    -0.460 OA
BRANCH   4   5
ATOM      5  C   UNL A   1      41.146  19.382  25.983  1.00  0.00     0.338 C 
ATOM      6  O   UNL A   1      41.968  18.470  25.896  1.00  0.00    -0.246 OA
BRANCH   5   7
ATOM      7  C   UNL A   1      41.621  20.685  26.558  1.00  0.00     0.060 A 
ATOM      8  C   UNL A   1      41.718  21.006  27.912  1.00  0.00     0.016 A 
ATOM      9  C   UNL A   1      42.039  21.663  25.631  1.00  0.00     0.016 A 
ATOM     10  C   UNL A   1      42.236  22.223  28.338  1.00  0.00     0.010 A 
ATOM     11  C   UNL A   1      42.528  22.907  26.046  1.00  0.00     0.010 A 
ATOM     12  C   UNL A   1      42.617  23.186  27.407  1.00  0.00    -0.014 A 
BRANCH  12  13
ATOM     13  C   UNL A   1      42.958  24.516  27.927  1.00  0.00     0.031 A 
ATOM     14  C   UNL A   1      44.400  24.915  27.930  1.00  0.00     0.074 A 
ATOM     15  C   UNL A   1      41.983  25.392  28.217  1.00  0.00     0.049 A 
ATOM     16  N   UNL A   1      44.928  26.089  28.140  1.00  0.00    -0.248 NA
ATOM     17  C   UNL A   1      45.376  23.857  27.606  1.00  0.00     0.031 C 
ATOM     18  C   UNL A   1      40.550  25.117  28.131  1.00  0.00     0.029 A 
ATOM     19  N   UNL A   1      42.058  26.703  28.604  1.00  0.00    -0.354 N 
ATOM     20  C   UNL A   1      46.289  25.922  27.937  1.00  0.00     0.074 A 
ATOM     21  C   UNL A   1      46.515  24.533  27.606  1.00  0.00     0.031 C 
ATOM     22  C   UNL A   1      39.875  26.235  28.448  1.00  0.00     0.029 A 
ATOM     23  C   UNL A   1      40.830  27.291  28.773  1.00  0.00     0.049 A 
ATOM     24  H   UNL A   1      42.908  27.177  28.748  1.00  0.00     0.167 HD
ATOM     25  C   UNL A   1      47.263  26.852  28.022  1.00  0.00     0.031 A 
ATOM     26  C   UNL A   1      40.519  28.546  29.150  1.00  0.00     0.031 A 
ATOM     27  C   UNL A   1      47.029  28.211  28.419  1.00  0.00     0.049 A 
ATOM     28  C   UNL A   1      41.634  29.524  29.397  1.00  0.00     0.074 A 
ATOM     29  C   UNL A   1      47.951  29.224  28.599  1.00  0.00     0.029 A 
ATOM     30  N   UNL A   1      45.781  28.732  28.723  1.00  0.00    -0.354 N 
ATOM     31  N   UNL A   1      42.921  29.360  29.210  1.00  0.00    -0.248 NA
ATOM     32  C   UNL A   1      41.262  30.850  29.909  1.00  0.00     0.031 C 
ATOM     33  C   UNL A   1      47.264  30.344  29.072  1.00  0.00     0.029 A 
ATOM     34  C   UNL A   1      45.911  30.043  29.133  1.00  0.00     0.049 A 
ATOM     35  H   UNL A   1      44.930  28.240  28.657  1.00  0.00     0.167 HD
ATOM     36  C   UNL A   1      43.515  30.561  29.568  1.00  0.00     0.074 A 
ATOM     37  C   UNL A   1      42.447  31.447  29.984  1.00  0.00     0.031 C 
ATOM     38  C   UNL A   1      44.827  30.898  29.549  1.00  0.00     0.031 A 
BRANCH  25  39
ATOM     39  C   UNL A   1      48.665  26.409  27.742  1.00  0.00    -0.014 A 
ATOM     40  C   UNL A   1      49.214  26.514  26.456  1.00  0.00     0.009 A 
ATOM     41  C   UNL A   1      49.452  25.900  28.786  1.00  0.00     0.009 A 
ATOM     42  C   UNL A   1      50.527  26.103  26.218  1.00  0.00     0.001 A 
ATOM     43  C   UNL A   1      50.768  25.505  28.547  1.00  0.00     0.001 A 
ATOM     44  C   UNL A   1      51.304  25.603  27.263  1.00  0.00     0.000 A 
ENDBRANCH  25  39
BRANCH  26  45
ATOM     45  C   UNL A   1      39.092  28.914  29.321  1.00  0.00    -0.014 A 
ATOM     46  C   UNL A   1      38.445  28.738  30.551  1.00  0.00     0.009 A 
ATOM     47  C   UNL A   1      38.395  29.532  28.269  1.00  0.00     0.009 A 
ATOM     48  C   UNL A   1      37.132  29.182  30.727  1.00  0.00     0.001 A 
ATOM     49  C   UNL A   1      37.089  29.990  28.452  1.00  0.00     0.001 A 
ATOM     50  C   UNL A   1      36.459  29.817  29.682  1.00  0.00     0.000 A 
ENDBRANCH  26  45
BRANCH  38  51
ATOM     51  C   UNL A   1      45.210  32.278  29.991  1.00  0.00    -0.014 A 
ATOM     52  C   UNL A   1      45.635  32.510  31.307  1.00  0.00     0.009 A 
ATOM     53  C   UNL A   1      45.325  33.303  29.037  1.00  0.00     0.009 A 
ATOM     54  C   UNL A   1      46.183  33.745  31.657  1.00  0.00     0.001 A 
ATOM     55  C   UNL A   1      45.889  34.529  29.387  1.00  0.00     0.001 A 
ATOM     56  C   UNL A   1      46.321  34.747  30.695  1.00  0.00     0.000 A 
ENDBRANCH  38  51
ENDBRANCH  12  13
ENDBRANCH   5   7
ENDBRANCH   4   5
ENDBRANCH   3   4
ENDBRANCH   2   3
ENDBRANCH   1   2
BRANCH   1  57
ATOM     57  C   UNL A   1      36.513  21.404  25.359  1.00  0.00     0.202 C 
BRANCH  57  58
ATOM     58  C   UNL A   1      35.384  21.877  26.280  1.00  0.00     0.261 C 
BRANCH  58  59
ATOM     59  O   UNL A   1      34.130  21.718  25.604  1.00  0.00    -0.463 OA
BRANCH  59  60
ATOM     60  C   UNL A   1      33.650  22.820  24.988  1.00  0.00     0.309 C 
ATOM     61  O   UNL A   1      34.228  23.885  24.865  1.00  0.00    -0.252 OA
BRANCH  60  62
ATOM     62  C   UNL A   1      32.351  22.585  24.311  1.00  0.00     0.112 C 
ATOM     63  C   UNL A   1      31.733  23.623  23.421  1.00  0.00     0.030 C 
ATOM     64  C   UNL A   1      31.009  23.186  24.678  1.00  0.00     0.094 C 
BRANCH  64  65
ATOM     65  C   UNL A   1      30.762  24.179  25.760  1.00  0.00     0.231 C 
ATOM     66  O   UNL A   1      30.044  23.930  26.720  1.00  0.00    -0.274 OA
BRANCH  65  67
ATOM     67  N   UNL A   1      31.307  25.415  25.514  1.00  0.00    -0.311 N 
ATOM     68  C   UNL A   1      32.185  26.088  26.471  1.00  0.00     0.137 C 
ATOM     69  C   UNL A   1      30.620  26.399  24.786  1.00  0.00     0.050 A 
ATOM     70  C   UNL A   1      32.323  27.564  25.998  1.00  0.00     0.018 C 
ATOM     71  C   UNL A   1      31.184  27.651  25.017  1.00  0.00     0.020 A 
ATOM     72  C   UNL A   1      29.500  26.239  23.982  1.00  0.00     0.027 A 
ATOM     73  C   UNL A   1      32.221  28.541  27.183  1.00  0.00     0.014 C 
ATOM     74  C   UNL A   1      33.692  27.851  25.338  1.00  0.00     0.014 C 
ATOM     75  C   UNL A   1      30.663  28.760  24.374  1.00  0.00     0.129 A 
ATOM     76  C   UNL A   1      28.961  27.367  23.359  1.00  0.00     0.005 A 
ATOM     77  C   UNL A   1      33.668  28.864  27.520  1.00  0.00     0.001 C 
ATOM     78  C   UNL A   1      34.308  28.989  26.149  1.00  0.00     0.001 C 
ATOM     79  F   UNL A   1      31.216  29.967  24.546  1.00  0.00    -0.207 F 
ATOM     80  C   UNL A   1      29.552  28.625  23.545  1.00  0.00     0.040 A 
ENDBRANCH  65  67
ENDBRANCH  64  65
ENDBRANCH  60  62
ENDBRANCH  59  60
ENDBRANCH  58  59
ENDBRANCH  57  58
ENDBRANCH   1  57
TORSDOF 16
ENDMDL
MODEL 3
REMARK VINA RESULT:     -11.2      6.795     12.798
REMARK SMILES O=C(OCCOCCOC(=O)[C@@H]1C[C@@H]1C(=O)N1CC2(CCCC2)c2c(F)cccc21)c1ccc(-c2c3nc(c(-c4ccccc4)c4ccc([nH]4)c(-c4ccccc4)c4nc(c(-c5ccccc5)c5ccc2[nH]5)C=C4)C=C3)cc1
REMARK SMILES IDX 6 1 5 2 4 3 3 4 2 5 1 6 31 7 32 8 78 9 33 10 77 11 34 12
REMARK SMILES IDX 35 13 36 14 71 15 37 16 76 17 70 18 72 19 38 20 75 21 69 22
REMARK SMILES IDX 68 23 39 25 61 26 46 27 60 28 47 29 50 30 59 31 73 32 48 33
REMARK SMILES IDX 49 34 58 36 74 37 51 38 40 39 41 40 45 41 42 42 44 43 43 44
REMARK SMILES IDX 62 45 63 46 67 47 64 48 66 49 65 50 52 51 53 52 57 53 54 54
REMARK SMILES IDX 56 55 55 56 7 57 8 58 9 59 10 60 11 61 12 62 13 63 14 64
REMARK SMILES IDX 15 65 16 66 17 67 18 68 30 69 19 70 24 71 29 72 20 73 23 74
REMARK SMILES IDX 25 75 28 76 21 77 22 78 26 79 27 80
REMARK H PARENT 72 24 50 35
REMARK Flexibility Score: inf
ROOT
ATOM      1  O   UNL A   1      33.612  36.941  32.365  1.00  0.00    -0.374 OA
ENDROOT
BRANCH   1   2
ATOM      2  C   UNL A   1      32.807  36.166  31.475  1.00  0.00     0.202 C 
BRANCH   2   3
ATOM      3  C   UNL A   1      33.091  36.401  29.992  1.00  0.00     0.261 C 
BRANCH   3   4
ATOM      4  O   UNL A   1      32.548  35.350  29.175  1.00  0.00    -0.460 OA
BRANCH   4   5
ATOM      5  C   UNL A   1      33.161  34.313  28.567  1.00  0.00     0.338 C 
ATOM      6  O   UNL A   1      32.616  33.826  27.576  1.00  0.00    -0.246 OA
BRANCH   5   7
ATOM      7  C   UNL A   1      34.426  33.660  29.047  1.00  0.00     0.060 A 
ATOM      8  C   UNL A   1      34.584  32.924  30.221  1.00  0.00     0.016 A 
ATOM      9  C   UNL A   1      35.551  33.781  28.204  1.00  0.00     0.016 A 
ATOM     10  C   UNL A   1      35.786  32.305  30.538  1.00  0.00     0.010 A 
ATOM     11  C   UNL A   1      36.778  33.192  28.529  1.00  0.00     0.010 A 
ATOM     12  C   UNL A   1      36.893  32.458  29.707  1.00  0.00    -0.014 A 
BRANCH  12  13
ATOM     13  C   UNL A   1      38.176  31.950  30.208  1.00  0.00     0.031 A 
ATOM     14  C   UNL A   1      38.628  30.606  29.730  1.00  0.00     0.074 A 
ATOM     15  C   UNL A   1      38.981  32.752  30.924  1.00  0.00     0.049 A 
ATOM     16  N   UNL A   1      39.795  30.038  29.859  1.00  0.00    -0.248 NA
ATOM     17  C   UNL A   1      37.647  29.816  28.963  1.00  0.00     0.031 C 
ATOM     18  C   UNL A   1      38.661  34.118  31.334  1.00  0.00     0.029 A 
ATOM     19  N   UNL A   1      40.248  32.541  31.396  1.00  0.00    -0.354 N 
ATOM     20  C   UNL A   1      39.702  28.844  29.160  1.00  0.00     0.074 A 
ATOM     21  C   UNL A   1      38.363  28.756  28.623  1.00  0.00     0.031 C 
ATOM     22  C   UNL A   1      39.715  34.630  31.992  1.00  0.00     0.029 A 
ATOM     23  C   UNL A   1      40.769  33.622  32.060  1.00  0.00     0.049 A 
ATOM     24  H   UNL A   1      40.738  31.696  31.271  1.00  0.00     0.167 HD
ATOM     25  C   UNL A   1      40.656  27.905  28.986  1.00  0.00     0.031 A 
ATOM     26  C   UNL A   1      41.967  33.773  32.657  1.00  0.00     0.031 A 
ATOM     27  C   UNL A   1      41.957  27.978  29.584  1.00  0.00     0.049 A 
ATOM     28  C   UNL A   1      42.957  32.645  32.586  1.00  0.00     0.074 A 
ATOM     29  C   UNL A   1      42.982  27.053  29.525  1.00  0.00     0.029 A 
ATOM     30  N   UNL A   1      42.397  29.029  30.374  1.00  0.00    -0.354 N 
ATOM     31  N   UNL A   1      42.863  31.514  31.929  1.00  0.00    -0.248 NA
ATOM     32  C   UNL A   1      44.210  32.803  33.337  1.00  0.00     0.031 C 
ATOM     33  C   UNL A   1      44.022  27.519  30.332  1.00  0.00     0.029 A 
ATOM     34  C   UNL A   1      43.665  28.758  30.847  1.00  0.00     0.049 A 
ATOM     35  H   UNL A   1      41.882  29.846  30.569  1.00  0.00     0.167 HD
ATOM     36  C   UNL A   1      44.044  30.829  32.174  1.00  0.00     0.074 A 
ATOM     37  C   UNL A   1      44.842  31.673  33.041  1.00  0.00     0.031 C 
ATOM     38  C   UNL A   1      44.431  29.615  31.717  1.00  0.00     0.031 A 
BRANCH  25  39
ATOM     39  C   UNL A   1      40.297  26.702  28.171  1.00  0.00    -0.014 A 
ATOM     40  C   UNL A   1      39.524  25.665  28.714  1.00  0.00     0.009 A 
ATOM     41  C   UNL A   1      40.721  26.618  26.837  1.00  0.00     0.009 A 
ATOM     42  C   UNL A   1      39.193  24.555  27.934  1.00  0.00     0.001 A 
ATOM     43  C   UNL A   1      40.375  25.515  26.057  1.00  0.00     0.001 A 
ATOM     44  C   UNL A   1      39.615  24.483  26.606  1.00  0.00     0.000 A 
ENDBRANCH  25  39
BRANCH  26  45
ATOM     45  C   UNL A   1      42.261  35.040  33.371  1.00  0.00    -0.014 A 
ATOM     46  C   UNL A   1      43.142  35.985  32.830  1.00  0.00     0.009 A 
ATOM     47  C   UNL A   1      41.582  35.347  34.563  1.00  0.00     0.009 A 
ATOM     48  C   UNL A   1      43.331  37.217  33.463  1.00  0.00     0.001 A 
ATOM     49  C   UNL A   1      41.760  36.585  35.184  1.00  0.00     0.001 A 
ATOM     50  C   UNL A   1      42.633  37.520  34.633  1.00  0.00     0.000 A 
ENDBRANCH  26  45
BRANCH  38  51
ATOM     51  C   UNL A   1      45.774  29.096  32.136  1.00  0.00    -0.014 A 
ATOM     52  C   UNL A   1      46.940  29.556  31.509  1.00  0.00     0.009 A 
ATOM     53  C   UNL A   1      45.877  28.291  33.282  1.00  0.00     0.009 A 
ATOM     54  C   UNL A   1      48.191  29.229  32.034  1.00  0.00     0.001 A 
ATOM     55  C   UNL A   1      47.128  27.982  33.813  1.00  0.00     0.001 A 
ATOM     56  C   UNL A   1      48.283  28.455  33.191  1.00  0.00     0.000 A 
ENDBRANCH  38  51
ENDBRANCH  12  13
ENDBRANCH   5   7
ENDBRANCH   4   5
ENDBRANCH   3   4
ENDBRANCH   2   3
ENDBRANCH   1   2
BRANCH   1  57
ATOM     57  C   UNL A   1      34.110  36.223  33.506  1.00  0.00     0.202 C 
BRANCH  57  58
ATOM     58  C   UNL A   1      35.042  35.086  33.077  1.00  0.00     0.261 C 
BRANCH  58  59
ATOM     59  O   UNL A   1      34.874  33.979  33.971  1.00  0.00    -0.463 OA
BRANCH  59  60
ATOM     60  C   UNL A   1      35.840  33.822  34.902  1.00  0.00     0.309 C 
ATOM     61  O   UNL A   1      35.693  33.883  36.109  1.00  0.00    -0.252 OA
BRANCH  60  62
ATOM     62  C   UNL A   1      37.142  33.407  34.322  1.00  0.00     0.112 C 
ATOM     63  C   UNL A   1      37.425  31.974  33.979  1.00  0.00     0.030 C 
ATOM     64  C   UNL A   1      38.262  32.673  35.030  1.00  0.00     0.094 C 
BRANCH  64  65
ATOM     65  C   UNL A   1      38.233  32.177  36.434  1.00  0.00     0.231 C 
ATOM     66  O   UNL A   1      37.530  31.236  36.777  1.00  0.00    -0.274 OA
BRANCH  65  67
ATOM     67  N   UNL A   1      38.960  32.945  37.309  1.00  0.00    -0.311 N 
ATOM     68  C   UNL A   1      38.481  34.238  37.801  1.00  0.00     0.137 C 
ATOM     69  C   UNL A   1      40.363  32.985  37.275  1.00  0.00     0.050 A 
ATOM     70  C   UNL A   1      39.691  34.939  38.483  1.00  0.00     0.018 C 
ATOM     71  C   UNL A   1      40.830  34.105  37.957  1.00  0.00     0.020 A 
ATOM     72  C   UNL A   1      41.226  32.111  36.629  1.00  0.00     0.027 A 
ATOM     73  C   UNL A   1      39.760  36.429  38.100  1.00  0.00     0.014 C 
ATOM     74  C   UNL A   1      39.602  34.909  40.026  1.00  0.00     0.014 C 
ATOM     75  C   UNL A   1      42.193  34.320  38.059  1.00  0.00     0.129 A 
ATOM     76  C   UNL A   1      42.599  32.349  36.711  1.00  0.00     0.005 A 
ATOM     77  C   UNL A   1      39.112  37.142  39.275  1.00  0.00     0.001 C 
ATOM     78  C   UNL A   1      39.647  36.371  40.468  1.00  0.00     0.001 C 
ATOM     79  F   UNL A   1      42.668  35.366  38.748  1.00  0.00    -0.207 F 
ATOM     80  C   UNL A   1      43.083  33.446  37.438  1.00  0.00     0.040 A 
ENDBRANCH  65  67
ENDBRANCH  64  65
ENDBRANCH  60  62
ENDBRANCH  59  60
ENDBRANCH  58  59
ENDBRANCH  57  58
ENDBRANCH   1  57
TORSDOF 16
ENDMDL
