MODEL 1
REMARK VINA RESULT:     -12.0      0.000      0.000
REMARK SMILES C[C@H]1CCc2sc3ncn4nc(/C=C\C(=O)OCCOCCOC(=O)c5ccc(-c6c7nc(c(-c8ccccc8)c8ccc([nH]8)c(-c8ccccc8)c8nc(c(-c9ccccc9)c9ccc6[nH]9)C=C8)C=C7)cc5)nc4c3c2C1
REMARK SMILES IDX 21 1 20 2 19 3 18 4 17 5 15 6 16 7 14 8 13 9 12 10 1 11 2 12
REMARK SMILES IDX 3 13 78 14 4 15 77 16 5 17 76 18 6 19 7 20 75 21 8 22 10 23
REMARK SMILES IDX 74 24 9 25 11 26 22 27 23 28 24 29 25 30 26 31 27 32 73 33
REMARK SMILES IDX 28 34 72 35 29 36 30 37 31 38 66 39 32 40 71 41 65 42 67 43
REMARK SMILES IDX 33 44 70 45 64 46 63 47 34 49 56 50 41 51 55 52 42 53 45 54
REMARK SMILES IDX 54 55 68 56 43 57 44 58 53 60 69 61 46 62 35 63 36 64 40 65
REMARK SMILES IDX 37 66 39 67 38 68 57 69 58 70 62 71 59 72 61 73 60 74 47 75
REMARK SMILES IDX 48 76 52 77 49 78 51 79 50 80
REMARK H PARENT 67 48 45 59
REMARK Flexibility Score: inf
ROOT
ATOM      1  C   UNL A   1      42.529  18.965  26.382  1.00  0.00     0.202 C 
ENDROOT
BRANCH   1   2
ATOM      2  O   UNL A   1      41.698  20.034  25.940  1.00  0.00    -0.374 OA
BRANCH   2   3
ATOM      3  C   UNL A   1      41.200  20.941  26.925  1.00  0.00     0.202 C 
BRANCH   3   4
ATOM      4  C   UNL A   1      39.983  21.756  26.494  1.00  0.00     0.261 C 
BRANCH   4   5
ATOM      5  O   UNL A   1      39.092  20.930  25.723  1.00  0.00    -0.460 OA
BRANCH   5   6
ATOM      6  C   UNL A   1      37.930  21.484  25.340  1.00  0.00     0.330 C 
ATOM      7  O   UNL A   1      37.724  22.678  25.168  1.00  0.00    -0.247 OA
BRANCH   6   8
ATOM      8  C   UNL A   1      36.914  20.490  24.937  1.00  0.00     0.097 C 
ATOM      9  C   UNL A   1      35.574  20.467  24.963  1.00  0.00     0.058 C 
BRANCH   9  10
ATOM     10  C   UNL A   1      34.606  21.423  25.383  1.00  0.00     0.175 A 
ATOM     11  C   UNL A   1      32.176  25.944  20.977  1.00  0.00     0.008 C 
ATOM     12  C   UNL A   1      33.261  26.442  21.937  1.00  0.00    -0.009 C 
ATOM     13  C   UNL A   1      32.864  27.769  22.620  1.00  0.00     0.009 C 
ATOM     14  C   UNL A   1      33.628  25.359  22.974  1.00  0.00     0.041 C 
ATOM     15  C   UNL A   1      31.693  27.627  23.609  1.00  0.00     0.047 C 
ATOM     16  C   UNL A   1      32.760  25.387  24.189  1.00  0.00    -0.020 A 
ATOM     17  C   UNL A   1      31.894  26.424  24.476  1.00  0.00     0.011 A 
ATOM     18  C   UNL A   1      32.698  24.415  25.208  1.00  0.00     0.060 A 
ATOM     19  S   UNL A   1      31.017  26.180  25.924  1.00  0.00    -0.120 S 
ATOM     20  C   UNL A   1      31.782  24.677  26.215  1.00  0.00     0.129 A 
ATOM     21  C   UNL A   1      33.430  23.155  25.379  1.00  0.00     0.168 A 
ATOM     22  N   UNL A   1      31.486  23.890  27.307  1.00  0.00    -0.225 NA
ATOM     23  N   UNL A   1      33.123  22.401  26.466  1.00  0.00    -0.201 N 
ATOM     24  N   UNL A   1      34.364  22.573  24.673  1.00  0.00    -0.207 NA
ATOM     25  C   UNL A   1      32.156  22.768  27.402  1.00  0.00     0.227 A 
ATOM     26  N   UNL A   1      33.882  21.292  26.514  1.00  0.00    -0.145 NA
ENDBRANCH   9  10
ENDBRANCH   6   8
ENDBRANCH   5   6
ENDBRANCH   4   5
ENDBRANCH   3   4
ENDBRANCH   2   3
ENDBRANCH   1   2
BRANCH   1  27
ATOM     27  C   UNL A   1      43.574  18.498  25.383  1.00  0.00     0.261 C 
BRANCH  27  28
ATOM     28  O   UNL A   1      44.648  19.428  25.267  1.00  0.00    -0.460 OA
BRANCH  28  29
ATOM     29  C   UNL A   1      44.644  20.171  24.135  1.00  0.00     0.338 C 
ATOM     30  O   UNL A   1      44.582  19.770  22.987  1.00  0.00    -0.246 OA
BRANCH  29  31
ATOM     31  C   UNL A   1      45.013  21.548  24.501  1.00  0.00     0.060 A 
ATOM     32  C   UNL A   1      45.778  21.690  25.661  1.00  0.00     0.016 A 
ATOM     33  C   UNL A   1      44.324  22.630  23.930  1.00  0.00     0.016 A 
ATOM     34  C   UNL A   1      45.658  22.858  26.381  1.00  0.00     0.010 A 
ATOM     35  C   UNL A   1      44.187  23.786  24.662  1.00  0.00     0.010 A 
ATOM     36  C   UNL A   1      44.783  23.847  25.918  1.00  0.00    -0.014 A 
BRANCH  36  37
ATOM     37  C   UNL A   1      44.550  24.990  26.770  1.00  0.00     0.031 A 
ATOM     38  C   UNL A   1      45.610  26.014  26.678  1.00  0.00     0.074 A 
ATOM     39  C   UNL A   1      43.431  25.138  27.502  1.00  0.00     0.049 A 
ATOM     40  N   UNL A   1      46.443  26.371  27.595  1.00  0.00    -0.248 NA
ATOM     41  C   UNL A   1      45.862  26.607  25.354  1.00  0.00     0.031 C 
ATOM     42  C   UNL A   1      42.195  24.353  27.452  1.00  0.00     0.029 A 
ATOM     43  N   UNL A   1      43.131  26.125  28.385  1.00  0.00    -0.354 N 
ATOM     44  C   UNL A   1      47.235  27.352  27.014  1.00  0.00     0.074 A 
ATOM     45  C   UNL A   1      46.945  27.342  25.602  1.00  0.00     0.031 C 
ATOM     46  C   UNL A   1      41.210  25.041  28.079  1.00  0.00     0.029 A 
ATOM     47  C   UNL A   1      41.781  26.234  28.684  1.00  0.00     0.049 A 
ATOM     48  H   UNL A   1      43.814  26.715  28.778  1.00  0.00     0.167 HD
ATOM     49  C   UNL A   1      47.908  28.267  27.758  1.00  0.00     0.031 A 
ATOM     50  C   UNL A   1      41.189  27.283  29.306  1.00  0.00     0.031 A 
ATOM     51  C   UNL A   1      48.006  27.887  29.139  1.00  0.00     0.049 A 
ATOM     52  C   UNL A   1      42.250  28.051  30.001  1.00  0.00     0.074 A 
ATOM     53  C   UNL A   1      48.604  26.847  29.819  1.00  0.00     0.029 A 
ATOM     54  N   UNL A   1      47.085  28.429  30.004  1.00  0.00    -0.354 N 
ATOM     55  N   UNL A   1      42.910  27.601  31.028  1.00  0.00    -0.248 NA
ATOM     56  C   UNL A   1      42.884  29.145  29.283  1.00  0.00     0.031 C 
ATOM     57  C   UNL A   1      47.698  26.523  30.871  1.00  0.00     0.029 A 
ATOM     58  C   UNL A   1      46.626  27.417  30.808  1.00  0.00     0.049 A 
ATOM     59  H   UNL A   1      46.805  29.372  30.040  1.00  0.00     0.167 HD
ATOM     60  C   UNL A   1      44.213  28.038  30.830  1.00  0.00     0.074 A 
ATOM     61  C   UNL A   1      44.115  29.066  29.796  1.00  0.00     0.031 C 
ATOM     62  C   UNL A   1      45.275  27.330  31.316  1.00  0.00     0.031 A 
BRANCH  49  63
ATOM     63  C   UNL A   1      48.132  29.673  27.284  1.00  0.00    -0.014 A 
ATOM     64  C   UNL A   1      49.430  30.203  27.280  1.00  0.00     0.009 A 
ATOM     65  C   UNL A   1      47.069  30.577  27.082  1.00  0.00     0.009 A 
ATOM     66  C   UNL A   1      49.648  31.575  27.104  1.00  0.00     0.001 A 
ATOM     67  C   UNL A   1      47.284  31.937  26.864  1.00  0.00     0.001 A 
ATOM     68  C   UNL A   1      48.576  32.439  26.895  1.00  0.00     0.000 A 
ENDBRANCH  49  63
BRANCH  50  69
ATOM     69  C   UNL A   1      39.854  27.870  29.048  1.00  0.00    -0.014 A 
ATOM     70  C   UNL A   1      38.924  28.011  30.090  1.00  0.00     0.009 A 
ATOM     71  C   UNL A   1      39.607  28.566  27.850  1.00  0.00     0.009 A 
ATOM     72  C   UNL A   1      37.815  28.859  29.957  1.00  0.00     0.001 A 
ATOM     73  C   UNL A   1      38.499  29.410  27.716  1.00  0.00     0.001 A 
ATOM     74  C   UNL A   1      37.613  29.570  28.776  1.00  0.00     0.000 A 
ENDBRANCH  50  69
BRANCH  62  75
ATOM     75  C   UNL A   1      44.983  26.196  32.270  1.00  0.00    -0.014 A 
ATOM     76  C   UNL A   1      44.872  26.370  33.663  1.00  0.00     0.009 A 
ATOM     77  C   UNL A   1      44.668  24.940  31.732  1.00  0.00     0.009 A 
ATOM     78  C   UNL A   1      44.486  25.308  34.490  1.00  0.00     0.001 A 
ATOM     79  C   UNL A   1      44.263  23.887  32.555  1.00  0.00     0.001 A 
ATOM     80  C   UNL A   1      44.177  24.069  33.934  1.00  0.00     0.000 A 
ENDBRANCH  62  75
ENDBRANCH  36  37
ENDBRANCH  29  31
ENDBRANCH  28  29
ENDBRANCH  27  28
ENDBRANCH   1  27
TORSDOF 15
ENDMDL
MODEL 2
REMARK VINA RESULT:     -11.7      6.142     11.648
REMARK SMILES C[C@H]1CCc2sc3ncn4nc(/C=C\C(=O)OCCOCCOC(=O)c5ccc(-c6c7nc(c(-c8ccccc8)c8ccc([nH]8)c(-c8ccccc8)c8nc(c(-c9ccccc9)c9ccc6[nH]9)C=C8)C=C7)cc5)nc4c3c2C1
REMARK SMILES IDX 21 1 20 2 19 3 18 4 17 5 15 6 16 7 14 8 13 9 12 10 1 11 2 12
REMARK SMILES IDX 3 13 78 14 4 15 77 16 5 17 76 18 6 19 7 20 75 21 8 22 10 23
REMARK SMILES IDX 74 24 9 25 11 26 22 27 23 28 24 29 25 30 26 31 27 32 73 33
REMARK SMILES IDX 28 34 72 35 29 36 30 37 31 38 66 39 32 40 71 41 65 42 67 43
REMARK SMILES IDX 33 44 70 45 64 46 63 47 34 49 56 50 41 51 55 52 42 53 45 54
REMARK SMILES IDX 54 55 68 56 43 57 44 58 53 60 69 61 46 62 35 63 36 64 40 65
REMARK SMILES IDX 37 66 39 67 38 68 57 69 58 70 62 71 59 72 61 73 60 74 47 75
REMARK SMILES IDX 48 76 52 77 49 78 51 79 50 80
REMARK H PARENT 67 48 45 59
REMARK Flexibility Score: inf
ROOT
ATOM      1  C   UNL A   1      33.008  34.920  29.033  1.00  0.00     0.202 C 
ENDROOT
BRANCH   1   2
ATOM      2  O   UNL A   1      33.450  34.609  30.351  1.00  0.00    -0.374 OA
BRANCH   2   3
ATOM      3  C   UNL A   1      33.923  35.683  31.165  1.00  0.00     0.202 C 
BRANCH   3   4
ATOM      4  C   UNL A   1      34.670  35.255  32.427  1.00  0.00     0.261 C 
BRANCH   4   5
ATOM      5  O   UNL A   1      35.377  34.027  32.180  1.00  0.00    -0.460 OA
BRANCH   5   6
ATOM      6  C   UNL A   1      34.845  32.906  32.695  1.00  0.00     0.330 C 
ATOM      7  O   UNL A   1      33.682  32.757  33.047  1.00  0.00    -0.247 OA
BRANCH   6   8
ATOM      8  C   UNL A   1      35.756  31.745  32.634  1.00  0.00     0.097 C 
ATOM      9  C   UNL A   1      37.069  31.582  32.853  1.00  0.00     0.058 C 
BRANCH   9  10
ATOM     10  C   UNL A   1      38.096  32.485  33.251  1.00  0.00     0.175 A 
ATOM     11  C   UNL A   1      41.811  35.666  28.578  1.00  0.00     0.008 C 
ATOM     12  C   UNL A   1      42.454  34.448  29.248  1.00  0.00    -0.009 C 
ATOM     13  C   UNL A   1      43.885  34.751  29.745  1.00  0.00     0.009 C 
ATOM     14  C   UNL A   1      41.564  33.901  30.384  1.00  0.00     0.041 C 
ATOM     15  C   UNL A   1      43.932  35.744  30.920  1.00  0.00     0.047 C 
ATOM     16  C   UNL A   1      41.814  34.562  31.701  1.00  0.00    -0.020 A 
ATOM     17  C   UNL A   1      42.896  35.386  31.939  1.00  0.00     0.011 A 
ATOM     18  C   UNL A   1      41.035  34.443  32.869  1.00  0.00     0.060 A 
ATOM     19  S   UNL A   1      42.920  36.014  33.530  1.00  0.00    -0.120 S 
ATOM     20  C   UNL A   1      41.480  35.188  33.950  1.00  0.00     0.129 A 
ATOM     21  C   UNL A   1      39.815  33.673  33.137  1.00  0.00     0.168 A 
ATOM     22  N   UNL A   1      40.900  35.291  35.196  1.00  0.00    -0.225 NA
ATOM     23  N   UNL A   1      39.267  33.788  34.373  1.00  0.00    -0.201 N 
ATOM     24  N   UNL A   1      39.108  32.856  32.401  1.00  0.00    -0.207 NA
ATOM     25  C   UNL A   1      39.803  34.597  35.375  1.00  0.00     0.227 A 
ATOM     26  N   UNL A   1      38.173  33.014  34.490  1.00  0.00    -0.145 NA
ENDBRANCH   9  10
ENDBRANCH   6   8
ENDBRANCH   5   6
ENDBRANCH   4   5
ENDBRANCH   3   4
ENDBRANCH   2   3
ENDBRANCH   1   2
BRANCH   1  27
ATOM     27  C   UNL A   1      33.807  34.280  27.911  1.00  0.00     0.261 C 
BRANCH  27  28
ATOM     28  O   UNL A   1      34.950  33.586  28.405  1.00  0.00    -0.460 OA
BRANCH  28  29
ATOM     29  C   UNL A   1      35.057  32.297  28.004  1.00  0.00     0.338 C 
ATOM     30  O   UNL A   1      34.326  31.698  27.237  1.00  0.00    -0.246 OA
BRANCH  29  31
ATOM     31  C   UNL A   1      36.049  31.639  28.870  1.00  0.00     0.060 A 
ATOM     32  C   UNL A   1      37.195  32.383  29.162  1.00  0.00     0.016 A 
ATOM     33  C   UNL A   1      35.999  30.249  29.058  1.00  0.00     0.016 A 
ATOM     34  C   UNL A   1      38.365  31.702  29.416  1.00  0.00     0.010 A 
ATOM     35  C   UNL A   1      37.172  29.571  29.286  1.00  0.00     0.010 A 
ATOM     36  C   UNL A   1      38.353  30.303  29.372  1.00  0.00    -0.014 A 
BRANCH  36  37
ATOM     37  C   UNL A   1      39.620  29.617  29.478  1.00  0.00     0.031 A 
ATOM     38  C   UNL A   1      40.032  29.361  30.873  1.00  0.00     0.074 A 
ATOM     39  C   UNL A   1      40.303  29.179  28.406  1.00  0.00     0.049 A 
ATOM     40  N   UNL A   1      41.039  29.865  31.502  1.00  0.00    -0.248 NA
ATOM     41  C   UNL A   1      39.125  28.558  31.708  1.00  0.00     0.031 C 
ATOM     42  C   UNL A   1      39.865  29.105  27.009  1.00  0.00     0.029 A 
ATOM     43  N   UNL A   1      41.525  28.586  28.375  1.00  0.00    -0.354 N 
ATOM     44  C   UNL A   1      40.986  29.323  32.779  1.00  0.00     0.074 A 
ATOM     45  C   UNL A   1      39.712  28.660  32.900  1.00  0.00     0.031 C 
ATOM     46  C   UNL A   1      40.702  28.285  26.327  1.00  0.00     0.029 A 
ATOM     47  C   UNL A   1      41.797  27.897  27.202  1.00  0.00     0.049 A 
ATOM     48  H   UNL A   1      42.164  28.641  29.122  1.00  0.00     0.167 HD
ATOM     49  C   UNL A   1      42.083  29.252  33.576  1.00  0.00     0.031 A 
ATOM     50  C   UNL A   1      42.805  27.008  27.021  1.00  0.00     0.031 A 
ATOM     51  C   UNL A   1      43.149  30.099  33.119  1.00  0.00     0.049 A 
ATOM     52  C   UNL A   1      43.804  27.237  28.091  1.00  0.00     0.074 A 
ATOM     53  C   UNL A   1      43.307  31.460  32.967  1.00  0.00     0.029 A 
ATOM     54  N   UNL A   1      44.135  29.513  32.361  1.00  0.00    -0.354 N 
ATOM     55  N   UNL A   1      44.540  28.307  28.173  1.00  0.00    -0.248 NA
ATOM     56  C   UNL A   1      43.676  26.474  29.323  1.00  0.00     0.031 C 
ATOM     57  C   UNL A   1      44.072  31.613  31.773  1.00  0.00     0.029 A 
ATOM     58  C   UNL A   1      44.383  30.338  31.294  1.00  0.00     0.049 A 
ATOM     59  H   UNL A   1      44.582  28.655  32.550  1.00  0.00     0.167 HD
ATOM     60  C   UNL A   1      44.603  28.591  29.531  1.00  0.00     0.074 A 
ATOM     61  C   UNL A   1      44.138  27.375  30.194  1.00  0.00     0.031 C 
ATOM     62  C   UNL A   1      44.753  29.873  29.975  1.00  0.00     0.031 A 
BRANCH  49  63
ATOM     63  C   UNL A   1      42.299  28.122  34.538  1.00  0.00    -0.014 A 
ATOM     64  C   UNL A   1      42.768  26.889  34.064  1.00  0.00     0.009 A 
ATOM     65  C   UNL A   1      41.813  28.159  35.862  1.00  0.00     0.009 A 
ATOM     66  C   UNL A   1      42.728  25.745  34.871  1.00  0.00     0.001 A 
ATOM     67  C   UNL A   1      41.812  27.031  36.683  1.00  0.00     0.001 A 
ATOM     68  C   UNL A   1      42.253  25.817  36.178  1.00  0.00     0.000 A 
ENDBRANCH  49  63
BRANCH  50  69
ATOM     69  C   UNL A   1      42.794  25.757  26.229  1.00  0.00    -0.014 A 
ATOM     70  C   UNL A   1      43.833  25.476  25.326  1.00  0.00     0.009 A 
ATOM     71  C   UNL A   1      41.928  24.705  26.580  1.00  0.00     0.009 A 
ATOM     72  C   UNL A   1      44.029  24.179  24.834  1.00  0.00     0.001 A 
ATOM     73  C   UNL A   1      42.123  23.410  26.086  1.00  0.00     0.001 A 
ATOM     74  C   UNL A   1      43.183  23.144  25.228  1.00  0.00     0.000 A 
ENDBRANCH  50  69
BRANCH  62  75
ATOM     75  C   UNL A   1      45.086  30.935  28.954  1.00  0.00    -0.014 A 
ATOM     76  C   UNL A   1      46.390  31.426  28.749  1.00  0.00     0.009 A 
ATOM     77  C   UNL A   1      44.077  31.348  28.073  1.00  0.00     0.009 A 
ATOM     78  C   UNL A   1      46.663  32.324  27.711  1.00  0.00     0.001 A 
ATOM     79  C   UNL A   1      44.354  32.229  27.025  1.00  0.00     0.001 A 
ATOM     80  C   UNL A   1      45.645  32.721  26.848  1.00  0.00     0.000 A 
ENDBRANCH  62  75
ENDBRANCH  36  37
ENDBRANCH  29  31
ENDBRANCH  28  29
ENDBRANCH  27  28
ENDBRANCH   1  27
TORSDOF 15
ENDMDL
MODEL 3
REMARK VINA RESULT:     -11.3      2.305      6.240
REMARK SMILES C[C@H]1CCc2sc3ncn4nc(/C=C\C(=O)OCCOCCOC(=O)c5ccc(-c6c7nc(c(-c8ccccc8)c8ccc([nH]8)c(-c8ccccc8)c8nc(c(-c9ccccc9)c9ccc6[nH]9)C=C8)C=C7)cc5)nc4c3c2C1
REMARK SMILES IDX 21 1 20 2 19 3 18 4 17 5 15 6 16 7 14 8 13 9 12 10 1 11 2 12
REMARK SMILES IDX 3 13 78 14 4 15 77 16 5 17 76 18 6 19 7 20 75 21 8 22 10 23
REMARK SMILES IDX 74 24 9 25 11 26 22 27 23 28 24 29 25 30 26 31 27 32 73 33
REMARK SMILES IDX 28 34 72 35 29 36 30 37 31 38 66 39 32 40 71 41 65 42 67 43
REMARK SMILES IDX 33 44 70 45 64 46 63 47 34 49 56 50 41 51 55 52 42 53 45 54
REMARK SMILES IDX 54 55 68 56 43 57 44 58 53 60 69 61 46 62 35 63 36 64 40 65
REMARK SMILES IDX 37 66 39 67 38 68 57 69 58 70 62 71 59 72 61 73 60 74 47 75
REMARK SMILES IDX 48 76 52 77 49 78 51 79 50 80
REMARK H PARENT 67 48 45 59
REMARK Flexibility Score: inf
ROOT
ATOM      1  C   UNL A   1      37.345  20.326  24.902  1.00  0.00     0.202 C 
ENDROOT
BRANCH   1   2
ATOM      2  O   UNL A   1      37.234  21.597  25.536  1.00  0.00    -0.374 OA
BRANCH   2   3
ATOM      3  C   UNL A   1      37.102  22.748  24.701  1.00  0.00     0.202 C 
BRANCH   3   4
ATOM      4  C   UNL A   1      35.938  22.699  23.714  1.00  0.00     0.261 C 
BRANCH   4   5
ATOM      5  O   UNL A   1      34.692  22.655  24.432  1.00  0.00    -0.460 OA
BRANCH   5   6
ATOM      6  C   UNL A   1      33.612  22.243  23.748  1.00  0.00     0.330 C 
ATOM      7  O   UNL A   1      32.775  21.441  24.139  1.00  0.00    -0.247 OA
BRANCH   6   8
ATOM      8  C   UNL A   1      33.388  23.001  22.500  1.00  0.00     0.097 C 
ATOM      9  C   UNL A   1      33.138  24.290  22.227  1.00  0.00     0.058 C 
BRANCH   9  10
ATOM     10  C   UNL A   1      33.008  25.439  23.057  1.00  0.00     0.175 A 
ATOM     11  C   UNL A   1      27.242  28.976  23.071  1.00  0.00     0.008 C 
ATOM     12  C   UNL A   1      28.395  29.554  22.243  1.00  0.00    -0.009 C 
ATOM     13  C   UNL A   1      28.628  31.051  22.544  1.00  0.00     0.009 C 
ATOM     14  C   UNL A   1      29.686  28.731  22.435  1.00  0.00     0.041 C 
ATOM     15  C   UNL A   1      29.170  31.319  23.960  1.00  0.00     0.047 C 
ATOM     16  C   UNL A   1      30.505  29.179  23.601  1.00  0.00    -0.020 A 
ATOM     17  C   UNL A   1      30.272  30.359  24.279  1.00  0.00     0.011 A 
ATOM     18  C   UNL A   1      31.613  28.513  24.164  1.00  0.00     0.060 A 
ATOM     19  S   UNL A   1      31.356  30.607  25.579  1.00  0.00    -0.120 S 
ATOM     20  C   UNL A   1      32.178  29.139  25.264  1.00  0.00     0.129 A 
ATOM     21  C   UNL A   1      32.266  27.253  23.793  1.00  0.00     0.168 A 
ATOM     22  N   UNL A   1      33.237  28.701  26.029  1.00  0.00    -0.225 NA
ATOM     23  N   UNL A   1      33.311  26.846  24.559  1.00  0.00    -0.201 N 
ATOM     24  N   UNL A   1      32.048  26.394  22.832  1.00  0.00    -0.207 NA
ATOM     25  C   UNL A   1      33.772  27.561  25.664  1.00  0.00     0.227 A 
ATOM     26  N   UNL A   1      33.830  25.695  24.096  1.00  0.00    -0.145 NA
ENDBRANCH   9  10
ENDBRANCH   6   8
ENDBRANCH   5   6
ENDBRANCH   4   5
ENDBRANCH   3   4
ENDBRANCH   2   3
ENDBRANCH   1   2
BRANCH   1  27
ATOM     27  C   UNL A   1      38.641  19.579  25.165  1.00  0.00     0.261 C 
BRANCH  27  28
ATOM     28  O   UNL A   1      39.619  20.415  25.779  1.00  0.00    -0.460 OA
BRANCH  28  29
ATOM     29  C   UNL A   1      40.869  19.897  25.827  1.00  0.00     0.338 C 
ATOM     30  O   UNL A   1      41.201  18.744  25.619  1.00  0.00    -0.246 OA
BRANCH  29  31
ATOM     31  C   UNL A   1      41.746  20.900  26.453  1.00  0.00     0.060 A 
ATOM     32  C   UNL A   1      41.872  20.822  27.842  1.00  0.00     0.016 A 
ATOM     33  C   UNL A   1      42.110  22.052  25.739  1.00  0.00     0.016 A 
ATOM     34  C   UNL A   1      42.136  21.981  28.537  1.00  0.00     0.010 A 
ATOM     35  C   UNL A   1      42.348  23.213  26.434  1.00  0.00     0.010 A 
ATOM     36  C   UNL A   1      42.268  23.178  27.823  1.00  0.00    -0.014 A 
BRANCH  36  37
ATOM     37  C   UNL A   1      42.380  24.403  28.582  1.00  0.00     0.031 A 
ATOM     38  C   UNL A   1      41.320  25.383  28.271  1.00  0.00     0.074 A 
ATOM     39  C   UNL A   1      43.308  24.585  29.538  1.00  0.00     0.049 A 
ATOM     40  N   UNL A   1      41.453  26.535  27.706  1.00  0.00    -0.248 NA
ATOM     41  C   UNL A   1      39.927  24.962  28.487  1.00  0.00     0.031 C 
ATOM     42  C   UNL A   1      44.210  23.598  30.139  1.00  0.00     0.029 A 
ATOM     43  N   UNL A   1      43.554  25.706  30.265  1.00  0.00    -0.354 N 
ATOM     44  C   UNL A   1      40.170  27.059  27.630  1.00  0.00     0.074 A 
ATOM     45  C   UNL A   1      39.261  25.994  27.972  1.00  0.00     0.031 C 
ATOM     46  C   UNL A   1      44.715  24.105  31.289  1.00  0.00     0.029 A 
ATOM     47  C   UNL A   1      44.282  25.486  31.426  1.00  0.00     0.049 A 
ATOM     48  H   UNL A   1      43.241  26.598  29.993  1.00  0.00     0.167 HD
ATOM     49  C   UNL A   1      39.944  28.394  27.518  1.00  0.00     0.031 A 
ATOM     50  C   UNL A   1      44.427  26.364  32.449  1.00  0.00     0.031 A 
ATOM     51  C   UNL A   1      41.120  29.118  27.125  1.00  0.00     0.049 A 
ATOM     52  C   UNL A   1      44.081  27.712  31.937  1.00  0.00     0.074 A 
ATOM     53  C   UNL A   1      41.923  29.127  26.004  1.00  0.00     0.029 A 
ATOM     54  N   UNL A   1      41.852  29.715  28.124  1.00  0.00    -0.354 N 
ATOM     55  N   UNL A   1      44.797  28.357  31.063  1.00  0.00    -0.248 NA
ATOM     56  C   UNL A   1      42.703  28.160  32.065  1.00  0.00     0.031 C 
ATOM     57  C   UNL A   1      43.249  29.300  26.500  1.00  0.00     0.029 A 
ATOM     58  C   UNL A   1      43.175  29.442  27.887  1.00  0.00     0.049 A 
ATOM     59  H   UNL A   1      41.491  30.243  28.873  1.00  0.00     0.167 HD
ATOM     60  C   UNL A   1      43.872  28.978  30.235  1.00  0.00     0.074 A 
ATOM     61  C   UNL A   1      42.605  28.903  30.960  1.00  0.00     0.031 C 
ATOM     62  C   UNL A   1      44.161  29.238  28.926  1.00  0.00     0.031 A 
BRANCH  49  63
ATOM     63  C   UNL A   1      38.752  29.057  28.141  1.00  0.00    -0.014 A 
ATOM     64  C   UNL A   1      38.499  28.883  29.509  1.00  0.00     0.009 A 
ATOM     65  C   UNL A   1      37.727  29.643  27.368  1.00  0.00     0.009 A 
ATOM     66  C   UNL A   1      37.270  29.255  30.067  1.00  0.00     0.001 A 
ATOM     67  C   UNL A   1      36.519  30.054  27.929  1.00  0.00     0.001 A 
ATOM     68  C   UNL A   1      36.283  29.842  29.278  1.00  0.00     0.000 A 
ENDBRANCH  49  63
BRANCH  50  69
ATOM     69  C   UNL A   1      44.484  26.081  33.901  1.00  0.00    -0.014 A 
ATOM     70  C   UNL A   1      43.360  25.574  34.573  1.00  0.00     0.009 A 
ATOM     71  C   UNL A   1      45.725  26.019  34.561  1.00  0.00     0.009 A 
ATOM     72  C   UNL A   1      43.482  24.982  35.837  1.00  0.00     0.001 A 
ATOM     73  C   UNL A   1      45.846  25.430  35.825  1.00  0.00     0.001 A 
ATOM     74  C   UNL A   1      44.728  24.896  36.454  1.00  0.00     0.000 A 
ENDBRANCH  50  69
BRANCH  62  75
ATOM     75  C   UNL A   1      45.590  29.048  28.473  1.00  0.00    -0.014 A 
ATOM     76  C   UNL A   1      46.123  27.798  28.108  1.00  0.00     0.009 A 
ATOM     77  C   UNL A   1      46.379  30.189  28.270  1.00  0.00     0.009 A 
ATOM     78  C   UNL A   1      47.417  27.695  27.585  1.00  0.00     0.001 A 
ATOM     79  C   UNL A   1      47.663  30.088  27.729  1.00  0.00     0.001 A 
ATOM     80  C   UNL A   1      48.183  28.841  27.392  1.00  0.00     0.000 A 
ENDBRANCH  62  75
ENDBRANCH  36  37
ENDBRANCH  29  31
ENDBRANCH  28  29
ENDBRANCH  27  28
ENDBRANCH   1  27
TORSDOF 15
ENDMDL
