MODEL 1
REMARK VINA RESULT:      -9.8      0.000      0.000
REMARK SMILES O=C(Cc1cc(C2CC[NH+](Cc3cccs3)CC2)n[nH]1)OCCOCCOCCOC(=O)c1ccc(-c2c3nc(c(-c4ccccc4)c4ccc([nH]4)c(-c4ccccc4)c4nc(c(-c5ccccc5)c5ccc2[nH]5)C=C4)C=C3)cc1
REMARK SMILES IDX 25 1 24 2 23 3 22 4 21 5 2 6 1 7 3 8 4 9 5 10 20 11 6 12
REMARK SMILES IDX 19 13 7 15 8 16 18 17 9 18 17 19 10 20 11 22 12 23 13 24
REMARK SMILES IDX 16 25 14 26 15 27 26 28 27 29 28 30 29 31 30 32 31 33 32 34
REMARK SMILES IDX 33 35 34 36 80 37 35 38 79 39 36 40 37 41 38 42 73 43 39 44
REMARK SMILES IDX 78 45 72 46 74 47 40 48 77 49 71 50 70 51 41 53 63 54 48 55
REMARK SMILES IDX 62 56 49 57 52 58 61 59 75 60 50 61 51 62 60 64 76 65 53 66
REMARK SMILES IDX 42 67 43 68 47 69 44 70 46 71 45 72 64 73 65 74 69 75 66 76
REMARK SMILES IDX 68 77 67 78 54 79 55 80 59 81 56 82 58 83 57 84
REMARK H PARENT 20 14 10 21 74 52 52 63
REMARK Flexibility Score: inf
ROOT
ATOM      1  C   UNL A   1      44.540  19.289  24.585  1.00  0.00     0.188 C 
ENDROOT
BRANCH   1   2
ATOM      2  O   UNL A   1      43.201  19.606  24.917  1.00  0.00    -0.376 OA
BRANCH   2   3
ATOM      3  C   UNL A   1      43.027  20.716  25.779  1.00  0.00     0.202 C 
BRANCH   3   4
ATOM      4  C   UNL A   1      41.811  20.487  26.669  1.00  0.00     0.261 C 
BRANCH   4   5
ATOM      5  O   UNL A   1      40.826  21.550  26.660  1.00  0.00    -0.463 OA
BRANCH   5   6
ATOM      6  C   UNL A   1      39.581  21.525  26.141  1.00  0.00     0.311 C 
ATOM      7  O   UNL A   1      39.159  20.492  25.621  1.00  0.00    -0.252 OA
BRANCH   6   8
ATOM      8  C   UNL A   1      38.737  22.777  26.124  1.00  0.00     0.178 C 
BRANCH   8   9
ATOM      9  C   UNL A   1      37.398  22.565  25.526  1.00  0.00     0.047 A 
ATOM     10  C   UNL A   1      36.830  23.040  24.366  1.00  0.00     0.049 A 
ATOM     11  N   UNL A   1      36.433  21.805  26.126  1.00  0.00    -0.282 N 
ATOM     12  C   UNL A   1      35.482  22.618  24.409  1.00  0.00     0.066 A 
ATOM     13  N   UNL A   1      35.256  21.861  25.491  1.00  0.00    -0.180 NA
ATOM     14  H   UNL A   1      36.588  21.272  26.939  1.00  0.00     0.190 HD
BRANCH  12  15
ATOM     15  C   UNL A   1      34.337  22.943  23.485  1.00  0.00     0.051 C 
ATOM     16  C   UNL A   1      34.203  24.432  23.147  1.00  0.00     0.071 C 
ATOM     17  C   UNL A   1      33.003  22.378  23.992  1.00  0.00     0.071 C 
ATOM     18  C   UNL A   1      33.472  25.247  24.217  1.00  0.00     0.263 C 
ATOM     19  C   UNL A   1      32.359  23.250  25.070  1.00  0.00     0.263 C 
ATOM     20  N   UNL A   1      32.207  24.630  24.608  1.00  0.00    -0.330 N 
ATOM     21  H   UNL A   1      31.662  24.574  23.748  1.00  0.00     0.348 HD
BRANCH  20  22
ATOM     22  C   UNL A   1      31.402  25.461  25.521  1.00  0.00     0.310 C 
BRANCH  22  23
ATOM     23  C   UNL A   1      31.392  26.942  25.232  1.00  0.00     0.059 A 
ATOM     24  C   UNL A   1      32.071  27.960  25.878  1.00  0.00     0.021 A 
ATOM     25  S   UNL A   1      30.494  27.551  23.899  1.00  0.00    -0.143 S 
ATOM     26  C   UNL A   1      31.813  29.239  25.308  1.00  0.00     0.012 A 
ATOM     27  C   UNL A   1      30.976  29.159  24.219  1.00  0.00     0.065 A 
ENDBRANCH  22  23
ENDBRANCH  20  22
ENDBRANCH  12  15
ENDBRANCH   8   9
ENDBRANCH   6   8
ENDBRANCH   5   6
ENDBRANCH   4   5
ENDBRANCH   3   4
ENDBRANCH   2   3
ENDBRANCH   1   2
BRANCH   1  28
ATOM     28  C   UNL A   1      45.539  20.140  25.383  1.00  0.00     0.188 C 
BRANCH  28  29
ATOM     29  O   UNL A   1      46.442  20.981  24.675  1.00  0.00    -0.376 OA
BRANCH  29  30
ATOM     30  C   UNL A   1      46.225  22.389  24.676  1.00  0.00     0.202 C 
BRANCH  30  31
ATOM     31  C   UNL A   1      45.576  22.986  25.926  1.00  0.00     0.261 C 
BRANCH  31  32
ATOM     32  O   UNL A   1      45.058  24.317  25.725  1.00  0.00    -0.460 OA
BRANCH  32  33
ATOM     33  C   UNL A   1      43.762  24.369  25.334  1.00  0.00     0.338 C 
ATOM     34  O   UNL A   1      43.221  23.710  24.465  1.00  0.00    -0.246 OA
BRANCH  33  35
ATOM     35  C   UNL A   1      42.996  25.305  26.177  1.00  0.00     0.060 A 
ATOM     36  C   UNL A   1      43.523  26.584  26.398  1.00  0.00     0.016 A 
ATOM     37  C   UNL A   1      41.885  24.861  26.894  1.00  0.00     0.016 A 
ATOM     38  C   UNL A   1      42.963  27.408  27.378  1.00  0.00     0.010 A 
ATOM     39  C   UNL A   1      41.331  25.686  27.880  1.00  0.00     0.010 A 
ATOM     40  C   UNL A   1      41.894  26.946  28.157  1.00  0.00    -0.014 A 
BRANCH  40  41
ATOM     41  C   UNL A   1      41.483  27.695  29.372  1.00  0.00     0.031 A 
ATOM     42  C   UNL A   1      40.272  28.590  29.306  1.00  0.00     0.074 A 
ATOM     43  C   UNL A   1      42.162  27.582  30.527  1.00  0.00     0.049 A 
ATOM     44  N   UNL A   1      39.765  29.369  30.228  1.00  0.00    -0.248 NA
ATOM     45  C   UNL A   1      39.538  28.607  28.030  1.00  0.00     0.031 C 
ATOM     46  C   UNL A   1      43.320  26.719  30.750  1.00  0.00     0.029 A 
ATOM     47  N   UNL A   1      41.972  28.212  31.732  1.00  0.00    -0.354 N 
ATOM     48  C   UNL A   1      38.658  29.973  29.645  1.00  0.00     0.074 A 
ATOM     49  C   UNL A   1      38.581  29.488  28.283  1.00  0.00     0.031 C 
ATOM     50  C   UNL A   1      43.746  26.885  32.014  1.00  0.00     0.029 A 
ATOM     51  C   UNL A   1      42.912  27.887  32.678  1.00  0.00     0.049 A 
ATOM     52  H   UNL A   1      41.232  28.839  31.902  1.00  0.00     0.167 HD
ATOM     53  C   UNL A   1      37.780  30.850  30.189  1.00  0.00     0.031 A 
ATOM     54  C   UNL A   1      43.094  28.358  33.927  1.00  0.00     0.031 A 
ATOM     55  C   UNL A   1      37.854  31.352  31.534  1.00  0.00     0.049 A 
ATOM     56  C   UNL A   1      42.158  29.399  34.481  1.00  0.00     0.074 A 
ATOM     57  C   UNL A   1      36.998  32.232  32.174  1.00  0.00     0.029 A 
ATOM     58  N   UNL A   1      38.846  31.027  32.444  1.00  0.00    -0.354 N 
ATOM     59  N   UNL A   1      41.101  29.941  33.926  1.00  0.00    -0.248 NA
ATOM     60  C   UNL A   1      42.441  29.889  35.839  1.00  0.00     0.031 C 
ATOM     61  C   UNL A   1      37.502  32.480  33.455  1.00  0.00     0.029 A 
ATOM     62  C   UNL A   1      38.642  31.713  33.630  1.00  0.00     0.049 A 
ATOM     63  H   UNL A   1      39.587  30.402  32.273  1.00  0.00     0.167 HD
ATOM     64  C   UNL A   1      40.580  30.814  34.877  1.00  0.00     0.074 A 
ATOM     65  C   UNL A   1      41.429  30.722  36.044  1.00  0.00     0.031 C 
ATOM     66  C   UNL A   1      39.491  31.617  34.788  1.00  0.00     0.031 A 
BRANCH  53  67
ATOM     67  C   UNL A   1      36.676  31.354  29.305  1.00  0.00    -0.014 A 
ATOM     68  C   UNL A   1      36.718  32.643  28.752  1.00  0.00     0.009 A 
ATOM     69  C   UNL A   1      35.594  30.515  28.997  1.00  0.00     0.009 A 
ATOM     70  C   UNL A   1      35.680  33.093  27.932  1.00  0.00     0.001 A 
ATOM     71  C   UNL A   1      34.571  30.958  28.158  1.00  0.00     0.001 A 
ATOM     72  C   UNL A   1      34.610  32.249  27.633  1.00  0.00     0.000 A 
ENDBRANCH  53  67
BRANCH  54  73
ATOM     73  C   UNL A   1      44.236  27.873  34.744  1.00  0.00    -0.014 A 
ATOM     74  C   UNL A   1      45.497  28.480  34.642  1.00  0.00     0.009 A 
ATOM     75  C   UNL A   1      44.077  26.778  35.607  1.00  0.00     0.009 A 
ATOM     76  C   UNL A   1      46.580  27.984  35.370  1.00  0.00     0.001 A 
ATOM     77  C   UNL A   1      45.155  26.301  36.354  1.00  0.00     0.001 A 
ATOM     78  C   UNL A   1      46.408  26.898  36.228  1.00  0.00     0.000 A 
ENDBRANCH  54  73
BRANCH  66  79
ATOM     79  C   UNL A   1      39.132  32.435  35.995  1.00  0.00    -0.014 A 
ATOM     80  C   UNL A   1      38.286  31.930  36.994  1.00  0.00     0.009 A 
ATOM     81  C   UNL A   1      39.688  33.714  36.158  1.00  0.00     0.009 A 
ATOM     82  C   UNL A   1      37.983  32.701  38.119  1.00  0.00     0.001 A 
ATOM     83  C   UNL A   1      39.403  34.471  37.295  1.00  0.00     0.001 A 
ATOM     84  C   UNL A   1      38.544  33.968  38.271  1.00  0.00     0.000 A 
ENDBRANCH  66  79
ENDBRANCH  40  41
ENDBRANCH  33  35
ENDBRANCH  32  33
ENDBRANCH  31  32
ENDBRANCH  30  31
ENDBRANCH  29  30
ENDBRANCH  28  29
ENDBRANCH   1  28
TORSDOF 21
ENDMDL
MODEL 2
REMARK VINA RESULT:      -9.3      4.374      7.746
REMARK SMILES O=C(Cc1cc(C2CC[NH+](Cc3cccs3)CC2)n[nH]1)OCCOCCOCCOC(=O)c1ccc(-c2c3nc(c(-c4ccccc4)c4ccc([nH]4)c(-c4ccccc4)c4nc(c(-c5ccccc5)c5ccc2[nH]5)C=C4)C=C3)cc1
REMARK SMILES IDX 25 1 24 2 23 3 22 4 21 5 2 6 1 7 3 8 4 9 5 10 20 11 6 12
REMARK SMILES IDX 19 13 7 15 8 16 18 17 9 18 17 19 10 20 11 22 12 23 13 24
REMARK SMILES IDX 16 25 14 26 15 27 26 28 27 29 28 30 29 31 30 32 31 33 32 34
REMARK SMILES IDX 33 35 34 36 80 37 35 38 79 39 36 40 37 41 38 42 73 43 39 44
REMARK SMILES IDX 78 45 72 46 74 47 40 48 77 49 71 50 70 51 41 53 63 54 48 55
REMARK SMILES IDX 62 56 49 57 52 58 61 59 75 60 50 61 51 62 60 64 76 65 53 66
REMARK SMILES IDX 42 67 43 68 47 69 44 70 46 71 45 72 64 73 65 74 69 75 66 76
REMARK SMILES IDX 68 77 67 78 54 79 55 80 59 81 56 82 58 83 57 84
REMARK H PARENT 20 14 10 21 74 52 52 63
REMARK Flexibility Score: inf
ROOT
ATOM      1  C   UNL A   1      33.709  20.718  24.928  1.00  0.00     0.188 C 
ENDROOT
BRANCH   1   2
ATOM      2  O   UNL A   1      33.341  21.870  25.664  1.00  0.00    -0.376 OA
BRANCH   2   3
ATOM      3  C   UNL A   1      32.446  22.754  25.016  1.00  0.00     0.202 C 
BRANCH   3   4
ATOM      4  C   UNL A   1      32.614  22.638  23.506  1.00  0.00     0.261 C 
BRANCH   4   5
ATOM      5  O   UNL A   1      32.316  23.839  22.752  1.00  0.00    -0.463 OA
BRANCH   5   6
ATOM      6  C   UNL A   1      33.171  24.805  22.358  1.00  0.00     0.311 C 
ATOM      7  O   UNL A   1      34.383  24.591  22.375  1.00  0.00    -0.252 OA
BRANCH   6   8
ATOM      8  C   UNL A   1      32.652  26.170  21.972  1.00  0.00     0.178 C 
BRANCH   8   9
ATOM      9  C   UNL A   1      32.528  27.090  23.128  1.00  0.00     0.047 A 
ATOM     10  C   UNL A   1      32.689  26.886  24.479  1.00  0.00     0.049 A 
ATOM     11  N   UNL A   1      32.172  28.403  22.991  1.00  0.00    -0.282 N 
ATOM     12  C   UNL A   1      32.291  28.097  25.090  1.00  0.00     0.066 A 
ATOM     13  N   UNL A   1      31.979  29.015  24.166  1.00  0.00    -0.180 NA
ATOM     14  H   UNL A   1      32.067  28.850  22.121  1.00  0.00     0.190 HD
BRANCH  12  15
ATOM     15  C   UNL A   1      32.128  28.435  26.550  1.00  0.00     0.051 C 
ATOM     16  C   UNL A   1      31.568  29.838  26.812  1.00  0.00     0.071 C 
ATOM     17  C   UNL A   1      33.420  28.207  27.347  1.00  0.00     0.071 C 
ATOM     18  C   UNL A   1      32.621  30.946  26.750  1.00  0.00     0.263 C 
ATOM     19  C   UNL A   1      34.416  29.358  27.208  1.00  0.00     0.263 C 
ATOM     20  N   UNL A   1      33.795  30.635  27.562  1.00  0.00    -0.330 N 
ATOM     21  H   UNL A   1      33.439  30.515  28.509  1.00  0.00     0.348 HD
BRANCH  20  22
ATOM     22  C   UNL A   1      34.762  31.744  27.651  1.00  0.00     0.310 C 
BRANCH  22  23
ATOM     23  C   UNL A   1      34.359  32.904  28.528  1.00  0.00     0.059 A 
ATOM     24  C   UNL A   1      33.559  33.990  28.221  1.00  0.00     0.021 A 
ATOM     25  S   UNL A   1      34.858  32.953  30.172  1.00  0.00    -0.143 S 
ATOM     26  C   UNL A   1      33.399  34.881  29.320  1.00  0.00     0.012 A 
ATOM     27  C   UNL A   1      34.048  34.432  30.446  1.00  0.00     0.065 A 
ENDBRANCH  22  23
ENDBRANCH  20  22
ENDBRANCH  12  15
ENDBRANCH   8   9
ENDBRANCH   6   8
ENDBRANCH   5   6
ENDBRANCH   4   5
ENDBRANCH   3   4
ENDBRANCH   2   3
ENDBRANCH   1   2
BRANCH   1  28
ATOM     28  C   UNL A   1      35.214  20.431  25.040  1.00  0.00     0.188 C 
BRANCH  28  29
ATOM     29  O   UNL A   1      36.134  21.383  24.519  1.00  0.00    -0.376 OA
BRANCH  29  30
ATOM     30  C   UNL A   1      37.329  21.661  25.243  1.00  0.00     0.202 C 
BRANCH  30  31
ATOM     31  C   UNL A   1      38.471  20.653  25.098  1.00  0.00     0.261 C 
BRANCH  31  32
ATOM     32  O   UNL A   1      39.190  20.420  26.327  1.00  0.00    -0.460 OA
BRANCH  32  33
ATOM     33  C   UNL A   1      40.444  19.932  26.168  1.00  0.00     0.338 C 
ATOM     34  O   UNL A   1      40.768  18.835  25.752  1.00  0.00    -0.246 OA
BRANCH  33  35
ATOM     35  C   UNL A   1      41.452  20.959  26.489  1.00  0.00     0.060 A 
ATOM     36  C   UNL A   1      41.656  21.293  27.834  1.00  0.00     0.016 A 
ATOM     37  C   UNL A   1      42.037  21.716  25.473  1.00  0.00     0.016 A 
ATOM     38  C   UNL A   1      42.412  22.420  28.166  1.00  0.00     0.010 A 
ATOM     39  C   UNL A   1      42.787  22.849  25.808  1.00  0.00     0.010 A 
ATOM     40  C   UNL A   1      42.943  23.232  27.153  1.00  0.00    -0.014 A 
BRANCH  40  41
ATOM     41  C   UNL A   1      43.499  24.567  27.488  1.00  0.00     0.031 A 
ATOM     42  C   UNL A   1      42.562  25.661  27.933  1.00  0.00     0.074 A 
ATOM     43  C   UNL A   1      44.819  24.815  27.411  1.00  0.00     0.049 A 
ATOM     44  N   UNL A   1      42.825  26.910  28.226  1.00  0.00    -0.248 NA
ATOM     45  C   UNL A   1      41.142  25.296  28.062  1.00  0.00     0.031 C 
ATOM     46  C   UNL A   1      45.845  23.842  27.044  1.00  0.00     0.029 A 
ATOM     47  N   UNL A   1      45.517  25.977  27.634  1.00  0.00    -0.354 N 
ATOM     48  C   UNL A   1      41.605  27.481  28.570  1.00  0.00     0.074 A 
ATOM     49  C   UNL A   1      40.600  26.449  28.424  1.00  0.00     0.031 C 
ATOM     50  C   UNL A   1      47.043  24.453  27.053  1.00  0.00     0.029 A 
ATOM     51  C   UNL A   1      46.864  25.864  27.395  1.00  0.00     0.049 A 
ATOM     52  H   UNL A   1      45.091  26.812  27.935  1.00  0.00     0.167 HD
ATOM     53  C   UNL A   1      41.340  28.747  28.972  1.00  0.00     0.031 A 
ATOM     54  C   UNL A   1      47.838  26.794  27.428  1.00  0.00     0.031 A 
ATOM     55  C   UNL A   1      42.326  29.785  29.105  1.00  0.00     0.049 A 
ATOM     56  C   UNL A   1      47.506  28.217  27.792  1.00  0.00     0.074 A 
ATOM     57  C   UNL A   1      42.149  31.094  29.521  1.00  0.00     0.029 A 
ATOM     58  N   UNL A   1      43.671  29.638  28.814  1.00  0.00    -0.354 N 
ATOM     59  N   UNL A   1      46.353  28.735  28.138  1.00  0.00    -0.248 NA
ATOM     60  C   UNL A   1      48.617  29.182  27.773  1.00  0.00     0.031 C 
ATOM     61  C   UNL A   1      43.380  31.752  29.432  1.00  0.00     0.029 A 
ATOM     62  C   UNL A   1      44.332  30.839  29.011  1.00  0.00     0.049 A 
ATOM     63  H   UNL A   1      44.096  28.803  28.511  1.00  0.00     0.167 HD
ATOM     64  C   UNL A   1      46.605  30.077  28.403  1.00  0.00     0.074 A 
ATOM     65  C   UNL A   1      48.020  30.291  28.188  1.00  0.00     0.031 C 
ATOM     66  C   UNL A   1      45.739  31.045  28.794  1.00  0.00     0.031 A 
BRANCH  53  67
ATOM     67  C   UNL A   1      39.908  29.089  29.264  1.00  0.00    -0.014 A 
ATOM     68  C   UNL A   1      39.345  28.849  30.527  1.00  0.00     0.009 A 
ATOM     69  C   UNL A   1      39.120  29.690  28.270  1.00  0.00     0.009 A 
ATOM     70  C   UNL A   1      38.011  29.175  30.779  1.00  0.00     0.001 A 
ATOM     71  C   UNL A   1      37.794  30.038  28.532  1.00  0.00     0.001 A 
ATOM     72  C   UNL A   1      37.238  29.773  29.783  1.00  0.00     0.000 A 
ENDBRANCH  53  67
BRANCH  54  73
ATOM     73  C   UNL A   1      49.232  26.421  27.074  1.00  0.00    -0.014 A 
ATOM     74  C   UNL A   1      50.158  26.085  28.073  1.00  0.00     0.009 A 
ATOM     75  C   UNL A   1      49.651  26.431  25.734  1.00  0.00     0.009 A 
ATOM     76  C   UNL A   1      51.481  25.791  27.739  1.00  0.00     0.001 A 
ATOM     77  C   UNL A   1      50.968  26.111  25.401  1.00  0.00     0.001 A 
ATOM     78  C   UNL A   1      51.884  25.800  26.403  1.00  0.00     0.000 A 
ENDBRANCH  54  73
BRANCH  66  79
ATOM     79  C   UNL A   1      46.299  32.416  29.049  1.00  0.00    -0.014 A 
ATOM     80  C   UNL A   1      46.671  32.824  30.339  1.00  0.00     0.009 A 
ATOM     81  C   UNL A   1      46.501  33.294  27.973  1.00  0.00     0.009 A 
ATOM     82  C   UNL A   1      47.209  34.096  30.550  1.00  0.00     0.001 A 
ATOM     83  C   UNL A   1      47.064  34.554  28.183  1.00  0.00     0.001 A 
ATOM     84  C   UNL A   1      47.409  34.958  29.472  1.00  0.00     0.000 A 
ENDBRANCH  66  79
ENDBRANCH  40  41
ENDBRANCH  33  35
ENDBRANCH  32  33
ENDBRANCH  31  32
ENDBRANCH  30  31
ENDBRANCH  29  30
ENDBRANCH  28  29
ENDBRANCH   1  28
TORSDOF 21
ENDMDL
MODEL 3
REMARK VINA RESULT:      -9.3      4.197      8.590
REMARK SMILES O=C(Cc1cc(C2CC[NH+](Cc3cccs3)CC2)n[nH]1)OCCOCCOCCOC(=O)c1ccc(-c2c3nc(c(-c4ccccc4)c4ccc([nH]4)c(-c4ccccc4)c4nc(c(-c5ccccc5)c5ccc2[nH]5)C=C4)C=C3)cc1
REMARK SMILES IDX 25 1 24 2 23 3 22 4 21 5 2 6 1 7 3 8 4 9 5 10 20 11 6 12
REMARK SMILES IDX 19 13 7 15 8 16 18 17 9 18 17 19 10 20 11 22 12 23 13 24
REMARK SMILES IDX 16 25 14 26 15 27 26 28 27 29 28 30 29 31 30 32 31 33 32 34
REMARK SMILES IDX 33 35 34 36 80 37 35 38 79 39 36 40 37 41 38 42 73 43 39 44
REMARK SMILES IDX 78 45 72 46 74 47 40 48 77 49 71 50 70 51 41 53 63 54 48 55
REMARK SMILES IDX 62 56 49 57 52 58 61 59 75 60 50 61 51 62 60 64 76 65 53 66
REMARK SMILES IDX 42 67 43 68 47 69 44 70 46 71 45 72 64 73 65 74 69 75 66 76
REMARK SMILES IDX 68 77 67 78 54 79 55 80 59 81 56 82 58 83 57 84
REMARK H PARENT 20 14 10 21 74 52 52 63
REMARK Flexibility Score: inf
ROOT
ATOM      1  C   UNL A   1      34.269  21.192  24.934  1.00  0.00     0.188 C 
ENDROOT
BRANCH   1   2
ATOM      2  O   UNL A   1      34.352  22.531  25.385  1.00  0.00    -0.376 OA
BRANCH   2   3
ATOM      3  C   UNL A   1      33.298  23.383  24.980  1.00  0.00     0.202 C 
BRANCH   3   4
ATOM      4  C   UNL A   1      32.659  22.840  23.707  1.00  0.00     0.261 C 
BRANCH   4   5
ATOM      5  O   UNL A   1      32.189  23.842  22.771  1.00  0.00    -0.463 OA
BRANCH   5   6
ATOM      6  C   UNL A   1      32.838  24.941  22.335  1.00  0.00     0.311 C 
ATOM      7  O   UNL A   1      34.066  24.927  22.243  1.00  0.00    -0.252 OA
BRANCH   6   8
ATOM      8  C   UNL A   1      32.074  26.208  22.037  1.00  0.00     0.178 C 
BRANCH   8   9
ATOM      9  C   UNL A   1      32.043  27.149  23.182  1.00  0.00     0.047 A 
ATOM     10  C   UNL A   1      32.153  26.942  24.538  1.00  0.00     0.049 A 
ATOM     11  N   UNL A   1      31.854  28.494  23.027  1.00  0.00    -0.282 N 
ATOM     12  C   UNL A   1      31.895  28.198  25.131  1.00  0.00     0.066 A 
ATOM     13  N   UNL A   1      31.716  29.138  24.193  1.00  0.00    -0.180 NA
ATOM     14  H   UNL A   1      31.822  28.942  22.151  1.00  0.00     0.190 HD
BRANCH  12  15
ATOM     15  C   UNL A   1      31.748  28.570  26.584  1.00  0.00     0.051 C 
ATOM     16  C   UNL A   1      31.328  30.025  26.822  1.00  0.00     0.071 C 
ATOM     17  C   UNL A   1      33.000  28.224  27.402  1.00  0.00     0.071 C 
ATOM     18  C   UNL A   1      32.487  31.022  26.762  1.00  0.00     0.263 C 
ATOM     19  C   UNL A   1      34.108  29.268  27.264  1.00  0.00     0.263 C 
ATOM     20  N   UNL A   1      33.613  30.605  27.594  1.00  0.00    -0.330 N 
ATOM     21  H   UNL A   1      33.235  30.534  28.538  1.00  0.00     0.348 HD
BRANCH  20  22
ATOM     22  C   UNL A   1      34.686  31.613  27.684  1.00  0.00     0.310 C 
BRANCH  22  23
ATOM     23  C   UNL A   1      34.409  32.794  28.581  1.00  0.00     0.059 A 
ATOM     24  C   UNL A   1      33.698  33.948  28.306  1.00  0.00     0.021 A 
ATOM     25  S   UNL A   1      34.955  32.783  30.211  1.00  0.00    -0.143 S 
ATOM     26  C   UNL A   1      33.646  34.839  29.416  1.00  0.00     0.012 A 
ATOM     27  C   UNL A   1      34.284  34.323  30.520  1.00  0.00     0.065 A 
ENDBRANCH  22  23
ENDBRANCH  20  22
ENDBRANCH  12  15
ENDBRANCH   8   9
ENDBRANCH   6   8
ENDBRANCH   5   6
ENDBRANCH   4   5
ENDBRANCH   3   4
ENDBRANCH   2   3
ENDBRANCH   1   2
BRANCH   1  28
ATOM     28  C   UNL A   1      35.629  20.480  25.014  1.00  0.00     0.188 C 
BRANCH  28  29
ATOM     29  O   UNL A   1      36.780  21.145  24.509  1.00  0.00    -0.376 OA
BRANCH  29  30
ATOM     30  C   UNL A   1      37.943  21.238  25.327  1.00  0.00     0.202 C 
BRANCH  30  31
ATOM     31  C   UNL A   1      38.988  20.133  25.168  1.00  0.00     0.261 C 
BRANCH  31  32
ATOM     32  O   UNL A   1      39.769  19.904  26.359  1.00  0.00    -0.460 OA
BRANCH  32  33
ATOM     33  C   UNL A   1      41.094  19.720  26.143  1.00  0.00     0.338 C 
ATOM     34  O   UNL A   1      41.643  18.733  25.689  1.00  0.00    -0.246 OA
BRANCH  33  35
ATOM     35  C   UNL A   1      41.852  20.946  26.452  1.00  0.00     0.060 A 
ATOM     36  C   UNL A   1      41.984  21.326  27.794  1.00  0.00     0.016 A 
ATOM     37  C   UNL A   1      42.250  21.807  25.429  1.00  0.00     0.016 A 
ATOM     38  C   UNL A   1      42.474  22.594  28.115  1.00  0.00     0.010 A 
ATOM     39  C   UNL A   1      42.733  23.080  25.753  1.00  0.00     0.010 A 
ATOM     40  C   UNL A   1      42.807  23.496  27.096  1.00  0.00    -0.014 A 
BRANCH  40  41
ATOM     41  C   UNL A   1      43.057  24.924  27.420  1.00  0.00     0.031 A 
ATOM     42  C   UNL A   1      44.436  25.493  27.205  1.00  0.00     0.074 A 
ATOM     43  C   UNL A   1      42.078  25.716  27.892  1.00  0.00     0.049 A 
ATOM     44  N   UNL A   1      44.887  26.695  27.465  1.00  0.00    -0.248 NA
ATOM     45  C   UNL A   1      45.436  24.586  26.618  1.00  0.00     0.031 C 
ATOM     46  C   UNL A   1      40.690  25.314  28.104  1.00  0.00     0.029 A 
ATOM     47  N   UNL A   1      42.115  27.031  28.287  1.00  0.00    -0.354 N 
ATOM     48  C   UNL A   1      46.222  26.688  27.080  1.00  0.00     0.074 A 
ATOM     49  C   UNL A   1      46.514  25.356  26.592  1.00  0.00     0.031 C 
ATOM     50  C   UNL A   1      40.008  26.360  28.605  1.00  0.00     0.029 A 
ATOM     51  C   UNL A   1      40.919  27.492  28.777  1.00  0.00     0.049 A 
ATOM     52  H   UNL A   1      42.924  27.589  28.225  1.00  0.00     0.167 HD
ATOM     53  C   UNL A   1      47.127  27.695  27.125  1.00  0.00     0.031 A 
ATOM     54  C   UNL A   1      40.598  28.682  29.321  1.00  0.00     0.031 A 
ATOM     55  C   UNL A   1      46.855  29.016  27.622  1.00  0.00     0.049 A 
ATOM     56  C   UNL A   1      41.644  29.759  29.442  1.00  0.00     0.074 A 
ATOM     57  C   UNL A   1      47.709  30.105  27.690  1.00  0.00     0.029 A 
ATOM     58  N   UNL A   1      45.641  29.428  28.146  1.00  0.00    -0.354 N 
ATOM     59  N   UNL A   1      42.895  29.745  29.051  1.00  0.00    -0.248 NA
ATOM     60  C   UNL A   1      41.227  31.018  30.079  1.00  0.00     0.031 C 
ATOM     61  C   UNL A   1      47.025  31.160  28.304  1.00  0.00     0.029 A 
ATOM     62  C   UNL A   1      45.732  30.744  28.568  1.00  0.00     0.049 A 
ATOM     63  H   UNL A   1      44.834  28.868  28.209  1.00  0.00     0.167 HD
ATOM     64  C   UNL A   1      43.405  31.000  29.369  1.00  0.00     0.074 A 
ATOM     65  C   UNL A   1      42.328  31.752  29.975  1.00  0.00     0.031 C 
ATOM     66  C   UNL A   1      44.656  31.485  29.171  1.00  0.00     0.031 A 
BRANCH  53  67
ATOM     67  C   UNL A   1      48.518  27.390  26.651  1.00  0.00    -0.014 A 
ATOM     68  C   UNL A   1      49.511  26.953  27.542  1.00  0.00     0.009 A 
ATOM     69  C   UNL A   1      48.831  27.511  25.288  1.00  0.00     0.009 A 
ATOM     70  C   UNL A   1      50.800  26.674  27.082  1.00  0.00     0.001 A 
ATOM     71  C   UNL A   1      50.113  27.207  24.827  1.00  0.00     0.001 A 
ATOM     72  C   UNL A   1      51.098  26.797  25.724  1.00  0.00     0.000 A 
ENDBRANCH  53  67
BRANCH  54  73
ATOM     73  C   UNL A   1      39.223  28.919  29.830  1.00  0.00    -0.014 A 
ATOM     74  C   UNL A   1      38.227  29.432  28.986  1.00  0.00     0.009 A 
ATOM     75  C   UNL A   1      38.909  28.662  31.174  1.00  0.00     0.009 A 
ATOM     76  C   UNL A   1      36.951  29.706  29.484  1.00  0.00     0.001 A 
ATOM     77  C   UNL A   1      37.626  28.912  31.662  1.00  0.00     0.001 A 
ATOM     78  C   UNL A   1      36.650  29.441  30.820  1.00  0.00     0.000 A 
ENDBRANCH  54  73
BRANCH  66  79
ATOM     79  C   UNL A   1      44.922  32.906  29.582  1.00  0.00    -0.014 A 
ATOM     80  C   UNL A   1      44.790  33.965  28.671  1.00  0.00     0.009 A 
ATOM     81  C   UNL A   1      45.263  33.192  30.913  1.00  0.00     0.009 A 
ATOM     82  C   UNL A   1      45.022  35.281  29.080  1.00  0.00     0.001 A 
ATOM     83  C   UNL A   1      45.469  34.510  31.324  1.00  0.00     0.001 A 
ATOM     84  C   UNL A   1      45.357  35.553  30.406  1.00  0.00     0.000 A 
ENDBRANCH  66  79
ENDBRANCH  40  41
ENDBRANCH  33  35
ENDBRANCH  32  33
ENDBRANCH  31  32
ENDBRANCH  30  31
ENDBRANCH  29  30
ENDBRANCH  28  29
ENDBRANCH   1  28
TORSDOF 21
ENDMDL
