MODEL 1
REMARK VINA RESULT:     -10.1      0.000      0.000
REMARK SMILES O=C(C[C@H]1C[C@H]2CC[C@@H](C1)N2C(=O)[C@H]1CCCCO1)OCCOCCOCCOC(=O)c1ccc(-c2c3nc(c(-c4ccccc4)c4ccc([nH]4)c(-c4ccccc4)c4nc(c(-c5ccccc5)c5ccc2[nH]5)C=C4)C=C3)cc1
REMARK SMILES IDX 24 1 23 2 22 3 21 4 20 5 2 6 1 7 3 8 4 9 5 10 10 11 6 12
REMARK SMILES IDX 9 13 7 14 11 15 8 16 12 17 13 18 14 19 15 20 19 21 16 22
REMARK SMILES IDX 18 23 17 24 25 25 26 26 27 27 28 28 29 29 30 30 31 31 32 32
REMARK SMILES IDX 33 33 79 34 34 35 78 36 35 37 36 38 37 39 72 40 38 41 77 42
REMARK SMILES IDX 71 43 73 44 39 45 76 46 70 47 69 48 40 50 62 51 47 52 61 53
REMARK SMILES IDX 48 54 51 55 60 56 74 57 49 58 50 59 59 61 75 62 52 63 41 64
REMARK SMILES IDX 42 65 46 66 43 67 45 68 44 69 63 70 64 71 68 72 65 73 67 74
REMARK SMILES IDX 66 75 53 76 54 77 58 78 55 79 57 80 56 81
REMARK H PARENT 73 49 51 60
REMARK Flexibility Score: inf
ROOT
ATOM      1  C   UNL A   1      38.554  22.479  26.127  1.00  0.00     0.188 C 
ENDROOT
BRANCH   1   2
ATOM      2  O   UNL A   1      37.481  22.184  25.243  1.00  0.00    -0.376 OA
BRANCH   2   3
ATOM      3  C   UNL A   1      36.282  21.609  25.747  1.00  0.00     0.202 C 
BRANCH   3   4
ATOM      4  C   UNL A   1      35.605  20.473  24.981  1.00  0.00     0.261 C 
BRANCH   4   5
ATOM      5  O   UNL A   1      34.314  19.983  25.425  1.00  0.00    -0.463 OA
BRANCH   5   6
ATOM      6  C   UNL A   1      33.065  20.203  24.982  1.00  0.00     0.306 C 
ATOM      7  O   UNL A   1      32.153  19.458  25.337  1.00  0.00    -0.252 OA
BRANCH   6   8
ATOM      8  C   UNL A   1      32.779  21.364  24.068  1.00  0.00     0.126 C 
BRANCH   8   9
ATOM      9  C   UNL A   1      31.780  22.332  24.702  1.00  0.00     0.004 C 
ATOM     10  C   UNL A   1      32.332  23.011  25.988  1.00  0.00     0.029 C 
ATOM     11  C   UNL A   1      31.268  23.321  23.620  1.00  0.00     0.029 C 
ATOM     12  C   UNL A   1      32.880  24.427  25.766  1.00  0.00     0.085 C 
ATOM     13  C   UNL A   1      31.887  24.727  23.689  1.00  0.00     0.085 C 
ATOM     14  C   UNL A   1      34.045  24.431  24.772  1.00  0.00     0.027 C 
ATOM     15  N   UNL A   1      31.847  25.168  25.070  1.00  0.00    -0.334 N 
ATOM     16  C   UNL A   1      33.394  24.700  23.408  1.00  0.00     0.027 C 
BRANCH  15  17
ATOM     17  C   UNL A   1      30.949  25.988  25.727  1.00  0.00     0.252 C 
ATOM     18  O   UNL A   1      29.931  25.522  26.243  1.00  0.00    -0.272 OA
BRANCH  17  19
ATOM     19  C   UNL A   1      31.261  27.502  25.767  1.00  0.00     0.207 C 
ATOM     20  C   UNL A   1      31.803  27.865  27.151  1.00  0.00     0.042 C 
ATOM     21  O   UNL A   1      32.226  27.899  24.790  1.00  0.00    -0.368 OA
ATOM     22  C   UNL A   1      32.027  29.366  27.250  1.00  0.00     0.006 C 
ATOM     23  C   UNL A   1      32.438  29.312  24.775  1.00  0.00     0.161 C 
ATOM     24  C   UNL A   1      32.941  29.819  26.123  1.00  0.00     0.029 C 
ENDBRANCH  17  19
ENDBRANCH  15  17
ENDBRANCH   8   9
ENDBRANCH   6   8
ENDBRANCH   5   6
ENDBRANCH   4   5
ENDBRANCH   3   4
ENDBRANCH   2   3
ENDBRANCH   1   2
BRANCH   1  25
ATOM     25  C   UNL A   1      39.657  21.419  26.075  1.00  0.00     0.188 C 
BRANCH  25  26
ATOM     26  O   UNL A   1      40.476  21.333  27.236  1.00  0.00    -0.376 OA
BRANCH  26  27
ATOM     27  C   UNL A   1      41.851  21.002  27.037  1.00  0.00     0.202 C 
BRANCH  27  28
ATOM     28  C   UNL A   1      42.807  22.169  26.736  1.00  0.00     0.261 C 
BRANCH  28  29
ATOM     29  O   UNL A   1      42.603  22.806  25.453  1.00  0.00    -0.460 OA
BRANCH  29  30
ATOM     30  C   UNL A   1      43.273  23.973  25.284  1.00  0.00     0.338 C 
ATOM     31  O   UNL A   1      44.281  24.157  24.624  1.00  0.00    -0.246 OA
BRANCH  30  32
ATOM     32  C   UNL A   1      42.594  25.104  25.948  1.00  0.00     0.060 A 
ATOM     33  C   UNL A   1      43.362  26.212  26.327  1.00  0.00     0.016 A 
ATOM     34  C   UNL A   1      41.294  24.952  26.435  1.00  0.00     0.016 A 
ATOM     35  C   UNL A   1      42.856  27.134  27.248  1.00  0.00     0.010 A 
ATOM     36  C   UNL A   1      40.789  25.877  27.360  1.00  0.00     0.010 A 
ATOM     37  C   UNL A   1      41.586  26.943  27.813  1.00  0.00    -0.014 A 
BRANCH  37  38
ATOM     38  C   UNL A   1      41.176  27.758  28.989  1.00  0.00     0.031 A 
ATOM     39  C   UNL A   1      41.917  27.608  30.295  1.00  0.00     0.074 A 
ATOM     40  C   UNL A   1      40.185  28.664  28.899  1.00  0.00     0.049 A 
ATOM     41  N   UNL A   1      41.747  28.251  31.423  1.00  0.00    -0.248 NA
ATOM     42  C   UNL A   1      42.992  26.603  30.330  1.00  0.00     0.031 C 
ATOM     43  C   UNL A   1      39.397  28.939  27.701  1.00  0.00     0.029 A 
ATOM     44  N   UNL A   1      39.676  29.522  29.844  1.00  0.00    -0.354 N 
ATOM     45  C   UNL A   1      42.699  27.741  32.298  1.00  0.00     0.074 A 
ATOM     46  C   UNL A   1      43.416  26.707  31.582  1.00  0.00     0.031 C 
ATOM     47  C   UNL A   1      38.497  29.896  27.984  1.00  0.00     0.029 A 
ATOM     48  C   UNL A   1      38.636  30.290  29.386  1.00  0.00     0.049 A 
ATOM     49  H   UNL A   1      40.024  29.579  30.763  1.00  0.00     0.167 HD
ATOM     50  C   UNL A   1      42.967  28.104  33.576  1.00  0.00     0.031 A 
ATOM     51  C   UNL A   1      37.874  31.202  30.019  1.00  0.00     0.031 A 
ATOM     52  C   UNL A   1      42.252  29.111  34.313  1.00  0.00     0.049 A 
ATOM     53  C   UNL A   1      38.147  31.543  31.459  1.00  0.00     0.074 A 
ATOM     54  C   UNL A   1      42.462  29.541  35.614  1.00  0.00     0.029 A 
ATOM     55  N   UNL A   1      41.186  29.843  33.820  1.00  0.00    -0.354 N 
ATOM     56  N   UNL A   1      39.074  31.075  32.258  1.00  0.00    -0.248 NA
ATOM     57  C   UNL A   1      37.275  32.554  32.077  1.00  0.00     0.031 C 
ATOM     58  C   UNL A   1      41.495  30.505  35.920  1.00  0.00     0.029 A 
ATOM     59  C   UNL A   1      40.714  30.708  34.794  1.00  0.00     0.049 A 
ATOM     60  H   UNL A   1      40.816  29.761  32.911  1.00  0.00     0.167 HD
ATOM     61  C   UNL A   1      38.912  31.750  33.463  1.00  0.00     0.074 A 
ATOM     62  C   UNL A   1      37.810  32.672  33.284  1.00  0.00     0.031 C 
ATOM     63  C   UNL A   1      39.615  31.618  34.614  1.00  0.00     0.031 A 
BRANCH  50  64
ATOM     64  C   UNL A   1      44.090  27.387  34.271  1.00  0.00    -0.014 A 
ATOM     65  C   UNL A   1      45.398  27.898  34.240  1.00  0.00     0.009 A 
ATOM     66  C   UNL A   1      43.834  26.213  34.994  1.00  0.00     0.009 A 
ATOM     67  C   UNL A   1      46.432  27.232  34.900  1.00  0.00     0.001 A 
ATOM     68  C   UNL A   1      44.866  25.561  35.671  1.00  0.00     0.001 A 
ATOM     69  C   UNL A   1      46.164  26.066  35.617  1.00  0.00     0.000 A 
ENDBRANCH  50  64
BRANCH  51  70
ATOM     70  C   UNL A   1      36.758  31.866  29.299  1.00  0.00    -0.014 A 
ATOM     71  C   UNL A   1      36.959  33.078  28.622  1.00  0.00     0.009 A 
ATOM     72  C   UNL A   1      35.473  31.299  29.314  1.00  0.00     0.009 A 
ATOM     73  C   UNL A   1      35.890  33.725  28.000  1.00  0.00     0.001 A 
ATOM     74  C   UNL A   1      34.412  31.936  28.668  1.00  0.00     0.001 A 
ATOM     75  C   UNL A   1      34.619  33.153  28.021  1.00  0.00     0.000 A 
ENDBRANCH  51  70
BRANCH  63  76
ATOM     76  C   UNL A   1      39.231  32.509  35.761  1.00  0.00    -0.014 A 
ATOM     77  C   UNL A   1      38.350  32.068  36.762  1.00  0.00     0.009 A 
ATOM     78  C   UNL A   1      39.773  33.800  35.855  1.00  0.00     0.009 A 
ATOM     79  C   UNL A   1      37.992  32.917  37.812  1.00  0.00     0.001 A 
ATOM     80  C   UNL A   1      39.432  34.638  36.919  1.00  0.00     0.001 A 
ATOM     81  C   UNL A   1      38.535  34.198  37.891  1.00  0.00     0.000 A 
ENDBRANCH  63  76
ENDBRANCH  37  38
ENDBRANCH  30  32
ENDBRANCH  29  30
ENDBRANCH  28  29
ENDBRANCH  27  28
ENDBRANCH  26  27
ENDBRANCH  25  26
ENDBRANCH   1  25
TORSDOF 20
ENDMDL
MODEL 2
REMARK VINA RESULT:      -9.7      1.700      6.146
REMARK SMILES O=C(C[C@H]1C[C@H]2CC[C@@H](C1)N2C(=O)[C@H]1CCCCO1)OCCOCCOCCOC(=O)c1ccc(-c2c3nc(c(-c4ccccc4)c4ccc([nH]4)c(-c4ccccc4)c4nc(c(-c5ccccc5)c5ccc2[nH]5)C=C4)C=C3)cc1
REMARK SMILES IDX 24 1 23 2 22 3 21 4 20 5 2 6 1 7 3 8 4 9 5 10 10 11 6 12
REMARK SMILES IDX 9 13 7 14 11 15 8 16 12 17 13 18 14 19 15 20 19 21 16 22
REMARK SMILES IDX 18 23 17 24 25 25 26 26 27 27 28 28 29 29 30 30 31 31 32 32
REMARK SMILES IDX 33 33 79 34 34 35 78 36 35 37 36 38 37 39 72 40 38 41 77 42
REMARK SMILES IDX 71 43 73 44 39 45 76 46 70 47 69 48 40 50 62 51 47 52 61 53
REMARK SMILES IDX 48 54 51 55 60 56 74 57 49 58 50 59 59 61 75 62 52 63 41 64
REMARK SMILES IDX 42 65 46 66 43 67 45 68 44 69 63 70 64 71 68 72 65 73 67 74
REMARK SMILES IDX 66 75 53 76 54 77 58 78 55 79 57 80 56 81
REMARK H PARENT 73 49 51 60
REMARK Flexibility Score: inf
ROOT
ATOM      1  C   UNL A   1      40.512  20.457  26.462  1.00  0.00     0.188 C 
ENDROOT
BRANCH   1   2
ATOM      2  O   UNL A   1      39.552  21.459  26.766  1.00  0.00    -0.376 OA
BRANCH   2   3
ATOM      3  C   UNL A   1      38.565  21.813  25.805  1.00  0.00     0.202 C 
BRANCH   3   4
ATOM      4  C   UNL A   1      38.003  23.234  25.783  1.00  0.00     0.261 C 
BRANCH   4   5
ATOM      5  O   UNL A   1      36.924  23.561  24.870  1.00  0.00    -0.463 OA
BRANCH   5   6
ATOM      6  C   UNL A   1      35.610  23.766  25.063  1.00  0.00     0.306 C 
ATOM      7  O   UNL A   1      35.116  23.548  26.168  1.00  0.00    -0.252 OA
BRANCH   6   8
ATOM      8  C   UNL A   1      34.749  24.273  23.938  1.00  0.00     0.126 C 
BRANCH   8   9
ATOM      9  C   UNL A   1      33.364  24.680  24.442  1.00  0.00     0.004 C 
ATOM     10  C   UNL A   1      33.266  26.196  24.774  1.00  0.00     0.029 C 
ATOM     11  C   UNL A   1      32.287  24.166  23.450  1.00  0.00     0.029 C 
ATOM     12  C   UNL A   1      32.619  27.041  23.669  1.00  0.00     0.085 C 
ATOM     13  C   UNL A   1      31.698  25.244  22.524  1.00  0.00     0.085 C 
ATOM     14  C   UNL A   1      33.411  26.962  22.362  1.00  0.00     0.027 C 
ATOM     15  N   UNL A   1      31.363  26.398  23.335  1.00  0.00    -0.334 N 
ATOM     16  C   UNL A   1      32.756  25.818  21.575  1.00  0.00     0.027 C 
BRANCH  15  17
ATOM     17  C   UNL A   1      30.156  26.799  23.876  1.00  0.00     0.252 C 
ATOM     18  O   UNL A   1      29.686  26.226  24.861  1.00  0.00    -0.272 OA
BRANCH  17  19
ATOM     19  C   UNL A   1      29.417  27.968  23.185  1.00  0.00     0.207 C 
ATOM     20  C   UNL A   1      27.939  27.929  23.579  1.00  0.00     0.042 C 
ATOM     21  O   UNL A   1      29.943  29.249  23.542  1.00  0.00    -0.368 OA
ATOM     22  C   UNL A   1      27.169  29.010  22.836  1.00  0.00     0.006 C 
ATOM     23  C   UNL A   1      29.313  30.315  22.828  1.00  0.00     0.161 C 
ATOM     24  C   UNL A   1      27.812  30.363  23.098  1.00  0.00     0.029 C 
ENDBRANCH  17  19
ENDBRANCH  15  17
ENDBRANCH   8   9
ENDBRANCH   6   8
ENDBRANCH   5   6
ENDBRANCH   4   5
ENDBRANCH   3   4
ENDBRANCH   2   3
ENDBRANCH   1   2
BRANCH   1  25
ATOM     25  C   UNL A   1      41.875  20.746  27.097  1.00  0.00     0.188 C 
BRANCH  25  26
ATOM     26  O   UNL A   1      42.991  20.641  26.220  1.00  0.00    -0.376 OA
BRANCH  26  27
ATOM     27  C   UNL A   1      43.800  21.808  26.057  1.00  0.00     0.202 C 
BRANCH  27  28
ATOM     28  C   UNL A   1      43.321  22.844  25.026  1.00  0.00     0.261 C 
BRANCH  28  29
ATOM     29  O   UNL A   1      42.409  23.840  25.543  1.00  0.00    -0.460 OA
BRANCH  29  30
ATOM     30  C   UNL A   1      42.823  25.123  25.395  1.00  0.00     0.338 C 
ATOM     31  O   UNL A   1      43.674  25.540  24.628  1.00  0.00    -0.246 OA
BRANCH  30  32
ATOM     32  C   UNL A   1      42.053  26.056  26.240  1.00  0.00     0.060 A 
ATOM     33  C   UNL A   1      42.435  27.404  26.263  1.00  0.00     0.016 A 
ATOM     34  C   UNL A   1      41.163  25.563  27.197  1.00  0.00     0.016 A 
ATOM     35  C   UNL A   1      41.980  28.243  27.285  1.00  0.00     0.010 A 
ATOM     36  C   UNL A   1      40.710  26.407  28.222  1.00  0.00     0.010 A 
ATOM     37  C   UNL A   1      41.158  27.737  28.303  1.00  0.00    -0.014 A 
BRANCH  37  38
ATOM     38  C   UNL A   1      40.916  28.551  29.524  1.00  0.00     0.031 A 
ATOM     39  C   UNL A   1      39.791  29.557  29.539  1.00  0.00     0.074 A 
ATOM     40  C   UNL A   1      41.652  28.376  30.637  1.00  0.00     0.049 A 
ATOM     41  N   UNL A   1      39.386  30.333  30.514  1.00  0.00    -0.248 NA
ATOM     42  C   UNL A   1      39.020  29.701  28.294  1.00  0.00     0.031 C 
ATOM     43  C   UNL A   1      42.753  27.428  30.782  1.00  0.00     0.029 A 
ATOM     44  N   UNL A   1      41.577  28.998  31.860  1.00  0.00    -0.354 N 
ATOM     45  C   UNL A   1      38.308  31.048  30.006  1.00  0.00     0.074 A 
ATOM     46  C   UNL A   1      38.147  30.642  28.625  1.00  0.00     0.031 C 
ATOM     47  C   UNL A   1      43.258  27.535  32.024  1.00  0.00     0.029 A 
ATOM     48  C   UNL A   1      42.525  28.568  32.754  1.00  0.00     0.049 A 
ATOM     49  H   UNL A   1      40.907  29.687  32.074  1.00  0.00     0.167 HD
ATOM     50  C   UNL A   1      37.511  31.951  30.628  1.00  0.00     0.031 A 
ATOM     51  C   UNL A   1      42.782  28.963  34.016  1.00  0.00     0.031 A 
ATOM     52  C   UNL A   1      37.667  32.386  31.990  1.00  0.00     0.049 A 
ATOM     53  C   UNL A   1      41.925  30.015  34.667  1.00  0.00     0.074 A 
ATOM     54  C   UNL A   1      36.901  33.297  32.699  1.00  0.00     0.029 A 
ATOM     55  N   UNL A   1      38.659  31.947  32.851  1.00  0.00    -0.354 N 
ATOM     56  N   UNL A   1      40.888  30.653  34.182  1.00  0.00    -0.248 NA
ATOM     57  C   UNL A   1      42.267  30.386  36.049  1.00  0.00     0.031 C 
ATOM     58  C   UNL A   1      37.455  33.439  33.976  1.00  0.00     0.029 A 
ATOM     59  C   UNL A   1      38.538  32.581  34.076  1.00  0.00     0.049 A 
ATOM     60  H   UNL A   1      39.350  31.283  32.625  1.00  0.00     0.167 HD
ATOM     61  C   UNL A   1      40.441  31.482  35.205  1.00  0.00     0.074 A 
ATOM     62  C   UNL A   1      41.308  31.253  36.342  1.00  0.00     0.031 C 
ATOM     63  C   UNL A   1      39.404  32.354  35.202  1.00  0.00     0.031 A 
BRANCH  50  64
ATOM     64  C   UNL A   1      36.389  32.544  29.824  1.00  0.00    -0.014 A 
ATOM     65  C   UNL A   1      35.100  31.988  29.867  1.00  0.00     0.009 A 
ATOM     66  C   UNL A   1      36.611  33.691  29.048  1.00  0.00     0.009 A 
ATOM     67  C   UNL A   1      34.062  32.556  29.126  1.00  0.00     0.001 A 
ATOM     68  C   UNL A   1      35.566  34.269  28.325  1.00  0.00     0.001 A 
ATOM     69  C   UNL A   1      34.295  33.697  28.359  1.00  0.00     0.000 A 
ENDBRANCH  50  64
BRANCH  51  70
ATOM     70  C   UNL A   1      43.919  28.366  34.763  1.00  0.00    -0.014 A 
ATOM     71  C   UNL A   1      45.207  28.914  34.669  1.00  0.00     0.009 A 
ATOM     72  C   UNL A   1      43.721  27.220  35.550  1.00  0.00     0.009 A 
ATOM     73  C   UNL A   1      46.280  28.310  35.326  1.00  0.00     0.001 A 
ATOM     74  C   UNL A   1      44.793  26.634  36.226  1.00  0.00     0.001 A 
ATOM     75  C   UNL A   1      46.072  27.173  36.106  1.00  0.00     0.000 A 
ENDBRANCH  51  70
BRANCH  63  76
ATOM     76  C   UNL A   1      39.134  33.107  36.474  1.00  0.00    -0.014 A 
ATOM     77  C   UNL A   1      38.322  32.565  37.482  1.00  0.00     0.009 A 
ATOM     78  C   UNL A   1      39.717  34.367  36.677  1.00  0.00     0.009 A 
ATOM     79  C   UNL A   1      38.070  33.286  38.652  1.00  0.00     0.001 A 
ATOM     80  C   UNL A   1      39.483  35.077  37.856  1.00  0.00     0.001 A 
ATOM     81  C   UNL A   1      38.652  34.539  38.838  1.00  0.00     0.000 A 
ENDBRANCH  63  76
ENDBRANCH  37  38
ENDBRANCH  30  32
ENDBRANCH  29  30
ENDBRANCH  28  29
ENDBRANCH  27  28
ENDBRANCH  26  27
ENDBRANCH  25  26
ENDBRANCH   1  25
TORSDOF 20
ENDMDL
MODEL 3
REMARK VINA RESULT:      -9.7      1.457      2.217
REMARK SMILES O=C(C[C@H]1C[C@H]2CC[C@@H](C1)N2C(=O)[C@H]1CCCCO1)OCCOCCOCCOC(=O)c1ccc(-c2c3nc(c(-c4ccccc4)c4ccc([nH]4)c(-c4ccccc4)c4nc(c(-c5ccccc5)c5ccc2[nH]5)C=C4)C=C3)cc1
REMARK SMILES IDX 24 1 23 2 22 3 21 4 20 5 2 6 1 7 3 8 4 9 5 10 10 11 6 12
REMARK SMILES IDX 9 13 7 14 11 15 8 16 12 17 13 18 14 19 15 20 19 21 16 22
REMARK SMILES IDX 18 23 17 24 25 25 26 26 27 27 28 28 29 29 30 30 31 31 32 32
REMARK SMILES IDX 33 33 79 34 34 35 78 36 35 37 36 38 37 39 72 40 38 41 77 42
REMARK SMILES IDX 71 43 73 44 39 45 76 46 70 47 69 48 40 50 62 51 47 52 61 53
REMARK SMILES IDX 48 54 51 55 60 56 74 57 49 58 50 59 59 61 75 62 52 63 41 64
REMARK SMILES IDX 42 65 46 66 43 67 45 68 44 69 63 70 64 71 68 72 65 73 67 74
REMARK SMILES IDX 66 75 53 76 54 77 58 78 55 79 57 80 56 81
REMARK H PARENT 73 49 51 60
REMARK Flexibility Score: inf
ROOT
ATOM      1  C   UNL A   1      36.745  21.692  25.608  1.00  0.00     0.188 C 
ENDROOT
BRANCH   1   2
ATOM      2  O   UNL A   1      36.114  20.452  25.324  1.00  0.00    -0.376 OA
BRANCH   2   3
ATOM      3  C   UNL A   1      34.746  20.422  24.935  1.00  0.00     0.202 C 
BRANCH   3   4
ATOM      4  C   UNL A   1      33.857  21.637  25.196  1.00  0.00     0.261 C 
BRANCH   4   5
ATOM      5  O   UNL A   1      32.434  21.552  24.923  1.00  0.00    -0.463 OA
BRANCH   5   6
ATOM      6  C   UNL A   1      31.417  22.395  25.168  1.00  0.00     0.306 C 
ATOM      7  O   UNL A   1      30.801  22.314  26.229  1.00  0.00    -0.252 OA
BRANCH   6   8
ATOM      8  C   UNL A   1      31.043  23.444  24.156  1.00  0.00     0.126 C 
BRANCH   8   9
ATOM      9  C   UNL A   1      31.945  24.674  24.275  1.00  0.00     0.004 C 
ATOM     10  C   UNL A   1      31.928  25.559  22.997  1.00  0.00     0.029 C 
ATOM     11  C   UNL A   1      31.606  25.430  25.588  1.00  0.00     0.029 C 
ATOM     12  C   UNL A   1      31.005  26.782  23.091  1.00  0.00     0.085 C 
ATOM     13  C   UNL A   1      30.767  26.705  25.398  1.00  0.00     0.085 C 
ATOM     14  C   UNL A   1      29.548  26.372  23.320  1.00  0.00     0.027 C 
ATOM     15  N   UNL A   1      31.354  27.472  24.317  1.00  0.00    -0.334 N 
ATOM     16  C   UNL A   1      29.372  26.390  24.845  1.00  0.00     0.027 C 
BRANCH  15  17
ATOM     17  C   UNL A   1      32.219  28.550  24.343  1.00  0.00     0.252 C 
ATOM     18  O   UNL A   1      32.570  29.102  23.298  1.00  0.00    -0.272 OA
BRANCH  17  19
ATOM     19  C   UNL A   1      32.741  29.013  25.723  1.00  0.00     0.207 C 
ATOM     20  C   UNL A   1      34.204  28.591  25.871  1.00  0.00     0.042 C 
ATOM     21  O   UNL A   1      32.662  30.429  25.902  1.00  0.00    -0.368 OA
ATOM     22  C   UNL A   1      34.714  28.948  27.259  1.00  0.00     0.006 C 
ATOM     23  C   UNL A   1      33.061  30.835  27.213  1.00  0.00     0.161 C 
ATOM     24  C   UNL A   1      34.501  30.433  27.513  1.00  0.00     0.029 C 
ENDBRANCH  17  19
ENDBRANCH  15  17
ENDBRANCH   8   9
ENDBRANCH   6   8
ENDBRANCH   5   6
ENDBRANCH   4   5
ENDBRANCH   3   4
ENDBRANCH   2   3
ENDBRANCH   1   2
BRANCH   1  25
ATOM     25  C   UNL A   1      38.252  21.652  25.343  1.00  0.00     0.188 C 
BRANCH  25  26
ATOM     26  O   UNL A   1      39.062  22.296  26.320  1.00  0.00    -0.376 OA
BRANCH  26  27
ATOM     27  C   UNL A   1      40.190  21.569  26.809  1.00  0.00     0.202 C 
BRANCH  27  28
ATOM     28  C   UNL A   1      41.568  21.979  26.262  1.00  0.00     0.261 C 
BRANCH  28  29
ATOM     29  O   UNL A   1      42.179  23.104  26.935  1.00  0.00    -0.460 OA
BRANCH  29  30
ATOM     30  C   UNL A   1      42.263  24.235  26.192  1.00  0.00     0.338 C 
ATOM     31  O   UNL A   1      42.744  24.352  25.078  1.00  0.00    -0.246 OA
BRANCH  30  32
ATOM     32  C   UNL A   1      41.610  25.383  26.852  1.00  0.00     0.060 A 
ATOM     33  C   UNL A   1      42.201  26.647  26.727  1.00  0.00     0.016 A 
ATOM     34  C   UNL A   1      40.606  25.168  27.798  1.00  0.00     0.016 A 
ATOM     35  C   UNL A   1      41.836  27.680  27.597  1.00  0.00     0.010 A 
ATOM     36  C   UNL A   1      40.243  26.205  28.670  1.00  0.00     0.010 A 
ATOM     37  C   UNL A   1      40.894  27.451  28.610  1.00  0.00    -0.014 A 
BRANCH  37  38
ATOM     38  C   UNL A   1      40.724  28.454  29.695  1.00  0.00     0.031 A 
ATOM     39  C   UNL A   1      41.678  28.457  30.864  1.00  0.00     0.074 A 
ATOM     40  C   UNL A   1      39.764  29.395  29.633  1.00  0.00     0.049 A 
ATOM     41  N   UNL A   1      41.731  29.270  31.890  1.00  0.00    -0.248 NA
ATOM     42  C   UNL A   1      42.709  27.406  30.876  1.00  0.00     0.031 C 
ATOM     43  C   UNL A   1      38.786  29.534  28.557  1.00  0.00     0.029 A 
ATOM     44  N   UNL A   1      39.457  30.412  30.503  1.00  0.00    -0.354 N 
ATOM     45  C   UNL A   1      42.805  28.840  32.661  1.00  0.00     0.074 A 
ATOM     46  C   UNL A   1      43.350  27.670  32.006  1.00  0.00     0.031 C 
ATOM     47  C   UNL A   1      37.982  30.575  28.834  1.00  0.00     0.029 A 
ATOM     48  C   UNL A   1      38.378  31.164  30.112  1.00  0.00     0.049 A 
ATOM     49  H   UNL A   1      39.963  30.585  31.330  1.00  0.00     0.167 HD
ATOM     50  C   UNL A   1      43.306  29.373  33.802  1.00  0.00     0.031 A 
ATOM     51  C   UNL A   1      37.771  32.205  30.713  1.00  0.00     0.031 A 
ATOM     52  C   UNL A   1      42.765  30.520  34.481  1.00  0.00     0.049 A 
ATOM     53  C   UNL A   1      38.304  32.740  32.015  1.00  0.00     0.074 A 
ATOM     54  C   UNL A   1      43.215  31.125  35.644  1.00  0.00     0.029 A 
ATOM     55  N   UNL A   1      41.653  31.232  34.066  1.00  0.00    -0.354 N 
ATOM     56  N   UNL A   1      39.341  32.342  32.710  1.00  0.00    -0.248 NA
ATOM     57  C   UNL A   1      37.588  33.882  32.605  1.00  0.00     0.031 C 
ATOM     58  C   UNL A   1      42.348  32.180  35.953  1.00  0.00     0.029 A 
ATOM     59  C   UNL A   1      41.389  32.259  34.958  1.00  0.00     0.049 A 
ATOM     60  H   UNL A   1      41.127  31.038  33.257  1.00  0.00     0.167 HD
ATOM     61  C   UNL A   1      39.416  33.197  33.803  1.00  0.00     0.074 A 
ATOM     62  C   UNL A   1      38.330  34.146  33.670  1.00  0.00     0.031 C 
ATOM     63  C   UNL A   1      40.306  33.197  34.825  1.00  0.00     0.031 A 
BRANCH  50  64
ATOM     64  C   UNL A   1      44.509  28.702  34.400  1.00  0.00    -0.014 A 
ATOM     65  C   UNL A   1      44.365  27.615  35.277  1.00  0.00     0.009 A 
ATOM     66  C   UNL A   1      45.798  29.134  34.056  1.00  0.00     0.009 A 
ATOM     67  C   UNL A   1      45.491  26.990  35.817  1.00  0.00     0.001 A 
ATOM     68  C   UNL A   1      46.922  28.494  34.581  1.00  0.00     0.001 A 
ATOM     69  C   UNL A   1      46.768  27.428  35.466  1.00  0.00     0.000 A 
ENDBRANCH  50  64
BRANCH  51  70
ATOM     70  C   UNL A   1      36.567  32.819  30.097  1.00  0.00    -0.014 A 
ATOM     71  C   UNL A   1      36.691  33.766  29.069  1.00  0.00     0.009 A 
ATOM     72  C   UNL A   1      35.286  32.479  30.560  1.00  0.00     0.009 A 
ATOM     73  C   UNL A   1      35.556  34.383  28.538  1.00  0.00     0.001 A 
ATOM     74  C   UNL A   1      34.152  33.079  30.009  1.00  0.00     0.001 A 
ATOM     75  C   UNL A   1      34.289  34.037  29.006  1.00  0.00     0.000 A 
ENDBRANCH  51  70
BRANCH  63  76
ATOM     76  C   UNL A   1      40.159  34.270  35.866  1.00  0.00    -0.014 A 
ATOM     77  C   UNL A   1      39.422  34.049  37.040  1.00  0.00     0.009 A 
ATOM     78  C   UNL A   1      40.784  35.513  35.681  1.00  0.00     0.009 A 
ATOM     79  C   UNL A   1      39.284  35.065  37.990  1.00  0.00     0.001 A 
ATOM     80  C   UNL A   1      40.664  36.518  36.642  1.00  0.00     0.001 A 
ATOM     81  C   UNL A   1      39.906  36.296  37.791  1.00  0.00     0.000 A 
ENDBRANCH  63  76
ENDBRANCH  37  38
ENDBRANCH  30  32
ENDBRANCH  29  30
ENDBRANCH  28  29
ENDBRANCH  27  28
ENDBRANCH  26  27
ENDBRANCH  25  26
ENDBRANCH   1  25
TORSDOF 20
ENDMDL
