MODEL 1
REMARK VINA RESULT:     -11.1      0.000      0.000
REMARK SMILES CS(=O)(=O)c1ccc(C2=NN(c3ccc(C(=O)OCCOCCOCCOC(=O)c4ccc(-c5c6nc(c(-c7ccccc7)c7ccc([nH]7)c(-c7ccccc7)c7nc(c(-c8ccccc8)c8ccc5[nH]8)C=C7)C=C6)cc4)cc3)[C@H](c3ccccc3)C2)cc1
REMARK SMILES IDX 22 1 21 2 20 3 19 4 18 5 16 6 17 7 15 8 12 9 13 10 79 11
REMARK SMILES IDX 14 12 78 13 11 14 9 15 10 16 87 17 80 18 8 19 5 20 6 21
REMARK SMILES IDX 89 22 7 23 88 24 2 25 1 26 3 27 4 28 81 29 82 30 86 31 83 32
REMARK SMILES IDX 85 33 84 34 23 35 24 36 25 37 26 38 27 39 28 40 29 41 30 42
REMARK SMILES IDX 31 43 77 44 32 45 76 46 33 47 34 48 35 49 70 50 36 51 75 52
REMARK SMILES IDX 69 53 71 54 37 55 74 56 68 57 67 58 38 60 60 61 45 62 59 63
REMARK SMILES IDX 46 64 49 65 58 66 72 67 47 68 48 69 57 71 73 72 50 73 39 74
REMARK SMILES IDX 40 75 44 76 41 77 43 78 42 79 61 80 62 81 66 82 63 83 65 84
REMARK SMILES IDX 64 85 51 86 52 87 56 88 53 89 55 90 54 91
REMARK H PARENT 71 59 49 70
REMARK Flexibility Score: inf
ROOT
ATOM      1  C   UNL A   1      42.177  19.869  25.841  1.00  0.00     0.188 C 
ENDROOT
BRANCH   1   2
ATOM      2  O   UNL A   1      41.981  20.477  27.113  1.00  0.00    -0.376 OA
BRANCH   2   3
ATOM      3  C   UNL A   1      41.641  21.856  27.197  1.00  0.00     0.202 C 
BRANCH   3   4
ATOM      4  C   UNL A   1      40.177  22.279  27.390  1.00  0.00     0.261 C 
BRANCH   4   5
ATOM      5  O   UNL A   1      39.509  22.683  26.185  1.00  0.00    -0.460 OA
BRANCH   5   6
ATOM      6  C   UNL A   1      38.668  21.767  25.645  1.00  0.00     0.338 C 
ATOM      7  O   UNL A   1      38.814  20.555  25.643  1.00  0.00    -0.246 OA
BRANCH   6   8
ATOM      8  C   UNL A   1      37.428  22.420  25.155  1.00  0.00     0.060 A 
ATOM      9  C   UNL A   1      34.958  23.534  24.417  1.00  0.00     0.060 A 
ATOM     10  C   UNL A   1      35.530  23.849  25.653  1.00  0.00     0.029 A 
ATOM     11  C   UNL A   1      35.701  22.768  23.506  1.00  0.00     0.029 A 
ATOM     12  C   UNL A   1      36.756  23.289  26.024  1.00  0.00     0.018 A 
ATOM     13  C   UNL A   1      36.921  22.194  23.873  1.00  0.00     0.018 A 
BRANCH   9  14
ATOM     14  N   UNL A   1      33.608  23.787  24.154  1.00  0.00    -0.257 N 
ATOM     15  C   UNL A   1      31.932  25.103  24.162  1.00  0.00     0.071 C 
ATOM     16  N   UNL A   1      33.180  25.031  23.813  1.00  0.00    -0.176 NA
ATOM     17  C   UNL A   1      31.403  23.934  24.948  1.00  0.00     0.091 C 
ATOM     18  C   UNL A   1      32.598  22.978  24.862  1.00  0.00     0.144 C 
BRANCH  15  19
ATOM     19  C   UNL A   1      31.060  26.241  23.810  1.00  0.00    -0.002 A 
ATOM     20  C   UNL A   1      29.340  28.347  23.184  1.00  0.00     0.067 A 
ATOM     21  C   UNL A   1      28.813  27.120  23.600  1.00  0.00     0.021 A 
ATOM     22  C   UNL A   1      30.723  28.527  23.078  1.00  0.00     0.021 A 
ATOM     23  C   UNL A   1      29.675  26.064  23.900  1.00  0.00     0.011 A 
ATOM     24  C   UNL A   1      31.587  27.473  23.407  1.00  0.00     0.011 A 
BRANCH  20  25
ATOM     25  S   UNL A   1      28.223  29.662  22.745  1.00  0.00     0.175 S 
ATOM     26  C   UNL A   1      28.818  31.102  23.589  1.00  0.00     0.163 C 
ATOM     27  O   UNL A   1      26.930  29.340  23.322  1.00  0.00    -0.224 OA
ATOM     28  O   UNL A   1      28.377  29.876  21.320  1.00  0.00    -0.224 OA
ENDBRANCH  20  25
ENDBRANCH  15  19
BRANCH  18  29
ATOM     29  C   UNL A   1      32.403  21.640  24.159  1.00  0.00    -0.023 A 
ATOM     30  C   UNL A   1      32.101  21.510  22.797  1.00  0.00     0.006 A 
ATOM     31  C   UNL A   1      32.628  20.458  24.896  1.00  0.00     0.006 A 
ATOM     32  C   UNL A   1      32.043  20.247  22.195  1.00  0.00     0.000 A 
ATOM     33  C   UNL A   1      32.620  19.204  24.285  1.00  0.00     0.000 A 
ATOM     34  C   UNL A   1      32.323  19.099  22.932  1.00  0.00     0.000 A 
ENDBRANCH  18  29
ENDBRANCH   9  14
ENDBRANCH   6   8
ENDBRANCH   5   6
ENDBRANCH   4   5
ENDBRANCH   3   4
ENDBRANCH   2   3
ENDBRANCH   1   2
BRANCH   1  35
ATOM     35  C   UNL A   1      43.596  19.753  25.245  1.00  0.00     0.188 C 
BRANCH  35  36
ATOM     36  O   UNL A   1      44.415  20.877  25.451  1.00  0.00    -0.376 OA
BRANCH  36  37
ATOM     37  C   UNL A   1      44.836  21.658  24.347  1.00  0.00     0.202 C 
BRANCH  37  38
ATOM     38  C   UNL A   1      44.941  23.197  24.336  1.00  0.00     0.261 C 
BRANCH  38  39
ATOM     39  O   UNL A   1      44.639  23.911  25.538  1.00  0.00    -0.460 OA
BRANCH  39  40
ATOM     40  C   UNL A   1      45.650  24.048  26.430  1.00  0.00     0.338 C 
ATOM     41  O   UNL A   1      46.797  23.666  26.312  1.00  0.00    -0.246 OA
BRANCH  40  42
ATOM     42  C   UNL A   1      45.173  24.902  27.536  1.00  0.00     0.060 A 
ATOM     43  C   UNL A   1      44.215  24.391  28.421  1.00  0.00     0.016 A 
ATOM     44  C   UNL A   1      45.654  26.205  27.684  1.00  0.00     0.016 A 
ATOM     45  C   UNL A   1      43.716  25.194  29.447  1.00  0.00     0.010 A 
ATOM     46  C   UNL A   1      45.139  27.014  28.701  1.00  0.00     0.010 A 
ATOM     47  C   UNL A   1      44.148  26.521  29.570  1.00  0.00    -0.014 A 
BRANCH  47  48
ATOM     48  C   UNL A   1      43.450  27.441  30.501  1.00  0.00     0.031 A 
ATOM     49  C   UNL A   1      44.031  27.667  31.868  1.00  0.00     0.074 A 
ATOM     50  C   UNL A   1      42.319  28.071  30.141  1.00  0.00     0.049 A 
ATOM     51  N   UNL A   1      43.577  28.397  32.855  1.00  0.00    -0.248 NA
ATOM     52  C   UNL A   1      45.291  26.966  32.163  1.00  0.00     0.031 C 
ATOM     53  C   UNL A   1      41.666  27.959  28.838  1.00  0.00     0.029 A 
ATOM     54  N   UNL A   1      41.514  28.924  30.853  1.00  0.00    -0.354 N 
ATOM     55  C   UNL A   1      44.492  28.240  33.889  1.00  0.00     0.074 A 
ATOM     56  C   UNL A   1      45.504  27.317  33.422  1.00  0.00     0.031 C 
ATOM     57  C   UNL A   1      40.546  28.704  28.851  1.00  0.00     0.029 A 
ATOM     58  C   UNL A   1      40.390  29.316  30.170  1.00  0.00     0.049 A 
ATOM     59  H   UNL A   1      41.722  29.225  31.767  1.00  0.00     0.167 HD
ATOM     60  C   UNL A   1      44.492  28.813  35.116  1.00  0.00     0.031 A 
ATOM     61  C   UNL A   1      39.343  30.063  30.570  1.00  0.00     0.031 A 
ATOM     62  C   UNL A   1      43.472  29.709  35.593  1.00  0.00     0.049 A 
ATOM     63  C   UNL A   1      39.326  30.638  31.961  1.00  0.00     0.074 A 
ATOM     64  C   UNL A   1      43.396  30.361  36.811  1.00  0.00     0.029 A 
ATOM     65  N   UNL A   1      42.338  30.064  34.878  1.00  0.00    -0.354 N 
ATOM     66  N   UNL A   1      40.218  30.520  32.916  1.00  0.00    -0.248 NA
ATOM     67  C   UNL A   1      38.162  31.457  32.326  1.00  0.00     0.031 C 
ATOM     68  C   UNL A   1      42.184  31.058  36.859  1.00  0.00     0.029 A 
ATOM     69  C   UNL A   1      41.538  30.897  35.644  1.00  0.00     0.049 A 
ATOM     70  H   UNL A   1      42.132  29.770  33.962  1.00  0.00     0.167 HD
ATOM     71  C   UNL A   1      39.733  31.267  33.984  1.00  0.00     0.074 A 
ATOM     72  C   UNL A   1      38.480  31.848  33.552  1.00  0.00     0.031 C 
ATOM     73  C   UNL A   1      40.282  31.457  35.211  1.00  0.00     0.031 A 
BRANCH  60  74
ATOM     74  C   UNL A   1      45.617  28.438  36.043  1.00  0.00    -0.014 A 
ATOM     75  C   UNL A   1      46.750  29.255  36.193  1.00  0.00     0.009 A 
ATOM     76  C   UNL A   1      45.542  27.242  36.775  1.00  0.00     0.009 A 
ATOM     77  C   UNL A   1      47.806  28.856  37.016  1.00  0.00     0.001 A 
ATOM     78  C   UNL A   1      46.584  26.863  37.622  1.00  0.00     0.001 A 
ATOM     79  C   UNL A   1      47.721  27.661  37.731  1.00  0.00     0.000 A 
ENDBRANCH  60  74
BRANCH  61  80
ATOM     80  C   UNL A   1      38.206  30.287  29.640  1.00  0.00    -0.014 A 
ATOM     81  C   UNL A   1      38.043  31.516  28.980  1.00  0.00     0.009 A 
ATOM     82  C   UNL A   1      37.276  29.262  29.401  1.00  0.00     0.009 A 
ATOM     83  C   UNL A   1      36.965  31.714  28.114  1.00  0.00     0.001 A 
ATOM     84  C   UNL A   1      36.218  29.454  28.511  1.00  0.00     0.001 A 
ATOM     85  C   UNL A   1      36.059  30.683  27.874  1.00  0.00     0.000 A 
ENDBRANCH  61  80
BRANCH  73  86
ATOM     86  C   UNL A   1      39.538  32.348  36.169  1.00  0.00    -0.014 A 
ATOM     87  C   UNL A   1      39.817  33.720  36.261  1.00  0.00     0.009 A 
ATOM     88  C   UNL A   1      38.516  31.809  36.968  1.00  0.00     0.009 A 
ATOM     89  C   UNL A   1      39.112  34.527  37.159  1.00  0.00     0.001 A 
ATOM     90  C   UNL A   1      37.792  32.623  37.841  1.00  0.00     0.001 A 
ATOM     91  C   UNL A   1      38.097  33.979  37.944  1.00  0.00     0.000 A 
ENDBRANCH  73  86
ENDBRANCH  47  48
ENDBRANCH  40  42
ENDBRANCH  39  40
ENDBRANCH  38  39
ENDBRANCH  37  38
ENDBRANCH  36  37
ENDBRANCH  35  36
ENDBRANCH   1  35
TORSDOF 21
ENDMDL
MODEL 2
REMARK VINA RESULT:     -11.0      1.117      5.580
REMARK SMILES CS(=O)(=O)c1ccc(C2=NN(c3ccc(C(=O)OCCOCCOCCOC(=O)c4ccc(-c5c6nc(c(-c7ccccc7)c7ccc([nH]7)c(-c7ccccc7)c7nc(c(-c8ccccc8)c8ccc5[nH]8)C=C7)C=C6)cc4)cc3)[C@H](c3ccccc3)C2)cc1
REMARK SMILES IDX 22 1 21 2 20 3 19 4 18 5 16 6 17 7 15 8 12 9 13 10 79 11
REMARK SMILES IDX 14 12 78 13 11 14 9 15 10 16 87 17 80 18 8 19 5 20 6 21
REMARK SMILES IDX 89 22 7 23 88 24 2 25 1 26 3 27 4 28 81 29 82 30 86 31 83 32
REMARK SMILES IDX 85 33 84 34 23 35 24 36 25 37 26 38 27 39 28 40 29 41 30 42
REMARK SMILES IDX 31 43 77 44 32 45 76 46 33 47 34 48 35 49 70 50 36 51 75 52
REMARK SMILES IDX 69 53 71 54 37 55 74 56 68 57 67 58 38 60 60 61 45 62 59 63
REMARK SMILES IDX 46 64 49 65 58 66 72 67 47 68 48 69 57 71 73 72 50 73 39 74
REMARK SMILES IDX 40 75 44 76 41 77 43 78 42 79 61 80 62 81 66 82 63 83 65 84
REMARK SMILES IDX 64 85 51 86 52 87 56 88 53 89 55 90 54 91
REMARK H PARENT 71 59 49 70
REMARK Flexibility Score: inf
ROOT
ATOM      1  C   UNL A   1      42.674  21.087  25.847  1.00  0.00     0.188 C 
ENDROOT
BRANCH   1   2
ATOM      2  O   UNL A   1      42.265  21.436  27.164  1.00  0.00    -0.376 OA
BRANCH   2   3
ATOM      3  C   UNL A   1      41.713  22.721  27.421  1.00  0.00     0.202 C 
BRANCH   3   4
ATOM      4  C   UNL A   1      40.190  22.917  27.446  1.00  0.00     0.261 C 
BRANCH   4   5
ATOM      5  O   UNL A   1      39.600  23.169  26.162  1.00  0.00    -0.460 OA
BRANCH   5   6
ATOM      6  C   UNL A   1      38.758  22.210  25.704  1.00  0.00     0.338 C 
ATOM      7  O   UNL A   1      38.920  21.002  25.780  1.00  0.00    -0.246 OA
BRANCH   6   8
ATOM      8  C   UNL A   1      37.499  22.814  25.202  1.00  0.00     0.060 A 
ATOM      9  C   UNL A   1      34.993  23.820  24.430  1.00  0.00     0.060 A 
ATOM     10  C   UNL A   1      35.501  24.099  25.702  1.00  0.00     0.029 A 
ATOM     11  C   UNL A   1      35.813  23.150  23.509  1.00  0.00     0.029 A 
ATOM     12  C   UNL A   1      36.744  23.593  26.090  1.00  0.00     0.018 A 
ATOM     13  C   UNL A   1      37.053  22.630  23.891  1.00  0.00     0.018 A 
BRANCH   9  14
ATOM     14  N   UNL A   1      33.640  24.006  24.129  1.00  0.00    -0.257 N 
ATOM     15  C   UNL A   1      31.900  25.235  24.098  1.00  0.00     0.071 C 
ATOM     16  N   UNL A   1      33.160  25.230  23.786  1.00  0.00    -0.176 NA
ATOM     17  C   UNL A   1      31.408  24.034  24.858  1.00  0.00     0.091 C 
ATOM     18  C   UNL A   1      32.652  23.140  24.799  1.00  0.00     0.144 C 
BRANCH  15  19
ATOM     19  C   UNL A   1      30.982  26.332  23.729  1.00  0.00    -0.002 A 
ATOM     20  C   UNL A   1      29.178  28.360  23.081  1.00  0.00     0.067 A 
ATOM     21  C   UNL A   1      28.706  27.151  23.603  1.00  0.00     0.021 A 
ATOM     22  C   UNL A   1      30.548  28.560  22.880  1.00  0.00     0.021 A 
ATOM     23  C   UNL A   1      29.610  26.133  23.914  1.00  0.00     0.011 A 
ATOM     24  C   UNL A   1      31.455  27.547  23.220  1.00  0.00     0.011 A 
BRANCH  20  25
ATOM     25  S   UNL A   1      28.006  29.622  22.630  1.00  0.00     0.175 S 
ATOM     26  C   UNL A   1      28.489  31.070  23.529  1.00  0.00     0.163 C 
ATOM     27  O   UNL A   1      26.713  29.215  23.150  1.00  0.00    -0.224 OA
ATOM     28  O   UNL A   1      28.200  29.880  21.217  1.00  0.00    -0.224 OA
ENDBRANCH  20  25
ENDBRANCH  15  19
BRANCH  18  29
ATOM     29  C   UNL A   1      32.546  21.801  24.079  1.00  0.00    -0.023 A 
ATOM     30  C   UNL A   1      32.656  20.559  24.718  1.00  0.00     0.006 A 
ATOM     31  C   UNL A   1      32.228  21.804  22.704  1.00  0.00     0.006 A 
ATOM     32  C   UNL A   1      32.441  19.370  24.012  1.00  0.00     0.000 A 
ATOM     33  C   UNL A   1      31.964  20.622  22.013  1.00  0.00     0.000 A 
ATOM     34  C   UNL A   1      32.074  19.402  22.668  1.00  0.00     0.000 A 
ENDBRANCH  18  29
ENDBRANCH   9  14
ENDBRANCH   6   8
ENDBRANCH   5   6
ENDBRANCH   4   5
ENDBRANCH   3   4
ENDBRANCH   2   3
ENDBRANCH   1   2
BRANCH   1  35
ATOM     35  C   UNL A   1      44.140  21.292  25.407  1.00  0.00     0.188 C 
BRANCH  35  36
ATOM     36  O   UNL A   1      44.525  22.635  25.251  1.00  0.00    -0.376 OA
BRANCH  36  37
ATOM     37  C   UNL A   1      45.731  22.951  24.580  1.00  0.00     0.202 C 
BRANCH  37  38
ATOM     38  C   UNL A   1      46.436  24.323  24.620  1.00  0.00     0.261 C 
BRANCH  38  39
ATOM     39  O   UNL A   1      45.636  25.499  24.769  1.00  0.00    -0.460 OA
BRANCH  39  40
ATOM     40  C   UNL A   1      46.234  26.568  25.348  1.00  0.00     0.338 C 
ATOM     41  O   UNL A   1      47.272  27.105  25.016  1.00  0.00    -0.246 OA
BRANCH  40  42
ATOM     42  C   UNL A   1      45.322  27.101  26.379  1.00  0.00     0.060 A 
ATOM     43  C   UNL A   1      45.153  28.488  26.480  1.00  0.00     0.016 A 
ATOM     44  C   UNL A   1      44.655  26.239  27.252  1.00  0.00     0.016 A 
ATOM     45  C   UNL A   1      44.332  29.020  27.474  1.00  0.00     0.010 A 
ATOM     46  C   UNL A   1      43.848  26.775  28.260  1.00  0.00     0.010 A 
ATOM     47  C   UNL A   1      43.704  28.168  28.392  1.00  0.00    -0.014 A 
BRANCH  47  48
ATOM     48  C   UNL A   1      43.030  28.736  29.585  1.00  0.00     0.031 A 
ATOM     49  C   UNL A   1      41.598  29.176  29.467  1.00  0.00     0.074 A 
ATOM     50  C   UNL A   1      43.675  28.859  30.758  1.00  0.00     0.049 A 
ATOM     51  N   UNL A   1      40.821  29.730  30.364  1.00  0.00    -0.248 NA
ATOM     52  C   UNL A   1      40.960  28.970  28.158  1.00  0.00     0.031 C 
ATOM     53  C   UNL A   1      45.053  28.447  31.013  1.00  0.00     0.029 A 
ATOM     54  N   UNL A   1      43.249  29.380  31.954  1.00  0.00    -0.354 N 
ATOM     55  C   UNL A   1      39.606  29.944  29.726  1.00  0.00     0.074 A 
ATOM     56  C   UNL A   1      39.761  29.495  28.359  1.00  0.00     0.031 C 
ATOM     57  C   UNL A   1      45.367  28.750  32.285  1.00  0.00     0.029 A 
ATOM     58  C   UNL A   1      44.223  29.403  32.920  1.00  0.00     0.049 A 
ATOM     59  H   UNL A   1      42.332  29.707  32.104  1.00  0.00     0.167 HD
ATOM     60  C   UNL A   1      38.462  30.464  30.231  1.00  0.00     0.031 A 
ATOM     61  C   UNL A   1      44.203  29.914  34.166  1.00  0.00     0.031 A 
ATOM     62  C   UNL A   1      38.313  30.937  31.582  1.00  0.00     0.049 A 
ATOM     63  C   UNL A   1      42.943  30.551  34.690  1.00  0.00     0.074 A 
ATOM     64  C   UNL A   1      37.188  31.458  32.196  1.00  0.00     0.029 A 
ATOM     65  N   UNL A   1      39.331  30.963  32.524  1.00  0.00    -0.354 N 
ATOM     66  N   UNL A   1      41.786  30.707  34.094  1.00  0.00    -0.248 NA
ATOM     67  C   UNL A   1      42.986  31.072  36.064  1.00  0.00     0.031 C 
ATOM     68  C   UNL A   1      37.543  31.861  33.488  1.00  0.00     0.029 A 
ATOM     69  C   UNL A   1      38.869  31.527  33.703  1.00  0.00     0.049 A 
ATOM     70  H   UNL A   1      40.245  30.631  32.378  1.00  0.00     0.167 HD
ATOM     71  C   UNL A   1      40.957  31.323  35.025  1.00  0.00     0.074 A 
ATOM     72  C   UNL A   1      41.741  31.494  36.231  1.00  0.00     0.031 C 
ATOM     73  C   UNL A   1      39.663  31.708  34.894  1.00  0.00     0.031 A 
BRANCH  60  74
ATOM     74  C   UNL A   1      37.296  30.591  29.288  1.00  0.00    -0.014 A 
ATOM     75  C   UNL A   1      36.971  31.815  28.681  1.00  0.00     0.009 A 
ATOM     76  C   UNL A   1      36.506  29.464  29.007  1.00  0.00     0.009 A 
ATOM     77  C   UNL A   1      35.850  31.919  27.855  1.00  0.00     0.001 A 
ATOM     78  C   UNL A   1      35.406  29.564  28.154  1.00  0.00     0.001 A 
ATOM     79  C   UNL A   1      35.069  30.794  27.591  1.00  0.00     0.000 A 
ENDBRANCH  60  74
BRANCH  61  80
ATOM     80  C   UNL A   1      45.434  29.865  34.998  1.00  0.00    -0.014 A 
ATOM     81  C   UNL A   1      46.378  30.903  34.953  1.00  0.00     0.009 A 
ATOM     82  C   UNL A   1      45.665  28.775  35.852  1.00  0.00     0.009 A 
ATOM     83  C   UNL A   1      47.534  30.840  35.735  1.00  0.00     0.001 A 
ATOM     84  C   UNL A   1      46.806  28.730  36.655  1.00  0.00     0.001 A 
ATOM     85  C   UNL A   1      47.743  29.759  36.590  1.00  0.00     0.000 A 
ENDBRANCH  61  80
BRANCH  73  86
ATOM     86  C   UNL A   1      39.003  32.335  36.093  1.00  0.00    -0.014 A 
ATOM     87  C   UNL A   1      38.200  31.584  36.965  1.00  0.00     0.009 A 
ATOM     88  C   UNL A   1      39.219  33.695  36.372  1.00  0.00     0.009 A 
ATOM     89  C   UNL A   1      37.599  32.189  38.071  1.00  0.00     0.001 A 
ATOM     90  C   UNL A   1      38.643  34.289  37.496  1.00  0.00     0.001 A 
ATOM     91  C   UNL A   1      37.824  33.540  38.339  1.00  0.00     0.000 A 
ENDBRANCH  73  86
ENDBRANCH  47  48
ENDBRANCH  40  42
ENDBRANCH  39  40
ENDBRANCH  38  39
ENDBRANCH  37  38
ENDBRANCH  36  37
ENDBRANCH  35  36
ENDBRANCH   1  35
TORSDOF 21
ENDMDL
MODEL 3
REMARK VINA RESULT:     -10.7      4.766     10.413
REMARK SMILES CS(=O)(=O)c1ccc(C2=NN(c3ccc(C(=O)OCCOCCOCCOC(=O)c4ccc(-c5c6nc(c(-c7ccccc7)c7ccc([nH]7)c(-c7ccccc7)c7nc(c(-c8ccccc8)c8ccc5[nH]8)C=C7)C=C6)cc4)cc3)[C@H](c3ccccc3)C2)cc1
REMARK SMILES IDX 22 1 21 2 20 3 19 4 18 5 16 6 17 7 15 8 12 9 13 10 79 11
REMARK SMILES IDX 14 12 78 13 11 14 9 15 10 16 87 17 80 18 8 19 5 20 6 21
REMARK SMILES IDX 89 22 7 23 88 24 2 25 1 26 3 27 4 28 81 29 82 30 86 31 83 32
REMARK SMILES IDX 85 33 84 34 23 35 24 36 25 37 26 38 27 39 28 40 29 41 30 42
REMARK SMILES IDX 31 43 77 44 32 45 76 46 33 47 34 48 35 49 70 50 36 51 75 52
REMARK SMILES IDX 69 53 71 54 37 55 74 56 68 57 67 58 38 60 60 61 45 62 59 63
REMARK SMILES IDX 46 64 49 65 58 66 72 67 47 68 48 69 57 71 73 72 50 73 39 74
REMARK SMILES IDX 40 75 44 76 41 77 43 78 42 79 61 80 62 81 66 82 63 83 65 84
REMARK SMILES IDX 64 85 51 86 52 87 56 88 53 89 55 90 54 91
REMARK H PARENT 71 59 49 70
REMARK Flexibility Score: inf
ROOT
ATOM      1  C   UNL A   1      33.781  35.064  30.201  1.00  0.00     0.188 C 
ENDROOT
BRANCH   1   2
ATOM      2  O   UNL A   1      32.548  34.834  29.531  1.00  0.00    -0.376 OA
BRANCH   2   3
ATOM      3  C   UNL A   1      32.542  34.500  28.148  1.00  0.00     0.202 C 
BRANCH   3   4
ATOM      4  C   UNL A   1      33.637  33.592  27.568  1.00  0.00     0.261 C 
BRANCH   4   5
ATOM      5  O   UNL A   1      33.220  32.243  27.311  1.00  0.00    -0.460 OA
BRANCH   5   6
ATOM      6  C   UNL A   1      34.019  31.274  27.822  1.00  0.00     0.338 C 
ATOM      7  O   UNL A   1      34.906  31.421  28.647  1.00  0.00    -0.246 OA
BRANCH   6   8
ATOM      8  C   UNL A   1      33.585  29.935  27.348  1.00  0.00     0.060 A 
ATOM      9  C   UNL A   1      32.845  27.473  26.217  1.00  0.00     0.060 A 
ATOM     10  C   UNL A   1      34.190  27.855  26.250  1.00  0.00     0.029 A 
ATOM     11  C   UNL A   1      31.900  28.274  26.877  1.00  0.00     0.029 A 
ATOM     12  C   UNL A   1      34.558  29.084  26.806  1.00  0.00     0.018 A 
ATOM     13  C   UNL A   1      32.257  29.509  27.425  1.00  0.00     0.018 A 
BRANCH   9  14
ATOM     14  N   UNL A   1      32.402  26.441  25.383  1.00  0.00    -0.257 N 
ATOM     15  C   UNL A   1      32.642  24.492  24.558  1.00  0.00     0.071 C 
ATOM     16  N   UNL A   1      32.654  25.140  25.683  1.00  0.00    -0.176 NA
ATOM     17  C   UNL A   1      32.537  25.335  23.317  1.00  0.00     0.091 C 
ATOM     18  C   UNL A   1      32.291  26.714  23.938  1.00  0.00     0.144 C 
BRANCH  15  19
ATOM     19  C   UNL A   1      32.712  23.019  24.475  1.00  0.00    -0.002 A 
ATOM     20  C   UNL A   1      32.833  20.243  24.225  1.00  0.00     0.067 A 
ATOM     21  C   UNL A   1      32.390  21.018  23.150  1.00  0.00     0.021 A 
ATOM     22  C   UNL A   1      33.217  20.848  25.428  1.00  0.00     0.021 A 
ATOM     23  C   UNL A   1      32.317  22.407  23.281  1.00  0.00     0.011 A 
ATOM     24  C   UNL A   1      33.170  22.244  25.547  1.00  0.00     0.011 A 
BRANCH  20  25
ATOM     25  S   UNL A   1      32.858  18.470  24.060  1.00  0.00     0.175 S 
ATOM     26  C   UNL A   1      32.289  18.132  22.416  1.00  0.00     0.163 C 
ATOM     27  O   UNL A   1      31.858  17.939  24.969  1.00  0.00    -0.224 OA
ATOM     28  O   UNL A   1      34.246  18.066  24.151  1.00  0.00    -0.224 OA
ENDBRANCH  20  25
ENDBRANCH  15  19
BRANCH  18  29
ATOM     29  C   UNL A   1      30.975  27.420  23.632  1.00  0.00    -0.023 A 
ATOM     30  C   UNL A   1      30.880  28.620  22.915  1.00  0.00     0.006 A 
ATOM     31  C   UNL A   1      29.773  26.786  24.010  1.00  0.00     0.006 A 
ATOM     32  C   UNL A   1      29.631  29.154  22.578  1.00  0.00     0.000 A 
ATOM     33  C   UNL A   1      28.529  27.293  23.631  1.00  0.00     0.000 A 
ATOM     34  C   UNL A   1      28.459  28.482  22.915  1.00  0.00     0.000 A 
ENDBRANCH  18  29
ENDBRANCH   9  14
ENDBRANCH   6   8
ENDBRANCH   5   6
ENDBRANCH   4   5
ENDBRANCH   3   4
ENDBRANCH   2   3
ENDBRANCH   1   2
BRANCH   1  35
ATOM     35  C   UNL A   1      33.792  35.481  31.688  1.00  0.00     0.188 C 
BRANCH  35  36
ATOM     36  O   UNL A   1      35.056  35.436  32.302  1.00  0.00    -0.376 OA
BRANCH  36  37
ATOM     37  C   UNL A   1      35.158  35.193  33.694  1.00  0.00     0.202 C 
BRANCH  37  38
ATOM     38  C   UNL A   1      35.506  33.833  34.334  1.00  0.00     0.261 C 
BRANCH  38  39
ATOM     39  O   UNL A   1      36.368  32.942  33.621  1.00  0.00    -0.460 OA
BRANCH  39  40
ATOM     40  C   UNL A   1      35.793  32.193  32.650  1.00  0.00     0.338 C 
ATOM     41  O   UNL A   1      34.629  32.200  32.301  1.00  0.00    -0.246 OA
BRANCH  40  42
ATOM     42  C   UNL A   1      36.861  31.458  31.943  1.00  0.00     0.060 A 
ATOM     43  C   UNL A   1      37.742  30.664  32.688  1.00  0.00     0.016 A 
ATOM     44  C   UNL A   1      37.004  31.571  30.559  1.00  0.00     0.016 A 
ATOM     45  C   UNL A   1      38.787  29.995  32.051  1.00  0.00     0.010 A 
ATOM     46  C   UNL A   1      38.064  30.916  29.924  1.00  0.00     0.010 A 
ATOM     47  C   UNL A   1      38.976  30.147  30.671  1.00  0.00    -0.014 A 
BRANCH  47  48
ATOM     48  C   UNL A   1      40.214  29.637  30.034  1.00  0.00     0.031 A 
ATOM     49  C   UNL A   1      41.390  30.561  29.894  1.00  0.00     0.074 A 
ATOM     50  C   UNL A   1      40.298  28.372  29.589  1.00  0.00     0.049 A 
ATOM     51  N   UNL A   1      42.558  30.344  29.343  1.00  0.00    -0.248 NA
ATOM     52  C   UNL A   1      41.223  31.916  30.444  1.00  0.00     0.031 C 
ATOM     53  C   UNL A   1      39.242  27.368  29.687  1.00  0.00     0.029 A 
ATOM     54  N   UNL A   1      41.326  27.723  28.950  1.00  0.00    -0.354 N 
ATOM     55  C   UNL A   1      43.261  31.536  29.473  1.00  0.00     0.074 A 
ATOM     56  C   UNL A   1      42.377  32.480  30.122  1.00  0.00     0.031 C 
ATOM     57  C   UNL A   1      39.670  26.231  29.110  1.00  0.00     0.029 A 
ATOM     58  C   UNL A   1      41.016  26.440  28.577  1.00  0.00     0.049 A 
ATOM     59  H   UNL A   1      42.201  28.140  28.777  1.00  0.00     0.167 HD
ATOM     60  C   UNL A   1      44.529  31.819  29.092  1.00  0.00     0.031 A 
ATOM     61  C   UNL A   1      41.726  25.543  27.865  1.00  0.00     0.031 A 
ATOM     62  C   UNL A   1      45.401  30.891  28.422  1.00  0.00     0.049 A 
ATOM     63  C   UNL A   1      43.110  25.898  27.389  1.00  0.00     0.074 A 
ATOM     64  C   UNL A   1      46.711  31.075  28.017  1.00  0.00     0.029 A 
ATOM     65  N   UNL A   1      45.042  29.607  28.041  1.00  0.00    -0.354 N 
ATOM     66  N   UNL A   1      43.782  27.011  27.558  1.00  0.00    -0.248 NA
ATOM     67  C   UNL A   1      43.835  24.867  26.633  1.00  0.00     0.031 C 
ATOM     68  C   UNL A   1      47.122  29.926  27.332  1.00  0.00     0.029 A 
ATOM     69  C   UNL A   1      46.093  29.000  27.372  1.00  0.00     0.049 A 
ATOM     70  H   UNL A   1      44.170  29.187  28.220  1.00  0.00     0.167 HD
ATOM     71  C   UNL A   1      45.016  26.807  26.949  1.00  0.00     0.074 A 
ATOM     72  C   UNL A   1      45.004  25.457  26.425  1.00  0.00     0.031 C 
ATOM     73  C   UNL A   1      46.065  27.661  26.839  1.00  0.00     0.031 A 
BRANCH  60  74
ATOM     74  C   UNL A   1      45.023  33.217  29.352  1.00  0.00    -0.014 A 
ATOM     75  C   UNL A   1      45.660  33.560  30.556  1.00  0.00     0.009 A 
ATOM     76  C   UNL A   1      44.842  34.209  28.375  1.00  0.00     0.009 A 
ATOM     77  C   UNL A   1      46.057  34.877  30.796  1.00  0.00     0.001 A 
ATOM     78  C   UNL A   1      45.271  35.517  28.605  1.00  0.00     0.001 A 
ATOM     79  C   UNL A   1      45.864  35.854  29.820  1.00  0.00     0.000 A 
ENDBRANCH  60  74
BRANCH  61  80
ATOM     80  C   UNL A   1      41.123  24.225  27.537  1.00  0.00    -0.014 A 
ATOM     81  C   UNL A   1      41.779  23.029  27.866  1.00  0.00     0.009 A 
ATOM     82  C   UNL A   1      39.876  24.161  26.896  1.00  0.00     0.009 A 
ATOM     83  C   UNL A   1      41.203  21.797  27.545  1.00  0.00     0.001 A 
ATOM     84  C   UNL A   1      39.289  22.928  26.605  1.00  0.00     0.001 A 
ATOM     85  C   UNL A   1      39.957  21.747  26.923  1.00  0.00     0.000 A 
ENDBRANCH  61  80
BRANCH  73  86
ATOM     86  C   UNL A   1      47.299  27.153  26.141  1.00  0.00    -0.014 A 
ATOM     87  C   UNL A   1      48.554  27.165  26.769  1.00  0.00     0.009 A 
ATOM     88  C   UNL A   1      47.194  26.621  24.845  1.00  0.00     0.009 A 
ATOM     89  C   UNL A   1      49.684  26.687  26.100  1.00  0.00     0.001 A 
ATOM     90  C   UNL A   1      48.319  26.116  24.192  1.00  0.00     0.001 A 
ATOM     91  C   UNL A   1      49.565  26.159  24.815  1.00  0.00     0.000 A 
ENDBRANCH  73  86
ENDBRANCH  47  48
ENDBRANCH  40  42
ENDBRANCH  39  40
ENDBRANCH  38  39
ENDBRANCH  37  38
ENDBRANCH  36  37
ENDBRANCH  35  36
ENDBRANCH   1  35
TORSDOF 21
ENDMDL
