MODEL 1
REMARK VINA RESULT:     -10.4      0.000      0.000
REMARK SMILES CCc1ccc(S(=O)(=O)c2nnn(-c3ccc(C(=O)OCCOCCOCCOC(=O)c4ccc(-c5c6nc(c(-c7ccccc7)c7ccc([nH]7)c(-c7ccccc7)c7nc(c(-c8ccccc8)c8ccc5[nH]8)C=C7)C=C6)cc4)cc3)c2C)cc1
REMARK SMILES IDX 24 1 23 2 22 3 21 4 20 5 18 6 19 7 17 8 14 9 15 10 81 11
REMARK SMILES IDX 16 12 80 13 13 14 10 15 11 16 82 17 12 18 83 19 7 20 8 21
REMARK SMILES IDX 9 22 6 23 3 24 4 25 85 26 5 27 84 28 2 29 1 30 25 31 26 32
REMARK SMILES IDX 27 33 28 34 29 35 30 36 31 37 32 38 33 39 79 40 34 41 78 42
REMARK SMILES IDX 35 43 36 44 37 45 72 46 38 47 77 48 71 49 73 50 39 51 76 52
REMARK SMILES IDX 70 53 69 54 40 56 62 57 47 58 61 59 48 60 51 61 60 62 74 63
REMARK SMILES IDX 49 64 50 65 59 67 75 68 52 69 41 70 42 71 46 72 43 73 45 74
REMARK SMILES IDX 44 75 63 76 64 77 68 78 65 79 67 80 66 81 53 82 54 83 58 84
REMARK SMILES IDX 55 85 57 86 56 87
REMARK H PARENT 73 55 51 66
REMARK Flexibility Score: inf
ROOT
ATOM      1  C   UNL A   1      42.439  23.104  26.144  1.00  0.00     0.188 C 
ENDROOT
BRANCH   1   2
ATOM      2  O   UNL A   1      41.582  22.576  27.128  1.00  0.00    -0.376 OA
BRANCH   2   3
ATOM      3  C   UNL A   1      40.178  22.520  26.934  1.00  0.00     0.202 C 
BRANCH   3   4
ATOM      4  C   UNL A   1      39.403  21.445  26.146  1.00  0.00     0.261 C 
BRANCH   4   5
ATOM      5  O   UNL A   1      38.183  21.832  25.519  1.00  0.00    -0.460 OA
BRANCH   5   6
ATOM      6  C   UNL A   1      37.448  20.822  24.999  1.00  0.00     0.338 C 
ATOM      7  O   UNL A   1      37.721  19.632  25.007  1.00  0.00    -0.246 OA
BRANCH   6   8
ATOM      8  C   UNL A   1      36.139  21.342  24.554  1.00  0.00     0.060 A 
ATOM      9  C   UNL A   1      33.736  22.548  23.905  1.00  0.00     0.067 A 
ATOM     10  C   UNL A   1      34.914  23.063  23.360  1.00  0.00     0.029 A 
ATOM     11  C   UNL A   1      33.738  21.348  24.631  1.00  0.00     0.029 A 
ATOM     12  C   UNL A   1      36.124  22.472  23.719  1.00  0.00     0.018 A 
ATOM     13  C   UNL A   1      34.945  20.736  24.951  1.00  0.00     0.018 A 
BRANCH   9  14
ATOM     14  N   UNL A   1      32.581  23.357  23.916  1.00  0.00    -0.216 N 
ATOM     15  C   UNL A   1      31.046  24.798  24.466  1.00  0.00     0.205 A 
ATOM     16  N   UNL A   1      30.935  24.530  23.127  1.00  0.00    -0.117 NA
ATOM     17  C   UNL A   1      32.138  24.124  24.983  1.00  0.00     0.081 A 
ATOM     18  N   UNL A   1      31.930  23.719  22.788  1.00  0.00    -0.061 NA
ATOM     19  C   UNL A   1      32.859  24.259  26.275  1.00  0.00     0.070 C 
BRANCH  15  20
ATOM     20  S   UNL A   1      30.037  25.938  25.280  1.00  0.00     0.227 S 
ATOM     21  O   UNL A   1      29.621  25.233  26.478  1.00  0.00    -0.217 OA
ATOM     22  O   UNL A   1      29.093  26.418  24.294  1.00  0.00    -0.217 OA
BRANCH  20  23
ATOM     23  C   UNL A   1      31.035  27.312  25.794  1.00  0.00     0.073 A 
ATOM     24  C   UNL A   1      32.554  29.563  26.499  1.00  0.00    -0.048 A 
ATOM     25  C   UNL A   1      32.108  29.390  25.180  1.00  0.00     0.005 A 
ATOM     26  C   UNL A   1      32.228  28.594  27.458  1.00  0.00     0.005 A 
ATOM     27  C   UNL A   1      31.342  28.276  24.830  1.00  0.00     0.021 A 
ATOM     28  C   UNL A   1      31.480  27.465  27.110  1.00  0.00     0.021 A 
BRANCH  24  29
ATOM     29  C   UNL A   1      33.412  30.750  26.870  1.00  0.00     0.032 C 
ATOM     30  C   UNL A   1      34.649  30.371  27.671  1.00  0.00     0.009 C 
ENDBRANCH  24  29
ENDBRANCH  20  23
ENDBRANCH  15  20
ENDBRANCH   9  14
ENDBRANCH   6   8
ENDBRANCH   5   6
ENDBRANCH   4   5
ENDBRANCH   3   4
ENDBRANCH   2   3
ENDBRANCH   1   2
BRANCH   1  31
ATOM     31  C   UNL A   1      43.565  22.203  25.594  1.00  0.00     0.188 C 
BRANCH  31  32
ATOM     32  O   UNL A   1      44.760  22.735  25.052  1.00  0.00    -0.376 OA
BRANCH  32  33
ATOM     33  C   UNL A   1      44.893  24.089  24.651  1.00  0.00     0.202 C 
BRANCH  33  34
ATOM     34  C   UNL A   1      45.734  25.128  25.389  1.00  0.00     0.261 C 
BRANCH  34  35
ATOM     35  O   UNL A   1      45.003  26.000  26.225  1.00  0.00    -0.460 OA
BRANCH  35  36
ATOM     36  C   UNL A   1      44.598  27.124  25.601  1.00  0.00     0.338 C 
ATOM     37  O   UNL A   1      45.157  27.710  24.690  1.00  0.00    -0.246 OA
BRANCH  36  38
ATOM     38  C   UNL A   1      43.376  27.609  26.241  1.00  0.00     0.060 A 
ATOM     39  C   UNL A   1      43.282  28.990  26.416  1.00  0.00     0.016 A 
ATOM     40  C   UNL A   1      42.558  26.703  26.931  1.00  0.00     0.016 A 
ATOM     41  C   UNL A   1      42.570  29.447  27.497  1.00  0.00     0.010 A 
ATOM     42  C   UNL A   1      41.847  27.162  28.011  1.00  0.00     0.010 A 
ATOM     43  C   UNL A   1      41.970  28.506  28.342  1.00  0.00    -0.014 A 
BRANCH  43  44
ATOM     44  C   UNL A   1      41.504  28.979  29.623  1.00  0.00     0.031 A 
ATOM     45  C   UNL A   1      40.297  29.818  29.543  1.00  0.00     0.074 A 
ATOM     46  C   UNL A   1      42.114  28.654  30.777  1.00  0.00     0.049 A 
ATOM     47  N   UNL A   1      40.210  31.085  29.764  1.00  0.00    -0.248 NA
ATOM     48  C   UNL A   1      39.078  29.200  29.005  1.00  0.00     0.031 C 
ATOM     49  C   UNL A   1      43.148  27.644  31.023  1.00  0.00     0.029 A 
ATOM     50  N   UNL A   1      41.839  29.119  32.020  1.00  0.00    -0.354 N 
ATOM     51  C   UNL A   1      38.877  31.406  29.561  1.00  0.00     0.074 A 
ATOM     52  C   UNL A   1      38.262  30.252  28.952  1.00  0.00     0.031 C 
ATOM     53  C   UNL A   1      43.226  27.407  32.354  1.00  0.00     0.029 A 
ATOM     54  C   UNL A   1      42.364  28.351  33.047  1.00  0.00     0.049 A 
ATOM     55  H   UNL A   1      41.312  29.934  32.181  1.00  0.00     0.167 HD
ATOM     56  C   UNL A   1      38.320  32.507  30.130  1.00  0.00     0.031 A 
ATOM     57  C   UNL A   1      42.039  28.454  34.358  1.00  0.00     0.031 A 
ATOM     58  C   UNL A   1      39.312  33.446  30.580  1.00  0.00     0.049 A 
ATOM     59  C   UNL A   1      41.441  29.795  34.568  1.00  0.00     0.074 A 
ATOM     60  C   UNL A   1      40.302  34.185  29.961  1.00  0.00     0.029 A 
ATOM     61  N   UNL A   1      39.630  33.439  31.917  1.00  0.00    -0.354 N 
ATOM     62  N   UNL A   1      42.121  30.902  34.472  1.00  0.00    -0.248 NA
ATOM     63  C   UNL A   1      40.000  29.936  34.427  1.00  0.00     0.031 C 
ATOM     64  C   UNL A   1      41.399  34.167  30.871  1.00  0.00     0.029 A 
ATOM     65  C   UNL A   1      40.997  33.471  32.013  1.00  0.00     0.049 A 
ATOM     66  H   UNL A   1      38.993  33.416  32.669  1.00  0.00     0.167 HD
ATOM     67  C   UNL A   1      41.267  31.788  33.831  1.00  0.00     0.074 A 
ATOM     68  C   UNL A   1      39.944  31.170  33.916  1.00  0.00     0.031 C 
ATOM     69  C   UNL A   1      41.753  32.794  33.044  1.00  0.00     0.031 A 
BRANCH  56  70
ATOM     70  C   UNL A   1      36.909  32.518  30.644  1.00  0.00    -0.014 A 
ATOM     71  C   UNL A   1      35.902  33.086  29.849  1.00  0.00     0.009 A 
ATOM     72  C   UNL A   1      36.587  32.251  31.990  1.00  0.00     0.009 A 
ATOM     73  C   UNL A   1      34.659  33.428  30.394  1.00  0.00     0.001 A 
ATOM     74  C   UNL A   1      35.335  32.551  32.526  1.00  0.00     0.001 A 
ATOM     75  C   UNL A   1      34.379  33.167  31.732  1.00  0.00     0.000 A 
ENDBRANCH  56  70
BRANCH  57  76
ATOM     76  C   UNL A   1      41.890  27.363  35.344  1.00  0.00    -0.014 A 
ATOM     77  C   UNL A   1      41.342  26.126  34.973  1.00  0.00     0.009 A 
ATOM     78  C   UNL A   1      42.550  27.443  36.585  1.00  0.00     0.009 A 
ATOM     79  C   UNL A   1      41.483  25.002  35.798  1.00  0.00     0.001 A 
ATOM     80  C   UNL A   1      42.690  26.321  37.408  1.00  0.00     0.001 A 
ATOM     81  C   UNL A   1      42.169  25.096  37.007  1.00  0.00     0.000 A 
ENDBRANCH  57  76
BRANCH  69  82
ATOM     82  C   UNL A   1      43.242  33.041  33.059  1.00  0.00    -0.014 A 
ATOM     83  C   UNL A   1      43.850  34.007  33.882  1.00  0.00     0.009 A 
ATOM     84  C   UNL A   1      44.069  32.171  32.334  1.00  0.00     0.009 A 
ATOM     85  C   UNL A   1      45.244  34.114  33.954  1.00  0.00     0.001 A 
ATOM     86  C   UNL A   1      45.461  32.266  32.421  1.00  0.00     0.001 A 
ATOM     87  C   UNL A   1      46.047  33.241  33.225  1.00  0.00     0.000 A 
ENDBRANCH  69  82
ENDBRANCH  43  44
ENDBRANCH  36  38
ENDBRANCH  35  36
ENDBRANCH  34  35
ENDBRANCH  33  34
ENDBRANCH  32  33
ENDBRANCH  31  32
ENDBRANCH   1  31
TORSDOF 21
ENDMDL
MODEL 2
REMARK VINA RESULT:     -10.3      3.085      8.875
REMARK SMILES CCc1ccc(S(=O)(=O)c2nnn(-c3ccc(C(=O)OCCOCCOCCOC(=O)c4ccc(-c5c6nc(c(-c7ccccc7)c7ccc([nH]7)c(-c7ccccc7)c7nc(c(-c8ccccc8)c8ccc5[nH]8)C=C7)C=C6)cc4)cc3)c2C)cc1
REMARK SMILES IDX 24 1 23 2 22 3 21 4 20 5 18 6 19 7 17 8 14 9 15 10 81 11
REMARK SMILES IDX 16 12 80 13 13 14 10 15 11 16 82 17 12 18 83 19 7 20 8 21
REMARK SMILES IDX 9 22 6 23 3 24 4 25 85 26 5 27 84 28 2 29 1 30 25 31 26 32
REMARK SMILES IDX 27 33 28 34 29 35 30 36 31 37 32 38 33 39 79 40 34 41 78 42
REMARK SMILES IDX 35 43 36 44 37 45 72 46 38 47 77 48 71 49 73 50 39 51 76 52
REMARK SMILES IDX 70 53 69 54 40 56 62 57 47 58 61 59 48 60 51 61 60 62 74 63
REMARK SMILES IDX 49 64 50 65 59 67 75 68 52 69 41 70 42 71 46 72 43 73 45 74
REMARK SMILES IDX 44 75 63 76 64 77 68 78 65 79 67 80 66 81 53 82 54 83 58 84
REMARK SMILES IDX 55 85 57 86 56 87
REMARK H PARENT 73 55 51 66
REMARK Flexibility Score: inf
ROOT
ATOM      1  C   UNL A   1      33.106  25.933  24.859  1.00  0.00     0.188 C 
ENDROOT
BRANCH   1   2
ATOM      2  O   UNL A   1      33.728  26.281  23.646  1.00  0.00    -0.376 OA
BRANCH   2   3
ATOM      3  C   UNL A   1      33.024  26.248  22.416  1.00  0.00     0.202 C 
BRANCH   3   4
ATOM      4  C   UNL A   1      32.699  24.994  21.579  1.00  0.00     0.261 C 
BRANCH   4   5
ATOM      5  O   UNL A   1      33.547  23.857  21.730  1.00  0.00    -0.460 OA
BRANCH   5   6
ATOM      6  C   UNL A   1      33.197  22.995  22.712  1.00  0.00     0.338 C 
ATOM      7  O   UNL A   1      32.107  22.470  22.879  1.00  0.00    -0.246 OA
BRANCH   6   8
ATOM      8  C   UNL A   1      34.397  22.619  23.488  1.00  0.00     0.060 A 
ATOM      9  C   UNL A   1      36.730  21.761  24.701  1.00  0.00     0.067 A 
ATOM     10  C   UNL A   1      36.804  22.783  23.751  1.00  0.00     0.029 A 
ATOM     11  C   UNL A   1      35.492  21.288  25.161  1.00  0.00     0.029 A 
ATOM     12  C   UNL A   1      35.628  23.186  23.120  1.00  0.00     0.018 A 
ATOM     13  C   UNL A   1      34.318  21.725  24.557  1.00  0.00     0.018 A 
BRANCH   9  14
ATOM     14  N   UNL A   1      37.904  21.051  25.028  1.00  0.00    -0.216 N 
ATOM     15  C   UNL A   1      39.787  20.430  25.923  1.00  0.00     0.205 A 
ATOM     16  N   UNL A   1      39.213  19.345  25.314  1.00  0.00    -0.117 NA
ATOM     17  C   UNL A   1      38.938  21.518  25.826  1.00  0.00     0.081 A 
ATOM     18  N   UNL A   1      38.026  19.717  24.849  1.00  0.00    -0.061 NA
ATOM     19  C   UNL A   1      38.935  22.831  26.518  1.00  0.00     0.070 C 
BRANCH  15  20
ATOM     20  S   UNL A   1      41.273  20.336  26.797  1.00  0.00     0.227 S 
ATOM     21  O   UNL A   1      42.072  19.411  26.015  1.00  0.00    -0.217 OA
ATOM     22  O   UNL A   1      40.916  20.081  28.176  1.00  0.00    -0.217 OA
BRANCH  20  23
ATOM     23  C   UNL A   1      42.073  21.919  26.725  1.00  0.00     0.073 A 
ATOM     24  C   UNL A   1      43.290  24.434  26.474  1.00  0.00    -0.048 A 
ATOM     25  C   UNL A   1      43.080  23.629  25.345  1.00  0.00     0.005 A 
ATOM     26  C   UNL A   1      42.881  23.961  27.729  1.00  0.00     0.005 A 
ATOM     27  C   UNL A   1      42.464  22.383  25.466  1.00  0.00     0.021 A 
ATOM     28  C   UNL A   1      42.283  22.704  27.861  1.00  0.00     0.021 A 
BRANCH  24  29
ATOM     29  C   UNL A   1      43.988  25.767  26.349  1.00  0.00     0.032 C 
ATOM     30  C   UNL A   1      43.201  26.787  25.539  1.00  0.00     0.009 C 
ENDBRANCH  24  29
ENDBRANCH  20  23
ENDBRANCH  15  20
ENDBRANCH   9  14
ENDBRANCH   6   8
ENDBRANCH   5   6
ENDBRANCH   4   5
ENDBRANCH   3   4
ENDBRANCH   2   3
ENDBRANCH   1   2
BRANCH   1  31
ATOM     31  C   UNL A   1      32.356  27.033  25.640  1.00  0.00     0.188 C 
BRANCH  31  32
ATOM     32  O   UNL A   1      31.581  28.023  24.991  1.00  0.00    -0.376 OA
BRANCH  32  33
ATOM     33  C   UNL A   1      31.771  29.414  25.194  1.00  0.00     0.202 C 
BRANCH  33  34
ATOM     34  C   UNL A   1      32.172  30.044  26.524  1.00  0.00     0.261 C 
BRANCH  34  35
ATOM     35  O   UNL A   1      33.540  30.374  26.639  1.00  0.00    -0.460 OA
BRANCH  35  36
ATOM     36  C   UNL A   1      33.789  31.299  27.588  1.00  0.00     0.338 C 
ATOM     37  O   UNL A   1      33.248  32.381  27.730  1.00  0.00    -0.246 OA
BRANCH  36  38
ATOM     38  C   UNL A   1      34.897  30.836  28.424  1.00  0.00     0.060 A 
ATOM     39  C   UNL A   1      35.165  31.596  29.563  1.00  0.00     0.016 A 
ATOM     40  C   UNL A   1      35.815  29.916  27.897  1.00  0.00     0.016 A 
ATOM     41  C   UNL A   1      36.464  31.646  30.002  1.00  0.00     0.010 A 
ATOM     42  C   UNL A   1      37.113  29.968  28.338  1.00  0.00     0.010 A 
ATOM     43  C   UNL A   1      37.432  30.922  29.297  1.00  0.00    -0.014 A 
BRANCH  43  44
ATOM     44  C   UNL A   1      38.814  31.232  29.573  1.00  0.00     0.031 A 
ATOM     45  C   UNL A   1      39.691  30.049  29.615  1.00  0.00     0.074 A 
ATOM     46  C   UNL A   1      39.248  32.492  29.750  1.00  0.00     0.049 A 
ATOM     47  N   UNL A   1      40.265  29.539  30.650  1.00  0.00    -0.248 NA
ATOM     48  C   UNL A   1      39.816  29.256  28.386  1.00  0.00     0.031 C 
ATOM     49  C   UNL A   1      38.552  33.755  29.490  1.00  0.00     0.029 A 
ATOM     50  N   UNL A   1      40.488  32.898  30.120  1.00  0.00    -0.354 N 
ATOM     51  C   UNL A   1      40.976  28.447  30.178  1.00  0.00     0.074 A 
ATOM     52  C   UNL A   1      40.544  28.229  28.819  1.00  0.00     0.031 C 
ATOM     53  C   UNL A   1      39.456  34.763  29.472  1.00  0.00     0.029 A 
ATOM     54  C   UNL A   1      40.751  34.235  29.867  1.00  0.00     0.049 A 
ATOM     55  H   UNL A   1      41.146  32.294  30.533  1.00  0.00     0.167 HD
ATOM     56  C   UNL A   1      42.044  27.951  30.857  1.00  0.00     0.031 A 
ATOM     57  C   UNL A   1      41.970  34.824  29.913  1.00  0.00     0.031 A 
ATOM     58  C   UNL A   1      42.074  28.398  32.223  1.00  0.00     0.049 A 
ATOM     59  C   UNL A   1      42.855  33.960  30.734  1.00  0.00     0.074 A 
ATOM     60  C   UNL A   1      41.234  28.257  33.310  1.00  0.00     0.029 A 
ATOM     61  N   UNL A   1      42.908  29.448  32.527  1.00  0.00    -0.354 N 
ATOM     62  N   UNL A   1      42.697  33.791  32.015  1.00  0.00    -0.248 NA
ATOM     63  C   UNL A   1      43.625  32.926  30.059  1.00  0.00     0.031 C 
ATOM     64  C   UNL A   1      41.285  29.514  33.982  1.00  0.00     0.029 A 
ATOM     65  C   UNL A   1      42.195  30.327  33.301  1.00  0.00     0.049 A 
ATOM     66  H   UNL A   1      43.846  29.550  32.242  1.00  0.00     0.167 HD
ATOM     67  C   UNL A   1      42.953  32.444  32.229  1.00  0.00     0.074 A 
ATOM     68  C   UNL A   1      43.614  31.984  31.007  1.00  0.00     0.031 C 
ATOM     69  C   UNL A   1      42.352  31.764  33.250  1.00  0.00     0.031 A 
BRANCH  56  70
ATOM     70  C   UNL A   1      43.260  27.414  30.158  1.00  0.00    -0.014 A 
ATOM     71  C   UNL A   1      43.775  26.169  30.552  1.00  0.00     0.009 A 
ATOM     72  C   UNL A   1      44.077  28.212  29.331  1.00  0.00     0.009 A 
ATOM     73  C   UNL A   1      45.067  25.775  30.189  1.00  0.00     0.001 A 
ATOM     74  C   UNL A   1      45.349  27.803  28.933  1.00  0.00     0.001 A 
ATOM     75  C   UNL A   1      45.856  26.594  29.386  1.00  0.00     0.000 A 
ENDBRANCH  56  70
BRANCH  57  76
ATOM     76  C   UNL A   1      42.503  35.877  29.024  1.00  0.00    -0.014 A 
ATOM     77  C   UNL A   1      42.065  35.988  27.696  1.00  0.00     0.009 A 
ATOM     78  C   UNL A   1      43.234  36.951  29.566  1.00  0.00     0.009 A 
ATOM     79  C   UNL A   1      42.318  37.148  26.951  1.00  0.00     0.001 A 
ATOM     80  C   UNL A   1      43.487  38.108  28.822  1.00  0.00     0.001 A 
ATOM     81  C   UNL A   1      43.015  38.212  27.518  1.00  0.00     0.000 A 
ENDBRANCH  57  76
BRANCH  69  82
ATOM     82  C   UNL A   1      41.567  32.563  34.262  1.00  0.00    -0.014 A 
ATOM     83  C   UNL A   1      42.140  33.086  35.435  1.00  0.00     0.009 A 
ATOM     84  C   UNL A   1      40.251  32.927  33.946  1.00  0.00     0.009 A 
ATOM     85  C   UNL A   1      41.404  33.926  36.280  1.00  0.00     0.001 A 
ATOM     86  C   UNL A   1      39.523  33.781  34.779  1.00  0.00     0.001 A 
ATOM     87  C   UNL A   1      40.097  34.274  35.948  1.00  0.00     0.000 A 
ENDBRANCH  69  82
ENDBRANCH  43  44
ENDBRANCH  36  38
ENDBRANCH  35  36
ENDBRANCH  34  35
ENDBRANCH  33  34
ENDBRANCH  32  33
ENDBRANCH  31  32
ENDBRANCH   1  31
TORSDOF 21
ENDMDL
MODEL 3
REMARK VINA RESULT:     -10.2      1.783      5.097
REMARK SMILES CCc1ccc(S(=O)(=O)c2nnn(-c3ccc(C(=O)OCCOCCOCCOC(=O)c4ccc(-c5c6nc(c(-c7ccccc7)c7ccc([nH]7)c(-c7ccccc7)c7nc(c(-c8ccccc8)c8ccc5[nH]8)C=C7)C=C6)cc4)cc3)c2C)cc1
REMARK SMILES IDX 24 1 23 2 22 3 21 4 20 5 18 6 19 7 17 8 14 9 15 10 81 11
REMARK SMILES IDX 16 12 80 13 13 14 10 15 11 16 82 17 12 18 83 19 7 20 8 21
REMARK SMILES IDX 9 22 6 23 3 24 4 25 85 26 5 27 84 28 2 29 1 30 25 31 26 32
REMARK SMILES IDX 27 33 28 34 29 35 30 36 31 37 32 38 33 39 79 40 34 41 78 42
REMARK SMILES IDX 35 43 36 44 37 45 72 46 38 47 77 48 71 49 73 50 39 51 76 52
REMARK SMILES IDX 70 53 69 54 40 56 62 57 47 58 61 59 48 60 51 61 60 62 74 63
REMARK SMILES IDX 49 64 50 65 59 67 75 68 52 69 41 70 42 71 46 72 43 73 45 74
REMARK SMILES IDX 44 75 63 76 64 77 68 78 65 79 67 80 66 81 53 82 54 83 58 84
REMARK SMILES IDX 55 85 57 86 56 87
REMARK H PARENT 73 55 51 66
REMARK Flexibility Score: inf
ROOT
ATOM      1  C   UNL A   1      42.429  23.102  26.090  1.00  0.00     0.188 C 
ENDROOT
BRANCH   1   2
ATOM      2  O   UNL A   1      41.696  22.755  27.240  1.00  0.00    -0.376 OA
BRANCH   2   3
ATOM      3  C   UNL A   1      40.301  22.509  27.184  1.00  0.00     0.202 C 
BRANCH   3   4
ATOM      4  C   UNL A   1      39.583  21.513  26.251  1.00  0.00     0.261 C 
BRANCH   4   5
ATOM      5  O   UNL A   1      38.302  21.884  25.744  1.00  0.00    -0.460 OA
BRANCH   5   6
ATOM      6  C   UNL A   1      37.671  20.940  25.009  1.00  0.00     0.338 C 
ATOM      7  O   UNL A   1      38.004  19.774  24.863  1.00  0.00    -0.246 OA
BRANCH   6   8
ATOM      8  C   UNL A   1      36.381  21.473  24.525  1.00  0.00     0.060 A 
ATOM      9  C   UNL A   1      34.003  22.695  23.815  1.00  0.00     0.067 A 
ATOM     10  C   UNL A   1      35.203  23.240  23.351  1.00  0.00     0.029 A 
ATOM     11  C   UNL A   1      33.979  21.462  24.485  1.00  0.00     0.029 A 
ATOM     12  C   UNL A   1      36.398  22.639  23.742  1.00  0.00     0.018 A 
ATOM     13  C   UNL A   1      35.174  20.843  24.836  1.00  0.00     0.018 A 
BRANCH   9  14
ATOM     14  N   UNL A   1      32.843  23.497  23.805  1.00  0.00    -0.216 N 
ATOM     15  C   UNL A   1      31.272  24.900  24.346  1.00  0.00     0.205 A 
ATOM     16  N   UNL A   1      31.232  24.700  22.992  1.00  0.00    -0.117 NA
ATOM     17  C   UNL A   1      32.340  24.206  24.885  1.00  0.00     0.081 A 
ATOM     18  N   UNL A   1      32.249  23.912  22.665  1.00  0.00    -0.061 NA
ATOM     19  C   UNL A   1      32.991  24.280  26.218  1.00  0.00     0.070 C 
BRANCH  15  20
ATOM     20  S   UNL A   1      30.212  25.993  25.163  1.00  0.00     0.227 S 
ATOM     21  O   UNL A   1      29.808  25.258  26.347  1.00  0.00    -0.217 OA
ATOM     22  O   UNL A   1      29.263  26.452  24.171  1.00  0.00    -0.217 OA
BRANCH  20  23
ATOM     23  C   UNL A   1      31.155  27.395  25.705  1.00  0.00     0.073 A 
ATOM     24  C   UNL A   1      32.708  29.527  26.662  1.00  0.00    -0.048 A 
ATOM     25  C   UNL A   1      32.383  28.451  27.501  1.00  0.00     0.005 A 
ATOM     26  C   UNL A   1      32.244  29.519  25.339  1.00  0.00     0.005 A 
ATOM     27  C   UNL A   1      31.620  27.384  27.023  1.00  0.00     0.021 A 
ATOM     28  C   UNL A   1      31.461  28.464  24.860  1.00  0.00     0.021 A 
BRANCH  24  29
ATOM     29  C   UNL A   1      33.503  30.698  27.188  1.00  0.00     0.032 C 
ATOM     30  C   UNL A   1      34.904  30.319  27.645  1.00  0.00     0.009 C 
ENDBRANCH  24  29
ENDBRANCH  20  23
ENDBRANCH  15  20
ENDBRANCH   9  14
ENDBRANCH   6   8
ENDBRANCH   5   6
ENDBRANCH   4   5
ENDBRANCH   3   4
ENDBRANCH   2   3
ENDBRANCH   1   2
BRANCH   1  31
ATOM     31  C   UNL A   1      43.383  22.051  25.484  1.00  0.00     0.188 C 
BRANCH  31  32
ATOM     32  O   UNL A   1      44.634  22.403  24.923  1.00  0.00    -0.376 OA
BRANCH  32  33
ATOM     33  C   UNL A   1      45.003  23.741  24.628  1.00  0.00     0.202 C 
BRANCH  33  34
ATOM     34  C   UNL A   1      46.297  24.401  25.096  1.00  0.00     0.261 C 
BRANCH  34  35
ATOM     35  O   UNL A   1      46.126  25.466  26.007  1.00  0.00    -0.460 OA
BRANCH  35  36
ATOM     36  C   UNL A   1      45.527  26.545  25.463  1.00  0.00     0.338 C 
ATOM     37  O   UNL A   1      45.862  27.154  24.462  1.00  0.00    -0.246 OA
BRANCH  36  38
ATOM     38  C   UNL A   1      44.407  26.946  26.314  1.00  0.00     0.060 A 
ATOM     39  C   UNL A   1      43.399  27.685  25.693  1.00  0.00     0.016 A 
ATOM     40  C   UNL A   1      44.550  26.886  27.708  1.00  0.00     0.016 A 
ATOM     41  C   UNL A   1      42.715  28.595  26.459  1.00  0.00     0.010 A 
ATOM     42  C   UNL A   1      43.865  27.797  28.471  1.00  0.00     0.010 A 
ATOM     43  C   UNL A   1      43.055  28.714  27.812  1.00  0.00    -0.014 A 
BRANCH  43  44
ATOM     44  C   UNL A   1      42.559  29.873  28.513  1.00  0.00     0.031 A 
ATOM     45  C   UNL A   1      43.509  30.997  28.548  1.00  0.00     0.074 A 
ATOM     46  C   UNL A   1      41.330  29.914  29.059  1.00  0.00     0.049 A 
ATOM     47  N   UNL A   1      44.149  31.447  29.572  1.00  0.00    -0.248 NA
ATOM     48  C   UNL A   1      43.906  31.588  27.263  1.00  0.00     0.031 C 
ATOM     49  C   UNL A   1      40.209  28.985  28.884  1.00  0.00     0.029 A 
ATOM     50  N   UNL A   1      40.797  30.895  29.828  1.00  0.00    -0.354 N 
ATOM     51  C   UNL A   1      44.912  32.504  29.097  1.00  0.00     0.074 A 
ATOM     52  C   UNL A   1      44.843  32.448  27.658  1.00  0.00     0.031 C 
ATOM     53  C   UNL A   1      39.073  29.577  29.322  1.00  0.00     0.029 A 
ATOM     54  C   UNL A   1      39.417  30.848  29.938  1.00  0.00     0.049 A 
ATOM     55  H   UNL A   1      41.344  31.582  30.272  1.00  0.00     0.167 HD
ATOM     56  C   UNL A   1      45.346  33.490  29.924  1.00  0.00     0.031 A 
ATOM     57  C   UNL A   1      38.628  31.831  30.437  1.00  0.00     0.031 A 
ATOM     58  C   UNL A   1      45.281  33.107  31.309  1.00  0.00     0.049 A 
ATOM     59  C   UNL A   1      39.483  32.712  31.271  1.00  0.00     0.074 A 
ATOM     60  C   UNL A   1      45.871  32.117  32.072  1.00  0.00     0.029 A 
ATOM     61  N   UNL A   1      44.204  33.552  32.039  1.00  0.00    -0.354 N 
ATOM     62  N   UNL A   1      40.015  32.330  32.397  1.00  0.00    -0.248 NA
ATOM     63  C   UNL A   1      40.125  33.852  30.634  1.00  0.00     0.031 C 
ATOM     64  C   UNL A   1      44.853  31.693  32.976  1.00  0.00     0.029 A 
ATOM     65  C   UNL A   1      43.724  32.484  32.753  1.00  0.00     0.049 A 
ATOM     66  H   UNL A   1      43.844  34.469  32.048  1.00  0.00     0.167 HD
ATOM     67  C   UNL A   1      41.291  32.876  32.389  1.00  0.00     0.074 A 
ATOM     68  C   UNL A   1      41.267  33.882  31.328  1.00  0.00     0.031 C 
ATOM     69  C   UNL A   1      42.324  32.267  33.044  1.00  0.00     0.031 A 
BRANCH  56  70
ATOM     70  C   UNL A   1      45.422  34.926  29.489  1.00  0.00    -0.014 A 
ATOM     71  C   UNL A   1      44.232  35.656  29.349  1.00  0.00     0.009 A 
ATOM     72  C   UNL A   1      46.590  35.494  28.942  1.00  0.00     0.009 A 
ATOM     73  C   UNL A   1      44.204  36.862  28.640  1.00  0.00     0.001 A 
ATOM     74  C   UNL A   1      46.574  36.717  28.271  1.00  0.00     0.001 A 
ATOM     75  C   UNL A   1      45.373  37.388  28.096  1.00  0.00     0.000 A 
ENDBRANCH  56  70
BRANCH  57  76
ATOM     76  C   UNL A   1      37.292  32.250  29.964  1.00  0.00    -0.014 A 
ATOM     77  C   UNL A   1      36.169  32.148  30.797  1.00  0.00     0.009 A 
ATOM     78  C   UNL A   1      37.172  33.016  28.789  1.00  0.00     0.009 A 
ATOM     79  C   UNL A   1      34.979  32.820  30.483  1.00  0.00     0.001 A 
ATOM     80  C   UNL A   1      35.985  33.686  28.477  1.00  0.00     0.001 A 
ATOM     81  C   UNL A   1      34.893  33.599  29.332  1.00  0.00     0.000 A 
ENDBRANCH  57  76
BRANCH  69  82
ATOM     82  C   UNL A   1      41.996  31.101  33.945  1.00  0.00    -0.014 A 
ATOM     83  C   UNL A   1      41.872  29.781  33.475  1.00  0.00     0.009 A 
ATOM     84  C   UNL A   1      41.964  31.318  35.330  1.00  0.00     0.009 A 
ATOM     85  C   UNL A   1      41.692  28.716  34.365  1.00  0.00     0.001 A 
ATOM     86  C   UNL A   1      41.804  30.253  36.219  1.00  0.00     0.001 A 
ATOM     87  C   UNL A   1      41.662  28.954  35.737  1.00  0.00     0.000 A 
ENDBRANCH  69  82
ENDBRANCH  43  44
ENDBRANCH  36  38
ENDBRANCH  35  36
ENDBRANCH  34  35
ENDBRANCH  33  34
ENDBRANCH  32  33
ENDBRANCH  31  32
ENDBRANCH   1  31
TORSDOF 21
ENDMDL
