MODEL 1
REMARK VINA RESULT:     -10.0      0.000      0.000
REMARK SMILES O=C(C[C@H]1S/C(=[NH+]/N=C/c2cccc(Cl)c2)NC1=O)OCCOCCOCCOC(=O)c1ccc(-c2c3nc(c(-c4ccccc4)c4ccc([nH]4)c(-c4ccccc4)c4nc(c(-c5ccccc5)c5ccc2[nH]5)C=C4)C=C3)cc1
REMARK SMILES IDX 24 1 23 2 22 3 21 4 20 5 2 6 1 7 3 8 4 9 5 10 18 11 6 12
REMARK SMILES IDX 17 13 19 14 7 15 8 18 9 19 10 20 11 21 16 22 12 23 14 24
REMARK SMILES IDX 13 25 15 26 25 27 26 28 27 29 28 30 29 31 30 32 31 33 32 34
REMARK SMILES IDX 33 35 79 36 34 37 78 38 35 39 36 40 37 41 72 42 38 43 77 44
REMARK SMILES IDX 71 45 73 46 39 47 76 48 70 49 69 50 40 52 62 53 47 54 61 55
REMARK SMILES IDX 48 56 51 57 60 58 74 59 49 60 50 61 59 63 75 64 52 65 41 66
REMARK SMILES IDX 42 67 46 68 43 69 45 70 44 71 63 72 64 73 68 74 65 75 67 76
REMARK SMILES IDX 66 77 53 78 54 79 58 80 55 81 57 82 56 83
REMARK H PARENT 17 16 7 17 73 51 51 62
REMARK Flexibility Score: inf
ROOT
ATOM      1  C   UNL A   1      34.023  30.145  27.376  1.00  0.00     0.188 C 
ENDROOT
BRANCH   1   2
ATOM      2  O   UNL A   1      33.335  30.071  26.146  1.00  0.00    -0.376 OA
BRANCH   2   3
ATOM      3  C   UNL A   1      32.014  29.561  26.100  1.00  0.00     0.202 C 
BRANCH   3   4
ATOM      4  C   UNL A   1      31.247  29.649  24.777  1.00  0.00     0.261 C 
BRANCH   4   5
ATOM      5  O   UNL A   1      31.623  28.814  23.647  1.00  0.00    -0.463 OA
BRANCH   5   6
ATOM      6  C   UNL A   1      30.947  28.265  22.628  1.00  0.00     0.307 C 
ATOM      7  O   UNL A   1      30.131  28.942  22.004  1.00  0.00    -0.252 OA
BRANCH   6   8
ATOM      8  C   UNL A   1      31.137  26.830  22.262  1.00  0.00     0.150 C 
BRANCH   8   9
ATOM      9  C   UNL A   1      32.445  26.290  22.808  1.00  0.00     0.184 C 
ATOM     10  S   UNL A   1      32.247  25.610  24.496  1.00  0.00    -0.020 SA
ATOM     11  C   UNL A   1      32.888  25.113  21.961  1.00  0.00     0.322 C 
ATOM     12  C   UNL A   1      32.438  23.981  23.950  1.00  0.00     0.337 C 
ATOM     13  N   UNL A   1      32.822  23.945  22.654  1.00  0.00    -0.202 N 
ATOM     14  O   UNL A   1      33.196  25.179  20.778  1.00  0.00    -0.246 OA
ATOM     15  N   UNL A   1      32.250  22.941  24.688  1.00  0.00    -0.142 N 
ATOM     16  H   UNL A   1      33.051  23.091  22.222  1.00  0.00     0.316 HD
ATOM     17  H   UNL A   1      31.857  22.957  25.590  1.00  0.00     0.343 HD
BRANCH  15  18
ATOM     18  N   UNL A   1      32.681  21.790  24.032  1.00  0.00    -0.093 NA
ATOM     19  C   UNL A   1      32.186  20.705  24.532  1.00  0.00     0.166 C 
BRANCH  19  20
ATOM     20  C   UNL A   1      32.728  19.407  24.094  1.00  0.00    -0.002 A 
ATOM     21  C   UNL A   1      32.320  18.892  22.854  1.00  0.00     0.010 A 
ATOM     22  C   UNL A   1      33.675  18.736  24.865  1.00  0.00     0.030 A 
ATOM     23  C   UNL A   1      32.864  17.705  22.377  1.00  0.00     0.002 A 
ATOM     24  C   UNL A   1      34.201  17.536  24.384  1.00  0.00     0.041 A 
ATOM     25  C   UNL A   1      33.806  17.022  23.145  1.00  0.00     0.020 A 
ATOM     26  Cl  UNL A   1      35.362  16.679  25.321  1.00  0.00    -0.084 Cl
ENDBRANCH  19  20
ENDBRANCH  15  18
ENDBRANCH   8   9
ENDBRANCH   6   8
ENDBRANCH   5   6
ENDBRANCH   4   5
ENDBRANCH   3   4
ENDBRANCH   2   3
ENDBRANCH   1   2
BRANCH   1  27
ATOM     27  C   UNL A   1      34.304  31.596  27.798  1.00  0.00     0.188 C 
BRANCH  27  28
ATOM     28  O   UNL A   1      33.225  32.521  27.724  1.00  0.00    -0.376 OA
BRANCH  28  29
ATOM     29  C   UNL A   1      33.540  33.917  27.740  1.00  0.00     0.202 C 
BRANCH  29  30
ATOM     30  C   UNL A   1      32.897  34.802  28.822  1.00  0.00     0.261 C 
BRANCH  30  31
ATOM     31  O   UNL A   1      33.823  35.348  29.787  1.00  0.00    -0.460 OA
BRANCH  31  32
ATOM     32  C   UNL A   1      33.850  34.722  30.987  1.00  0.00     0.338 C 
ATOM     33  O   UNL A   1      33.068  34.860  31.918  1.00  0.00    -0.246 OA
BRANCH  32  34
ATOM     34  C   UNL A   1      34.930  33.720  31.030  1.00  0.00     0.060 A 
ATOM     35  C   UNL A   1      34.849  32.666  31.949  1.00  0.00     0.016 A 
ATOM     36  C   UNL A   1      36.092  33.917  30.284  1.00  0.00     0.016 A 
ATOM     37  C   UNL A   1      35.938  31.808  32.130  1.00  0.00     0.010 A 
ATOM     38  C   UNL A   1      37.187  33.065  30.476  1.00  0.00     0.010 A 
ATOM     39  C   UNL A   1      37.125  32.019  31.415  1.00  0.00    -0.014 A 
BRANCH  39  40
ATOM     40  C   UNL A   1      38.337  31.212  31.703  1.00  0.00     0.031 A 
ATOM     41  C   UNL A   1      39.238  31.596  32.846  1.00  0.00     0.074 A 
ATOM     42  C   UNL A   1      38.651  30.153  30.934  1.00  0.00     0.049 A 
ATOM     43  N   UNL A   1      40.390  31.086  33.198  1.00  0.00    -0.248 NA
ATOM     44  C   UNL A   1      38.778  32.699  33.705  1.00  0.00     0.031 C 
ATOM     45  C   UNL A   1      37.845  29.641  29.826  1.00  0.00     0.029 A 
ATOM     46  N   UNL A   1      39.750  29.329  30.960  1.00  0.00    -0.354 N 
ATOM     47  C   UNL A   1      40.799  31.807  34.313  1.00  0.00     0.074 A 
ATOM     48  C   UNL A   1      39.778  32.801  34.571  1.00  0.00     0.031 C 
ATOM     49  C   UNL A   1      38.490  28.604  29.263  1.00  0.00     0.029 A 
ATOM     50  C   UNL A   1      39.768  28.407  29.944  1.00  0.00     0.049 A 
ATOM     51  H   UNL A   1      40.456  29.394  31.644  1.00  0.00     0.167 HD
ATOM     52  C   UNL A   1      41.923  31.659  35.054  1.00  0.00     0.031 A 
ATOM     53  C   UNL A   1      40.724  27.528  29.578  1.00  0.00     0.031 A 
ATOM     54  C   UNL A   1      42.948  30.681  34.800  1.00  0.00     0.049 A 
ATOM     55  C   UNL A   1      42.008  27.453  30.362  1.00  0.00     0.074 A 
ATOM     56  C   UNL A   1      44.105  30.439  35.522  1.00  0.00     0.029 A 
ATOM     57  N   UNL A   1      42.948  29.796  33.736  1.00  0.00    -0.354 N 
ATOM     58  N   UNL A   1      42.365  28.116  31.434  1.00  0.00    -0.248 NA
ATOM     59  C   UNL A   1      43.024  26.505  29.877  1.00  0.00     0.031 C 
ATOM     60  C   UNL A   1      44.834  29.446  34.860  1.00  0.00     0.029 A 
ATOM     61  C   UNL A   1      44.105  29.035  33.757  1.00  0.00     0.049 A 
ATOM     62  H   UNL A   1      42.232  29.718  33.064  1.00  0.00     0.167 HD
ATOM     63  C   UNL A   1      43.633  27.652  31.763  1.00  0.00     0.074 A 
ATOM     64  C   UNL A   1      43.977  26.638  30.789  1.00  0.00     0.031 C 
ATOM     65  C   UNL A   1      44.442  28.033  32.780  1.00  0.00     0.031 A 
BRANCH  52  66
ATOM     66  C   UNL A   1      42.132  32.601  36.205  1.00  0.00    -0.014 A 
ATOM     67  C   UNL A   1      42.633  33.895  36.005  1.00  0.00     0.009 A 
ATOM     68  C   UNL A   1      41.747  32.210  37.498  1.00  0.00     0.009 A 
ATOM     69  C   UNL A   1      42.761  34.775  37.082  1.00  0.00     0.001 A 
ATOM     70  C   UNL A   1      41.855  33.100  38.568  1.00  0.00     0.001 A 
ATOM     71  C   UNL A   1      42.366  34.380  38.360  1.00  0.00     0.000 A 
ENDBRANCH  52  66
BRANCH  53  72
ATOM     72  C   UNL A   1      40.538  26.681  28.371  1.00  0.00    -0.014 A 
ATOM     73  C   UNL A   1      41.110  27.047  27.144  1.00  0.00     0.009 A 
ATOM     74  C   UNL A   1      39.737  25.530  28.432  1.00  0.00     0.009 A 
ATOM     75  C   UNL A   1      40.860  26.292  25.996  1.00  0.00     0.001 A 
ATOM     76  C   UNL A   1      39.511  24.762  27.288  1.00  0.00     0.001 A 
ATOM     77  C   UNL A   1      40.062  25.150  26.070  1.00  0.00     0.000 A 
ENDBRANCH  53  72
BRANCH  65  78
ATOM     78  C   UNL A   1      45.770  27.342  32.907  1.00  0.00    -0.014 A 
ATOM     79  C   UNL A   1      45.893  26.130  33.605  1.00  0.00     0.009 A 
ATOM     80  C   UNL A   1      46.905  27.886  32.285  1.00  0.00     0.009 A 
ATOM     81  C   UNL A   1      47.131  25.491  33.701  1.00  0.00     0.001 A 
ATOM     82  C   UNL A   1      48.135  27.232  32.360  1.00  0.00     0.001 A 
ATOM     83  C   UNL A   1      48.249  26.041  33.074  1.00  0.00     0.000 A 
ENDBRANCH  65  78
ENDBRANCH  39  40
ENDBRANCH  32  34
ENDBRANCH  31  32
ENDBRANCH  30  31
ENDBRANCH  29  30
ENDBRANCH  28  29
ENDBRANCH  27  28
ENDBRANCH   1  27
TORSDOF 20
ENDMDL
MODEL 2
REMARK VINA RESULT:      -9.7      5.996     11.965
REMARK SMILES O=C(C[C@H]1S/C(=[NH+]/N=C/c2cccc(Cl)c2)NC1=O)OCCOCCOCCOC(=O)c1ccc(-c2c3nc(c(-c4ccccc4)c4ccc([nH]4)c(-c4ccccc4)c4nc(c(-c5ccccc5)c5ccc2[nH]5)C=C4)C=C3)cc1
REMARK SMILES IDX 24 1 23 2 22 3 21 4 20 5 2 6 1 7 3 8 4 9 5 10 18 11 6 12
REMARK SMILES IDX 17 13 19 14 7 15 8 18 9 19 10 20 11 21 16 22 12 23 14 24
REMARK SMILES IDX 13 25 15 26 25 27 26 28 27 29 28 30 29 31 30 32 31 33 32 34
REMARK SMILES IDX 33 35 79 36 34 37 78 38 35 39 36 40 37 41 72 42 38 43 77 44
REMARK SMILES IDX 71 45 73 46 39 47 76 48 70 49 69 50 40 52 62 53 47 54 61 55
REMARK SMILES IDX 48 56 51 57 60 58 74 59 49 60 50 61 59 63 75 64 52 65 41 66
REMARK SMILES IDX 42 67 46 68 43 69 45 70 44 71 63 72 64 73 68 74 65 75 67 76
REMARK SMILES IDX 66 77 53 78 54 79 58 80 55 81 57 82 56 83
REMARK H PARENT 17 16 7 17 73 51 51 62
REMARK Flexibility Score: inf
ROOT
ATOM      1  C   UNL A   1      42.959  20.316  26.125  1.00  0.00     0.188 C 
ENDROOT
BRANCH   1   2
ATOM      2  O   UNL A   1      42.982  21.288  25.100  1.00  0.00    -0.376 OA
BRANCH   2   3
ATOM      3  C   UNL A   1      43.945  22.326  25.128  1.00  0.00     0.202 C 
BRANCH   3   4
ATOM      4  C   UNL A   1      45.312  22.030  25.752  1.00  0.00     0.261 C 
BRANCH   4   5
ATOM      5  O   UNL A   1      46.403  22.984  25.634  1.00  0.00    -0.463 OA
BRANCH   5   6
ATOM      6  C   UNL A   1      46.551  24.158  25.003  1.00  0.00     0.307 C 
ATOM      7  O   UNL A   1      47.156  24.201  23.933  1.00  0.00    -0.252 OA
BRANCH   6   8
ATOM      8  C   UNL A   1      46.028  25.424  25.599  1.00  0.00     0.150 C 
BRANCH   8   9
ATOM      9  C   UNL A   1      47.129  26.455  25.759  1.00  0.00     0.184 C 
ATOM     10  S   UNL A   1      46.967  27.815  24.545  1.00  0.00    -0.020 SA
ATOM     11  C   UNL A   1      46.991  27.121  27.115  1.00  0.00     0.322 C 
ATOM     12  C   UNL A   1      46.484  28.949  25.757  1.00  0.00     0.337 C 
ATOM     13  N   UNL A   1      46.625  28.425  26.995  1.00  0.00    -0.202 N 
ATOM     14  O   UNL A   1      47.115  26.551  28.190  1.00  0.00    -0.246 OA
ATOM     15  N   UNL A   1      46.058  30.140  25.508  1.00  0.00    -0.142 N 
ATOM     16  H   UNL A   1      46.468  28.978  27.795  1.00  0.00     0.316 HD
ATOM     17  H   UNL A   1      45.840  30.482  24.611  1.00  0.00     0.343 HD
BRANCH  15  18
ATOM     18  N   UNL A   1      45.947  30.877  26.685  1.00  0.00    -0.093 NA
ATOM     19  C   UNL A   1      45.058  31.813  26.617  1.00  0.00     0.166 C 
BRANCH  19  20
ATOM     20  C   UNL A   1      44.993  32.813  27.696  1.00  0.00    -0.002 A 
ATOM     21  C   UNL A   1      46.153  33.079  28.438  1.00  0.00     0.010 A 
ATOM     22  C   UNL A   1      43.819  33.527  27.933  1.00  0.00     0.030 A 
ATOM     23  C   UNL A   1      46.147  34.067  29.417  1.00  0.00     0.002 A 
ATOM     24  C   UNL A   1      43.820  34.504  28.929  1.00  0.00     0.041 A 
ATOM     25  C   UNL A   1      44.976  34.781  29.665  1.00  0.00     0.020 A 
ATOM     26  Cl  UNL A   1      42.381  35.391  29.251  1.00  0.00    -0.084 Cl
ENDBRANCH  19  20
ENDBRANCH  15  18
ENDBRANCH   8   9
ENDBRANCH   6   8
ENDBRANCH   5   6
ENDBRANCH   4   5
ENDBRANCH   3   4
ENDBRANCH   2   3
ENDBRANCH   1   2
BRANCH   1  27
ATOM     27  C   UNL A   1      42.100  20.755  27.322  1.00  0.00     0.188 C 
BRANCH  27  28
ATOM     28  O   UNL A   1      40.807  20.174  27.448  1.00  0.00    -0.376 OA
BRANCH  28  29
ATOM     29  C   UNL A   1      40.035  20.000  26.256  1.00  0.00     0.202 C 
BRANCH  29  30
ATOM     30  C   UNL A   1      39.249  21.206  25.710  1.00  0.00     0.261 C 
BRANCH  30  31
ATOM     31  O   UNL A   1      39.036  22.272  26.661  1.00  0.00    -0.460 OA
BRANCH  31  32
ATOM     32  C   UNL A   1      38.684  23.466  26.128  1.00  0.00     0.338 C 
ATOM     33  O   UNL A   1      37.877  23.673  25.232  1.00  0.00    -0.246 OA
BRANCH  32  34
ATOM     34  C   UNL A   1      39.341  24.573  26.845  1.00  0.00     0.060 A 
ATOM     35  C   UNL A   1      39.075  24.759  28.207  1.00  0.00     0.016 A 
ATOM     36  C   UNL A   1      40.083  25.519  26.136  1.00  0.00     0.016 A 
ATOM     37  C   UNL A   1      39.545  25.900  28.864  1.00  0.00     0.010 A 
ATOM     38  C   UNL A   1      40.541  26.668  26.792  1.00  0.00     0.010 A 
ATOM     39  C   UNL A   1      40.257  26.877  28.154  1.00  0.00    -0.014 A 
BRANCH  39  40
ATOM     40  C   UNL A   1      40.633  28.160  28.799  1.00  0.00     0.031 A 
ATOM     41  C   UNL A   1      42.023  28.340  29.350  1.00  0.00     0.074 A 
ATOM     42  C   UNL A   1      39.735  29.154  28.919  1.00  0.00     0.049 A 
ATOM     43  N   UNL A   1      42.517  29.338  30.036  1.00  0.00    -0.248 NA
ATOM     44  C   UNL A   1      42.979  27.252  29.092  1.00  0.00     0.031 C 
ATOM     45  C   UNL A   1      38.372  29.134  28.390  1.00  0.00     0.029 A 
ATOM     46  N   UNL A   1      39.835  30.372  29.546  1.00  0.00    -0.354 N 
ATOM     47  C   UNL A   1      43.839  28.999  30.300  1.00  0.00     0.074 A 
ATOM     48  C   UNL A   1      44.065  27.696  29.712  1.00  0.00     0.031 C 
ATOM     49  C   UNL A   1      37.755  30.278  28.736  1.00  0.00     0.029 A 
ATOM     50  C   UNL A   1      38.664  31.089  29.543  1.00  0.00     0.049 A 
ATOM     51  H   UNL A   1      40.668  30.701  29.957  1.00  0.00     0.167 HD
ATOM     52  C   UNL A   1      44.778  29.707  30.973  1.00  0.00     0.031 A 
ATOM     53  C   UNL A   1      38.348  32.248  30.153  1.00  0.00     0.031 A 
ATOM     54  C   UNL A   1      44.559  30.998  31.569  1.00  0.00     0.049 A 
ATOM     55  C   UNL A   1      39.384  32.965  30.979  1.00  0.00     0.074 A 
ATOM     56  C   UNL A   1      45.467  31.800  32.240  1.00  0.00     0.029 A 
ATOM     57  N   UNL A   1      43.348  31.667  31.580  1.00  0.00    -0.354 N 
ATOM     58  N   UNL A   1      40.639  32.651  31.189  1.00  0.00    -0.248 NA
ATOM     59  C   UNL A   1      38.954  34.200  31.654  1.00  0.00     0.031 C 
ATOM     60  C   UNL A   1      44.788  32.930  32.709  1.00  0.00     0.029 A 
ATOM     61  C   UNL A   1      43.472  32.854  32.283  1.00  0.00     0.049 A 
ATOM     62  H   UNL A   1      42.521  31.347  31.151  1.00  0.00     0.167 HD
ATOM     63  C   UNL A   1      41.151  33.656  32.001  1.00  0.00     0.074 A 
ATOM     64  C   UNL A   1      40.079  34.600  32.230  1.00  0.00     0.031 C 
ATOM     65  C   UNL A   1      42.399  33.784  32.512  1.00  0.00     0.031 A 
BRANCH  52  66
ATOM     66  C   UNL A   1      46.137  29.087  31.135  1.00  0.00    -0.014 A 
ATOM     67  C   UNL A   1      47.207  29.451  30.305  1.00  0.00     0.009 A 
ATOM     68  C   UNL A   1      46.364  28.183  32.186  1.00  0.00     0.009 A 
ATOM     69  C   UNL A   1      48.476  28.907  30.514  1.00  0.00     0.001 A 
ATOM     70  C   UNL A   1      47.639  27.659  32.405  1.00  0.00     0.001 A 
ATOM     71  C   UNL A   1      48.693  28.018  31.566  1.00  0.00     0.000 A 
ENDBRANCH  52  66
BRANCH  53  72
ATOM     72  C   UNL A   1      36.965  32.786  30.065  1.00  0.00    -0.014 A 
ATOM     73  C   UNL A   1      35.984  32.398  30.989  1.00  0.00     0.009 A 
ATOM     74  C   UNL A   1      36.608  33.650  29.017  1.00  0.00     0.009 A 
ATOM     75  C   UNL A   1      34.667  32.840  30.848  1.00  0.00     0.001 A 
ATOM     76  C   UNL A   1      35.297  34.112  28.895  1.00  0.00     0.001 A 
ATOM     77  C   UNL A   1      34.325  33.698  29.803  1.00  0.00     0.000 A 
ENDBRANCH  53  72
BRANCH  65  78
ATOM     78  C   UNL A   1      42.682  34.995  33.355  1.00  0.00    -0.014 A 
ATOM     79  C   UNL A   1      43.217  36.163  32.789  1.00  0.00     0.009 A 
ATOM     80  C   UNL A   1      42.370  34.984  34.724  1.00  0.00     0.009 A 
ATOM     81  C   UNL A   1      43.460  37.287  33.583  1.00  0.00     0.001 A 
ATOM     82  C   UNL A   1      42.589  36.117  35.509  1.00  0.00     0.001 A 
ATOM     83  C   UNL A   1      43.141  37.263  34.940  1.00  0.00     0.000 A 
ENDBRANCH  65  78
ENDBRANCH  39  40
ENDBRANCH  32  34
ENDBRANCH  31  32
ENDBRANCH  30  31
ENDBRANCH  29  30
ENDBRANCH  28  29
ENDBRANCH  27  28
ENDBRANCH   1  27
TORSDOF 20
ENDMDL
MODEL 3
REMARK VINA RESULT:      -9.7      0.557      5.806
REMARK SMILES O=C(C[C@H]1S/C(=[NH+]/N=C/c2cccc(Cl)c2)NC1=O)OCCOCCOCCOC(=O)c1ccc(-c2c3nc(c(-c4ccccc4)c4ccc([nH]4)c(-c4ccccc4)c4nc(c(-c5ccccc5)c5ccc2[nH]5)C=C4)C=C3)cc1
REMARK SMILES IDX 24 1 23 2 22 3 21 4 20 5 2 6 1 7 3 8 4 9 5 10 18 11 6 12
REMARK SMILES IDX 17 13 19 14 7 15 8 18 9 19 10 20 11 21 16 22 12 23 14 24
REMARK SMILES IDX 13 25 15 26 25 27 26 28 27 29 28 30 29 31 30 32 31 33 32 34
REMARK SMILES IDX 33 35 79 36 34 37 78 38 35 39 36 40 37 41 72 42 38 43 77 44
REMARK SMILES IDX 71 45 73 46 39 47 76 48 70 49 69 50 40 52 62 53 47 54 61 55
REMARK SMILES IDX 48 56 51 57 60 58 74 59 49 60 50 61 59 63 75 64 52 65 41 66
REMARK SMILES IDX 42 67 46 68 43 69 45 70 44 71 63 72 64 73 68 74 65 75 67 76
REMARK SMILES IDX 66 77 53 78 54 79 58 80 55 81 57 82 56 83
REMARK H PARENT 17 16 7 17 73 51 51 62
REMARK Flexibility Score: inf
ROOT
ATOM      1  C   UNL A   1      34.062  30.075  27.364  1.00  0.00     0.188 C 
ENDROOT
BRANCH   1   2
ATOM      2  O   UNL A   1      33.374  30.055  26.131  1.00  0.00    -0.376 OA
BRANCH   2   3
ATOM      3  C   UNL A   1      32.045  29.568  26.067  1.00  0.00     0.202 C 
BRANCH   3   4
ATOM      4  C   UNL A   1      31.297  29.675  24.735  1.00  0.00     0.261 C 
BRANCH   4   5
ATOM      5  O   UNL A   1      31.660  28.826  23.611  1.00  0.00    -0.463 OA
BRANCH   5   6
ATOM      6  C   UNL A   1      30.979  28.295  22.585  1.00  0.00     0.307 C 
ATOM      7  O   UNL A   1      30.178  28.991  21.963  1.00  0.00    -0.252 OA
BRANCH   6   8
ATOM      8  C   UNL A   1      31.147  26.860  22.211  1.00  0.00     0.150 C 
BRANCH   8   9
ATOM      9  C   UNL A   1      32.466  26.307  22.719  1.00  0.00     0.184 C 
ATOM     10  S   UNL A   1      32.313  25.639  24.416  1.00  0.00    -0.020 SA
ATOM     11  C   UNL A   1      32.868  25.121  21.864  1.00  0.00     0.322 C 
ATOM     12  C   UNL A   1      32.468  24.004  23.873  1.00  0.00     0.337 C 
ATOM     13  N   UNL A   1      32.810  23.958  22.566  1.00  0.00    -0.202 N 
ATOM     14  O   UNL A   1      33.138  25.176  20.672  1.00  0.00    -0.246 OA
ATOM     15  N   UNL A   1      32.291  22.971  24.623  1.00  0.00    -0.142 N 
ATOM     16  H   UNL A   1      33.015  23.098  22.132  1.00  0.00     0.316 HD
ATOM     17  H   UNL A   1      31.927  22.996  25.537  1.00  0.00     0.343 HD
BRANCH  15  18
ATOM     18  N   UNL A   1      32.687  21.811  23.961  1.00  0.00    -0.093 NA
ATOM     19  C   UNL A   1      32.226  20.733  24.504  1.00  0.00     0.166 C 
BRANCH  19  20
ATOM     20  C   UNL A   1      32.746  19.430  24.054  1.00  0.00    -0.002 A 
ATOM     21  C   UNL A   1      32.247  18.881  22.863  1.00  0.00     0.010 A 
ATOM     22  C   UNL A   1      33.758  18.786  24.763  1.00  0.00     0.030 A 
ATOM     23  C   UNL A   1      32.765  17.688  22.372  1.00  0.00     0.002 A 
ATOM     24  C   UNL A   1      34.258  17.581  24.270  1.00  0.00     0.041 A 
ATOM     25  C   UNL A   1      33.772  17.033  23.079  1.00  0.00     0.020 A 
ATOM     26  Cl  UNL A   1      35.499  16.757  25.131  1.00  0.00    -0.084 Cl
ENDBRANCH  19  20
ENDBRANCH  15  18
ENDBRANCH   8   9
ENDBRANCH   6   8
ENDBRANCH   5   6
ENDBRANCH   4   5
ENDBRANCH   3   4
ENDBRANCH   2   3
ENDBRANCH   1   2
BRANCH   1  27
ATOM     27  C   UNL A   1      34.394  31.504  27.821  1.00  0.00     0.188 C 
BRANCH  27  28
ATOM     28  O   UNL A   1      33.340  32.460  27.800  1.00  0.00    -0.376 OA
BRANCH  28  29
ATOM     29  C   UNL A   1      33.691  33.842  27.921  1.00  0.00     0.202 C 
BRANCH  29  30
ATOM     30  C   UNL A   1      33.091  34.653  29.083  1.00  0.00     0.261 C 
BRANCH  30  31
ATOM     31  O   UNL A   1      34.052  35.120  30.056  1.00  0.00    -0.460 OA
BRANCH  31  32
ATOM     32  C   UNL A   1      34.147  34.375  31.183  1.00  0.00     0.338 C 
ATOM     33  O   UNL A   1      33.344  34.312  32.104  1.00  0.00    -0.246 OA
BRANCH  32  34
ATOM     34  C   UNL A   1      35.345  33.518  31.145  1.00  0.00     0.060 A 
ATOM     35  C   UNL A   1      35.369  32.341  31.904  1.00  0.00     0.016 A 
ATOM     36  C   UNL A   1      36.498  33.962  30.496  1.00  0.00     0.016 A 
ATOM     37  C   UNL A   1      36.553  31.607  32.023  1.00  0.00     0.010 A 
ATOM     38  C   UNL A   1      37.686  33.233  30.627  1.00  0.00     0.010 A 
ATOM     39  C   UNL A   1      37.727  32.064  31.408  1.00  0.00    -0.014 A 
BRANCH  39  40
ATOM     40  C   UNL A   1      39.022  31.378  31.645  1.00  0.00     0.031 A 
ATOM     41  C   UNL A   1      39.423  30.217  30.776  1.00  0.00     0.074 A 
ATOM     42  C   UNL A   1      39.830  31.770  32.647  1.00  0.00     0.049 A 
ATOM     43  N   UNL A   1      40.459  29.423  30.882  1.00  0.00    -0.248 NA
ATOM     44  C   UNL A   1      38.542  29.910  29.638  1.00  0.00     0.031 C 
ATOM     45  C   UNL A   1      39.590  32.908  33.534  1.00  0.00     0.029 A 
ATOM     46  N   UNL A   1      41.012  31.236  33.098  1.00  0.00    -0.354 N 
ATOM     47  C   UNL A   1      40.352  28.519  29.831  1.00  0.00     0.074 A 
ATOM     48  C   UNL A   1      39.143  28.853  29.108  1.00  0.00     0.031 C 
ATOM     49  C   UNL A   1      40.583  32.971  34.439  1.00  0.00     0.029 A 
ATOM     50  C   UNL A   1      41.503  31.857  34.219  1.00  0.00     0.049 A 
ATOM     51  H   UNL A   1      41.465  30.480  32.657  1.00  0.00     0.167 HD
ATOM     52  C   UNL A   1      41.184  27.502  29.501  1.00  0.00     0.031 A 
ATOM     53  C   UNL A   1      42.553  31.542  35.004  1.00  0.00     0.031 A 
ATOM     54  C   UNL A   1      42.381  27.157  30.219  1.00  0.00     0.049 A 
ATOM     55  C   UNL A   1      43.403  30.345  34.668  1.00  0.00     0.074 A 
ATOM     56  C   UNL A   1      43.300  26.161  29.932  1.00  0.00     0.029 A 
ATOM     57  N   UNL A   1      42.818  27.784  31.373  1.00  0.00    -0.354 N 
ATOM     58  N   UNL A   1      43.312  29.521  33.653  1.00  0.00    -0.248 NA
ATOM     59  C   UNL A   1      44.504  30.034  35.595  1.00  0.00     0.031 C 
ATOM     60  C   UNL A   1      44.263  26.148  30.947  1.00  0.00     0.029 A 
ATOM     61  C   UNL A   1      43.970  27.170  31.835  1.00  0.00     0.049 A 
ATOM     62  H   UNL A   1      42.376  28.553  31.802  1.00  0.00     0.167 HD
ATOM     63  C   UNL A   1      44.351  28.611  33.807  1.00  0.00     0.074 A 
ATOM     64  C   UNL A   1      45.072  28.993  35.002  1.00  0.00     0.031 C 
ATOM     65  C   UNL A   1      44.677  27.552  33.029  1.00  0.00     0.031 A 
BRANCH  52  66
ATOM     66  C   UNL A   1      40.814  26.653  28.318  1.00  0.00    -0.014 A 
ATOM     67  C   UNL A   1      39.824  25.664  28.413  1.00  0.00     0.009 A 
ATOM     68  C   UNL A   1      41.412  26.903  27.072  1.00  0.00     0.009 A 
ATOM     69  C   UNL A   1      39.453  24.929  27.284  1.00  0.00     0.001 A 
ATOM     70  C   UNL A   1      41.023  26.182  25.943  1.00  0.00     0.001 A 
ATOM     71  C   UNL A   1      40.048  25.193  26.050  1.00  0.00     0.000 A 
ENDBRANCH  52  66
BRANCH  53  72
ATOM     72  C   UNL A   1      42.835  32.335  36.229  1.00  0.00    -0.014 A 
ATOM     73  C   UNL A   1      42.079  32.145  37.395  1.00  0.00     0.009 A 
ATOM     74  C   UNL A   1      43.829  33.326  36.217  1.00  0.00     0.009 A 
ATOM     75  C   UNL A   1      42.292  32.953  38.514  1.00  0.00     0.001 A 
ATOM     76  C   UNL A   1      44.059  34.114  37.346  1.00  0.00     0.001 A 
ATOM     77  C   UNL A   1      43.283  33.934  38.489  1.00  0.00     0.000 A 
ENDBRANCH  53  72
BRANCH  65  78
ATOM     78  C   UNL A   1      45.875  26.739  33.431  1.00  0.00    -0.014 A 
ATOM     79  C   UNL A   1      47.170  27.111  33.035  1.00  0.00     0.009 A 
ATOM     80  C   UNL A   1      45.713  25.611  34.251  1.00  0.00     0.009 A 
ATOM     81  C   UNL A   1      48.275  26.354  33.430  1.00  0.00     0.001 A 
ATOM     82  C   UNL A   1      46.822  24.872  34.665  1.00  0.00     0.001 A 
ATOM     83  C   UNL A   1      48.100  25.238  34.248  1.00  0.00     0.000 A 
ENDBRANCH  65  78
ENDBRANCH  39  40
ENDBRANCH  32  34
ENDBRANCH  31  32
ENDBRANCH  30  31
ENDBRANCH  29  30
ENDBRANCH  28  29
ENDBRANCH  27  28
ENDBRANCH   1  27
TORSDOF 20
ENDMDL
