MODEL 1
REMARK VINA RESULT:      -9.5      0.000      0.000
REMARK SMILES C[C@@H](C(=O)OCCOCCOCCOC(=O)c1ccc(-c2c3nc(c(-c4ccccc4)c4ccc([nH]4)c(-c4ccccc4)c4nc(c(-c5ccccc5)c5ccc2[nH]5)C=C4)C=C3)cc1)c1ccn(C(F)F)c(=O)c1
REMARK SMILES IDX 9 1 8 2 7 3 6 4 5 5 3 6 4 7 2 8 1 9 65 10 66 11 74 12 67 13
REMARK SMILES IDX 72 14 68 15 73 16 69 17 70 18 71 19 10 20 11 21 12 22 13 23
REMARK SMILES IDX 14 24 15 25 16 26 17 27 18 28 64 29 19 30 63 31 20 32 21 33
REMARK SMILES IDX 22 34 57 35 23 36 62 37 56 38 58 39 24 40 61 41 55 42 54 43
REMARK SMILES IDX 25 45 47 46 32 47 46 48 33 49 36 50 45 51 59 52 34 53 35 54
REMARK SMILES IDX 44 56 60 57 37 58 26 59 27 60 31 61 28 62 30 63 29 64 48 65
REMARK SMILES IDX 49 66 53 67 50 68 52 69 51 70 38 71 39 72 43 73 40 74 42 75
REMARK SMILES IDX 41 76
REMARK H PARENT 58 44 36 55
REMARK Flexibility Score: inf
ROOT
ATOM      1  C   UNL A   1      30.100  27.972  22.552  1.00  0.00     0.188 C 
ENDROOT
BRANCH   1   2
ATOM      2  O   UNL A   1      29.280  27.603  23.636  1.00  0.00    -0.376 OA
BRANCH   2   3
ATOM      3  C   UNL A   1      29.391  26.286  24.155  1.00  0.00     0.202 C 
BRANCH   3   4
ATOM      4  C   UNL A   1      30.129  25.945  25.469  1.00  0.00     0.261 C 
BRANCH   4   5
ATOM      5  O   UNL A   1      31.409  25.284  25.363  1.00  0.00    -0.463 OA
BRANCH   5   6
ATOM      6  C   UNL A   1      31.668  24.321  26.294  1.00  0.00     0.313 C 
ATOM      7  O   UNL A   1      30.885  24.016  27.189  1.00  0.00    -0.252 OA
BRANCH   6   8
ATOM      8  C   UNL A   1      33.037  23.610  26.141  1.00  0.00     0.126 C 
ATOM      9  C   UNL A   1      34.212  24.436  25.604  1.00  0.00     0.025 C 
BRANCH   8  10
ATOM     10  C   UNL A   1      32.911  22.312  25.345  1.00  0.00    -0.027 A 
ATOM     11  C   UNL A   1      32.855  22.373  23.893  1.00  0.00     0.023 A 
ATOM     12  C   UNL A   1      32.825  21.103  25.919  1.00  0.00     0.076 A 
ATOM     13  C   UNL A   1      32.683  21.259  23.165  1.00  0.00     0.095 A 
ATOM     14  C   UNL A   1      32.637  19.866  25.133  1.00  0.00     0.255 A 
ATOM     15  N   UNL A   1      32.562  20.020  23.768  1.00  0.00    -0.258 N 
ATOM     16  O   UNL A   1      32.530  18.818  25.753  1.00  0.00    -0.269 OA
BRANCH  15  17
ATOM     17  C   UNL A   1      32.304  18.826  23.005  1.00  0.00     0.451 C 
ATOM     18  F   UNL A   1      32.151  19.104  21.689  1.00  0.00    -0.185 F 
ATOM     19  F   UNL A   1      33.333  17.951  23.137  1.00  0.00    -0.185 F 
ENDBRANCH  15  17
ENDBRANCH   8  10
ENDBRANCH   6   8
ENDBRANCH   5   6
ENDBRANCH   4   5
ENDBRANCH   3   4
ENDBRANCH   2   3
ENDBRANCH   1   2
BRANCH   1  20
ATOM     20  C   UNL A   1      31.362  28.796  22.840  1.00  0.00     0.188 C 
BRANCH  20  21
ATOM     21  O   UNL A   1      32.069  28.630  24.045  1.00  0.00    -0.376 OA
BRANCH  21  22
ATOM     22  C   UNL A   1      31.548  29.149  25.255  1.00  0.00     0.202 C 
BRANCH  22  23
ATOM     23  C   UNL A   1      31.777  30.588  25.760  1.00  0.00     0.261 C 
BRANCH  23  24
ATOM     24  O   UNL A   1      32.289  30.769  27.082  1.00  0.00    -0.460 OA
BRANCH  24  25
ATOM     25  C   UNL A   1      33.041  31.878  27.278  1.00  0.00     0.338 C 
ATOM     26  O   UNL A   1      32.684  33.041  27.155  1.00  0.00    -0.246 OA
BRANCH  25  27
ATOM     27  C   UNL A   1      34.335  31.474  27.870  1.00  0.00     0.060 A 
ATOM     28  C   UNL A   1      34.571  30.115  28.115  1.00  0.00     0.016 A 
ATOM     29  C   UNL A   1      35.305  32.426  28.192  1.00  0.00     0.016 A 
ATOM     30  C   UNL A   1      35.773  29.707  28.697  1.00  0.00     0.010 A 
ATOM     31  C   UNL A   1      36.497  32.018  28.803  1.00  0.00     0.010 A 
ATOM     32  C   UNL A   1      36.730  30.660  29.078  1.00  0.00    -0.014 A 
BRANCH  32  33
ATOM     33  C   UNL A   1      37.883  30.247  29.921  1.00  0.00     0.031 A 
ATOM     34  C   UNL A   1      38.964  29.414  29.298  1.00  0.00     0.074 A 
ATOM     35  C   UNL A   1      37.988  30.610  31.212  1.00  0.00     0.049 A 
ATOM     36  N   UNL A   1      40.048  28.919  29.839  1.00  0.00    -0.248 NA
ATOM     37  C   UNL A   1      38.785  29.068  27.878  1.00  0.00     0.031 C 
ATOM     38  C   UNL A   1      37.014  31.414  31.936  1.00  0.00     0.029 A 
ATOM     39  N   UNL A   1      38.981  30.377  32.133  1.00  0.00    -0.354 N 
ATOM     40  C   UNL A   1      40.659  28.173  28.841  1.00  0.00     0.074 A 
ATOM     41  C   UNL A   1      39.828  28.281  27.661  1.00  0.00     0.031 C 
ATOM     42  C   UNL A   1      37.496  31.693  33.158  1.00  0.00     0.029 A 
ATOM     43  C   UNL A   1      38.770  31.003  33.340  1.00  0.00     0.049 A 
ATOM     44  H   UNL A   1      39.768  29.815  31.948  1.00  0.00     0.167 HD
ATOM     45  C   UNL A   1      41.798  27.446  28.908  1.00  0.00     0.031 A 
ATOM     46  C   UNL A   1      39.509  31.007  34.467  1.00  0.00     0.031 A 
ATOM     47  C   UNL A   1      42.608  27.313  30.091  1.00  0.00     0.049 A 
ATOM     48  C   UNL A   1      40.761  30.168  34.522  1.00  0.00     0.074 A 
ATOM     49  C   UNL A   1      43.769  26.578  30.259  1.00  0.00     0.029 A 
ATOM     50  N   UNL A   1      42.337  27.918  31.309  1.00  0.00    -0.354 N 
ATOM     51  N   UNL A   1      41.331  29.465  33.573  1.00  0.00    -0.248 NA
ATOM     52  C   UNL A   1      41.456  30.099  35.817  1.00  0.00     0.031 C 
ATOM     53  C   UNL A   1      44.168  26.691  31.594  1.00  0.00     0.029 A 
ATOM     54  C   UNL A   1      43.299  27.556  32.238  1.00  0.00     0.049 A 
ATOM     55  H   UNL A   1      41.575  28.516  31.486  1.00  0.00     0.167 HD
ATOM     56  C   UNL A   1      42.448  28.877  34.154  1.00  0.00     0.074 A 
ATOM     57  C   UNL A   1      42.500  29.336  35.525  1.00  0.00     0.031 C 
ATOM     58  C   UNL A   1      43.341  28.018  33.603  1.00  0.00     0.031 A 
BRANCH  45  59
ATOM     59  C   UNL A   1      42.193  26.678  27.678  1.00  0.00    -0.014 A 
ATOM     60  C   UNL A   1      41.750  25.363  27.460  1.00  0.00     0.009 A 
ATOM     61  C   UNL A   1      43.013  27.288  26.717  1.00  0.00     0.009 A 
ATOM     62  C   UNL A   1      42.153  24.664  26.320  1.00  0.00     0.001 A 
ATOM     63  C   UNL A   1      43.387  26.599  25.563  1.00  0.00     0.001 A 
ATOM     64  C   UNL A   1      42.966  25.284  25.371  1.00  0.00     0.000 A 
ENDBRANCH  45  59
BRANCH  46  65
ATOM     65  C   UNL A   1      39.068  31.775  35.667  1.00  0.00    -0.014 A 
ATOM     66  C   UNL A   1      39.577  33.058  35.928  1.00  0.00     0.009 A 
ATOM     67  C   UNL A   1      38.167  31.212  36.586  1.00  0.00     0.009 A 
ATOM     68  C   UNL A   1      39.217  33.744  37.093  1.00  0.00     0.001 A 
ATOM     69  C   UNL A   1      37.776  31.917  37.727  1.00  0.00     0.001 A 
ATOM     70  C   UNL A   1      38.312  33.176  37.987  1.00  0.00     0.000 A 
ENDBRANCH  46  65
BRANCH  58  71
ATOM     71  C   UNL A   1      44.473  27.543  34.473  1.00  0.00    -0.014 A 
ATOM     72  C   UNL A   1      44.385  26.346  35.204  1.00  0.00     0.009 A 
ATOM     73  C   UNL A   1      45.666  28.283  34.526  1.00  0.00     0.009 A 
ATOM     74  C   UNL A   1      45.454  25.922  35.997  1.00  0.00     0.001 A 
ATOM     75  C   UNL A   1      46.744  27.839  35.292  1.00  0.00     0.001 A 
ATOM     76  C   UNL A   1      46.634  26.665  36.036  1.00  0.00     0.000 A 
ENDBRANCH  58  71
ENDBRANCH  32  33
ENDBRANCH  25  27
ENDBRANCH  24  25
ENDBRANCH  23  24
ENDBRANCH  22  23
ENDBRANCH  21  22
ENDBRANCH  20  21
ENDBRANCH   1  20
TORSDOF 19
ENDMDL
MODEL 2
REMARK VINA RESULT:      -9.4      5.356      8.577
REMARK SMILES C[C@@H](C(=O)OCCOCCOCCOC(=O)c1ccc(-c2c3nc(c(-c4ccccc4)c4ccc([nH]4)c(-c4ccccc4)c4nc(c(-c5ccccc5)c5ccc2[nH]5)C=C4)C=C3)cc1)c1ccn(C(F)F)c(=O)c1
REMARK SMILES IDX 9 1 8 2 7 3 6 4 5 5 3 6 4 7 2 8 1 9 65 10 66 11 74 12 67 13
REMARK SMILES IDX 72 14 68 15 73 16 69 17 70 18 71 19 10 20 11 21 12 22 13 23
REMARK SMILES IDX 14 24 15 25 16 26 17 27 18 28 64 29 19 30 63 31 20 32 21 33
REMARK SMILES IDX 22 34 57 35 23 36 62 37 56 38 58 39 24 40 61 41 55 42 54 43
REMARK SMILES IDX 25 45 47 46 32 47 46 48 33 49 36 50 45 51 59 52 34 53 35 54
REMARK SMILES IDX 44 56 60 57 37 58 26 59 27 60 31 61 28 62 30 63 29 64 48 65
REMARK SMILES IDX 49 66 53 67 50 68 52 69 51 70 38 71 39 72 43 73 40 74 42 75
REMARK SMILES IDX 41 76
REMARK H PARENT 58 44 36 55
REMARK Flexibility Score: inf
ROOT
ATOM      1  C   UNL A   1      36.106  33.161  32.004  1.00  0.00     0.188 C 
ENDROOT
BRANCH   1   2
ATOM      2  O   UNL A   1      37.129  33.256  32.967  1.00  0.00    -0.376 OA
BRANCH   2   3
ATOM      3  C   UNL A   1      36.785  33.648  34.288  1.00  0.00     0.202 C 
BRANCH   3   4
ATOM      4  C   UNL A   1      37.353  32.969  35.554  1.00  0.00     0.261 C 
BRANCH   4   5
ATOM      5  O   UNL A   1      38.673  32.389  35.465  1.00  0.00    -0.463 OA
BRANCH   5   6
ATOM      6  C   UNL A   1      38.727  31.028  35.369  1.00  0.00     0.313 C 
ATOM      7  O   UNL A   1      38.540  30.274  36.320  1.00  0.00    -0.252 OA
BRANCH   6   8
ATOM      8  C   UNL A   1      39.033  30.482  33.952  1.00  0.00     0.126 C 
ATOM      9  C   UNL A   1      37.922  29.711  33.230  1.00  0.00     0.025 C 
BRANCH   8  10
ATOM     10  C   UNL A   1      40.326  29.668  33.930  1.00  0.00    -0.027 A 
ATOM     11  C   UNL A   1      40.351  28.394  33.229  1.00  0.00     0.023 A 
ATOM     12  C   UNL A   1      41.451  30.057  34.549  1.00  0.00     0.076 A 
ATOM     13  C   UNL A   1      41.450  27.624  33.240  1.00  0.00     0.095 A 
ATOM     14  C   UNL A   1      42.670  29.222  34.572  1.00  0.00     0.255 A 
ATOM     15  N   UNL A   1      42.594  28.018  33.910  1.00  0.00    -0.258 N 
ATOM     16  O   UNL A   1      43.630  29.648  35.197  1.00  0.00    -0.269 OA
BRANCH  15  17
ATOM     17  C   UNL A   1      43.756  27.171  33.993  1.00  0.00     0.451 C 
ATOM     18  F   UNL A   1      43.805  26.514  35.176  1.00  0.00    -0.185 F 
ATOM     19  F   UNL A   1      43.739  26.249  32.998  1.00  0.00    -0.185 F 
ENDBRANCH  15  17
ENDBRANCH   8  10
ENDBRANCH   6   8
ENDBRANCH   5   6
ENDBRANCH   4   5
ENDBRANCH   3   4
ENDBRANCH   2   3
ENDBRANCH   1   2
BRANCH   1  20
ATOM     20  C   UNL A   1      35.133  34.338  31.855  1.00  0.00     0.188 C 
BRANCH  20  21
ATOM     21  O   UNL A   1      33.908  34.176  31.181  1.00  0.00    -0.376 OA
BRANCH  21  22
ATOM     22  C   UNL A   1      33.834  34.371  29.780  1.00  0.00     0.202 C 
BRANCH  22  23
ATOM     23  C   UNL A   1      34.219  33.310  28.729  1.00  0.00     0.261 C 
BRANCH  23  24
ATOM     24  O   UNL A   1      34.270  31.940  29.136  1.00  0.00    -0.460 OA
BRANCH  24  25
ATOM     25  C   UNL A   1      34.501  31.040  28.151  1.00  0.00     0.338 C 
ATOM     26  O   UNL A   1      33.823  30.852  27.151  1.00  0.00    -0.246 OA
BRANCH  25  27
ATOM     27  C   UNL A   1      35.835  30.436  28.365  1.00  0.00     0.060 A 
ATOM     28  C   UNL A   1      36.105  29.811  29.590  1.00  0.00     0.016 A 
ATOM     29  C   UNL A   1      36.816  30.493  27.373  1.00  0.00     0.016 A 
ATOM     30  C   UNL A   1      37.363  29.255  29.829  1.00  0.00     0.010 A 
ATOM     31  C   UNL A   1      38.086  29.962  27.627  1.00  0.00     0.010 A 
ATOM     32  C   UNL A   1      38.374  29.358  28.863  1.00  0.00    -0.014 A 
BRANCH  32  33
ATOM     33  C   UNL A   1      39.772  28.997  29.219  1.00  0.00     0.031 A 
ATOM     34  C   UNL A   1      40.306  27.671  28.764  1.00  0.00     0.074 A 
ATOM     35  C   UNL A   1      40.567  29.826  29.918  1.00  0.00     0.049 A 
ATOM     36  N   UNL A   1      41.481  27.132  28.974  1.00  0.00    -0.248 NA
ATOM     37  C   UNL A   1      39.382  26.825  27.992  1.00  0.00     0.031 C 
ATOM     38  C   UNL A   1      40.174  31.136  30.417  1.00  0.00     0.029 A 
ATOM     39  N   UNL A   1      41.881  29.702  30.301  1.00  0.00    -0.354 N 
ATOM     40  C   UNL A   1      41.424  25.872  28.394  1.00  0.00     0.074 A 
ATOM     41  C   UNL A   1      40.102  25.726  27.824  1.00  0.00     0.031 C 
ATOM     42  C   UNL A   1      41.246  31.741  30.955  1.00  0.00     0.029 A 
ATOM     43  C   UNL A   1      42.379  30.820  30.929  1.00  0.00     0.049 A 
ATOM     44  H   UNL A   1      42.414  28.890  30.142  1.00  0.00     0.167 HD
ATOM     45  C   UNL A   1      42.380  24.915  28.362  1.00  0.00     0.031 A 
ATOM     46  C   UNL A   1      43.602  31.068  31.440  1.00  0.00     0.031 A 
ATOM     47  C   UNL A   1      43.683  25.048  28.957  1.00  0.00     0.049 A 
ATOM     48  C   UNL A   1      44.640  29.974  31.411  1.00  0.00     0.074 A 
ATOM     49  C   UNL A   1      44.711  24.121  28.992  1.00  0.00     0.029 A 
ATOM     50  N   UNL A   1      44.136  26.173  29.630  1.00  0.00    -0.354 N 
ATOM     51  N   UNL A   1      44.577  28.785  30.861  1.00  0.00    -0.248 NA
ATOM     52  C   UNL A   1      45.910  30.248  32.101  1.00  0.00     0.031 C 
ATOM     53  C   UNL A   1      45.763  24.663  29.737  1.00  0.00     0.029 A 
ATOM     54  C   UNL A   1      45.420  25.955  30.101  1.00  0.00     0.049 A 
ATOM     55  H   UNL A   1      43.621  27.004  29.753  1.00  0.00     0.167 HD
ATOM     56  C   UNL A   1      45.795  28.174  31.137  1.00  0.00     0.074 A 
ATOM     57  C   UNL A   1      46.592  29.136  31.865  1.00  0.00     0.031 C 
ATOM     58  C   UNL A   1      46.207  26.920  30.827  1.00  0.00     0.031 A 
BRANCH  45  59
ATOM     59  C   UNL A   1      42.016  23.607  27.717  1.00  0.00    -0.014 A 
ATOM     60  C   UNL A   1      42.243  23.374  26.351  1.00  0.00     0.009 A 
ATOM     61  C   UNL A   1      41.447  22.587  28.496  1.00  0.00     0.009 A 
ATOM     62  C   UNL A   1      41.871  22.158  25.772  1.00  0.00     0.001 A 
ATOM     63  C   UNL A   1      41.108  21.362  27.922  1.00  0.00     0.001 A 
ATOM     64  C   UNL A   1      41.310  21.152  26.559  1.00  0.00     0.000 A 
ENDBRANCH  45  59
BRANCH  46  65
ATOM     65  C   UNL A   1      43.911  32.378  32.082  1.00  0.00    -0.014 A 
ATOM     66  C   UNL A   1      44.499  33.419  31.347  1.00  0.00     0.009 A 
ATOM     67  C   UNL A   1      43.660  32.582  33.449  1.00  0.00     0.009 A 
ATOM     68  C   UNL A   1      44.855  34.620  31.970  1.00  0.00     0.001 A 
ATOM     69  C   UNL A   1      43.976  33.797  34.060  1.00  0.00     0.001 A 
ATOM     70  C   UNL A   1      44.587  34.810  33.324  1.00  0.00     0.000 A 
ENDBRANCH  46  65
BRANCH  58  71
ATOM     71  C   UNL A   1      47.597  26.525  31.246  1.00  0.00    -0.014 A 
ATOM     72  C   UNL A   1      47.841  25.879  32.470  1.00  0.00     0.009 A 
ATOM     73  C   UNL A   1      48.677  26.762  30.379  1.00  0.00     0.009 A 
ATOM     74  C   UNL A   1      49.140  25.513  32.830  1.00  0.00     0.001 A 
ATOM     75  C   UNL A   1      49.969  26.365  30.728  1.00  0.00     0.001 A 
ATOM     76  C   UNL A   1      50.201  25.752  31.957  1.00  0.00     0.000 A 
ENDBRANCH  58  71
ENDBRANCH  32  33
ENDBRANCH  25  27
ENDBRANCH  24  25
ENDBRANCH  23  24
ENDBRANCH  22  23
ENDBRANCH  21  22
ENDBRANCH  20  21
ENDBRANCH   1  20
TORSDOF 19
ENDMDL
MODEL 3
REMARK VINA RESULT:      -9.4      3.257      8.112
REMARK SMILES C[C@@H](C(=O)OCCOCCOCCOC(=O)c1ccc(-c2c3nc(c(-c4ccccc4)c4ccc([nH]4)c(-c4ccccc4)c4nc(c(-c5ccccc5)c5ccc2[nH]5)C=C4)C=C3)cc1)c1ccn(C(F)F)c(=O)c1
REMARK SMILES IDX 9 1 8 2 7 3 6 4 5 5 3 6 4 7 2 8 1 9 65 10 66 11 74 12 67 13
REMARK SMILES IDX 72 14 68 15 73 16 69 17 70 18 71 19 10 20 11 21 12 22 13 23
REMARK SMILES IDX 14 24 15 25 16 26 17 27 18 28 64 29 19 30 63 31 20 32 21 33
REMARK SMILES IDX 22 34 57 35 23 36 62 37 56 38 58 39 24 40 61 41 55 42 54 43
REMARK SMILES IDX 25 45 47 46 32 47 46 48 33 49 36 50 45 51 59 52 34 53 35 54
REMARK SMILES IDX 44 56 60 57 37 58 26 59 27 60 31 61 28 62 30 63 29 64 48 65
REMARK SMILES IDX 49 66 53 67 50 68 52 69 51 70 38 71 39 72 43 73 40 74 42 75
REMARK SMILES IDX 41 76
REMARK H PARENT 58 44 36 55
REMARK Flexibility Score: inf
ROOT
ATOM      1  C   UNL A   1      41.288  20.499  27.120  1.00  0.00     0.188 C 
ENDROOT
BRANCH   1   2
ATOM      2  O   UNL A   1      39.922  20.840  27.110  1.00  0.00    -0.376 OA
BRANCH   2   3
ATOM      3  C   UNL A   1      39.498  21.928  26.302  1.00  0.00     0.202 C 
BRANCH   3   4
ATOM      4  C   UNL A   1      38.261  21.876  25.379  1.00  0.00     0.261 C 
BRANCH   4   5
ATOM      5  O   UNL A   1      37.109  22.657  25.763  1.00  0.00    -0.463 OA
BRANCH   5   6
ATOM      6  C   UNL A   1      36.035  22.600  24.922  1.00  0.00     0.313 C 
ATOM      7  O   UNL A   1      36.078  22.944  23.745  1.00  0.00    -0.252 OA
BRANCH   6   8
ATOM      8  C   UNL A   1      34.732  22.050  25.557  1.00  0.00     0.126 C 
ATOM      9  C   UNL A   1      34.572  22.177  27.076  1.00  0.00     0.025 C 
BRANCH   8  10
ATOM     10  C   UNL A   1      34.461  20.610  25.126  1.00  0.00    -0.027 A 
ATOM     11  C   UNL A   1      35.575  19.681  25.017  1.00  0.00     0.023 A 
ATOM     12  C   UNL A   1      33.239  20.152  24.817  1.00  0.00     0.076 A 
ATOM     13  C   UNL A   1      35.382  18.426  24.582  1.00  0.00     0.095 A 
ATOM     14  C   UNL A   1      33.008  18.773  24.338  1.00  0.00     0.255 A 
ATOM     15  N   UNL A   1      34.123  17.973  24.233  1.00  0.00    -0.258 N 
ATOM     16  O   UNL A   1      31.862  18.465  24.044  1.00  0.00    -0.269 OA
BRANCH  15  17
ATOM     17  C   UNL A   1      33.911  16.653  23.697  1.00  0.00     0.451 C 
ATOM     18  F   UNL A   1      34.324  16.571  22.410  1.00  0.00    -0.185 F 
ATOM     19  F   UNL A   1      34.598  15.734  24.421  1.00  0.00    -0.185 F 
ENDBRANCH  15  17
ENDBRANCH   8  10
ENDBRANCH   6   8
ENDBRANCH   5   6
ENDBRANCH   4   5
ENDBRANCH   3   4
ENDBRANCH   2   3
ENDBRANCH   1   2
BRANCH   1  20
ATOM     20  C   UNL A   1      41.825  19.608  25.991  1.00  0.00     0.188 C 
BRANCH  20  21
ATOM     21  O   UNL A   1      43.195  19.301  25.909  1.00  0.00    -0.376 OA
BRANCH  21  22
ATOM     22  C   UNL A   1      44.117  20.274  25.451  1.00  0.00     0.202 C 
BRANCH  22  23
ATOM     23  C   UNL A   1      43.763  21.746  25.160  1.00  0.00     0.261 C 
BRANCH  23  24
ATOM     24  O   UNL A   1      44.136  22.736  26.121  1.00  0.00    -0.460 OA
BRANCH  24  25
ATOM     25  C   UNL A   1      44.179  24.012  25.669  1.00  0.00     0.338 C 
ATOM     26  O   UNL A   1      44.567  24.393  24.574  1.00  0.00    -0.246 OA
BRANCH  25  27
ATOM     27  C   UNL A   1      43.484  24.882  26.643  1.00  0.00     0.060 A 
ATOM     28  C   UNL A   1      43.826  26.240  26.700  1.00  0.00     0.016 A 
ATOM     29  C   UNL A   1      42.512  24.365  27.502  1.00  0.00     0.016 A 
ATOM     30  C   UNL A   1      43.206  27.079  27.627  1.00  0.00     0.010 A 
ATOM     31  C   UNL A   1      41.913  25.202  28.450  1.00  0.00     0.010 A 
ATOM     32  C   UNL A   1      42.270  26.559  28.533  1.00  0.00    -0.014 A 
BRANCH  32  33
ATOM     33  C   UNL A   1      41.808  27.393  29.673  1.00  0.00     0.031 A 
ATOM     34  C   UNL A   1      40.505  28.127  29.543  1.00  0.00     0.074 A 
ATOM     35  C   UNL A   1      42.513  27.496  30.814  1.00  0.00     0.049 A 
ATOM     36  N   UNL A   1      39.914  28.928  30.392  1.00  0.00    -0.248 NA
ATOM     37  C   UNL A   1      39.784  27.954  28.270  1.00  0.00     0.031 C 
ATOM     38  C   UNL A   1      43.787  26.839  31.070  1.00  0.00     0.029 A 
ATOM     39  N   UNL A   1      42.240  28.165  31.983  1.00  0.00    -0.354 N 
ATOM     40  C   UNL A   1      38.774  29.386  29.744  1.00  0.00     0.074 A 
ATOM     41  C   UNL A   1      38.755  28.772  28.434  1.00  0.00     0.031 C 
ATOM     42  C   UNL A   1      44.142  27.053  32.348  1.00  0.00     0.029 A 
ATOM     43  C   UNL A   1      43.171  27.947  32.972  1.00  0.00     0.049 A 
ATOM     44  H   UNL A   1      41.454  28.745  32.101  1.00  0.00     0.167 HD
ATOM     45  C   UNL A   1      37.841  30.256  30.194  1.00  0.00     0.031 A 
ATOM     46  C   UNL A   1      43.242  28.425  34.231  1.00  0.00     0.031 A 
ATOM     47  C   UNL A   1      37.877  30.891  31.485  1.00  0.00     0.049 A 
ATOM     48  C   UNL A   1      42.202  29.412  34.696  1.00  0.00     0.074 A 
ATOM     49  C   UNL A   1      36.984  31.804  32.019  1.00  0.00     0.029 A 
ATOM     50  N   UNL A   1      38.861  30.687  32.441  1.00  0.00    -0.354 N 
ATOM     51  N   UNL A   1      41.128  29.839  34.077  1.00  0.00    -0.248 NA
ATOM     52  C   UNL A   1      42.401  30.006  36.027  1.00  0.00     0.031 C 
ATOM     53  C   UNL A   1      37.460  32.199  33.274  1.00  0.00     0.029 A 
ATOM     54  C   UNL A   1      38.608  31.474  33.553  1.00  0.00     0.049 A 
ATOM     55  H   UNL A   1      39.625  30.073  32.344  1.00  0.00     0.167 HD
ATOM     56  C   UNL A   1      40.525  30.746  34.941  1.00  0.00     0.074 A 
ATOM     57  C   UNL A   1      41.329  30.777  36.144  1.00  0.00     0.031 C 
ATOM     58  C   UNL A   1      39.414  31.499  34.746  1.00  0.00     0.031 A 
BRANCH  45  59
ATOM     59  C   UNL A   1      36.738  30.626  29.243  1.00  0.00    -0.014 A 
ATOM     60  C   UNL A   1      36.452  31.966  28.934  1.00  0.00     0.009 A 
ATOM     61  C   UNL A   1      35.978  29.613  28.638  1.00  0.00     0.009 A 
ATOM     62  C   UNL A   1      35.404  32.282  28.067  1.00  0.00     0.001 A 
ATOM     63  C   UNL A   1      34.954  29.930  27.746  1.00  0.00     0.001 A 
ATOM     64  C   UNL A   1      34.660  31.264  27.470  1.00  0.00     0.000 A 
ENDBRANCH  45  59
BRANCH  46  65
ATOM     65  C   UNL A   1      44.365  28.038  35.133  1.00  0.00    -0.014 A 
ATOM     66  C   UNL A   1      44.249  26.937  35.996  1.00  0.00     0.009 A 
ATOM     67  C   UNL A   1      45.547  28.795  35.169  1.00  0.00     0.009 A 
ATOM     68  C   UNL A   1      45.275  26.622  36.893  1.00  0.00     0.001 A 
ATOM     69  C   UNL A   1      46.589  28.453  36.035  1.00  0.00     0.001 A 
ATOM     70  C   UNL A   1      46.447  27.376  36.906  1.00  0.00     0.000 A 
ENDBRANCH  46  65
BRANCH  58  71
ATOM     71  C   UNL A   1      38.981  32.398  35.872  1.00  0.00    -0.014 A 
ATOM     72  C   UNL A   1      38.125  31.942  36.889  1.00  0.00     0.009 A 
ATOM     73  C   UNL A   1      39.475  33.711  35.941  1.00  0.00     0.009 A 
ATOM     74  C   UNL A   1      37.746  32.794  37.929  1.00  0.00     0.001 A 
ATOM     75  C   UNL A   1      39.121  34.549  37.000  1.00  0.00     0.001 A 
ATOM     76  C   UNL A   1      38.248  34.093  37.986  1.00  0.00     0.000 A 
ENDBRANCH  58  71
ENDBRANCH  32  33
ENDBRANCH  25  27
ENDBRANCH  24  25
ENDBRANCH  23  24
ENDBRANCH  22  23
ENDBRANCH  21  22
ENDBRANCH  20  21
ENDBRANCH   1  20
TORSDOF 19
ENDMDL
