MODEL 1
REMARK VINA RESULT:     -10.2      0.000      0.000
REMARK SMILES O=C(OCCOCCOCCOC(=O)[C@@H]1CN(C(=O)[C@H]2CC=CCC2)c2ccccc2O1)c1ccc(-c2c3nc(c(-c4ccccc4)c4ccc([nH]4)c(-c4ccccc4)c4nc(c(-c5ccccc5)c5ccc2[nH]5)C=C4)C=C3)cc1
REMARK SMILES IDX 7 1 6 2 5 3 4 4 3 5 2 6 1 7 33 8 34 9 80 10 35 11 79 12
REMARK SMILES IDX 36 13 37 14 38 15 73 16 39 17 78 18 72 19 74 20 40 21 77 22
REMARK SMILES IDX 71 23 70 24 41 26 63 27 48 28 62 29 49 30 52 31 61 32 75 33
REMARK SMILES IDX 50 34 51 35 60 37 76 38 53 39 42 40 43 41 47 42 44 43 46 44
REMARK SMILES IDX 45 45 64 46 65 47 69 48 66 49 68 50 67 51 54 52 55 53 59 54
REMARK SMILES IDX 56 55 58 56 57 57 8 58 9 59 10 60 11 61 12 62 13 63 14 64
REMARK SMILES IDX 15 65 16 66 32 67 17 68 31 69 26 70 30 71 27 72 29 73 28 74
REMARK SMILES IDX 18 75 19 76 20 77 21 78 25 79 22 80 24 81 23 82
REMARK H PARENT 74 25 52 36
REMARK Flexibility Score: inf
ROOT
ATOM      1  C   UNL A   1      30.370  29.567  23.839  1.00  0.00     0.188 C 
ENDROOT
BRANCH   1   2
ATOM      2  O   UNL A   1      31.091  30.076  24.967  1.00  0.00    -0.376 OA
BRANCH   2   3
ATOM      3  C   UNL A   1      31.872  29.095  25.652  1.00  0.00     0.202 C 
BRANCH   3   4
ATOM      4  C   UNL A   1      32.439  29.544  27.008  1.00  0.00     0.261 C 
BRANCH   4   5
ATOM      5  O   UNL A   1      33.520  30.479  26.900  1.00  0.00    -0.460 OA
BRANCH   5   6
ATOM      6  C   UNL A   1      34.409  30.873  27.839  1.00  0.00     0.338 C 
ATOM      7  O   UNL A   1      34.069  31.795  28.584  1.00  0.00    -0.246 OA
BRANCH   6   8
ATOM      8  C   UNL A   1      35.768  30.269  28.070  1.00  0.00     0.060 A 
ATOM      9  C   UNL A   1      36.841  30.221  27.176  1.00  0.00     0.016 A 
ATOM     10  C   UNL A   1      36.001  29.781  29.369  1.00  0.00     0.016 A 
ATOM     11  C   UNL A   1      38.105  29.734  27.565  1.00  0.00     0.010 A 
ATOM     12  C   UNL A   1      37.270  29.344  29.775  1.00  0.00     0.010 A 
ATOM     13  C   UNL A   1      38.352  29.345  28.884  1.00  0.00    -0.014 A 
BRANCH  13  14
ATOM     14  C   UNL A   1      39.677  28.785  29.272  1.00  0.00     0.031 A 
ATOM     15  C   UNL A   1      40.478  29.596  30.230  1.00  0.00     0.074 A 
ATOM     16  C   UNL A   1      40.217  27.651  28.773  1.00  0.00     0.049 A 
ATOM     17  N   UNL A   1      41.709  29.411  30.618  1.00  0.00    -0.248 NA
ATOM     18  C   UNL A   1      39.866  30.851  30.699  1.00  0.00     0.031 C 
ATOM     19  C   UNL A   1      39.730  26.927  27.620  1.00  0.00     0.029 A 
ATOM     20  N   UNL A   1      41.317  26.906  29.138  1.00  0.00    -0.354 N 
ATOM     21  C   UNL A   1      42.030  30.557  31.318  1.00  0.00     0.074 A 
ATOM     22  C   UNL A   1      40.919  31.472  31.193  1.00  0.00     0.031 C 
ATOM     23  C   UNL A   1      40.405  25.788  27.439  1.00  0.00     0.029 A 
ATOM     24  C   UNL A   1      41.449  25.723  28.433  1.00  0.00     0.049 A 
ATOM     25  H   UNL A   1      41.949  27.189  29.837  1.00  0.00     0.167 HD
ATOM     26  C   UNL A   1      43.131  30.799  32.060  1.00  0.00     0.031 A 
ATOM     27  C   UNL A   1      42.333  24.713  28.536  1.00  0.00     0.031 A 
ATOM     28  C   UNL A   1      44.196  29.853  32.212  1.00  0.00     0.049 A 
ATOM     29  C   UNL A   1      43.480  24.938  29.467  1.00  0.00     0.074 A 
ATOM     30  C   UNL A   1      45.336  29.949  32.982  1.00  0.00     0.029 A 
ATOM     31  N   UNL A   1      44.228  28.609  31.588  1.00  0.00    -0.354 N 
ATOM     32  N   UNL A   1      43.749  26.007  30.175  1.00  0.00    -0.248 NA
ATOM     33  C   UNL A   1      44.472  23.865  29.576  1.00  0.00     0.031 C 
ATOM     34  C   UNL A   1      46.058  28.759  32.828  1.00  0.00     0.029 A 
ATOM     35  C   UNL A   1      45.352  27.910  31.988  1.00  0.00     0.049 A 
ATOM     36  H   UNL A   1      43.549  28.276  30.956  1.00  0.00     0.167 HD
ATOM     37  C   UNL A   1      44.953  25.751  30.801  1.00  0.00     0.074 A 
ATOM     38  C   UNL A   1      45.336  24.401  30.426  1.00  0.00     0.031 C 
ATOM     39  C   UNL A   1      45.687  26.567  31.593  1.00  0.00     0.031 A 
BRANCH  26  40
ATOM     40  C   UNL A   1      43.141  32.118  32.772  1.00  0.00    -0.014 A 
ATOM     41  C   UNL A   1      43.781  33.229  32.187  1.00  0.00     0.009 A 
ATOM     42  C   UNL A   1      42.664  32.218  34.083  1.00  0.00     0.009 A 
ATOM     43  C   UNL A   1      44.023  34.381  32.934  1.00  0.00     0.001 A 
ATOM     44  C   UNL A   1      42.868  33.392  34.814  1.00  0.00     0.001 A 
ATOM     45  C   UNL A   1      43.568  34.460  34.247  1.00  0.00     0.000 A 
ENDBRANCH  26  40
BRANCH  27  46
ATOM     46  C   UNL A   1      42.215  23.459  27.731  1.00  0.00    -0.014 A 
ATOM     47  C   UNL A   1      41.563  22.329  28.257  1.00  0.00     0.009 A 
ATOM     48  C   UNL A   1      42.763  23.364  26.442  1.00  0.00     0.009 A 
ATOM     49  C   UNL A   1      41.496  21.134  27.532  1.00  0.00     0.001 A 
ATOM     50  C   UNL A   1      42.662  22.180  25.702  1.00  0.00     0.001 A 
ATOM     51  C   UNL A   1      42.042  21.061  26.253  1.00  0.00     0.000 A 
ENDBRANCH  27  46
BRANCH  39  52
ATOM     52  C   UNL A   1      46.945  25.974  32.140  1.00  0.00    -0.014 A 
ATOM     53  C   UNL A   1      46.941  25.223  33.324  1.00  0.00     0.009 A 
ATOM     54  C   UNL A   1      48.147  26.175  31.448  1.00  0.00     0.009 A 
ATOM     55  C   UNL A   1      48.134  24.707  33.824  1.00  0.00     0.001 A 
ATOM     56  C   UNL A   1      49.333  25.633  31.935  1.00  0.00     0.001 A 
ATOM     57  C   UNL A   1      49.327  24.907  33.126  1.00  0.00     0.000 A 
ENDBRANCH  39  52
ENDBRANCH  13  14
ENDBRANCH   6   8
ENDBRANCH   5   6
ENDBRANCH   4   5
ENDBRANCH   3   4
ENDBRANCH   2   3
ENDBRANCH   1   2
BRANCH   1  58
ATOM     58  C   UNL A   1      30.755  28.154  23.378  1.00  0.00     0.188 C 
BRANCH  58  59
ATOM     59  O   UNL A   1      29.958  27.139  23.979  1.00  0.00    -0.376 OA
BRANCH  59  60
ATOM     60  C   UNL A   1      30.230  25.815  23.523  1.00  0.00     0.202 C 
BRANCH  60  61
ATOM     61  C   UNL A   1      31.360  25.695  22.501  1.00  0.00     0.261 C 
BRANCH  61  62
ATOM     62  O   UNL A   1      32.541  25.051  23.015  1.00  0.00    -0.460 OA
BRANCH  62  63
ATOM     63  C   UNL A   1      32.786  23.766  22.644  1.00  0.00     0.349 C 
ATOM     64  O   UNL A   1      33.573  23.445  21.765  1.00  0.00    -0.248 OA
BRANCH  63  65
ATOM     65  C   UNL A   1      31.881  22.767  23.387  1.00  0.00     0.302 C 
ATOM     66  C   UNL A   1      32.291  22.739  24.854  1.00  0.00     0.183 C 
ATOM     67  O   UNL A   1      31.703  21.468  22.845  1.00  0.00    -0.475 OA
ATOM     68  N   UNL A   1      33.549  22.029  25.041  1.00  0.00    -0.304 N 
ATOM     69  C   UNL A   1      32.453  20.486  23.441  1.00  0.00     0.144 A 
ATOM     70  C   UNL A   1      33.483  20.750  24.359  1.00  0.00     0.086 A 
ATOM     71  C   UNL A   1      32.134  19.175  23.054  1.00  0.00     0.049 A 
ATOM     72  C   UNL A   1      34.303  19.684  24.659  1.00  0.00     0.030 A 
ATOM     73  C   UNL A   1      32.824  18.101  23.593  1.00  0.00     0.004 A 
ATOM     74  C   UNL A   1      33.919  18.365  24.388  1.00  0.00     0.002 A 
BRANCH  68  75
ATOM     75  C   UNL A   1      34.648  22.507  25.761  1.00  0.00     0.230 C 
ATOM     76  O   UNL A   1      34.685  22.469  26.999  1.00  0.00    -0.274 OA
BRANCH  75  77
ATOM     77  C   UNL A   1      35.932  23.105  25.089  1.00  0.00     0.083 C 
ATOM     78  C   UNL A   1      36.822  24.039  25.920  1.00  0.00     0.040 C 
ATOM     79  C   UNL A   1      36.763  22.171  24.206  1.00  0.00     0.018 C 
ATOM     80  C   UNL A   1      38.147  23.460  26.343  1.00  0.00    -0.030 C 
ATOM     81  C   UNL A   1      37.859  21.410  24.941  1.00  0.00     0.028 C 
ATOM     82  C   UNL A   1      38.600  22.269  25.923  1.00  0.00    -0.031 C 
ENDBRANCH  75  77
ENDBRANCH  68  75
ENDBRANCH  63  65
ENDBRANCH  62  63
ENDBRANCH  61  62
ENDBRANCH  60  61
ENDBRANCH  59  60
ENDBRANCH  58  59
ENDBRANCH   1  58
TORSDOF 19
ENDMDL
MODEL 2
REMARK VINA RESULT:     -10.0      2.701      6.382
REMARK SMILES O=C(OCCOCCOCCOC(=O)[C@@H]1CN(C(=O)[C@H]2CC=CCC2)c2ccccc2O1)c1ccc(-c2c3nc(c(-c4ccccc4)c4ccc([nH]4)c(-c4ccccc4)c4nc(c(-c5ccccc5)c5ccc2[nH]5)C=C4)C=C3)cc1
REMARK SMILES IDX 7 1 6 2 5 3 4 4 3 5 2 6 1 7 33 8 34 9 80 10 35 11 79 12
REMARK SMILES IDX 36 13 37 14 38 15 73 16 39 17 78 18 72 19 74 20 40 21 77 22
REMARK SMILES IDX 71 23 70 24 41 26 63 27 48 28 62 29 49 30 52 31 61 32 75 33
REMARK SMILES IDX 50 34 51 35 60 37 76 38 53 39 42 40 43 41 47 42 44 43 46 44
REMARK SMILES IDX 45 45 64 46 65 47 69 48 66 49 68 50 67 51 54 52 55 53 59 54
REMARK SMILES IDX 56 55 58 56 57 57 8 58 9 59 10 60 11 61 12 62 13 63 14 64
REMARK SMILES IDX 15 65 16 66 32 67 17 68 31 69 26 70 30 71 27 72 29 73 28 74
REMARK SMILES IDX 18 75 19 76 20 77 21 78 25 79 22 80 24 81 23 82
REMARK H PARENT 74 25 52 36
REMARK Flexibility Score: inf
ROOT
ATOM      1  C   UNL A   1      31.907  28.206  24.404  1.00  0.00     0.188 C 
ENDROOT
BRANCH   1   2
ATOM      2  O   UNL A   1      32.950  27.573  25.153  1.00  0.00    -0.376 OA
BRANCH   2   3
ATOM      3  C   UNL A   1      33.953  28.471  25.632  1.00  0.00     0.202 C 
BRANCH   3   4
ATOM      4  C   UNL A   1      33.600  29.211  26.932  1.00  0.00     0.261 C 
BRANCH   4   5
ATOM      5  O   UNL A   1      34.552  29.012  27.985  1.00  0.00    -0.460 OA
BRANCH   5   6
ATOM      6  C   UNL A   1      35.508  29.850  28.445  1.00  0.00     0.338 C 
ATOM      7  O   UNL A   1      35.137  30.947  28.871  1.00  0.00    -0.246 OA
BRANCH   6   8
ATOM      8  C   UNL A   1      36.982  29.553  28.504  1.00  0.00     0.060 A 
ATOM      9  C   UNL A   1      37.695  28.988  29.566  1.00  0.00     0.016 A 
ATOM     10  C   UNL A   1      37.696  29.792  27.316  1.00  0.00     0.016 A 
ATOM     11  C   UNL A   1      39.056  28.646  29.443  1.00  0.00     0.010 A 
ATOM     12  C   UNL A   1      39.038  29.406  27.172  1.00  0.00     0.010 A 
ATOM     13  C   UNL A   1      39.729  28.796  28.228  1.00  0.00    -0.014 A 
BRANCH  13  14
ATOM     14  C   UNL A   1      41.181  28.480  28.124  1.00  0.00     0.031 A 
ATOM     15  C   UNL A   1      41.523  27.079  27.749  1.00  0.00     0.074 A 
ATOM     16  C   UNL A   1      42.186  29.339  28.404  1.00  0.00     0.049 A 
ATOM     17  N   UNL A   1      42.695  26.509  27.728  1.00  0.00    -0.248 NA
ATOM     18  C   UNL A   1      40.390  26.169  27.510  1.00  0.00     0.031 C 
ATOM     19  C   UNL A   1      42.038  30.610  29.078  1.00  0.00     0.029 A 
ATOM     20  N   UNL A   1      43.546  29.280  28.195  1.00  0.00    -0.354 N 
ATOM     21  C   UNL A   1      42.427  25.168  27.537  1.00  0.00     0.074 A 
ATOM     22  C   UNL A   1      40.993  24.998  27.577  1.00  0.00     0.031 C 
ATOM     23  C   UNL A   1      43.193  31.280  29.112  1.00  0.00     0.029 A 
ATOM     24  C   UNL A   1      44.212  30.448  28.520  1.00  0.00     0.049 A 
ATOM     25  H   UNL A   1      44.001  28.480  27.846  1.00  0.00     0.167 HD
ATOM     26  C   UNL A   1      43.301  24.171  27.283  1.00  0.00     0.031 A 
ATOM     27  C   UNL A   1      45.505  30.803  28.402  1.00  0.00     0.031 A 
ATOM     28  C   UNL A   1      44.716  24.375  27.196  1.00  0.00     0.049 A 
ATOM     29  C   UNL A   1      46.448  29.721  27.986  1.00  0.00     0.074 A 
ATOM     30  C   UNL A   1      45.704  23.464  26.885  1.00  0.00     0.029 A 
ATOM     31  N   UNL A   1      45.340  25.603  27.397  1.00  0.00    -0.354 N 
ATOM     32  N   UNL A   1      46.178  28.461  27.750  1.00  0.00    -0.248 NA
ATOM     33  C   UNL A   1      47.866  30.076  27.877  1.00  0.00     0.031 C 
ATOM     34  C   UNL A   1      46.929  24.143  26.894  1.00  0.00     0.029 A 
ATOM     35  C   UNL A   1      46.700  25.481  27.178  1.00  0.00     0.049 A 
ATOM     36  H   UNL A   1      44.881  26.434  27.658  1.00  0.00     0.167 HD
ATOM     37  C   UNL A   1      47.392  27.860  27.483  1.00  0.00     0.074 A 
ATOM     38  C   UNL A   1      48.396  28.909  27.539  1.00  0.00     0.031 C 
ATOM     39  C   UNL A   1      47.657  26.555  27.240  1.00  0.00     0.031 A 
BRANCH  26  40
ATOM     40  C   UNL A   1      42.680  22.829  27.036  1.00  0.00    -0.014 A 
ATOM     41  C   UNL A   1      42.312  22.014  28.124  1.00  0.00     0.009 A 
ATOM     42  C   UNL A   1      42.614  22.308  25.739  1.00  0.00     0.009 A 
ATOM     43  C   UNL A   1      41.976  20.676  27.924  1.00  0.00     0.001 A 
ATOM     44  C   UNL A   1      42.233  20.978  25.540  1.00  0.00     0.001 A 
ATOM     45  C   UNL A   1      41.939  20.159  26.632  1.00  0.00     0.000 A 
ENDBRANCH  26  40
BRANCH  27  46
ATOM     46  C   UNL A   1      45.990  32.182  28.718  1.00  0.00    -0.014 A 
ATOM     47  C   UNL A   1      46.372  32.522  30.028  1.00  0.00     0.009 A 
ATOM     48  C   UNL A   1      46.059  33.177  27.730  1.00  0.00     0.009 A 
ATOM     49  C   UNL A   1      46.775  33.825  30.344  1.00  0.00     0.001 A 
ATOM     50  C   UNL A   1      46.499  34.469  28.040  1.00  0.00     0.001 A 
ATOM     51  C   UNL A   1      46.842  34.798  29.350  1.00  0.00     0.000 A 
ENDBRANCH  27  46
BRANCH  39  52
ATOM     52  C   UNL A   1      49.089  26.228  26.961  1.00  0.00    -0.014 A 
ATOM     53  C   UNL A   1      49.603  26.266  25.657  1.00  0.00     0.009 A 
ATOM     54  C   UNL A   1      49.926  25.881  28.030  1.00  0.00     0.009 A 
ATOM     55  C   UNL A   1      50.935  25.929  25.426  1.00  0.00     0.001 A 
ATOM     56  C   UNL A   1      51.264  25.573  27.798  1.00  0.00     0.001 A 
ATOM     57  C   UNL A   1      51.765  25.589  26.496  1.00  0.00     0.000 A 
ENDBRANCH  39  52
ENDBRANCH  13  14
ENDBRANCH   6   8
ENDBRANCH   5   6
ENDBRANCH   4   5
ENDBRANCH   3   4
ENDBRANCH   2   3
ENDBRANCH   1   2
BRANCH   1  58
ATOM     58  C   UNL A   1      31.926  27.962  22.888  1.00  0.00     0.188 C 
BRANCH  58  59
ATOM     59  O   UNL A   1      31.072  26.894  22.490  1.00  0.00    -0.376 OA
BRANCH  59  60
ATOM     60  C   UNL A   1      31.439  26.260  21.265  1.00  0.00     0.202 C 
BRANCH  60  61
ATOM     61  C   UNL A   1      32.731  25.445  21.313  1.00  0.00     0.261 C 
BRANCH  61  62
ATOM     62  O   UNL A   1      32.586  24.165  21.954  1.00  0.00    -0.460 OA
BRANCH  62  63
ATOM     63  C   UNL A   1      32.821  24.084  23.291  1.00  0.00     0.349 C 
ATOM     64  O   UNL A   1      33.672  24.736  23.879  1.00  0.00    -0.248 OA
BRANCH  63  65
ATOM     65  C   UNL A   1      31.962  22.998  23.964  1.00  0.00     0.302 C 
ATOM     66  C   UNL A   1      32.473  22.783  25.383  1.00  0.00     0.183 C 
ATOM     67  O   UNL A   1      31.732  21.779  23.276  1.00  0.00    -0.475 OA
ATOM     68  N   UNL A   1      33.734  22.054  25.387  1.00  0.00    -0.304 N 
ATOM     69  C   UNL A   1      32.513  20.729  23.687  1.00  0.00     0.144 A 
ATOM     70  C   UNL A   1      33.608  20.872  24.554  1.00  0.00     0.086 A 
ATOM     71  C   UNL A   1      32.155  19.478  23.160  1.00  0.00     0.049 A 
ATOM     72  C   UNL A   1      34.437  19.777  24.657  1.00  0.00     0.030 A 
ATOM     73  C   UNL A   1      32.871  18.344  23.507  1.00  0.00     0.004 A 
ATOM     74  C   UNL A   1      34.022  18.503  24.249  1.00  0.00     0.002 A 
BRANCH  68  75
ATOM     75  C   UNL A   1      34.887  22.436  26.082  1.00  0.00     0.230 C 
ATOM     76  O   UNL A   1      34.973  22.329  27.314  1.00  0.00    -0.274 OA
BRANCH  75  77
ATOM     77  C   UNL A   1      36.172  23.004  25.386  1.00  0.00     0.083 C 
ATOM     78  C   UNL A   1      37.217  23.717  26.254  1.00  0.00     0.040 C 
ATOM     79  C   UNL A   1      36.829  22.136  24.309  1.00  0.00     0.018 C 
ATOM     80  C   UNL A   1      38.501  22.960  26.470  1.00  0.00    -0.030 C 
ATOM     81  C   UNL A   1      37.890  21.175  24.828  1.00  0.00     0.028 C 
ATOM     82  C   UNL A   1      38.791  21.806  25.848  1.00  0.00    -0.031 C 
ENDBRANCH  75  77
ENDBRANCH  68  75
ENDBRANCH  63  65
ENDBRANCH  62  63
ENDBRANCH  61  62
ENDBRANCH  60  61
ENDBRANCH  59  60
ENDBRANCH  58  59
ENDBRANCH   1  58
TORSDOF 19
ENDMDL
MODEL 3
REMARK VINA RESULT:      -9.9      3.243      6.946
REMARK SMILES O=C(OCCOCCOCCOC(=O)[C@@H]1CN(C(=O)[C@H]2CC=CCC2)c2ccccc2O1)c1ccc(-c2c3nc(c(-c4ccccc4)c4ccc([nH]4)c(-c4ccccc4)c4nc(c(-c5ccccc5)c5ccc2[nH]5)C=C4)C=C3)cc1
REMARK SMILES IDX 7 1 6 2 5 3 4 4 3 5 2 6 1 7 33 8 34 9 80 10 35 11 79 12
REMARK SMILES IDX 36 13 37 14 38 15 73 16 39 17 78 18 72 19 74 20 40 21 77 22
REMARK SMILES IDX 71 23 70 24 41 26 63 27 48 28 62 29 49 30 52 31 61 32 75 33
REMARK SMILES IDX 50 34 51 35 60 37 76 38 53 39 42 40 43 41 47 42 44 43 46 44
REMARK SMILES IDX 45 45 64 46 65 47 69 48 66 49 68 50 67 51 54 52 55 53 59 54
REMARK SMILES IDX 56 55 58 56 57 57 8 58 9 59 10 60 11 61 12 62 13 63 14 64
REMARK SMILES IDX 15 65 16 66 32 67 17 68 31 69 26 70 30 71 27 72 29 73 28 74
REMARK SMILES IDX 18 75 19 76 20 77 21 78 25 79 22 80 24 81 23 82
REMARK H PARENT 74 25 52 36
REMARK Flexibility Score: inf
ROOT
ATOM      1  C   UNL A   1      32.294  29.316  26.529  1.00  0.00     0.188 C 
ENDROOT
BRANCH   1   2
ATOM      2  O   UNL A   1      33.003  30.555  26.653  1.00  0.00    -0.376 OA
BRANCH   2   3
ATOM      3  C   UNL A   1      34.217  30.461  27.401  1.00  0.00     0.202 C 
BRANCH   3   4
ATOM      4  C   UNL A   1      34.437  31.581  28.430  1.00  0.00     0.261 C 
BRANCH   4   5
ATOM      5  O   UNL A   1      35.660  31.454  29.167  1.00  0.00    -0.460 OA
BRANCH   5   6
ATOM      6  C   UNL A   1      36.288  30.336  29.596  1.00  0.00     0.338 C 
ATOM      7  O   UNL A   1      35.675  29.615  30.387  1.00  0.00    -0.246 OA
BRANCH   6   8
ATOM      8  C   UNL A   1      37.660  29.883  29.176  1.00  0.00     0.060 A 
ATOM      9  C   UNL A   1      38.132  29.693  27.874  1.00  0.00     0.016 A 
ATOM     10  C   UNL A   1      38.591  29.724  30.219  1.00  0.00     0.016 A 
ATOM     11  C   UNL A   1      39.483  29.386  27.616  1.00  0.00     0.010 A 
ATOM     12  C   UNL A   1      39.947  29.470  29.964  1.00  0.00     0.010 A 
ATOM     13  C   UNL A   1      40.419  29.328  28.651  1.00  0.00    -0.014 A 
BRANCH  13  14
ATOM     14  C   UNL A   1      41.833  28.952  28.372  1.00  0.00     0.031 A 
ATOM     15  C   UNL A   1      42.071  27.535  27.979  1.00  0.00     0.074 A 
ATOM     16  C   UNL A   1      42.898  29.772  28.514  1.00  0.00     0.049 A 
ATOM     17  N   UNL A   1      43.208  26.918  27.821  1.00  0.00    -0.248 NA
ATOM     18  C   UNL A   1      40.882  26.670  27.895  1.00  0.00     0.031 C 
ATOM     19  C   UNL A   1      42.884  31.055  29.182  1.00  0.00     0.029 A 
ATOM     20  N   UNL A   1      44.218  29.656  28.139  1.00  0.00    -0.354 N 
ATOM     21  C   UNL A   1      42.866  25.587  27.685  1.00  0.00     0.074 A 
ATOM     22  C   UNL A   1      41.443  25.476  27.904  1.00  0.00     0.031 C 
ATOM     23  C   UNL A   1      44.060  31.678  29.063  1.00  0.00     0.029 A 
ATOM     24  C   UNL A   1      44.965  30.799  28.362  1.00  0.00     0.049 A 
ATOM     25  H   UNL A   1      44.594  28.835  27.748  1.00  0.00     0.167 HD
ATOM     26  C   UNL A   1      43.662  24.553  27.338  1.00  0.00     0.031 A 
ATOM     27  C   UNL A   1      46.245  31.101  28.079  1.00  0.00     0.031 A 
ATOM     28  C   UNL A   1      45.063  24.699  27.074  1.00  0.00     0.049 A 
ATOM     29  C   UNL A   1      47.086  29.978  27.566  1.00  0.00     0.074 A 
ATOM     30  C   UNL A   1      45.968  23.746  26.656  1.00  0.00     0.029 A 
ATOM     31  N   UNL A   1      45.755  25.902  27.179  1.00  0.00    -0.354 N 
ATOM     32  N   UNL A   1      46.741  28.727  27.383  1.00  0.00    -0.248 NA
ATOM     33  C   UNL A   1      48.492  30.274  27.277  1.00  0.00     0.031 C 
ATOM     34  C   UNL A   1      47.210  24.374  26.503  1.00  0.00     0.029 A 
ATOM     35  C   UNL A   1      47.071  25.723  26.795  1.00  0.00     0.049 A 
ATOM     36  H   UNL A   1      45.364  26.754  27.482  1.00  0.00     0.167 HD
ATOM     37  C   UNL A   1      47.888  28.075  26.976  1.00  0.00     0.074 A 
ATOM     38  C   UNL A   1      48.930  29.083  26.892  1.00  0.00     0.031 C 
ATOM     39  C   UNL A   1      48.069  26.758  26.721  1.00  0.00     0.031 A 
BRANCH  26  40
ATOM     40  C   UNL A   1      42.964  23.235  27.190  1.00  0.00    -0.014 A 
ATOM     41  C   UNL A   1      42.432  22.857  25.942  1.00  0.00     0.009 A 
ATOM     42  C   UNL A   1      42.691  22.449  28.315  1.00  0.00     0.009 A 
ATOM     43  C   UNL A   1      41.566  21.769  25.842  1.00  0.00     0.001 A 
ATOM     44  C   UNL A   1      41.859  21.332  28.201  1.00  0.00     0.001 A 
ATOM     45  C   UNL A   1      41.279  21.009  26.972  1.00  0.00     0.000 A 
ENDBRANCH  26  40
BRANCH  27  46
ATOM     46  C   UNL A   1      46.819  32.462  28.313  1.00  0.00    -0.014 A 
ATOM     47  C   UNL A   1      46.754  33.447  27.312  1.00  0.00     0.009 A 
ATOM     48  C   UNL A   1      47.451  32.790  29.523  1.00  0.00     0.009 A 
ATOM     49  C   UNL A   1      47.337  34.706  27.502  1.00  0.00     0.001 A 
ATOM     50  C   UNL A   1      47.999  34.062  29.727  1.00  0.00     0.001 A 
ATOM     51  C   UNL A   1      47.956  35.014  28.711  1.00  0.00     0.000 A 
ENDBRANCH  27  46
BRANCH  39  52
ATOM     52  C   UNL A   1      49.441  26.371  26.273  1.00  0.00    -0.014 A 
ATOM     53  C   UNL A   1      49.875  26.618  24.962  1.00  0.00     0.009 A 
ATOM     54  C   UNL A   1      50.305  25.752  27.187  1.00  0.00     0.009 A 
ATOM     55  C   UNL A   1      51.150  26.220  24.566  1.00  0.00     0.001 A 
ATOM     56  C   UNL A   1      51.588  25.382  26.795  1.00  0.00     0.001 A 
ATOM     57  C   UNL A   1      52.006  25.609  25.483  1.00  0.00     0.000 A 
ENDBRANCH  39  52
ENDBRANCH  13  14
ENDBRANCH   6   8
ENDBRANCH   5   6
ENDBRANCH   4   5
ENDBRANCH   3   4
ENDBRANCH   2   3
ENDBRANCH   1   2
BRANCH   1  58
ATOM     58  C   UNL A   1      31.966  28.871  25.097  1.00  0.00     0.188 C 
BRANCH  58  59
ATOM     59  O   UNL A   1      32.968  29.245  24.158  1.00  0.00    -0.376 OA
BRANCH  59  60
ATOM     60  C   UNL A   1      33.792  28.173  23.702  1.00  0.00     0.202 C 
BRANCH  60  61
ATOM     61  C   UNL A   1      33.078  27.108  22.870  1.00  0.00     0.261 C 
BRANCH  61  62
ATOM     62  O   UNL A   1      33.408  25.759  23.248  1.00  0.00    -0.460 OA
BRANCH  62  63
ATOM     63  C   UNL A   1      32.595  24.755  22.826  1.00  0.00     0.349 C 
ATOM     64  O   UNL A   1      31.376  24.773  22.922  1.00  0.00    -0.248 OA
BRANCH  63  65
ATOM     65  C   UNL A   1      33.392  23.545  22.305  1.00  0.00     0.302 C 
ATOM     66  C   UNL A   1      32.774  22.274  22.874  1.00  0.00     0.183 C 
ATOM     67  O   UNL A   1      34.807  23.559  22.410  1.00  0.00    -0.475 OA
ATOM     68  N   UNL A   1      33.093  22.117  24.287  1.00  0.00    -0.304 N 
ATOM     69  C   UNL A   1      35.315  22.829  23.454  1.00  0.00     0.144 A 
ATOM     70  C   UNL A   1      34.521  22.289  24.478  1.00  0.00     0.086 A 
ATOM     71  C   UNL A   1      36.710  22.668  23.446  1.00  0.00     0.049 A 
ATOM     72  C   UNL A   1      35.204  21.815  25.577  1.00  0.00     0.030 A 
ATOM     73  C   UNL A   1      37.335  21.946  24.449  1.00  0.00     0.004 A 
ATOM     74  C   UNL A   1      36.575  21.532  25.522  1.00  0.00     0.002 A 
BRANCH  68  75
ATOM     75  C   UNL A   1      32.167  21.845  25.300  1.00  0.00     0.230 C 
ATOM     76  O   UNL A   1      31.501  20.800  25.313  1.00  0.00    -0.274 OA
BRANCH  75  77
ATOM     77  C   UNL A   1      31.900  22.804  26.511  1.00  0.00     0.083 C 
ATOM     78  C   UNL A   1      32.780  24.051  26.662  1.00  0.00     0.040 C 
ATOM     79  C   UNL A   1      30.440  23.096  26.868  1.00  0.00     0.018 C 
ATOM     80  C   UNL A   1      32.100  25.361  26.359  1.00  0.00    -0.030 C 
ATOM     81  C   UNL A   1      29.843  24.304  26.158  1.00  0.00     0.028 C 
ATOM     82  C   UNL A   1      30.786  25.470  26.109  1.00  0.00    -0.031 C 
ENDBRANCH  75  77
ENDBRANCH  68  75
ENDBRANCH  63  65
ENDBRANCH  62  63
ENDBRANCH  61  62
ENDBRANCH  60  61
ENDBRANCH  59  60
ENDBRANCH  58  59
ENDBRANCH   1  58
TORSDOF 19
ENDMDL
