MODEL 1
REMARK VINA RESULT:      -8.7      0.000      0.000
REMARK SMILES C[C@@H](C(=O)OCCOCCOCCOC(=O)c1ccc(-c2c3nc(c(-c4ccccc4)c4ccc([nH]4)c(-c4ccccc4)c4nc(c(-c5ccccc5)c5ccc2[nH]5)C=C4)C=C3)cc1)c1ccc(C[C@H]2CCC[C@@H]2O)cc1
REMARK SMILES IDX 9 1 8 2 7 3 6 4 5 5 3 6 4 7 2 8 1 9 65 10 66 11 77 12 67 13
REMARK SMILES IDX 76 14 68 15 69 16 70 17 71 18 74 19 72 20 73 21 75 22 10 24
REMARK SMILES IDX 11 25 12 26 13 27 14 28 15 29 16 30 17 31 18 32 64 33 19 34
REMARK SMILES IDX 63 35 20 36 21 37 22 38 57 39 23 40 62 41 56 42 58 43 24 44
REMARK SMILES IDX 61 45 55 46 54 47 25 49 47 50 32 51 46 52 33 53 36 54 45 55
REMARK SMILES IDX 59 56 34 57 35 58 44 60 60 61 37 62 26 63 27 64 31 65 28 66
REMARK SMILES IDX 30 67 29 68 48 69 49 70 53 71 50 72 52 73 51 74 38 75 39 76
REMARK SMILES IDX 43 77 40 78 42 79 41 80
REMARK H PARENT 75 23 58 48 36 59
REMARK Flexibility Score: inf
ROOT
ATOM      1  C   UNL A   1      35.040  34.214  33.838  1.00  0.00     0.188 C 
ENDROOT
BRANCH   1   2
ATOM      2  O   UNL A   1      35.536  33.612  35.011  1.00  0.00    -0.376 OA
BRANCH   2   3
ATOM      3  C   UNL A   1      36.878  33.883  35.397  1.00  0.00     0.202 C 
BRANCH   3   4
ATOM      4  C   UNL A   1      37.430  33.494  36.782  1.00  0.00     0.261 C 
BRANCH   4   5
ATOM      5  O   UNL A   1      38.554  32.587  36.797  1.00  0.00    -0.463 OA
BRANCH   5   6
ATOM      6  C   UNL A   1      38.321  31.336  36.306  1.00  0.00     0.313 C 
ATOM      7  O   UNL A   1      37.790  30.444  36.962  1.00  0.00    -0.252 OA
BRANCH   6   8
ATOM      8  C   UNL A   1      38.787  31.112  34.855  1.00  0.00     0.126 C 
ATOM      9  C   UNL A   1      37.750  30.731  33.793  1.00  0.00     0.025 C 
BRANCH   8  10
ATOM     10  C   UNL A   1      39.983  30.166  34.786  1.00  0.00    -0.034 A 
ATOM     11  C   UNL A   1      40.068  29.207  33.771  1.00  0.00     0.005 A 
ATOM     12  C   UNL A   1      41.022  30.217  35.725  1.00  0.00     0.005 A 
ATOM     13  C   UNL A   1      41.160  28.335  33.701  1.00  0.00     0.004 A 
ATOM     14  C   UNL A   1      42.104  29.341  35.660  1.00  0.00     0.004 A 
ATOM     15  C   UNL A   1      42.174  28.371  34.663  1.00  0.00    -0.048 A 
BRANCH  15  16
ATOM     16  C   UNL A   1      43.314  27.382  34.655  1.00  0.00     0.041 C 
BRANCH  16  17
ATOM     17  C   UNL A   1      42.935  25.922  34.363  1.00  0.00     0.022 C 
ATOM     18  C   UNL A   1      44.058  25.017  33.832  1.00  0.00     0.007 C 
ATOM     19  C   UNL A   1      42.363  25.145  35.550  1.00  0.00     0.117 C 
ATOM     20  C   UNL A   1      43.776  23.619  34.398  1.00  0.00     0.003 C 
ATOM     21  C   UNL A   1      42.408  23.707  35.061  1.00  0.00     0.032 C 
BRANCH  19  22
ATOM     22  O   UNL A   1      41.052  25.561  35.878  1.00  0.00    -0.393 OA
ATOM     23  H   UNL A   1      40.413  25.093  35.317  1.00  0.00     0.210 HD
ENDBRANCH  19  22
ENDBRANCH  16  17
ENDBRANCH  15  16
ENDBRANCH   8  10
ENDBRANCH   6   8
ENDBRANCH   5   6
ENDBRANCH   4   5
ENDBRANCH   3   4
ENDBRANCH   2   3
ENDBRANCH   1   2
BRANCH   1  24
ATOM     24  C   UNL A   1      34.485  35.645  33.919  1.00  0.00     0.188 C 
BRANCH  24  25
ATOM     25  O   UNL A   1      34.691  36.552  32.868  1.00  0.00    -0.376 OA
BRANCH  25  26
ATOM     26  C   UNL A   1      33.599  37.139  32.192  1.00  0.00     0.202 C 
BRANCH  26  27
ATOM     27  C   UNL A   1      33.004  36.634  30.863  1.00  0.00     0.261 C 
BRANCH  27  28
ATOM     28  O   UNL A   1      32.870  35.224  30.666  1.00  0.00    -0.460 OA
BRANCH  28  29
ATOM     29  C   UNL A   1      33.184  34.768  29.426  1.00  0.00     0.338 C 
ATOM     30  O   UNL A   1      32.667  35.078  28.373  1.00  0.00    -0.246 OA
BRANCH  29  31
ATOM     31  C   UNL A   1      34.422  33.963  29.536  1.00  0.00     0.060 A 
ATOM     32  C   UNL A   1      34.494  32.973  30.524  1.00  0.00     0.016 A 
ATOM     33  C   UNL A   1      35.506  34.189  28.683  1.00  0.00     0.016 A 
ATOM     34  C   UNL A   1      35.658  32.219  30.673  1.00  0.00     0.010 A 
ATOM     35  C   UNL A   1      36.680  33.444  28.849  1.00  0.00     0.010 A 
ATOM     36  C   UNL A   1      36.771  32.469  29.857  1.00  0.00    -0.014 A 
BRANCH  36  37
ATOM     37  C   UNL A   1      38.077  31.842  30.184  1.00  0.00     0.031 A 
ATOM     38  C   UNL A   1      38.967  32.524  31.184  1.00  0.00     0.074 A 
ATOM     39  C   UNL A   1      38.465  30.681  29.627  1.00  0.00     0.049 A 
ATOM     40  N   UNL A   1      40.164  32.188  31.595  1.00  0.00    -0.248 NA
ATOM     41  C   UNL A   1      38.443  33.757  31.790  1.00  0.00     0.031 C 
ATOM     42  C   UNL A   1      37.692  29.905  28.662  1.00  0.00     0.029 A 
ATOM     43  N   UNL A   1      39.614  29.948  29.805  1.00  0.00    -0.354 N 
ATOM     44  C   UNL A   1      40.546  33.181  32.486  1.00  0.00     0.074 A 
ATOM     45  C   UNL A   1      39.458  34.135  32.550  1.00  0.00     0.031 C 
ATOM     46  C   UNL A   1      38.372  28.785  28.360  1.00  0.00     0.029 A 
ATOM     47  C   UNL A   1      39.657  28.797  29.057  1.00  0.00     0.049 A 
ATOM     48  H   UNL A   1      40.339  30.223  30.412  1.00  0.00     0.167 HD
ATOM     49  C   UNL A   1      41.703  33.301  33.181  1.00  0.00     0.031 A 
ATOM     50  C   UNL A   1      40.632  27.874  28.928  1.00  0.00     0.031 A 
ATOM     51  C   UNL A   1      42.801  32.376  33.095  1.00  0.00     0.049 A 
ATOM     52  C   UNL A   1      41.936  28.062  29.663  1.00  0.00     0.074 A 
ATOM     53  C   UNL A   1      44.018  32.423  33.753  1.00  0.00     0.029 A 
ATOM     54  N   UNL A   1      42.823  31.246  32.293  1.00  0.00    -0.354 N 
ATOM     55  N   UNL A   1      42.283  29.000  30.511  1.00  0.00    -0.248 NA
ATOM     56  C   UNL A   1      42.990  27.066  29.410  1.00  0.00     0.031 C 
ATOM     57  C   UNL A   1      44.801  31.354  33.301  1.00  0.00     0.029 A 
ATOM     58  C   UNL A   1      44.041  30.600  32.421  1.00  0.00     0.049 A 
ATOM     59  H   UNL A   1      42.081  30.946  31.719  1.00  0.00     0.167 HD
ATOM     60  C   UNL A   1      43.584  28.700  30.901  1.00  0.00     0.074 A 
ATOM     61  C   UNL A   1      43.954  27.477  30.222  1.00  0.00     0.031 C 
ATOM     62  C   UNL A   1      44.402  29.383  31.741  1.00  0.00     0.031 A 
BRANCH  49  63
ATOM     63  C   UNL A   1      41.857  34.518  34.049  1.00  0.00    -0.014 A 
ATOM     64  C   UNL A   1      41.428  34.525  35.386  1.00  0.00     0.009 A 
ATOM     65  C   UNL A   1      42.456  35.673  33.522  1.00  0.00     0.009 A 
ATOM     66  C   UNL A   1      41.559  35.677  36.164  1.00  0.00     0.001 A 
ATOM     67  C   UNL A   1      42.616  36.812  34.312  1.00  0.00     0.001 A 
ATOM     68  C   UNL A   1      42.158  36.818  35.628  1.00  0.00     0.000 A 
ENDBRANCH  49  63
BRANCH  50  69
ATOM     69  C   UNL A   1      40.446  26.701  28.027  1.00  0.00    -0.014 A 
ATOM     70  C   UNL A   1      39.780  25.549  28.477  1.00  0.00     0.009 A 
ATOM     71  C   UNL A   1      40.968  26.711  26.724  1.00  0.00     0.009 A 
ATOM     72  C   UNL A   1      39.666  24.427  27.651  1.00  0.00     0.001 A 
ATOM     73  C   UNL A   1      40.821  25.602  25.888  1.00  0.00     0.001 A 
ATOM     74  C   UNL A   1      40.180  24.457  26.356  1.00  0.00     0.000 A 
ENDBRANCH  50  69
BRANCH  62  75
ATOM     75  C   UNL A   1      45.766  28.804  32.010  1.00  0.00    -0.014 A 
ATOM     76  C   UNL A   1      46.859  29.074  31.170  1.00  0.00     0.009 A 
ATOM     77  C   UNL A   1      45.972  28.015  33.153  1.00  0.00     0.009 A 
ATOM     78  C   UNL A   1      48.117  28.536  31.451  1.00  0.00     0.001 A 
ATOM     79  C   UNL A   1      47.238  27.506  33.450  1.00  0.00     0.001 A 
ATOM     80  C   UNL A   1      48.308  27.759  32.593  1.00  0.00     0.000 A 
ENDBRANCH  62  75
ENDBRANCH  36  37
ENDBRANCH  29  31
ENDBRANCH  28  29
ENDBRANCH  27  28
ENDBRANCH  26  27
ENDBRANCH  25  26
ENDBRANCH  24  25
ENDBRANCH   1  24
TORSDOF 21
ENDMDL
MODEL 2
REMARK VINA RESULT:      -8.6      0.618      5.849
REMARK SMILES C[C@@H](C(=O)OCCOCCOCCOC(=O)c1ccc(-c2c3nc(c(-c4ccccc4)c4ccc([nH]4)c(-c4ccccc4)c4nc(c(-c5ccccc5)c5ccc2[nH]5)C=C4)C=C3)cc1)c1ccc(C[C@H]2CCC[C@@H]2O)cc1
REMARK SMILES IDX 9 1 8 2 7 3 6 4 5 5 3 6 4 7 2 8 1 9 65 10 66 11 77 12 67 13
REMARK SMILES IDX 76 14 68 15 69 16 70 17 71 18 74 19 72 20 73 21 75 22 10 24
REMARK SMILES IDX 11 25 12 26 13 27 14 28 15 29 16 30 17 31 18 32 64 33 19 34
REMARK SMILES IDX 63 35 20 36 21 37 22 38 57 39 23 40 62 41 56 42 58 43 24 44
REMARK SMILES IDX 61 45 55 46 54 47 25 49 47 50 32 51 46 52 33 53 36 54 45 55
REMARK SMILES IDX 59 56 34 57 35 58 44 60 60 61 37 62 26 63 27 64 31 65 28 66
REMARK SMILES IDX 30 67 29 68 48 69 49 70 53 71 50 72 52 73 51 74 38 75 39 76
REMARK SMILES IDX 43 77 40 78 42 79 41 80
REMARK H PARENT 75 23 58 48 36 59
REMARK Flexibility Score: inf
ROOT
ATOM      1  C   UNL A   1      34.836  34.100  34.013  1.00  0.00     0.188 C 
ENDROOT
BRANCH   1   2
ATOM      2  O   UNL A   1      35.569  33.615  35.115  1.00  0.00    -0.376 OA
BRANCH   2   3
ATOM      3  C   UNL A   1      36.986  33.566  35.018  1.00  0.00     0.202 C 
BRANCH   3   4
ATOM      4  C   UNL A   1      37.887  33.322  36.244  1.00  0.00     0.261 C 
BRANCH   4   5
ATOM      5  O   UNL A   1      39.029  32.461  36.045  1.00  0.00    -0.463 OA
BRANCH   5   6
ATOM      6  C   UNL A   1      38.755  31.147  35.803  1.00  0.00     0.313 C 
ATOM      7  O   UNL A   1      38.159  30.426  36.599  1.00  0.00    -0.252 OA
BRANCH   6   8
ATOM      8  C   UNL A   1      39.260  30.618  34.447  1.00  0.00     0.126 C 
ATOM      9  C   UNL A   1      38.242  30.096  33.428  1.00  0.00     0.025 C 
BRANCH   8  10
ATOM     10  C   UNL A   1      40.394  29.610  34.622  1.00  0.00    -0.034 A 
ATOM     11  C   UNL A   1      40.477  28.488  33.790  1.00  0.00     0.005 A 
ATOM     12  C   UNL A   1      41.374  29.763  35.611  1.00  0.00     0.005 A 
ATOM     13  C   UNL A   1      41.512  27.559  33.944  1.00  0.00     0.004 A 
ATOM     14  C   UNL A   1      42.399  28.831  35.770  1.00  0.00     0.004 A 
ATOM     15  C   UNL A   1      42.466  27.703  34.956  1.00  0.00    -0.048 A 
BRANCH  15  16
ATOM     16  C   UNL A   1      43.536  26.666  35.193  1.00  0.00     0.041 C 
BRANCH  16  17
ATOM     17  C   UNL A   1      43.371  25.343  34.431  1.00  0.00     0.022 C 
ATOM     18  C   UNL A   1      44.507  24.961  33.469  1.00  0.00     0.007 C 
ATOM     19  C   UNL A   1      43.195  24.101  35.308  1.00  0.00     0.117 C 
ATOM     20  C   UNL A   1      44.596  23.430  33.508  1.00  0.00     0.003 C 
ATOM     21  C   UNL A   1      43.396  22.964  34.320  1.00  0.00     0.032 C 
BRANCH  19  22
ATOM     22  O   UNL A   1      41.924  24.059  35.926  1.00  0.00    -0.393 OA
ATOM     23  H   UNL A   1      41.885  24.724  36.632  1.00  0.00     0.210 HD
ENDBRANCH  19  22
ENDBRANCH  16  17
ENDBRANCH  15  16
ENDBRANCH   8  10
ENDBRANCH   6   8
ENDBRANCH   5   6
ENDBRANCH   4   5
ENDBRANCH   3   4
ENDBRANCH   2   3
ENDBRANCH   1   2
BRANCH   1  24
ATOM     24  C   UNL A   1      34.476  35.592  33.963  1.00  0.00     0.188 C 
BRANCH  24  25
ATOM     25  O   UNL A   1      34.696  36.343  32.798  1.00  0.00    -0.376 OA
BRANCH  25  26
ATOM     26  C   UNL A   1      33.626  36.983  32.134  1.00  0.00     0.202 C 
BRANCH  26  27
ATOM     27  C   UNL A   1      32.941  36.465  30.854  1.00  0.00     0.261 C 
BRANCH  27  28
ATOM     28  O   UNL A   1      32.829  35.052  30.662  1.00  0.00    -0.460 OA
BRANCH  28  29
ATOM     29  C   UNL A   1      33.228  34.588  29.450  1.00  0.00     0.338 C 
ATOM     30  O   UNL A   1      32.720  34.811  28.371  1.00  0.00    -0.246 OA
BRANCH  29  31
ATOM     31  C   UNL A   1      34.532  33.909  29.628  1.00  0.00     0.060 A 
ATOM     32  C   UNL A   1      34.659  32.956  30.645  1.00  0.00     0.016 A 
ATOM     33  C   UNL A   1      35.621  34.218  28.809  1.00  0.00     0.016 A 
ATOM     34  C   UNL A   1      35.884  32.322  30.858  1.00  0.00     0.010 A 
ATOM     35  C   UNL A   1      36.854  33.594  29.038  1.00  0.00     0.010 A 
ATOM     36  C   UNL A   1      36.998  32.658  30.076  1.00  0.00    -0.014 A 
BRANCH  36  37
ATOM     37  C   UNL A   1      38.345  32.169  30.468  1.00  0.00     0.031 A 
ATOM     38  C   UNL A   1      38.846  30.890  29.858  1.00  0.00     0.074 A 
ATOM     39  C   UNL A   1      39.123  32.848  31.329  1.00  0.00     0.049 A 
ATOM     40  N   UNL A   1      39.966  30.249  30.078  1.00  0.00    -0.248 NA
ATOM     41  C   UNL A   1      37.958  30.241  28.882  1.00  0.00     0.031 C 
ATOM     42  C   UNL A   1      38.771  34.108  31.976  1.00  0.00     0.029 A 
ATOM     43  N   UNL A   1      40.383  32.568  31.801  1.00  0.00    -0.354 N 
ATOM     44  C   UNL A   1      39.906  29.109  29.288  1.00  0.00     0.074 A 
ATOM     45  C   UNL A   1      38.637  29.143  28.591  1.00  0.00     0.031 C 
ATOM     46  C   UNL A   1      39.806  34.513  32.733  1.00  0.00     0.029 A 
ATOM     47  C   UNL A   1      40.866  33.509  32.679  1.00  0.00     0.049 A 
ATOM     48  H   UNL A   1      40.892  31.768  31.536  1.00  0.00     0.167 HD
ATOM     49  C   UNL A   1      40.815  28.114  29.161  1.00  0.00     0.031 A 
ATOM     50  C   UNL A   1      42.019  33.541  33.379  1.00  0.00     0.031 A 
ATOM     51  C   UNL A   1      42.061  28.057  29.877  1.00  0.00     0.049 A 
ATOM     52  C   UNL A   1      42.988  32.390  33.268  1.00  0.00     0.074 A 
ATOM     53  C   UNL A   1      43.041  27.080  29.822  1.00  0.00     0.029 A 
ATOM     54  N   UNL A   1      42.495  29.007  30.789  1.00  0.00    -0.354 N 
ATOM     55  N   UNL A   1      42.925  31.321  32.511  1.00  0.00    -0.248 NA
ATOM     56  C   UNL A   1      44.184  32.445  34.125  1.00  0.00     0.031 C 
ATOM     57  C   UNL A   1      44.038  27.408  30.747  1.00  0.00     0.029 A 
ATOM     58  C   UNL A   1      43.716  28.627  31.321  1.00  0.00     0.049 A 
ATOM     59  H   UNL A   1      42.007  29.829  31.022  1.00  0.00     0.167 HD
ATOM     60  C   UNL A   1      44.074  30.588  32.789  1.00  0.00     0.074 A 
ATOM     61  C   UNL A   1      44.832  31.348  33.760  1.00  0.00     0.031 C 
ATOM     62  C   UNL A   1      44.463  29.389  32.288  1.00  0.00     0.031 A 
BRANCH  49  63
ATOM     63  C   UNL A   1      40.458  26.970  28.253  1.00  0.00    -0.014 A 
ATOM     64  C   UNL A   1      39.610  25.934  28.677  1.00  0.00     0.009 A 
ATOM     65  C   UNL A   1      40.968  26.939  26.946  1.00  0.00     0.009 A 
ATOM     66  C   UNL A   1      39.315  24.869  27.823  1.00  0.00     0.001 A 
ATOM     67  C   UNL A   1      40.644  25.891  26.084  1.00  0.00     0.001 A 
ATOM     68  C   UNL A   1      39.828  24.851  26.526  1.00  0.00     0.000 A 
ENDBRANCH  49  63
BRANCH  50  69
ATOM     69  C   UNL A   1      42.314  34.680  34.294  1.00  0.00    -0.014 A 
ATOM     70  C   UNL A   1      43.006  35.811  33.831  1.00  0.00     0.009 A 
ATOM     71  C   UNL A   1      41.940  34.625  35.645  1.00  0.00     0.009 A 
ATOM     72  C   UNL A   1      43.339  36.847  34.709  1.00  0.00     0.001 A 
ATOM     73  C   UNL A   1      42.241  35.679  36.512  1.00  0.00     0.001 A 
ATOM     74  C   UNL A   1      42.950  36.783  36.045  1.00  0.00     0.000 A 
ENDBRANCH  50  69
BRANCH  62  75
ATOM     75  C   UNL A   1      45.787  28.837  32.748  1.00  0.00    -0.014 A 
ATOM     76  C   UNL A   1      46.933  28.904  31.940  1.00  0.00     0.009 A 
ATOM     77  C   UNL A   1      45.899  28.286  34.035  1.00  0.00     0.009 A 
ATOM     78  C   UNL A   1      48.153  28.398  32.398  1.00  0.00     0.001 A 
ATOM     79  C   UNL A   1      47.126  27.811  34.503  1.00  0.00     0.001 A 
ATOM     80  C   UNL A   1      48.250  27.859  33.680  1.00  0.00     0.000 A 
ENDBRANCH  62  75
ENDBRANCH  36  37
ENDBRANCH  29  31
ENDBRANCH  28  29
ENDBRANCH  27  28
ENDBRANCH  26  27
ENDBRANCH  25  26
ENDBRANCH  24  25
ENDBRANCH   1  24
TORSDOF 21
ENDMDL
MODEL 3
REMARK VINA RESULT:      -7.5      5.691     11.804
REMARK SMILES C[C@@H](C(=O)OCCOCCOCCOC(=O)c1ccc(-c2c3nc(c(-c4ccccc4)c4ccc([nH]4)c(-c4ccccc4)c4nc(c(-c5ccccc5)c5ccc2[nH]5)C=C4)C=C3)cc1)c1ccc(C[C@H]2CCC[C@@H]2O)cc1
REMARK SMILES IDX 9 1 8 2 7 3 6 4 5 5 3 6 4 7 2 8 1 9 65 10 66 11 77 12 67 13
REMARK SMILES IDX 76 14 68 15 69 16 70 17 71 18 74 19 72 20 73 21 75 22 10 24
REMARK SMILES IDX 11 25 12 26 13 27 14 28 15 29 16 30 17 31 18 32 64 33 19 34
REMARK SMILES IDX 63 35 20 36 21 37 22 38 57 39 23 40 62 41 56 42 58 43 24 44
REMARK SMILES IDX 61 45 55 46 54 47 25 49 47 50 32 51 46 52 33 53 36 54 45 55
REMARK SMILES IDX 59 56 34 57 35 58 44 60 60 61 37 62 26 63 27 64 31 65 28 66
REMARK SMILES IDX 30 67 29 68 48 69 49 70 53 71 50 72 52 73 51 74 38 75 39 76
REMARK SMILES IDX 43 77 40 78 42 79 41 80
REMARK H PARENT 75 23 58 48 36 59
REMARK Flexibility Score: inf
ROOT
ATOM      1  C   UNL A   1      41.261  21.066  27.157  1.00  0.00     0.188 C 
ENDROOT
BRANCH   1   2
ATOM      2  O   UNL A   1      39.890  21.395  27.175  1.00  0.00    -0.376 OA
BRANCH   2   3
ATOM      3  C   UNL A   1      39.416  22.376  26.262  1.00  0.00     0.202 C 
BRANCH   3   4
ATOM      4  C   UNL A   1      37.969  22.375  25.730  1.00  0.00     0.261 C 
BRANCH   4   5
ATOM      5  O   UNL A   1      37.502  23.601  25.127  1.00  0.00    -0.463 OA
BRANCH   5   6
ATOM      6  C   UNL A   1      36.633  23.464  24.085  1.00  0.00     0.313 C 
ATOM      7  O   UNL A   1      36.994  23.246  22.932  1.00  0.00    -0.252 OA
BRANCH   6   8
ATOM      8  C   UNL A   1      35.145  23.613  24.457  1.00  0.00     0.126 C 
ATOM      9  C   UNL A   1      34.774  24.346  25.751  1.00  0.00     0.025 C 
BRANCH   8  10
ATOM     10  C   UNL A   1      34.407  22.279  24.378  1.00  0.00    -0.034 A 
ATOM     11  C   UNL A   1      33.229  22.166  23.633  1.00  0.00     0.005 A 
ATOM     12  C   UNL A   1      34.870  21.136  25.043  1.00  0.00     0.005 A 
ATOM     13  C   UNL A   1      32.545  20.948  23.555  1.00  0.00     0.004 A 
ATOM     14  C   UNL A   1      34.183  19.925  24.974  1.00  0.00     0.004 A 
ATOM     15  C   UNL A   1      32.997  19.822  24.251  1.00  0.00    -0.048 A 
BRANCH  15  16
ATOM     16  C   UNL A   1      32.226  18.525  24.251  1.00  0.00     0.041 C 
BRANCH  16  17
ATOM     17  C   UNL A   1      32.906  17.338  24.950  1.00  0.00     0.022 C 
ATOM     18  C   UNL A   1      32.020  16.493  25.879  1.00  0.00     0.007 C 
ATOM     19  C   UNL A   1      33.551  16.312  24.017  1.00  0.00     0.117 C 
ATOM     20  C   UNL A   1      32.542  15.055  25.765  1.00  0.00     0.003 C 
ATOM     21  C   UNL A   1      33.823  15.141  24.946  1.00  0.00     0.032 C 
BRANCH  19  22
ATOM     22  O   UNL A   1      34.730  16.805  23.413  1.00  0.00    -0.393 OA
ATOM     23  H   UNL A   1      35.427  16.889  24.083  1.00  0.00     0.210 HD
ENDBRANCH  19  22
ENDBRANCH  16  17
ENDBRANCH  15  16
ENDBRANCH   8  10
ENDBRANCH   6   8
ENDBRANCH   5   6
ENDBRANCH   4   5
ENDBRANCH   3   4
ENDBRANCH   2   3
ENDBRANCH   1   2
BRANCH   1  24
ATOM     24  C   UNL A   1      41.768  20.072  26.102  1.00  0.00     0.188 C 
BRANCH  24  25
ATOM     25  O   UNL A   1      43.120  19.697  26.064  1.00  0.00    -0.376 OA
BRANCH  25  26
ATOM     26  C   UNL A   1      44.007  20.274  25.128  1.00  0.00     0.202 C 
BRANCH  26  27
ATOM     27  C   UNL A   1      44.700  21.640  25.288  1.00  0.00     0.261 C 
BRANCH  27  28
ATOM     28  O   UNL A   1      44.009  22.680  25.987  1.00  0.00    -0.460 OA
BRANCH  28  29
ATOM     29  C   UNL A   1      44.276  23.945  25.576  1.00  0.00     0.338 C 
ATOM     30  O   UNL A   1      44.854  24.286  24.565  1.00  0.00    -0.246 OA
BRANCH  29  31
ATOM     31  C   UNL A   1      43.562  24.879  26.477  1.00  0.00     0.060 A 
ATOM     32  C   UNL A   1      43.979  26.214  26.528  1.00  0.00     0.016 A 
ATOM     33  C   UNL A   1      42.499  24.440  27.271  1.00  0.00     0.016 A 
ATOM     34  C   UNL A   1      43.346  27.111  27.391  1.00  0.00     0.010 A 
ATOM     35  C   UNL A   1      41.880  25.338  28.150  1.00  0.00     0.010 A 
ATOM     36  C   UNL A   1      42.312  26.672  28.230  1.00  0.00    -0.014 A 
BRANCH  36  37
ATOM     37  C   UNL A   1      41.818  27.561  29.312  1.00  0.00     0.031 A 
ATOM     38  C   UNL A   1      42.571  27.593  30.612  1.00  0.00     0.074 A 
ATOM     39  C   UNL A   1      40.738  28.345  29.148  1.00  0.00     0.049 A 
ATOM     40  N   UNL A   1      42.306  28.256  31.709  1.00  0.00    -0.248 NA
ATOM     41  C   UNL A   1      43.774  26.750  30.689  1.00  0.00     0.031 C 
ATOM     42  C   UNL A   1      39.930  28.430  27.934  1.00  0.00     0.029 A 
ATOM     43  N   UNL A   1      40.140  29.231  30.012  1.00  0.00    -0.354 N 
ATOM     44  C   UNL A   1      43.294  27.892  32.614  1.00  0.00     0.074 A 
ATOM     45  C   UNL A   1      44.157  26.944  31.941  1.00  0.00     0.031 C 
ATOM     46  C   UNL A   1      38.963  29.346  28.118  1.00  0.00     0.029 A 
ATOM     47  C   UNL A   1      39.040  29.862  29.483  1.00  0.00     0.049 A 
ATOM     48  H   UNL A   1      40.468  29.395  30.925  1.00  0.00     0.167 HD
ATOM     49  C   UNL A   1      43.463  28.296  33.896  1.00  0.00     0.031 A 
ATOM     50  C   UNL A   1      38.180  30.736  30.046  1.00  0.00     0.031 A 
ATOM     51  C   UNL A   1      42.589  29.210  34.581  1.00  0.00     0.049 A 
ATOM     52  C   UNL A   1      38.353  31.123  31.494  1.00  0.00     0.074 A 
ATOM     53  C   UNL A   1      42.674  29.667  35.885  1.00  0.00     0.029 A 
ATOM     54  N   UNL A   1      41.462  29.795  34.025  1.00  0.00    -0.354 N 
ATOM     55  N   UNL A   1      39.295  30.779  32.338  1.00  0.00    -0.248 NA
ATOM     56  C   UNL A   1      37.329  32.010  32.070  1.00  0.00     0.031 C 
ATOM     57  C   UNL A   1      41.564  30.481  36.136  1.00  0.00     0.029 A 
ATOM     58  C   UNL A   1      40.830  30.590  34.966  1.00  0.00     0.049 A 
ATOM     59  H   UNL A   1      41.157  29.664  33.098  1.00  0.00     0.167 HD
ATOM     60  C   UNL A   1      38.987  31.417  33.535  1.00  0.00     0.074 A 
ATOM     61  C   UNL A   1      37.788  32.192  33.300  1.00  0.00     0.031 C 
ATOM     62  C   UNL A   1      39.636  31.359  34.725  1.00  0.00     0.031 A 
BRANCH  49  63
ATOM     63  C   UNL A   1      44.610  27.694  34.658  1.00  0.00    -0.014 A 
ATOM     64  C   UNL A   1      45.874  28.306  34.684  1.00  0.00     0.009 A 
ATOM     65  C   UNL A   1      44.418  26.502  35.373  1.00  0.00     0.009 A 
ATOM     66  C   UNL A   1      46.931  27.712  35.378  1.00  0.00     0.001 A 
ATOM     67  C   UNL A   1      45.467  25.929  36.093  1.00  0.00     0.001 A 
ATOM     68  C   UNL A   1      46.725  26.528  36.086  1.00  0.00     0.000 A 
ENDBRANCH  49  63
BRANCH  50  69
ATOM     69  C   UNL A   1      37.035  31.278  29.260  1.00  0.00    -0.014 A 
ATOM     70  C   UNL A   1      35.932  30.468  28.946  1.00  0.00     0.009 A 
ATOM     71  C   UNL A   1      37.057  32.599  28.784  1.00  0.00     0.009 A 
ATOM     72  C   UNL A   1      34.892  30.960  28.152  1.00  0.00     0.001 A 
ATOM     73  C   UNL A   1      35.999  33.100  28.022  1.00  0.00     0.001 A 
ATOM     74  C   UNL A   1      34.924  32.277  27.698  1.00  0.00     0.000 A 
ENDBRANCH  50  69
BRANCH  62  75
ATOM     75  C   UNL A   1      39.090  32.187  35.859  1.00  0.00    -0.014 A 
ATOM     76  C   UNL A   1      38.189  31.652  36.793  1.00  0.00     0.009 A 
ATOM     77  C   UNL A   1      39.527  33.511  36.022  1.00  0.00     0.009 A 
ATOM     78  C   UNL A   1      37.711  32.438  37.844  1.00  0.00     0.001 A 
ATOM     79  C   UNL A   1      39.072  34.284  37.093  1.00  0.00     0.001 A 
ATOM     80  C   UNL A   1      38.157  33.750  37.997  1.00  0.00     0.000 A 
ENDBRANCH  62  75
ENDBRANCH  36  37
ENDBRANCH  29  31
ENDBRANCH  28  29
ENDBRANCH  27  28
ENDBRANCH  26  27
ENDBRANCH  25  26
ENDBRANCH  24  25
ENDBRANCH   1  24
TORSDOF 21
ENDMDL
