MODEL 1
REMARK VINA RESULT:     -10.1      0.000      0.000
REMARK SMILES O=C(OCCOCCOCCOC(=O)c1nn2cc(Br)cnc2c1Br)c1ccc(-c2c3nc(c(-c4ccccc4)c4ccc([nH]4)c(-c4ccccc4)c4nc(c(-c5ccccc5)c5ccc2[nH]5)C=C4)C=C3)cc1
REMARK SMILES IDX 7 1 6 2 5 3 4 4 3 5 2 6 1 7 26 8 27 9 73 10 28 11 72 12
REMARK SMILES IDX 29 13 30 14 31 15 66 16 32 17 71 18 65 19 67 20 33 21 70 22
REMARK SMILES IDX 64 23 63 24 34 26 56 27 41 28 55 29 42 30 45 31 54 32 68 33
REMARK SMILES IDX 43 34 44 35 53 37 69 38 46 39 35 40 36 41 40 42 37 43 39 44
REMARK SMILES IDX 38 45 57 46 58 47 62 48 59 49 61 50 60 51 47 52 48 53 52 54
REMARK SMILES IDX 49 55 51 56 50 57 8 58 9 59 10 60 11 61 12 62 13 63 14 64
REMARK SMILES IDX 15 65 16 66 24 67 17 68 23 69 25 70 18 71 22 72 19 73 21 74
REMARK SMILES IDX 20 75
REMARK H PARENT 67 25 45 36
REMARK Flexibility Score: inf
ROOT
ATOM      1  C   UNL A   1      40.736  21.425  27.447  1.00  0.00     0.188 C 
ENDROOT
BRANCH   1   2
ATOM      2  O   UNL A   1      40.840  20.027  27.615  1.00  0.00    -0.376 OA
BRANCH   2   3
ATOM      3  C   UNL A   1      42.087  19.376  27.448  1.00  0.00     0.202 C 
BRANCH   3   4
ATOM      4  C   UNL A   1      42.433  18.625  26.148  1.00  0.00     0.261 C 
BRANCH   4   5
ATOM      5  O   UNL A   1      42.942  19.394  25.049  1.00  0.00    -0.460 OA
BRANCH   5   6
ATOM      6  C   UNL A   1      44.213  19.823  24.897  1.00  0.00     0.338 C 
ATOM      7  O   UNL A   1      45.154  19.035  24.895  1.00  0.00    -0.246 OA
BRANCH   6   8
ATOM      8  C   UNL A   1      44.510  21.270  25.041  1.00  0.00     0.060 A 
ATOM      9  C   UNL A   1      45.689  21.768  25.593  1.00  0.00     0.016 A 
ATOM     10  C   UNL A   1      43.471  22.155  24.692  1.00  0.00     0.016 A 
ATOM     11  C   UNL A   1      45.793  23.118  25.899  1.00  0.00     0.010 A 
ATOM     12  C   UNL A   1      43.566  23.505  25.008  1.00  0.00     0.010 A 
ATOM     13  C   UNL A   1      44.690  23.952  25.706  1.00  0.00    -0.014 A 
BRANCH  13  14
ATOM     14  C   UNL A   1      44.637  25.141  26.556  1.00  0.00     0.031 A 
ATOM     15  C   UNL A   1      45.735  26.140  26.514  1.00  0.00     0.074 A 
ATOM     16  C   UNL A   1      43.584  25.306  27.383  1.00  0.00     0.049 A 
ATOM     17  N   UNL A   1      46.430  26.603  27.506  1.00  0.00    -0.248 NA
ATOM     18  C   UNL A   1      46.097  26.703  25.207  1.00  0.00     0.031 C 
ATOM     19  C   UNL A   1      42.323  24.550  27.378  1.00  0.00     0.029 A 
ATOM     20  N   UNL A   1      43.366  26.270  28.322  1.00  0.00    -0.354 N 
ATOM     21  C   UNL A   1      47.223  27.618  26.981  1.00  0.00     0.074 A 
ATOM     22  C   UNL A   1      47.025  27.598  25.551  1.00  0.00     0.031 C 
ATOM     23  C   UNL A   1      41.394  25.242  28.068  1.00  0.00     0.029 A 
ATOM     24  C   UNL A   1      42.032  26.400  28.667  1.00  0.00     0.049 A 
ATOM     25  H   UNL A   1      44.084  26.817  28.715  1.00  0.00     0.167 HD
ATOM     26  C   UNL A   1      47.884  28.528  27.747  1.00  0.00     0.031 A 
ATOM     27  C   UNL A   1      41.453  27.441  29.306  1.00  0.00     0.031 A 
ATOM     28  C   UNL A   1      48.042  28.131  29.114  1.00  0.00     0.049 A 
ATOM     29  C   UNL A   1      42.502  28.193  30.024  1.00  0.00     0.074 A 
ATOM     30  C   UNL A   1      48.701  27.110  29.767  1.00  0.00     0.029 A 
ATOM     31  N   UNL A   1      47.238  28.718  30.057  1.00  0.00    -0.354 N 
ATOM     32  N   UNL A   1      43.139  27.739  31.064  1.00  0.00    -0.248 NA
ATOM     33  C   UNL A   1      43.114  29.339  29.369  1.00  0.00     0.031 C 
ATOM     34  C   UNL A   1      47.926  26.848  30.935  1.00  0.00     0.029 A 
ATOM     35  C   UNL A   1      46.840  27.724  30.915  1.00  0.00     0.049 A 
ATOM     36  H   UNL A   1      46.993  29.670  30.109  1.00  0.00     0.167 HD
ATOM     37  C   UNL A   1      44.418  28.266  30.956  1.00  0.00     0.074 A 
ATOM     38  C   UNL A   1      44.301  29.343  29.982  1.00  0.00     0.031 C 
ATOM     39  C   UNL A   1      45.502  27.599  31.452  1.00  0.00     0.031 A 
BRANCH  26  40
ATOM     40  C   UNL A   1      48.161  29.930  27.286  1.00  0.00    -0.014 A 
ATOM     41  C   UNL A   1      49.474  30.424  27.265  1.00  0.00     0.009 A 
ATOM     42  C   UNL A   1      47.119  30.860  27.095  1.00  0.00     0.009 A 
ATOM     43  C   UNL A   1      49.731  31.786  27.056  1.00  0.00     0.001 A 
ATOM     44  C   UNL A   1      47.373  32.211  26.851  1.00  0.00     0.001 A 
ATOM     45  C   UNL A   1      48.682  32.677  26.844  1.00  0.00     0.000 A 
ENDBRANCH  26  40
BRANCH  27  46
ATOM     46  C   UNL A   1      40.102  27.973  29.040  1.00  0.00    -0.014 A 
ATOM     47  C   UNL A   1      39.120  27.987  30.037  1.00  0.00     0.009 A 
ATOM     48  C   UNL A   1      39.841  28.677  27.847  1.00  0.00     0.009 A 
ATOM     49  C   UNL A   1      37.924  28.693  29.848  1.00  0.00     0.001 A 
ATOM     50  C   UNL A   1      38.645  29.372  27.655  1.00  0.00     0.001 A 
ATOM     51  C   UNL A   1      37.690  29.388  28.663  1.00  0.00     0.000 A 
ENDBRANCH  27  46
BRANCH  39  52
ATOM     52  C   UNL A   1      45.248  26.413  32.351  1.00  0.00    -0.014 A 
ATOM     53  C   UNL A   1      45.117  26.548  33.744  1.00  0.00     0.009 A 
ATOM     54  C   UNL A   1      44.978  25.162  31.775  1.00  0.00     0.009 A 
ATOM     55  C   UNL A   1      44.763  25.457  34.543  1.00  0.00     0.001 A 
ATOM     56  C   UNL A   1      44.602  24.076  32.572  1.00  0.00     0.001 A 
ATOM     57  C   UNL A   1      44.501  24.222  33.955  1.00  0.00     0.000 A 
ENDBRANCH  39  52
ENDBRANCH  13  14
ENDBRANCH   6   8
ENDBRANCH   5   6
ENDBRANCH   4   5
ENDBRANCH   3   4
ENDBRANCH   2   3
ENDBRANCH   1   2
BRANCH   1  58
ATOM     58  C   UNL A   1      39.963  21.831  26.179  1.00  0.00     0.188 C 
BRANCH  58  59
ATOM     59  O   UNL A   1      38.558  22.045  26.288  1.00  0.00    -0.376 OA
BRANCH  59  60
ATOM     60  C   UNL A   1      37.993  23.161  25.599  1.00  0.00     0.202 C 
BRANCH  60  61
ATOM     61  C   UNL A   1      36.630  23.689  26.072  1.00  0.00     0.261 C 
BRANCH  61  62
ATOM     62  O   UNL A   1      35.721  24.002  24.999  1.00  0.00    -0.458 OA
BRANCH  62  63
ATOM     63  C   UNL A   1      35.645  23.079  23.994  1.00  0.00     0.360 C 
ATOM     64  O   UNL A   1      36.115  23.224  22.874  1.00  0.00    -0.244 OA
BRANCH  63  65
ATOM     65  C   UNL A   1      34.937  21.860  24.388  1.00  0.00     0.187 A 
ATOM     66  N   UNL A   1      35.566  20.679  24.562  1.00  0.00    -0.158 NA
ATOM     67  C   UNL A   1      33.545  21.710  24.515  1.00  0.00     0.097 A 
ATOM     68  N   UNL A   1      34.566  19.771  24.708  1.00  0.00    -0.219 N 
ATOM     69  C   UNL A   1      33.304  20.373  24.705  1.00  0.00     0.170 A 
ATOM     70  Br  UNL A   1      32.282  23.084  24.378  1.00  0.00    -0.044 Br
ATOM     71  C   UNL A   1      34.692  18.389  24.828  1.00  0.00     0.132 A 
ATOM     72  N   UNL A   1      32.150  19.644  24.829  1.00  0.00    -0.235 NA
ATOM     73  C   UNL A   1      33.600  17.619  24.930  1.00  0.00     0.054 A 
ATOM     74  C   UNL A   1      32.299  18.355  24.921  1.00  0.00     0.131 A 
ATOM     75  Br  UNL A   1      33.605  15.776  25.074  1.00  0.00    -0.047 Br
ENDBRANCH  63  65
ENDBRANCH  62  63
ENDBRANCH  61  62
ENDBRANCH  60  61
ENDBRANCH  59  60
ENDBRANCH  58  59
ENDBRANCH   1  58
TORSDOF 17
ENDMDL
MODEL 2
REMARK VINA RESULT:      -9.8      1.826      2.864
REMARK SMILES O=C(OCCOCCOCCOC(=O)c1nn2cc(Br)cnc2c1Br)c1ccc(-c2c3nc(c(-c4ccccc4)c4ccc([nH]4)c(-c4ccccc4)c4nc(c(-c5ccccc5)c5ccc2[nH]5)C=C4)C=C3)cc1
REMARK SMILES IDX 7 1 6 2 5 3 4 4 3 5 2 6 1 7 26 8 27 9 73 10 28 11 72 12
REMARK SMILES IDX 29 13 30 14 31 15 66 16 32 17 71 18 65 19 67 20 33 21 70 22
REMARK SMILES IDX 64 23 63 24 34 26 56 27 41 28 55 29 42 30 45 31 54 32 68 33
REMARK SMILES IDX 43 34 44 35 53 37 69 38 46 39 35 40 36 41 40 42 37 43 39 44
REMARK SMILES IDX 38 45 57 46 58 47 62 48 59 49 61 50 60 51 47 52 48 53 52 54
REMARK SMILES IDX 49 55 51 56 50 57 8 58 9 59 10 60 11 61 12 62 13 63 14 64
REMARK SMILES IDX 15 65 16 66 24 67 17 68 23 69 25 70 18 71 22 72 19 73 21 74
REMARK SMILES IDX 20 75
REMARK H PARENT 67 25 45 36
REMARK Flexibility Score: inf
ROOT
ATOM      1  C   UNL A   1      40.506  21.767  27.254  1.00  0.00     0.188 C 
ENDROOT
BRANCH   1   2
ATOM      2  O   UNL A   1      40.605  20.358  27.229  1.00  0.00    -0.376 OA
BRANCH   2   3
ATOM      3  C   UNL A   1      41.858  19.725  27.418  1.00  0.00     0.202 C 
BRANCH   3   4
ATOM      4  C   UNL A   1      42.456  18.792  26.348  1.00  0.00     0.261 C 
BRANCH   4   5
ATOM      5  O   UNL A   1      42.814  19.368  25.084  1.00  0.00    -0.460 OA
BRANCH   5   6
ATOM      6  C   UNL A   1      44.050  19.767  24.711  1.00  0.00     0.338 C 
ATOM      7  O   UNL A   1      44.914  18.953  24.402  1.00  0.00    -0.246 OA
BRANCH   6   8
ATOM      8  C   UNL A   1      44.465  21.168  24.970  1.00  0.00     0.060 A 
ATOM      9  C   UNL A   1      45.664  21.519  25.590  1.00  0.00     0.016 A 
ATOM     10  C   UNL A   1      43.519  22.164  24.661  1.00  0.00     0.016 A 
ATOM     11  C   UNL A   1      45.874  22.829  25.998  1.00  0.00     0.010 A 
ATOM     12  C   UNL A   1      43.719  23.474  25.078  1.00  0.00     0.010 A 
ATOM     13  C   UNL A   1      44.854  23.769  25.838  1.00  0.00    -0.014 A 
BRANCH  13  14
ATOM     14  C   UNL A   1      44.875  24.894  26.772  1.00  0.00     0.031 A 
ATOM     15  C   UNL A   1      46.086  25.745  26.890  1.00  0.00     0.074 A 
ATOM     16  C   UNL A   1      43.784  25.135  27.529  1.00  0.00     0.049 A 
ATOM     17  N   UNL A   1      46.747  26.046  27.965  1.00  0.00    -0.248 NA
ATOM     18  C   UNL A   1      46.623  26.345  25.662  1.00  0.00     0.031 C 
ATOM     19  C   UNL A   1      42.445  24.549  27.371  1.00  0.00     0.029 A 
ATOM     20  N   UNL A   1      43.608  26.053  28.522  1.00  0.00    -0.354 N 
ATOM     21  C   UNL A   1      47.699  26.985  27.581  1.00  0.00     0.074 A 
ATOM     22  C   UNL A   1      47.620  27.088  26.143  1.00  0.00     0.031 C 
ATOM     23  C   UNL A   1      41.553  25.304  28.042  1.00  0.00     0.029 A 
ATOM     24  C   UNL A   1      42.275  26.328  28.775  1.00  0.00     0.049 A 
ATOM     25  H   UNL A   1      44.352  26.475  29.008  1.00  0.00     0.167 HD
ATOM     26  C   UNL A   1      48.399  27.749  28.463  1.00  0.00     0.031 A 
ATOM     27  C   UNL A   1      41.776  27.388  29.448  1.00  0.00     0.031 A 
ATOM     28  C   UNL A   1      48.393  27.242  29.803  1.00  0.00     0.049 A 
ATOM     29  C   UNL A   1      42.845  27.949  30.299  1.00  0.00     0.074 A 
ATOM     30  C   UNL A   1      48.865  26.104  30.421  1.00  0.00     0.029 A 
ATOM     31  N   UNL A   1      47.590  27.861  30.727  1.00  0.00    -0.354 N 
ATOM     32  N   UNL A   1      43.333  27.348  31.345  1.00  0.00    -0.248 NA
ATOM     33  C   UNL A   1      43.645  29.049  29.784  1.00  0.00     0.031 C 
ATOM     34  C   UNL A   1      47.970  25.863  31.504  1.00  0.00     0.029 A 
ATOM     35  C   UNL A   1      47.003  26.870  31.472  1.00  0.00     0.049 A 
ATOM     36  H   UNL A   1      47.460  28.831  30.835  1.00  0.00     0.167 HD
ATOM     37  C   UNL A   1      44.671  27.713  31.375  1.00  0.00     0.074 A 
ATOM     38  C   UNL A   1      44.768  28.860  30.482  1.00  0.00     0.031 C 
ATOM     39  C   UNL A   1      45.620  26.880  31.896  1.00  0.00     0.031 A 
BRANCH  26  40
ATOM     40  C   UNL A   1      48.883  29.132  28.135  1.00  0.00    -0.014 A 
ATOM     41  C   UNL A   1      47.970  30.142  27.796  1.00  0.00     0.009 A 
ATOM     42  C   UNL A   1      50.250  29.401  27.921  1.00  0.00     0.009 A 
ATOM     43  C   UNL A   1      48.406  31.366  27.273  1.00  0.00     0.001 A 
ATOM     44  C   UNL A   1      50.691  30.633  27.434  1.00  0.00     0.001 A 
ATOM     45  C   UNL A   1      49.766  31.613  27.098  1.00  0.00     0.000 A 
ENDBRANCH  26  40
BRANCH  27  46
ATOM     46  C   UNL A   1      40.527  28.105  29.125  1.00  0.00    -0.014 A 
ATOM     47  C   UNL A   1      40.363  28.759  27.899  1.00  0.00     0.009 A 
ATOM     48  C   UNL A   1      39.394  27.960  29.952  1.00  0.00     0.009 A 
ATOM     49  C   UNL A   1      39.105  29.240  27.511  1.00  0.00     0.001 A 
ATOM     50  C   UNL A   1      38.144  28.448  29.570  1.00  0.00     0.001 A 
ATOM     51  C   UNL A   1      37.997  29.079  28.342  1.00  0.00     0.000 A 
ENDBRANCH  27  46
BRANCH  39  52
ATOM     52  C   UNL A   1      45.149  25.678  32.678  1.00  0.00    -0.014 A 
ATOM     53  C   UNL A   1      44.708  24.502  32.046  1.00  0.00     0.009 A 
ATOM     54  C   UNL A   1      45.300  25.667  34.073  1.00  0.00     0.009 A 
ATOM     55  C   UNL A   1      44.392  23.361  32.788  1.00  0.00     0.001 A 
ATOM     56  C   UNL A   1      45.003  24.519  34.814  1.00  0.00     0.001 A 
ATOM     57  C   UNL A   1      44.544  23.369  34.173  1.00  0.00     0.000 A 
ENDBRANCH  39  52
ENDBRANCH  13  14
ENDBRANCH   6   8
ENDBRANCH   5   6
ENDBRANCH   4   5
ENDBRANCH   3   4
ENDBRANCH   2   3
ENDBRANCH   1   2
BRANCH   1  58
ATOM     58  C   UNL A   1      39.275  22.304  26.501  1.00  0.00     0.188 C 
BRANCH  58  59
ATOM     59  O   UNL A   1      38.565  21.410  25.648  1.00  0.00    -0.376 OA
BRANCH  59  60
ATOM     60  C   UNL A   1      37.348  21.869  25.057  1.00  0.00     0.202 C 
BRANCH  60  61
ATOM     61  C   UNL A   1      36.150  20.909  25.030  1.00  0.00     0.261 C 
BRANCH  61  62
ATOM     62  O   UNL A   1      35.012  21.415  24.308  1.00  0.00    -0.458 OA
BRANCH  62  63
ATOM     63  C   UNL A   1      33.793  20.952  24.716  1.00  0.00     0.360 C 
ATOM     64  O   UNL A   1      33.519  19.774  24.902  1.00  0.00    -0.244 OA
BRANCH  63  65
ATOM     65  C   UNL A   1      32.814  22.019  24.923  1.00  0.00     0.187 A 
ATOM     66  N   UNL A   1      32.090  22.546  23.912  1.00  0.00    -0.158 NA
ATOM     67  C   UNL A   1      32.580  22.715  26.121  1.00  0.00     0.097 A 
ATOM     68  N   UNL A   1      31.471  23.626  24.455  1.00  0.00    -0.219 N 
ATOM     69  C   UNL A   1      31.733  23.752  25.823  1.00  0.00     0.170 A 
ATOM     70  Br  UNL A   1      33.346  22.316  27.782  1.00  0.00    -0.044 Br
ATOM     71  C   UNL A   1      30.676  24.562  23.798  1.00  0.00     0.132 A 
ATOM     72  N   UNL A   1      31.218  24.778  26.571  1.00  0.00    -0.235 NA
ATOM     73  C   UNL A   1      30.161  25.601  24.470  1.00  0.00     0.054 A 
ATOM     74  C   UNL A   1      30.494  25.644  25.926  1.00  0.00     0.131 A 
ATOM     75  Br  UNL A   1      29.108  26.930  23.734  1.00  0.00    -0.047 Br
ENDBRANCH  63  65
ENDBRANCH  62  63
ENDBRANCH  61  62
ENDBRANCH  60  61
ENDBRANCH  59  60
ENDBRANCH  58  59
ENDBRANCH   1  58
TORSDOF 17
ENDMDL
MODEL 3
REMARK VINA RESULT:      -9.7      3.794      8.120
REMARK SMILES O=C(OCCOCCOCCOC(=O)c1nn2cc(Br)cnc2c1Br)c1ccc(-c2c3nc(c(-c4ccccc4)c4ccc([nH]4)c(-c4ccccc4)c4nc(c(-c5ccccc5)c5ccc2[nH]5)C=C4)C=C3)cc1
REMARK SMILES IDX 7 1 6 2 5 3 4 4 3 5 2 6 1 7 26 8 27 9 73 10 28 11 72 12
REMARK SMILES IDX 29 13 30 14 31 15 66 16 32 17 71 18 65 19 67 20 33 21 70 22
REMARK SMILES IDX 64 23 63 24 34 26 56 27 41 28 55 29 42 30 45 31 54 32 68 33
REMARK SMILES IDX 43 34 44 35 53 37 69 38 46 39 35 40 36 41 40 42 37 43 39 44
REMARK SMILES IDX 38 45 57 46 58 47 62 48 59 49 61 50 60 51 47 52 48 53 52 54
REMARK SMILES IDX 49 55 51 56 50 57 8 58 9 59 10 60 11 61 12 62 13 63 14 64
REMARK SMILES IDX 15 65 16 66 24 67 17 68 23 69 25 70 18 71 22 72 19 73 21 74
REMARK SMILES IDX 20 75
REMARK H PARENT 67 25 45 36
REMARK Flexibility Score: inf
ROOT
ATOM      1  C   UNL A   1      33.960  28.216  24.827  1.00  0.00     0.188 C 
ENDROOT
BRANCH   1   2
ATOM      2  O   UNL A   1      34.055  28.757  26.129  1.00  0.00    -0.376 OA
BRANCH   2   3
ATOM      3  C   UNL A   1      33.288  29.892  26.490  1.00  0.00     0.202 C 
BRANCH   3   4
ATOM      4  C   UNL A   1      33.752  30.854  27.600  1.00  0.00     0.261 C 
BRANCH   4   5
ATOM      5  O   UNL A   1      35.136  31.230  27.622  1.00  0.00    -0.460 OA
BRANCH   5   6
ATOM      6  C   UNL A   1      35.976  31.115  28.674  1.00  0.00     0.338 C 
ATOM      7  O   UNL A   1      35.851  31.823  29.668  1.00  0.00    -0.246 OA
BRANCH   6   8
ATOM      8  C   UNL A   1      37.238  30.352  28.509  1.00  0.00     0.060 A 
ATOM      9  C   UNL A   1      37.295  29.038  28.044  1.00  0.00     0.016 A 
ATOM     10  C   UNL A   1      38.411  30.984  28.966  1.00  0.00     0.016 A 
ATOM     11  C   UNL A   1      38.481  28.324  28.134  1.00  0.00     0.010 A 
ATOM     12  C   UNL A   1      39.598  30.268  29.069  1.00  0.00     0.010 A 
ATOM     13  C   UNL A   1      39.590  28.909  28.747  1.00  0.00    -0.014 A 
BRANCH  13  14
ATOM     14  C   UNL A   1      40.553  27.980  29.338  1.00  0.00     0.031 A 
ATOM     15  C   UNL A   1      40.808  27.997  30.800  1.00  0.00     0.074 A 
ATOM     16  C   UNL A   1      41.212  27.123  28.530  1.00  0.00     0.049 A 
ATOM     17  N   UNL A   1      41.948  28.106  31.409  1.00  0.00    -0.248 NA
ATOM     18  C   UNL A   1      39.654  27.863  31.697  1.00  0.00     0.031 C 
ATOM     19  C   UNL A   1      40.914  26.818  27.123  1.00  0.00     0.029 A 
ATOM     20  N   UNL A   1      42.211  26.245  28.835  1.00  0.00    -0.354 N 
ATOM     21  C   UNL A   1      41.682  27.915  32.761  1.00  0.00     0.074 A 
ATOM     22  C   UNL A   1      40.246  27.830  32.891  1.00  0.00     0.031 C 
ATOM     23  C   UNL A   1      41.520  25.663  26.786  1.00  0.00     0.029 A 
ATOM     24  C   UNL A   1      42.347  25.233  27.900  1.00  0.00     0.049 A 
ATOM     25  H   UNL A   1      42.777  26.324  29.636  1.00  0.00     0.167 HD
ATOM     26  C   UNL A   1      42.647  27.679  33.692  1.00  0.00     0.031 A 
ATOM     27  C   UNL A   1      43.001  24.062  28.057  1.00  0.00     0.031 A 
ATOM     28  C   UNL A   1      43.965  28.044  33.266  1.00  0.00     0.049 A 
ATOM     29  C   UNL A   1      43.964  24.207  29.168  1.00  0.00     0.074 A 
ATOM     30  C   UNL A   1      44.592  29.223  32.923  1.00  0.00     0.029 A 
ATOM     31  N   UNL A   1      44.828  27.043  32.898  1.00  0.00    -0.354 N 
ATOM     32  N   UNL A   1      45.032  24.947  29.112  1.00  0.00    -0.248 NA
ATOM     33  C   UNL A   1      43.557  23.801  30.504  1.00  0.00     0.031 C 
ATOM     34  C   UNL A   1      45.579  28.860  31.961  1.00  0.00     0.029 A 
ATOM     35  C   UNL A   1      45.486  27.479  31.776  1.00  0.00     0.049 A 
ATOM     36  H   UNL A   1      44.951  26.178  33.351  1.00  0.00     0.167 HD
ATOM     37  C   UNL A   1      45.197  25.434  30.401  1.00  0.00     0.074 A 
ATOM     38  C   UNL A   1      44.350  24.589  31.233  1.00  0.00     0.031 C 
ATOM     39  C   UNL A   1      45.780  26.648  30.629  1.00  0.00     0.031 A 
BRANCH  26  40
ATOM     40  C   UNL A   1      42.405  26.852  34.922  1.00  0.00    -0.014 A 
ATOM     41  C   UNL A   1      42.410  25.451  34.847  1.00  0.00     0.009 A 
ATOM     42  C   UNL A   1      41.935  27.433  36.116  1.00  0.00     0.009 A 
ATOM     43  C   UNL A   1      41.968  24.669  35.923  1.00  0.00     0.001 A 
ATOM     44  C   UNL A   1      41.529  26.656  37.203  1.00  0.00     0.001 A 
ATOM     45  C   UNL A   1      41.534  25.271  37.101  1.00  0.00     0.000 A 
ENDBRANCH  26  40
BRANCH  27  46
ATOM     46  C   UNL A   1      42.584  22.759  27.501  1.00  0.00    -0.014 A 
ATOM     47  C   UNL A   1      41.425  22.117  27.950  1.00  0.00     0.009 A 
ATOM     48  C   UNL A   1      43.222  22.243  26.355  1.00  0.00     0.009 A 
ATOM     49  C   UNL A   1      40.917  21.004  27.266  1.00  0.00     0.001 A 
ATOM     50  C   UNL A   1      42.723  21.128  25.680  1.00  0.00     0.001 A 
ATOM     51  C   UNL A   1      41.561  20.515  26.131  1.00  0.00     0.000 A 
ENDBRANCH  27  46
BRANCH  39  52
ATOM     52  C   UNL A   1      46.480  27.321  29.474  1.00  0.00    -0.014 A 
ATOM     53  C   UNL A   1      47.852  27.139  29.223  1.00  0.00     0.009 A 
ATOM     54  C   UNL A   1      45.719  28.024  28.527  1.00  0.00     0.009 A 
ATOM     55  C   UNL A   1      48.452  27.674  28.080  1.00  0.00     0.001 A 
ATOM     56  C   UNL A   1      46.315  28.541  27.373  1.00  0.00     0.001 A 
ATOM     57  C   UNL A   1      47.682  28.371  27.153  1.00  0.00     0.000 A 
ENDBRANCH  39  52
ENDBRANCH  13  14
ENDBRANCH   6   8
ENDBRANCH   5   6
ENDBRANCH   4   5
ENDBRANCH   3   4
ENDBRANCH   2   3
ENDBRANCH   1   2
BRANCH   1  58
ATOM     58  C   UNL A   1      33.352  26.802  24.799  1.00  0.00     0.188 C 
BRANCH  58  59
ATOM     59  O   UNL A   1      31.984  26.665  24.425  1.00  0.00    -0.376 OA
BRANCH  59  60
ATOM     60  C   UNL A   1      30.990  26.842  25.435  1.00  0.00     0.202 C 
BRANCH  60  61
ATOM     61  C   UNL A   1      30.076  25.652  25.768  1.00  0.00     0.261 C 
BRANCH  61  62
ATOM     62  O   UNL A   1      30.599  24.783  26.790  1.00  0.00    -0.458 OA
BRANCH  62  63
ATOM     63  C   UNL A   1      30.851  23.496  26.406  1.00  0.00     0.360 C 
ATOM     64  O   UNL A   1      30.025  22.595  26.395  1.00  0.00    -0.244 OA
BRANCH  63  65
ATOM     65  C   UNL A   1      32.239  23.284  25.992  1.00  0.00     0.187 A 
ATOM     66  N   UNL A   1      33.270  23.318  26.862  1.00  0.00    -0.158 NA
ATOM     67  C   UNL A   1      32.702  23.147  24.672  1.00  0.00     0.097 A 
ATOM     68  N   UNL A   1      34.382  23.293  26.084  1.00  0.00    -0.219 N 
ATOM     69  C   UNL A   1      34.073  23.167  24.726  1.00  0.00     0.170 A 
ATOM     70  Br  UNL A   1      31.627  23.029  23.144  1.00  0.00    -0.044 Br
ATOM     71  C   UNL A   1      35.707  23.400  26.501  1.00  0.00     0.132 A 
ATOM     72  N   UNL A   1      35.043  23.132  23.759  1.00  0.00    -0.235 NA
ATOM     73  C   UNL A   1      36.700  23.394  25.602  1.00  0.00     0.054 A 
ATOM     74  C   UNL A   1      36.268  23.251  24.178  1.00  0.00     0.131 A 
ATOM     75  Br  UNL A   1      38.499  23.547  25.999  1.00  0.00    -0.047 Br
ENDBRANCH  63  65
ENDBRANCH  62  63
ENDBRANCH  61  62
ENDBRANCH  60  61
ENDBRANCH  59  60
ENDBRANCH  58  59
ENDBRANCH   1  58
TORSDOF 17
ENDMDL
