MODEL 1
REMARK VINA RESULT:      -7.7      0.000      0.000
REMARK SMILES CC[N@@H+](C)Cc1cc2c(cc1Cl)C=C(C(=O)OCCOCCOCCOC(=O)c1ccc(-c3c4nc(c(-c5ccccc5)c5ccc([nH]5)c(-c5ccccc5)c5nc(c(-c6ccccc6)c6ccc3[nH]6)C=C5)C=C4)cc1)[C@@H](C(F)(F)F)O2
REMARK SMILES IDX 21 1 20 2 19 3 18 4 17 5 15 6 16 7 14 8 6 9 7 10 11 11 8 12
REMARK SMILES IDX 10 13 12 14 9 15 82 16 13 17 77 18 5 19 3 20 4 21 2 23 1 24
REMARK SMILES IDX 78 25 79 26 80 27 81 28 22 29 23 30 24 31 25 32 26 33 27 34
REMARK SMILES IDX 28 35 29 36 30 37 76 38 31 39 75 40 32 41 33 42 34 43 69 44
REMARK SMILES IDX 35 45 74 46 68 47 70 48 36 49 73 50 67 51 66 52 37 54 59 55
REMARK SMILES IDX 44 56 58 57 45 58 48 59 57 60 71 61 46 62 47 63 56 65 72 66
REMARK SMILES IDX 49 67 38 68 39 69 43 70 40 71 42 72 41 73 60 74 61 75 65 76
REMARK SMILES IDX 62 77 64 78 63 79 50 80 51 81 55 82 52 83 54 84 53 85
REMARK H PARENT 3 22 70 53 48 64
REMARK Flexibility Score: inf
ROOT
ATOM      1  C   UNL A   1      33.228  35.932  30.729  1.00  0.00     0.188 C 
ENDROOT
BRANCH   1   2
ATOM      2  O   UNL A   1      33.095  34.652  30.145  1.00  0.00    -0.376 OA
BRANCH   2   3
ATOM      3  C   UNL A   1      33.331  34.446  28.763  1.00  0.00     0.202 C 
BRANCH   3   4
ATOM      4  C   UNL A   1      34.734  34.528  28.159  1.00  0.00     0.261 C 
BRANCH   4   5
ATOM      5  O   UNL A   1      35.218  33.295  27.619  1.00  0.00    -0.460 OA
BRANCH   5   6
ATOM      6  C   UNL A   1      35.157  32.238  28.464  1.00  0.00     0.338 C 
ATOM      7  O   UNL A   1      34.150  31.732  28.934  1.00  0.00    -0.246 OA
BRANCH   6   8
ATOM      8  C   UNL A   1      36.504  31.671  28.636  1.00  0.00     0.087 C 
ATOM      9  C   UNL A   1      40.457  28.570  28.986  1.00  0.00     0.029 A 
ATOM     10  C   UNL A   1      40.180  29.893  29.379  1.00  0.00     0.058 A 
ATOM     11  C   UNL A   1      39.451  27.879  28.288  1.00  0.00     0.050 A 
ATOM     12  C   UNL A   1      38.970  30.514  29.070  1.00  0.00     0.128 A 
ATOM     13  C   UNL A   1      38.225  28.494  27.998  1.00  0.00     0.033 A 
ATOM     14  Cl  UNL A   1      39.615  26.233  27.789  1.00  0.00    -0.084 Cl
ATOM     15  C   UNL A   1      37.977  29.806  28.403  1.00  0.00     0.019 A 
ATOM     16  O   UNL A   1      38.846  31.808  29.480  1.00  0.00    -0.475 OA
ATOM     17  C   UNL A   1      36.676  30.416  28.202  1.00  0.00     0.027 C 
ATOM     18  C   UNL A   1      37.590  32.505  29.263  1.00  0.00     0.316 C 
BRANCH   9  19
ATOM     19  C   UNL A   1      41.778  27.939  29.393  1.00  0.00     0.300 C 
BRANCH  19  20
ATOM     20  N   UNL A   1      42.915  28.058  28.463  1.00  0.00    -0.334 N 
ATOM     21  C   UNL A   1      42.679  28.950  27.334  1.00  0.00     0.333 C 
ATOM     22  H   UNL A   1      43.622  28.506  29.046  1.00  0.00     0.348 HD
BRANCH  20  23
ATOM     23  C   UNL A   1      43.505  26.788  28.032  1.00  0.00     0.258 C 
ATOM     24  C   UNL A   1      43.326  25.681  29.061  1.00  0.00     0.071 C 
ENDBRANCH  20  23
ENDBRANCH  19  20
ENDBRANCH   9  19
BRANCH  18  25
ATOM     25  C   UNL A   1      37.166  33.126  30.601  1.00  0.00     0.430 C 
ATOM     26  F   UNL A   1      36.536  34.311  30.413  1.00  0.00    -0.167 F 
ATOM     27  F   UNL A   1      36.302  32.333  31.279  1.00  0.00    -0.167 F 
ATOM     28  F   UNL A   1      38.226  33.353  31.410  1.00  0.00    -0.167 F 
ENDBRANCH  18  25
ENDBRANCH   6   8
ENDBRANCH   5   6
ENDBRANCH   4   5
ENDBRANCH   3   4
ENDBRANCH   2   3
ENDBRANCH   1   2
BRANCH   1  29
ATOM     29  C   UNL A   1      33.985  36.141  32.058  1.00  0.00     0.188 C 
BRANCH  29  30
ATOM     30  O   UNL A   1      33.859  35.229  33.129  1.00  0.00    -0.376 OA
BRANCH  30  31
ATOM     31  C   UNL A   1      34.743  34.125  33.243  1.00  0.00     0.202 C 
BRANCH  31  32
ATOM     32  C   UNL A   1      35.784  34.018  34.363  1.00  0.00     0.261 C 
BRANCH  32  33
ATOM     33  O   UNL A   1      36.278  32.696  34.602  1.00  0.00    -0.460 OA
BRANCH  33  34
ATOM     34  C   UNL A   1      37.377  32.629  35.395  1.00  0.00     0.338 C 
ATOM     35  O   UNL A   1      37.422  32.710  36.610  1.00  0.00    -0.246 OA
BRANCH  34  36
ATOM     36  C   UNL A   1      38.534  32.223  34.574  1.00  0.00     0.060 A 
ATOM     37  C   UNL A   1      39.773  32.850  34.714  1.00  0.00     0.016 A 
ATOM     38  C   UNL A   1      38.359  31.181  33.653  1.00  0.00     0.016 A 
ATOM     39  C   UNL A   1      40.855  32.398  33.954  1.00  0.00     0.010 A 
ATOM     40  C   UNL A   1      39.436  30.741  32.885  1.00  0.00     0.010 A 
ATOM     41  C   UNL A   1      40.699  31.327  33.053  1.00  0.00    -0.014 A 
BRANCH  41  42
ATOM     42  C   UNL A   1      41.897  30.681  32.468  1.00  0.00     0.031 A 
ATOM     43  C   UNL A   1      42.488  29.424  33.023  1.00  0.00     0.074 A 
ATOM     44  C   UNL A   1      42.464  31.280  31.403  1.00  0.00     0.049 A 
ATOM     45  N   UNL A   1      43.460  28.696  32.532  1.00  0.00    -0.248 NA
ATOM     46  C   UNL A   1      41.932  28.919  34.286  1.00  0.00     0.031 C 
ATOM     47  C   UNL A   1      41.998  32.534  30.805  1.00  0.00     0.029 A 
ATOM     48  N   UNL A   1      43.536  30.917  30.631  1.00  0.00    -0.354 N 
ATOM     49  C   UNL A   1      43.620  27.632  33.408  1.00  0.00     0.074 A 
ATOM     50  C   UNL A   1      42.675  27.835  34.488  1.00  0.00     0.031 C 
ATOM     51  C   UNL A   1      42.760  32.817  29.739  1.00  0.00     0.029 A 
ATOM     52  C   UNL A   1      43.778  31.781  29.591  1.00  0.00     0.049 A 
ATOM     53  H   UNL A   1      44.081  30.114  30.805  1.00  0.00     0.167 HD
ATOM     54  C   UNL A   1      44.465  26.579  33.302  1.00  0.00     0.031 A 
ATOM     55  C   UNL A   1      44.702  31.742  28.613  1.00  0.00     0.031 A 
ATOM     56  C   UNL A   1      45.419  26.401  32.234  1.00  0.00     0.049 A 
ATOM     57  C   UNL A   1      45.646  30.578  28.540  1.00  0.00     0.074 A 
ATOM     58  C   UNL A   1      46.269  25.330  32.015  1.00  0.00     0.029 A 
ATOM     59  N   UNL A   1      45.665  27.317  31.223  1.00  0.00    -0.354 N 
ATOM     60  N   UNL A   1      45.711  29.523  29.314  1.00  0.00    -0.248 NA
ATOM     61  C   UNL A   1      46.631  30.590  27.450  1.00  0.00     0.031 C 
ATOM     62  C   UNL A   1      47.080  25.630  30.918  1.00  0.00     0.029 A 
ATOM     63  C   UNL A   1      46.684  26.854  30.405  1.00  0.00     0.049 A 
ATOM     64  H   UNL A   1      45.188  28.169  31.104  1.00  0.00     0.167 HD
ATOM     65  C   UNL A   1      46.733  28.737  28.797  1.00  0.00     0.074 A 
ATOM     66  C   UNL A   1      47.241  29.426  27.628  1.00  0.00     0.031 C 
ATOM     67  C   UNL A   1      47.205  27.552  29.255  1.00  0.00     0.031 A 
BRANCH  54  68
ATOM     68  C   UNL A   1      44.404  25.506  34.356  1.00  0.00    -0.014 A 
ATOM     69  C   UNL A   1      45.272  25.554  35.460  1.00  0.00     0.009 A 
ATOM     70  C   UNL A   1      43.592  24.374  34.183  1.00  0.00     0.009 A 
ATOM     71  C   UNL A   1      45.343  24.485  36.354  1.00  0.00     0.001 A 
ATOM     72  C   UNL A   1      43.646  23.319  35.095  1.00  0.00     0.001 A 
ATOM     73  C   UNL A   1      44.529  23.369  36.173  1.00  0.00     0.000 A 
ENDBRANCH  54  68
BRANCH  55  74
ATOM     74  C   UNL A   1      44.727  32.827  27.599  1.00  0.00    -0.014 A 
ATOM     75  C   UNL A   1      45.346  34.055  27.884  1.00  0.00     0.009 A 
ATOM     76  C   UNL A   1      44.076  32.664  26.368  1.00  0.00     0.009 A 
ATOM     77  C   UNL A   1      45.289  35.106  26.968  1.00  0.00     0.001 A 
ATOM     78  C   UNL A   1      44.048  33.707  25.440  1.00  0.00     0.001 A 
ATOM     79  C   UNL A   1      44.645  34.930  25.745  1.00  0.00     0.000 A 
ENDBRANCH  55  74
BRANCH  67  80
ATOM     80  C   UNL A   1      48.344  26.917  28.504  1.00  0.00    -0.014 A 
ATOM     81  C   UNL A   1      48.082  26.001  27.472  1.00  0.00     0.009 A 
ATOM     82  C   UNL A   1      49.678  27.161  28.870  1.00  0.00     0.009 A 
ATOM     83  C   UNL A   1      49.127  25.335  26.831  1.00  0.00     0.001 A 
ATOM     84  C   UNL A   1      50.723  26.518  28.203  1.00  0.00     0.001 A 
ATOM     85  C   UNL A   1      50.447  25.599  27.192  1.00  0.00     0.000 A 
ENDBRANCH  67  80
ENDBRANCH  41  42
ENDBRANCH  34  36
ENDBRANCH  33  34
ENDBRANCH  32  33
ENDBRANCH  31  32
ENDBRANCH  30  31
ENDBRANCH  29  30
ENDBRANCH   1  29
TORSDOF 21
ENDMDL
MODEL 2
REMARK VINA RESULT:      -7.5      5.953     10.280
REMARK SMILES CC[N@@H+](C)Cc1cc2c(cc1Cl)C=C(C(=O)OCCOCCOCCOC(=O)c1ccc(-c3c4nc(c(-c5ccccc5)c5ccc([nH]5)c(-c5ccccc5)c5nc(c(-c6ccccc6)c6ccc3[nH]6)C=C5)C=C4)cc1)[C@@H](C(F)(F)F)O2
REMARK SMILES IDX 21 1 20 2 19 3 18 4 17 5 15 6 16 7 14 8 6 9 7 10 11 11 8 12
REMARK SMILES IDX 10 13 12 14 9 15 82 16 13 17 77 18 5 19 3 20 4 21 2 23 1 24
REMARK SMILES IDX 78 25 79 26 80 27 81 28 22 29 23 30 24 31 25 32 26 33 27 34
REMARK SMILES IDX 28 35 29 36 30 37 76 38 31 39 75 40 32 41 33 42 34 43 69 44
REMARK SMILES IDX 35 45 74 46 68 47 70 48 36 49 73 50 67 51 66 52 37 54 59 55
REMARK SMILES IDX 44 56 58 57 45 58 48 59 57 60 71 61 46 62 47 63 56 65 72 66
REMARK SMILES IDX 49 67 38 68 39 69 43 70 40 71 42 72 41 73 60 74 61 75 65 76
REMARK SMILES IDX 62 77 64 78 63 79 50 80 51 81 55 82 52 83 54 84 53 85
REMARK H PARENT 3 22 70 53 48 64
REMARK Flexibility Score: inf
ROOT
ATOM      1  C   UNL A   1      38.971  22.918  26.065  1.00  0.00     0.188 C 
ENDROOT
BRANCH   1   2
ATOM      2  O   UNL A   1      38.469  21.598  26.113  1.00  0.00    -0.376 OA
BRANCH   2   3
ATOM      3  C   UNL A   1      37.794  21.027  25.006  1.00  0.00     0.202 C 
BRANCH   3   4
ATOM      4  C   UNL A   1      36.285  20.775  25.019  1.00  0.00     0.261 C 
BRANCH   4   5
ATOM      5  O   UNL A   1      35.517  21.745  24.302  1.00  0.00    -0.460 OA
BRANCH   5   6
ATOM      6  C   UNL A   1      34.174  21.611  24.418  1.00  0.00     0.338 C 
ATOM      7  O   UNL A   1      33.520  20.595  24.243  1.00  0.00    -0.246 OA
BRANCH   6   8
ATOM      8  C   UNL A   1      33.601  22.863  24.939  1.00  0.00     0.087 C 
ATOM      9  C   UNL A   1      32.507  27.696  25.835  1.00  0.00     0.029 A 
ATOM     10  C   UNL A   1      32.294  26.476  26.507  1.00  0.00     0.058 A 
ATOM     11  C   UNL A   1      33.146  27.643  24.584  1.00  0.00     0.050 A 
ATOM     12  C   UNL A   1      32.673  25.255  25.949  1.00  0.00     0.128 A 
ATOM     13  C   UNL A   1      33.549  26.418  24.034  1.00  0.00     0.033 A 
ATOM     14  Cl  UNL A   1      33.530  29.055  23.665  1.00  0.00    -0.084 Cl
ATOM     15  C   UNL A   1      33.327  25.225  24.723  1.00  0.00     0.019 A 
ATOM     16  O   UNL A   1      32.376  24.149  26.688  1.00  0.00    -0.475 OA
ATOM     17  C   UNL A   1      33.832  23.964  24.213  1.00  0.00     0.027 C 
ATOM     18  C   UNL A   1      32.801  22.843  26.215  1.00  0.00     0.316 C 
BRANCH   9  19
ATOM     19  C   UNL A   1      32.111  28.994  26.519  1.00  0.00     0.300 C 
BRANCH  19  20
ATOM     20  N   UNL A   1      33.087  29.622  27.427  1.00  0.00    -0.334 N 
ATOM     21  C   UNL A   1      33.134  31.076  27.350  1.00  0.00     0.333 C 
ATOM     22  H   UNL A   1      32.704  29.391  28.345  1.00  0.00     0.348 HD
BRANCH  20  23
ATOM     23  C   UNL A   1      34.429  29.037  27.401  1.00  0.00     0.258 C 
ATOM     24  C   UNL A   1      35.522  30.065  27.657  1.00  0.00     0.071 C 
ENDBRANCH  20  23
ENDBRANCH  19  20
ENDBRANCH   9  19
BRANCH  18  25
ATOM     25  C   UNL A   1      33.537  22.147  27.368  1.00  0.00     0.430 C 
ATOM     26  F   UNL A   1      34.840  22.517  27.411  1.00  0.00    -0.167 F 
ATOM     27  F   UNL A   1      33.008  22.461  28.574  1.00  0.00    -0.167 F 
ATOM     28  F   UNL A   1      33.501  20.800  27.249  1.00  0.00    -0.167 F 
ENDBRANCH  18  25
ENDBRANCH   6   8
ENDBRANCH   5   6
ENDBRANCH   4   5
ENDBRANCH   3   4
ENDBRANCH   2   3
ENDBRANCH   1   2
BRANCH   1  29
ATOM     29  C   UNL A   1      38.270  24.078  26.804  1.00  0.00     0.188 C 
BRANCH  29  30
ATOM     30  O   UNL A   1      38.974  24.914  27.698  1.00  0.00    -0.376 OA
BRANCH  30  31
ATOM     31  C   UNL A   1      39.808  25.953  27.207  1.00  0.00     0.202 C 
BRANCH  31  32
ATOM     32  C   UNL A   1      41.208  25.685  26.645  1.00  0.00     0.261 C 
BRANCH  32  33
ATOM     33  O   UNL A   1      41.927  24.631  27.295  1.00  0.00    -0.460 OA
BRANCH  33  34
ATOM     34  C   UNL A   1      42.932  24.085  26.565  1.00  0.00     0.338 C 
ATOM     35  O   UNL A   1      42.904  23.048  25.926  1.00  0.00    -0.246 OA
BRANCH  34  36
ATOM     36  C   UNL A   1      44.040  25.054  26.476  1.00  0.00     0.060 A 
ATOM     37  C   UNL A   1      44.479  25.536  25.242  1.00  0.00     0.016 A 
ATOM     38  C   UNL A   1      44.638  25.487  27.667  1.00  0.00     0.016 A 
ATOM     39  C   UNL A   1      45.497  26.493  25.208  1.00  0.00     0.010 A 
ATOM     40  C   UNL A   1      45.663  26.431  27.630  1.00  0.00     0.010 A 
ATOM     41  C   UNL A   1      46.078  26.963  26.401  1.00  0.00    -0.014 A 
BRANCH  41  42
ATOM     42  C   UNL A   1      46.945  28.164  26.371  1.00  0.00     0.031 A 
ATOM     43  C   UNL A   1      48.430  28.082  26.211  1.00  0.00     0.074 A 
ATOM     44  C   UNL A   1      46.346  29.362  26.510  1.00  0.00     0.049 A 
ATOM     45  N   UNL A   1      49.286  29.060  26.050  1.00  0.00    -0.248 NA
ATOM     46  C   UNL A   1      49.039  26.745  26.242  1.00  0.00     0.031 C 
ATOM     47  C   UNL A   1      44.909  29.559  26.716  1.00  0.00     0.029 A 
ATOM     48  N   UNL A   1      46.860  30.633  26.487  1.00  0.00    -0.354 N 
ATOM     49  C   UNL A   1      50.532  28.462  25.934  1.00  0.00     0.074 A 
ATOM     50  C   UNL A   1      50.327  27.036  26.091  1.00  0.00     0.031 C 
ATOM     51  C   UNL A   1      44.652  30.873  26.767  1.00  0.00     0.029 A 
ATOM     52  C   UNL A   1      45.903  31.610  26.620  1.00  0.00     0.049 A 
ATOM     53  H   UNL A   1      47.820  30.827  26.385  1.00  0.00     0.167 HD
ATOM     54  C   UNL A   1      51.728  29.054  25.699  1.00  0.00     0.031 A 
ATOM     55  C   UNL A   1      46.012  32.952  26.607  1.00  0.00     0.031 A 
ATOM     56  C   UNL A   1      51.923  30.477  25.569  1.00  0.00     0.049 A 
ATOM     57  C   UNL A   1      47.354  33.580  26.376  1.00  0.00     0.074 A 
ATOM     58  C   UNL A   1      53.091  31.157  25.266  1.00  0.00     0.029 A 
ATOM     59  N   UNL A   1      50.941  31.439  25.752  1.00  0.00    -0.354 N 
ATOM     60  N   UNL A   1      48.508  32.996  26.158  1.00  0.00    -0.248 NA
ATOM     61  C   UNL A   1      47.409  35.048  26.372  1.00  0.00     0.031 C 
ATOM     62  C   UNL A   1      52.833  32.529  25.339  1.00  0.00     0.029 A 
ATOM     63  C   UNL A   1      51.486  32.705  25.612  1.00  0.00     0.049 A 
ATOM     64  H   UNL A   1      49.996  31.249  25.953  1.00  0.00     0.167 HD
ATOM     65  C   UNL A   1      49.423  34.025  25.975  1.00  0.00     0.074 A 
ATOM     66  C   UNL A   1      48.685  35.266  26.082  1.00  0.00     0.031 C 
ATOM     67  C   UNL A   1      50.755  33.941  25.742  1.00  0.00     0.031 A 
BRANCH  54  68
ATOM     68  C   UNL A   1      52.941  28.176  25.546  1.00  0.00    -0.014 A 
ATOM     69  C   UNL A   1      53.251  27.617  24.295  1.00  0.00     0.009 A 
ATOM     70  C   UNL A   1      53.691  27.785  26.666  1.00  0.00     0.009 A 
ATOM     71  C   UNL A   1      54.271  26.671  24.173  1.00  0.00     0.001 A 
ATOM     72  C   UNL A   1      54.728  26.860  26.536  1.00  0.00     0.001 A 
ATOM     73  C   UNL A   1      55.010  26.295  25.292  1.00  0.00     0.000 A 
ENDBRANCH  54  68
BRANCH  55  74
ATOM     74  C   UNL A   1      44.787  33.776  26.769  1.00  0.00    -0.014 A 
ATOM     75  C   UNL A   1      44.089  34.245  25.643  1.00  0.00     0.009 A 
ATOM     76  C   UNL A   1      44.346  34.151  28.046  1.00  0.00     0.009 A 
ATOM     77  C   UNL A   1      42.992  35.095  25.794  1.00  0.00     0.001 A 
ATOM     78  C   UNL A   1      43.229  34.976  28.194  1.00  0.00     0.001 A 
ATOM     79  C   UNL A   1      42.560  35.455  27.068  1.00  0.00     0.000 A 
ENDBRANCH  55  74
BRANCH  67  80
ATOM     80  C   UNL A   1      51.521  35.229  25.597  1.00  0.00    -0.014 A 
ATOM     81  C   UNL A   1      51.998  35.896  26.737  1.00  0.00     0.009 A 
ATOM     82  C   UNL A   1      51.701  35.826  24.339  1.00  0.00     0.009 A 
ATOM     83  C   UNL A   1      52.628  37.135  26.623  1.00  0.00     0.001 A 
ATOM     84  C   UNL A   1      52.362  37.051  24.225  1.00  0.00     0.001 A 
ATOM     85  C   UNL A   1      52.815  37.709  25.367  1.00  0.00     0.000 A 
ENDBRANCH  67  80
ENDBRANCH  41  42
ENDBRANCH  34  36
ENDBRANCH  33  34
ENDBRANCH  32  33
ENDBRANCH  31  32
ENDBRANCH  30  31
ENDBRANCH  29  30
ENDBRANCH   1  29
TORSDOF 21
ENDMDL
MODEL 3
REMARK VINA RESULT:      -7.4      5.156      9.097
REMARK SMILES CC[N@@H+](C)Cc1cc2c(cc1Cl)C=C(C(=O)OCCOCCOCCOC(=O)c1ccc(-c3c4nc(c(-c5ccccc5)c5ccc([nH]5)c(-c5ccccc5)c5nc(c(-c6ccccc6)c6ccc3[nH]6)C=C5)C=C4)cc1)[C@@H](C(F)(F)F)O2
REMARK SMILES IDX 21 1 20 2 19 3 18 4 17 5 15 6 16 7 14 8 6 9 7 10 11 11 8 12
REMARK SMILES IDX 10 13 12 14 9 15 82 16 13 17 77 18 5 19 3 20 4 21 2 23 1 24
REMARK SMILES IDX 78 25 79 26 80 27 81 28 22 29 23 30 24 31 25 32 26 33 27 34
REMARK SMILES IDX 28 35 29 36 30 37 76 38 31 39 75 40 32 41 33 42 34 43 69 44
REMARK SMILES IDX 35 45 74 46 68 47 70 48 36 49 73 50 67 51 66 52 37 54 59 55
REMARK SMILES IDX 44 56 58 57 45 58 48 59 57 60 71 61 46 62 47 63 56 65 72 66
REMARK SMILES IDX 49 67 38 68 39 69 43 70 40 71 42 72 41 73 60 74 61 75 65 76
REMARK SMILES IDX 62 77 64 78 63 79 50 80 51 81 55 82 52 83 54 84 53 85
REMARK H PARENT 3 22 70 53 48 64
REMARK Flexibility Score: inf
ROOT
ATOM      1  C   UNL A   1      32.793  21.652  25.814  1.00  0.00     0.188 C 
ENDROOT
BRANCH   1   2
ATOM      2  O   UNL A   1      31.399  21.786  25.999  1.00  0.00    -0.376 OA
BRANCH   2   3
ATOM      3  C   UNL A   1      30.816  23.036  26.323  1.00  0.00     0.202 C 
BRANCH   3   4
ATOM      4  C   UNL A   1      30.456  24.065  25.249  1.00  0.00     0.261 C 
BRANCH   4   5
ATOM      5  O   UNL A   1      30.328  25.404  25.732  1.00  0.00    -0.460 OA
BRANCH   5   6
ATOM      6  C   UNL A   1      30.790  26.362  24.892  1.00  0.00     0.338 C 
ATOM      7  O   UNL A   1      30.375  26.617  23.772  1.00  0.00    -0.246 OA
BRANCH   6   8
ATOM      8  C   UNL A   1      31.801  27.175  25.586  1.00  0.00     0.087 C 
ATOM      9  C   UNL A   1      34.452  30.972  27.567  1.00  0.00     0.029 A 
ATOM     10  C   UNL A   1      34.710  29.624  27.250  1.00  0.00     0.058 A 
ATOM     11  C   UNL A   1      33.151  31.452  27.339  1.00  0.00     0.050 A 
ATOM     12  C   UNL A   1      33.714  28.783  26.754  1.00  0.00     0.128 A 
ATOM     13  C   UNL A   1      32.156  30.613  26.817  1.00  0.00     0.033 A 
ATOM     14  Cl  UNL A   1      32.692  33.094  27.621  1.00  0.00    -0.084 Cl
ATOM     15  C   UNL A   1      32.441  29.282  26.510  1.00  0.00     0.019 A 
ATOM     16  O   UNL A   1      34.090  27.493  26.522  1.00  0.00    -0.475 OA
ATOM     17  C   UNL A   1      31.450  28.435  25.873  1.00  0.00     0.027 C 
ATOM     18  C   UNL A   1      33.134  26.568  25.937  1.00  0.00     0.316 C 
BRANCH   9  19
ATOM     19  C   UNL A   1      35.592  31.846  28.062  1.00  0.00     0.300 C 
BRANCH  19  20
ATOM     20  N   UNL A   1      35.871  31.861  29.509  1.00  0.00    -0.334 N 
ATOM     21  C   UNL A   1      36.430  30.620  30.028  1.00  0.00     0.333 C 
ATOM     22  H   UNL A   1      36.608  32.564  29.577  1.00  0.00     0.348 HD
BRANCH  20  23
ATOM     23  C   UNL A   1      34.777  32.354  30.350  1.00  0.00     0.258 C 
ATOM     24  C   UNL A   1      35.004  33.779  30.831  1.00  0.00     0.071 C 
ENDBRANCH  20  23
ENDBRANCH  19  20
ENDBRANCH   9  19
BRANCH  18  25
ATOM     25  C   UNL A   1      33.815  25.893  24.738  1.00  0.00     0.430 C 
ATOM     26  F   UNL A   1      33.135  24.787  24.348  1.00  0.00    -0.167 F 
ATOM     27  F   UNL A   1      33.874  26.710  23.660  1.00  0.00    -0.167 F 
ATOM     28  F   UNL A   1      35.080  25.512  25.026  1.00  0.00    -0.167 F 
ENDBRANCH  18  25
ENDBRANCH   6   8
ENDBRANCH   5   6
ENDBRANCH   4   5
ENDBRANCH   3   4
ENDBRANCH   2   3
ENDBRANCH   1   2
BRANCH   1  29
ATOM     29  C   UNL A   1      33.410  20.378  25.199  1.00  0.00     0.188 C 
BRANCH  29  30
ATOM     30  O   UNL A   1      34.803  20.254  25.006  1.00  0.00    -0.376 OA
BRANCH  30  31
ATOM     31  C   UNL A   1      35.591  21.392  24.691  1.00  0.00     0.202 C 
BRANCH  31  32
ATOM     32  C   UNL A   1      37.119  21.390  24.804  1.00  0.00     0.261 C 
BRANCH  32  33
ATOM     33  O   UNL A   1      37.653  22.304  25.768  1.00  0.00    -0.460 OA
BRANCH  33  34
ATOM     34  C   UNL A   1      38.874  21.972  26.259  1.00  0.00     0.338 C 
ATOM     35  O   UNL A   1      39.445  20.899  26.165  1.00  0.00    -0.246 OA
BRANCH  34  36
ATOM     36  C   UNL A   1      39.533  23.191  26.765  1.00  0.00     0.060 A 
ATOM     37  C   UNL A   1      40.695  23.116  27.533  1.00  0.00     0.016 A 
ATOM     38  C   UNL A   1      38.965  24.431  26.446  1.00  0.00     0.016 A 
ATOM     39  C   UNL A   1      41.316  24.298  27.947  1.00  0.00     0.010 A 
ATOM     40  C   UNL A   1      39.577  25.609  26.872  1.00  0.00     0.010 A 
ATOM     41  C   UNL A   1      40.775  25.550  27.599  1.00  0.00    -0.014 A 
BRANCH  41  42
ATOM     42  C   UNL A   1      41.579  26.778  27.799  1.00  0.00     0.031 A 
ATOM     43  C   UNL A   1      41.132  27.901  28.680  1.00  0.00     0.074 A 
ATOM     44  C   UNL A   1      42.749  26.864  27.136  1.00  0.00     0.049 A 
ATOM     45  N   UNL A   1      41.797  28.973  29.031  1.00  0.00    -0.248 NA
ATOM     46  C   UNL A   1      39.773  27.823  29.233  1.00  0.00     0.031 C 
ATOM     47  C   UNL A   1      43.264  25.848  26.215  1.00  0.00     0.029 A 
ATOM     48  N   UNL A   1      43.716  27.835  27.141  1.00  0.00    -0.354 N 
ATOM     49  C   UNL A   1      40.952  29.690  29.866  1.00  0.00     0.074 A 
ATOM     50  C   UNL A   1      39.706  28.953  29.931  1.00  0.00     0.031 C 
ATOM     51  C   UNL A   1      44.468  26.234  25.770  1.00  0.00     0.029 A 
ATOM     52  C   UNL A   1      44.800  27.529  26.354  1.00  0.00     0.049 A 
ATOM     53  H   UNL A   1      43.642  28.671  27.658  1.00  0.00     0.167 HD
ATOM     54  C   UNL A   1      41.207  30.843  30.528  1.00  0.00     0.031 A 
ATOM     55  C   UNL A   1      45.945  28.203  26.137  1.00  0.00     0.031 A 
ATOM     56  C   UNL A   1      42.444  31.581  30.435  1.00  0.00     0.049 A 
ATOM     57  C   UNL A   1      46.187  29.496  26.859  1.00  0.00     0.074 A 
ATOM     58  C   UNL A   1      42.811  32.727  31.122  1.00  0.00     0.029 A 
ATOM     59  N   UNL A   1      43.502  31.266  29.597  1.00  0.00    -0.354 N 
ATOM     60  N   UNL A   1      45.422  30.105  27.732  1.00  0.00    -0.248 NA
ATOM     61  C   UNL A   1      47.455  30.184  26.582  1.00  0.00     0.031 C 
ATOM     62  C   UNL A   1      44.056  33.145  30.646  1.00  0.00     0.029 A 
ATOM     63  C   UNL A   1      44.501  32.218  29.717  1.00  0.00     0.049 A 
ATOM     64  H   UNL A   1      43.537  30.482  29.003  1.00  0.00     0.167 HD
ATOM     65  C   UNL A   1      46.122  31.240  28.120  1.00  0.00     0.074 A 
ATOM     66  C   UNL A   1      47.382  31.219  27.408  1.00  0.00     0.031 C 
ATOM     67  C   UNL A   1      45.746  32.210  28.989  1.00  0.00     0.031 A 
BRANCH  54  68
ATOM     68  C   UNL A   1      40.143  31.396  31.437  1.00  0.00    -0.014 A 
ATOM     69  C   UNL A   1      39.324  32.451  31.001  1.00  0.00     0.009 A 
ATOM     70  C   UNL A   1      40.047  30.972  32.772  1.00  0.00     0.009 A 
ATOM     71  C   UNL A   1      38.449  33.083  31.887  1.00  0.00     0.001 A 
ATOM     72  C   UNL A   1      39.151  31.588  33.648  1.00  0.00     0.001 A 
ATOM     73  C   UNL A   1      38.361  32.651  33.208  1.00  0.00     0.000 A 
ENDBRANCH  54  68
BRANCH  55  74
ATOM     74  C   UNL A   1      46.963  27.620  25.226  1.00  0.00    -0.014 A 
ATOM     75  C   UNL A   1      47.955  26.759  25.723  1.00  0.00     0.009 A 
ATOM     76  C   UNL A   1      46.987  27.973  23.869  1.00  0.00     0.009 A 
ATOM     77  C   UNL A   1      48.965  26.285  24.885  1.00  0.00     0.001 A 
ATOM     78  C   UNL A   1      47.981  27.471  23.027  1.00  0.00     0.001 A 
ATOM     79  C   UNL A   1      48.975  26.637  23.538  1.00  0.00     0.000 A 
ENDBRANCH  55  74
BRANCH  67  80
ATOM     80  C   UNL A   1      46.701  33.351  29.218  1.00  0.00    -0.014 A 
ATOM     81  C   UNL A   1      46.694  34.458  28.354  1.00  0.00     0.009 A 
ATOM     82  C   UNL A   1      47.664  33.295  30.239  1.00  0.00     0.009 A 
ATOM     83  C   UNL A   1      47.635  35.477  28.499  1.00  0.00     0.001 A 
ATOM     84  C   UNL A   1      48.583  34.333  30.402  1.00  0.00     0.001 A 
ATOM     85  C   UNL A   1      48.575  35.418  29.527  1.00  0.00     0.000 A 
ENDBRANCH  67  80
ENDBRANCH  41  42
ENDBRANCH  34  36
ENDBRANCH  33  34
ENDBRANCH  32  33
ENDBRANCH  31  32
ENDBRANCH  30  31
ENDBRANCH  29  30
ENDBRANCH   1  29
TORSDOF 21
ENDMDL
