MODEL 1
REMARK VINA RESULT:      -9.6      0.000      0.000
REMARK SMILES Cc1ccc(S(=O)(=O)n2cc(C(=O)C(=O)N[C@@H](Cc3cnc[nH]3)C(=O)OCCOCCOCCOC(=O)c3ccc(-c4c5nc(c(-c6ccccc6)c6ccc([nH]6)c(-c6ccccc6)c6nc(c(-c7ccccc7)c7ccc4[nH]7)C=C6)C=C5)cc3)c3ccccc32)cc1
REMARK SMILES IDX 29 1 28 2 27 3 26 4 24 5 25 6 17 7 16 8 14 9 15 10 12 12
REMARK SMILES IDX 13 13 11 14 9 15 10 16 91 17 86 18 90 19 87 20 89 21 88 22
REMARK SMILES IDX 6 23 7 24 8 25 5 26 1 27 2 28 3 29 93 30 4 31 92 32 18 33
REMARK SMILES IDX 19 34 20 35 23 36 21 37 22 38 30 40 31 41 32 42 33 43 34 44
REMARK SMILES IDX 35 45 36 46 37 47 38 48 39 49 85 50 40 51 84 52 41 53 42 54
REMARK SMILES IDX 43 55 78 56 44 57 83 58 77 59 79 60 45 61 82 62 76 63 75 64
REMARK SMILES IDX 46 66 68 67 53 68 67 69 54 70 57 71 66 72 80 73 55 74 56 75
REMARK SMILES IDX 65 77 81 78 58 79 47 80 48 81 52 82 49 83 51 84 50 85 69 86
REMARK SMILES IDX 70 87 74 88 71 89 73 90 72 91 59 92 60 93 64 94 61 95 63 96
REMARK SMILES IDX 62 97
REMARK H PARENT 16 11 23 39 79 65 57 76
REMARK Flexibility Score: inf
ROOT
ATOM      1  O   UNL A   1      38.492  30.887  34.713  1.00  0.00    -0.376 OA
ENDROOT
BRANCH   1   2
ATOM      2  C   UNL A   1      38.851  30.001  33.662  1.00  0.00     0.202 C 
BRANCH   2   3
ATOM      3  C   UNL A   1      40.231  29.326  33.798  1.00  0.00     0.261 C 
BRANCH   3   4
ATOM      4  O   UNL A   1      41.015  28.891  32.447  1.00  0.00    -0.462 OA
BRANCH   4   5
ATOM      5  C   UNL A   1      41.060  28.455  31.100  1.00  0.00     0.329 C 
ATOM      6  O   UNL A   1      42.185  28.606  30.604  1.00  0.00    -0.250 OA
BRANCH   5   7
ATOM      7  C   UNL A   1      39.773  27.744  30.017  1.00  0.00     0.198 C 
BRANCH   7   8
ATOM      8  N   UNL A   1      38.420  28.162  30.673  1.00  0.00    -0.335 N 
ATOM      9  C   UNL A   1      37.348  29.051  30.367  1.00  0.00     0.293 C 
ATOM     10  O   UNL A   1      36.322  28.947  31.044  1.00  0.00    -0.265 OA
ATOM     11  H   UNL A   1      38.266  27.687  31.521  1.00  0.00     0.164 HD
BRANCH   9  12
ATOM     12  C   UNL A   1      37.358  30.177  29.294  1.00  0.00     0.252 C 
ATOM     13  O   UNL A   1      38.501  30.491  28.943  1.00  0.00    -0.283 OA
BRANCH  12  14
ATOM     14  C   UNL A   1      36.163  31.032  28.839  1.00  0.00     0.054 A 
ATOM     15  N   UNL A   1      34.586  32.628  28.359  1.00  0.00    -0.240 N 
ATOM     16  C   UNL A   1      35.847  32.398  28.939  1.00  0.00     0.117 A 
ATOM     17  C   UNL A   1      34.138  31.490  27.729  1.00  0.00     0.065 A 
ATOM     18  C   UNL A   1      35.028  30.471  28.104  1.00  0.00     0.012 A 
ATOM     19  C   UNL A   1      33.031  31.251  26.886  1.00  0.00     0.028 A 
ATOM     20  C   UNL A   1      34.722  29.159  27.676  1.00  0.00     0.011 A 
ATOM     21  C   UNL A   1      32.774  29.943  26.479  1.00  0.00     0.002 A 
ATOM     22  C   UNL A   1      33.599  28.905  26.885  1.00  0.00     0.001 A 
BRANCH  15  23
ATOM     23  S   UNL A   1      33.781  34.159  28.173  1.00  0.00     0.268 S 
ATOM     24  O   UNL A   1      32.432  33.827  27.812  1.00  0.00    -0.201 OA
ATOM     25  O   UNL A   1      34.650  34.937  27.281  1.00  0.00    -0.201 OA
BRANCH  23  26
ATOM     26  C   UNL A   1      33.702  35.061  29.734  1.00  0.00     0.088 A 
ATOM     27  C   UNL A   1      33.706  37.126  33.559  1.00  0.00     0.044 C 
ATOM     28  C   UNL A   1      33.715  36.411  32.232  1.00  0.00    -0.051 A 
ATOM     29  C   UNL A   1      34.289  35.142  32.113  1.00  0.00     0.005 A 
ATOM     30  C   UNL A   1      33.133  36.989  31.094  1.00  0.00     0.005 A 
ATOM     31  C   UNL A   1      34.292  34.473  30.873  1.00  0.00     0.022 A 
ATOM     32  C   UNL A   1      33.115  36.318  29.857  1.00  0.00     0.022 A 
ENDBRANCH  23  26
ENDBRANCH  15  23
ENDBRANCH  12  14
ENDBRANCH   9  12
ENDBRANCH   7   8
BRANCH   7  33
ATOM     33  C   UNL A   1      39.638  27.400  28.143  1.00  0.00     0.092 C 
BRANCH  33  34
ATOM     34  C   UNL A   1      40.768  27.691  26.660  1.00  0.00     0.037 A 
ATOM     35  C   UNL A   1      41.427  28.788  25.959  1.00  0.00     0.134 A 
ATOM     36  N   UNL A   1      41.429  26.658  25.980  1.00  0.00    -0.348 N 
ATOM     37  N   UNL A   1      42.343  28.445  25.013  1.00  0.00    -0.245 NA
ATOM     38  C   UNL A   1      42.305  27.149  25.032  1.00  0.00     0.196 A 
ATOM     39  H   UNL A   1      41.286  25.700  26.157  1.00  0.00     0.167 HD
ENDBRANCH  33  34
ENDBRANCH   7  33
ENDBRANCH   5   7
ENDBRANCH   4   5
ENDBRANCH   3   4
ENDBRANCH   2   3
ENDBRANCH   1   2
BRANCH   1  40
ATOM     40  C   UNL A   1      38.147  32.167  34.209  1.00  0.00     0.188 C 
BRANCH  40  41
ATOM     41  C   UNL A   1      39.367  32.967  33.752  1.00  0.00     0.188 C 
BRANCH  41  42
ATOM     42  O   UNL A   1      39.358  33.351  32.397  1.00  0.00    -0.376 OA
BRANCH  42  43
ATOM     43  C   UNL A   1      40.474  33.048  31.563  1.00  0.00     0.202 C 
BRANCH  43  44
ATOM     44  C   UNL A   1      41.488  32.373  32.470  1.00  0.00     0.261 C 
BRANCH  44  45
ATOM     45  O   UNL A   1      42.806  32.920  32.194  1.00  0.00    -0.460 OA
BRANCH  45  46
ATOM     46  C   UNL A   1      43.310  33.748  33.154  1.00  0.00     0.338 C 
ATOM     47  O   UNL A   1      43.279  34.970  33.118  1.00  0.00    -0.246 OA
BRANCH  46  48
ATOM     48  C   UNL A   1      44.155  32.946  34.107  1.00  0.00     0.060 A 
ATOM     49  C   UNL A   1      45.141  32.127  33.585  1.00  0.00     0.016 A 
ATOM     50  C   UNL A   1      43.797  32.767  35.454  1.00  0.00     0.016 A 
ATOM     51  C   UNL A   1      45.592  31.040  34.344  1.00  0.00     0.010 A 
ATOM     52  C   UNL A   1      44.174  31.602  36.154  1.00  0.00     0.010 A 
ATOM     53  C   UNL A   1      44.947  30.631  35.526  1.00  0.00    -0.014 A 
BRANCH  53  54
ATOM     54  C   UNL A   1      44.981  29.178  36.056  1.00  0.00     0.031 A 
ATOM     55  C   UNL A   1      46.281  29.155  37.314  1.00  0.00     0.074 A 
ATOM     56  C   UNL A   1      44.132  28.031  35.459  1.00  0.00     0.049 A 
ATOM     57  N   UNL A   1      46.969  28.128  37.816  1.00  0.00    -0.248 NA
ATOM     58  C   UNL A   1      46.590  30.330  38.156  1.00  0.00     0.031 C 
ATOM     59  C   UNL A   1      42.853  27.285  35.896  1.00  0.00     0.029 A 
ATOM     60  N   UNL A   1      44.368  27.078  34.334  1.00  0.00    -0.354 N 
ATOM     61  C   UNL A   1      47.032  28.292  39.198  1.00  0.00     0.074 A 
ATOM     62  C   UNL A   1      47.115  29.749  39.259  1.00  0.00     0.031 C 
ATOM     63  C   UNL A   1      42.776  26.015  35.379  1.00  0.00     0.029 A 
ATOM     64  C   UNL A   1      43.770  25.833  34.361  1.00  0.00     0.049 A 
ATOM     65  H   UNL A   1      44.946  27.335  33.580  1.00  0.00     0.167 HD
ATOM     66  C   UNL A   1      46.631  27.338  40.152  1.00  0.00     0.031 A 
ATOM     67  C   UNL A   1      44.152  24.756  33.616  1.00  0.00     0.031 A 
ATOM     68  C   UNL A   1      46.302  25.875  39.768  1.00  0.00     0.049 A 
ATOM     69  C   UNL A   1      44.893  23.743  34.486  1.00  0.00     0.074 A 
ATOM     70  C   UNL A   1      45.276  25.023  40.224  1.00  0.00     0.029 A 
ATOM     71  N   UNL A   1      46.898  25.112  38.745  1.00  0.00    -0.354 N 
ATOM     72  N   UNL A   1      45.013  23.836  35.790  1.00  0.00    -0.248 NA
ATOM     73  C   UNL A   1      45.648  22.614  33.930  1.00  0.00     0.031 C 
ATOM     74  C   UNL A   1      45.162  23.869  39.413  1.00  0.00     0.029 A 
ATOM     75  C   UNL A   1      46.134  23.957  38.442  1.00  0.00     0.049 A 
ATOM     76  H   UNL A   1      47.741  25.352  38.296  1.00  0.00     0.167 HD
ATOM     77  C   UNL A   1      45.986  22.946  36.208  1.00  0.00     0.074 A 
ATOM     78  C   UNL A   1      46.290  22.158  35.019  1.00  0.00     0.031 C 
ATOM     79  C   UNL A   1      46.518  22.927  37.472  1.00  0.00     0.031 A 
BRANCH  66  80
ATOM     80  C   UNL A   1      46.076  27.799  41.570  1.00  0.00    -0.014 A 
ATOM     81  C   UNL A   1      46.929  27.848  42.701  1.00  0.00     0.009 A 
ATOM     82  C   UNL A   1      44.719  27.999  41.889  1.00  0.00     0.009 A 
ATOM     83  C   UNL A   1      46.463  27.911  44.030  1.00  0.00     0.001 A 
ATOM     84  C   UNL A   1      44.251  28.181  43.207  1.00  0.00     0.001 A 
ATOM     85  C   UNL A   1      45.116  28.089  44.283  1.00  0.00     0.000 A 
ENDBRANCH  66  80
BRANCH  67  86
ATOM     86  C   UNL A   1      44.540  25.082  32.187  1.00  0.00    -0.014 A 
ATOM     87  C   UNL A   1      45.769  25.761  32.006  1.00  0.00     0.009 A 
ATOM     88  C   UNL A   1      43.942  24.540  31.038  1.00  0.00     0.009 A 
ATOM     89  C   UNL A   1      46.429  25.789  30.767  1.00  0.00     0.001 A 
ATOM     90  C   UNL A   1      44.619  24.548  29.799  1.00  0.00     0.001 A 
ATOM     91  C   UNL A   1      45.875  25.138  29.672  1.00  0.00     0.000 A 
ENDBRANCH  67  86
BRANCH  79  92
ATOM     92  C   UNL A   1      47.322  21.781  38.051  1.00  0.00    -0.014 A 
ATOM     93  C   UNL A   1      48.655  21.862  38.473  1.00  0.00     0.009 A 
ATOM     94  C   UNL A   1      46.771  20.480  37.964  1.00  0.00     0.009 A 
ATOM     95  C   UNL A   1      49.354  20.718  38.887  1.00  0.00     0.001 A 
ATOM     96  C   UNL A   1      47.478  19.336  38.320  1.00  0.00     0.001 A 
ATOM     97  C   UNL A   1      48.764  19.460  38.814  1.00  0.00     0.000 A 
ENDBRANCH  79  92
ENDBRANCH  53  54
ENDBRANCH  46  48
ENDBRANCH  45  46
ENDBRANCH  44  45
ENDBRANCH  43  44
ENDBRANCH  42  43
ENDBRANCH  41  42
ENDBRANCH  40  41
ENDBRANCH   1  40
TORSDOF 24
ENDMDL
MODEL 2
REMARK VINA RESULT:      -9.4      4.881      8.750
REMARK SMILES Cc1ccc(S(=O)(=O)n2cc(C(=O)C(=O)N[C@@H](Cc3cnc[nH]3)C(=O)OCCOCCOCCOC(=O)c3ccc(-c4c5nc(c(-c6ccccc6)c6ccc([nH]6)c(-c6ccccc6)c6nc(c(-c7ccccc7)c7ccc4[nH]7)C=C6)C=C5)cc3)c3ccccc32)cc1
REMARK SMILES IDX 29 1 28 2 27 3 26 4 24 5 25 6 17 7 16 8 14 9 15 10 12 12
REMARK SMILES IDX 13 13 11 14 9 15 10 16 91 17 86 18 90 19 87 20 89 21 88 22
REMARK SMILES IDX 6 23 7 24 8 25 5 26 1 27 2 28 3 29 93 30 4 31 92 32 18 33
REMARK SMILES IDX 19 34 20 35 23 36 21 37 22 38 30 40 31 41 32 42 33 43 34 44
REMARK SMILES IDX 35 45 36 46 37 47 38 48 39 49 85 50 40 51 84 52 41 53 42 54
REMARK SMILES IDX 43 55 78 56 44 57 83 58 77 59 79 60 45 61 82 62 76 63 75 64
REMARK SMILES IDX 46 66 68 67 53 68 67 69 54 70 57 71 66 72 80 73 55 74 56 75
REMARK SMILES IDX 65 77 81 78 58 79 47 80 48 81 52 82 49 83 51 84 50 85 69 86
REMARK SMILES IDX 70 87 74 88 71 89 73 90 72 91 59 92 60 93 64 94 61 95 63 96
REMARK SMILES IDX 62 97
REMARK H PARENT 16 11 23 39 79 65 57 76
REMARK Flexibility Score: inf
ROOT
ATOM      1  O   UNL A   1      45.140  30.420  26.543  1.00  0.00    -0.376 OA
ENDROOT
BRANCH   1   2
ATOM      2  C   UNL A   1      46.228  29.605  26.128  1.00  0.00     0.202 C 
BRANCH   2   3
ATOM      3  C   UNL A   1      45.862  28.172  25.693  1.00  0.00     0.261 C 
BRANCH   3   4
ATOM      4  O   UNL A   1      44.475  27.530  26.236  1.00  0.00    -0.462 OA
BRANCH   4   5
ATOM      5  C   UNL A   1      43.710  26.489  26.818  1.00  0.00     0.329 C 
ATOM      6  O   UNL A   1      43.441  26.722  28.004  1.00  0.00    -0.250 OA
BRANCH   5   7
ATOM      7  C   UNL A   1      43.091  24.915  26.129  1.00  0.00     0.198 C 
BRANCH   7   8
ATOM      8  N   UNL A   1      44.098  24.550  24.993  1.00  0.00    -0.335 N 
ATOM      9  C   UNL A   1      45.405  23.989  24.904  1.00  0.00     0.293 C 
ATOM     10  O   UNL A   1      45.796  23.650  23.784  1.00  0.00    -0.265 OA
ATOM     11  H   UNL A   1      43.734  24.763  24.104  1.00  0.00     0.164 HD
BRANCH   9  12
ATOM     12  C   UNL A   1      46.414  23.805  26.074  1.00  0.00     0.252 C 
ATOM     13  O   UNL A   1      46.176  22.800  26.755  1.00  0.00    -0.283 OA
BRANCH  12  14
ATOM     14  C   UNL A   1      47.463  24.819  26.560  1.00  0.00     0.054 A 
ATOM     15  N   UNL A   1      48.906  26.209  27.677  1.00  0.00    -0.240 N 
ATOM     16  C   UNL A   1      47.948  25.190  27.826  1.00  0.00     0.117 A 
ATOM     17  C   UNL A   1      49.194  26.401  26.345  1.00  0.00     0.065 A 
ATOM     18  C   UNL A   1      48.245  25.645  25.638  1.00  0.00     0.012 A 
ATOM     19  C   UNL A   1      50.176  27.177  25.693  1.00  0.00     0.028 A 
ATOM     20  C   UNL A   1      48.249  25.760  24.229  1.00  0.00     0.011 A 
ATOM     21  C   UNL A   1      50.150  27.252  24.302  1.00  0.00     0.002 A 
ATOM     22  C   UNL A   1      49.187  26.567  23.578  1.00  0.00     0.001 A 
BRANCH  15  23
ATOM     23  S   UNL A   1      49.843  26.959  28.936  1.00  0.00     0.268 S 
ATOM     24  O   UNL A   1      49.617  28.368  28.777  1.00  0.00    -0.201 OA
ATOM     25  O   UNL A   1      51.183  26.373  28.811  1.00  0.00    -0.201 OA
BRANCH  23  26
ATOM     26  C   UNL A   1      49.233  26.509  30.574  1.00  0.00     0.088 A 
ATOM     27  C   UNL A   1      47.575  25.550  34.475  1.00  0.00     0.044 C 
ATOM     28  C   UNL A   1      48.140  25.881  33.119  1.00  0.00    -0.051 A 
ATOM     29  C   UNL A   1      47.817  27.088  32.489  1.00  0.00     0.005 A 
ATOM     30  C   UNL A   1      49.016  25.002  32.465  1.00  0.00     0.005 A 
ATOM     31  C   UNL A   1      48.351  27.398  31.223  1.00  0.00     0.022 A 
ATOM     32  C   UNL A   1      49.569  25.315  31.208  1.00  0.00     0.022 A 
ENDBRANCH  23  26
ENDBRANCH  15  23
ENDBRANCH  12  14
ENDBRANCH   9  12
ENDBRANCH   7   8
BRANCH   7  33
ATOM     33  C   UNL A   1      42.178  23.402  26.853  1.00  0.00     0.092 C 
BRANCH  33  34
ATOM     34  C   UNL A   1      42.185  21.551  26.486  1.00  0.00     0.037 A 
ATOM     35  C   UNL A   1      41.254  20.472  26.174  1.00  0.00     0.134 A 
ATOM     36  N   UNL A   1      43.354  20.823  26.222  1.00  0.00    -0.348 N 
ATOM     37  N   UNL A   1      41.799  19.290  25.779  1.00  0.00    -0.245 NA
ATOM     38  C   UNL A   1      43.072  19.525  25.841  1.00  0.00     0.196 A 
ATOM     39  H   UNL A   1      44.264  21.191  26.298  1.00  0.00     0.167 HD
ENDBRANCH  33  34
ENDBRANCH   7  33
ENDBRANCH   5   7
ENDBRANCH   4   5
ENDBRANCH   3   4
ENDBRANCH   2   3
ENDBRANCH   1   2
BRANCH   1  40
ATOM     40  C   UNL A   1      45.485  31.195  27.679  1.00  0.00     0.188 C 
BRANCH  40  41
ATOM     41  C   UNL A   1      44.580  32.415  27.856  1.00  0.00     0.188 C 
BRANCH  41  42
ATOM     42  O   UNL A   1      43.331  32.152  28.450  1.00  0.00    -0.376 OA
BRANCH  42  43
ATOM     43  C   UNL A   1      43.225  31.183  29.491  1.00  0.00     0.202 C 
BRANCH  43  44
ATOM     44  C   UNL A   1      42.047  31.625  30.341  1.00  0.00     0.261 C 
BRANCH  44  45
ATOM     45  O   UNL A   1      42.549  32.237  31.560  1.00  0.00    -0.460 OA
BRANCH  45  46
ATOM     46  C   UNL A   1      41.751  32.100  32.658  1.00  0.00     0.338 C 
ATOM     47  O   UNL A   1      40.623  32.560  32.771  1.00  0.00    -0.246 OA
BRANCH  46  48
ATOM     48  C   UNL A   1      42.565  31.552  33.798  1.00  0.00     0.060 A 
ATOM     49  C   UNL A   1      43.853  31.114  33.538  1.00  0.00     0.016 A 
ATOM     50  C   UNL A   1      41.987  31.196  35.028  1.00  0.00     0.016 A 
ATOM     51  C   UNL A   1      44.441  30.184  34.405  1.00  0.00     0.010 A 
ATOM     52  C   UNL A   1      42.545  30.172  35.821  1.00  0.00     0.010 A 
ATOM     53  C   UNL A   1      43.708  29.529  35.412  1.00  0.00    -0.014 A 
BRANCH  53  54
ATOM     54  C   UNL A   1      44.081  28.133  35.965  1.00  0.00     0.031 A 
ATOM     55  C   UNL A   1      45.496  28.411  37.058  1.00  0.00     0.074 A 
ATOM     56  C   UNL A   1      43.405  26.821  35.500  1.00  0.00     0.049 A 
ATOM     57  N   UNL A   1      46.421  27.556  37.496  1.00  0.00    -0.248 NA
ATOM     58  C   UNL A   1      45.667  29.660  37.830  1.00  0.00     0.031 C 
ATOM     59  C   UNL A   1      42.352  25.868  36.104  1.00  0.00     0.029 A 
ATOM     60  N   UNL A   1      43.691  25.881  34.376  1.00  0.00    -0.354 N 
ATOM     61  C   UNL A   1      46.608  27.790  38.856  1.00  0.00     0.074 A 
ATOM     62  C   UNL A   1      46.416  29.238  38.874  1.00  0.00     0.031 C 
ATOM     63  C   UNL A   1      42.462  24.584  35.628  1.00  0.00     0.029 A 
ATOM     64  C   UNL A   1      43.350  24.548  34.502  1.00  0.00     0.049 A 
ATOM     65  H   UNL A   1      44.118  26.208  33.552  1.00  0.00     0.167 HD
ATOM     66  C   UNL A   1      46.509  26.820  39.873  1.00  0.00     0.031 A 
ATOM     67  C   UNL A   1      43.845  23.530  33.740  1.00  0.00     0.031 A 
ATOM     68  C   UNL A   1      46.426  25.307  39.563  1.00  0.00     0.049 A 
ATOM     69  C   UNL A   1      44.861  22.715  34.536  1.00  0.00     0.074 A 
ATOM     70  C   UNL A   1      45.642  24.297  40.157  1.00  0.00     0.029 A 
ATOM     71  N   UNL A   1      47.037  24.625  38.492  1.00  0.00    -0.354 N 
ATOM     72  N   UNL A   1      45.109  22.886  35.814  1.00  0.00    -0.248 NA
ATOM     73  C   UNL A   1      45.751  21.724  33.919  1.00  0.00     0.031 C 
ATOM     74  C   UNL A   1      45.661  23.108  39.391  1.00  0.00     0.029 A 
ATOM     75  C   UNL A   1      46.480  23.334  38.309  1.00  0.00     0.049 A 
ATOM     76  H   UNL A   1      47.761  24.999  37.940  1.00  0.00     0.167 HD
ATOM     77  C   UNL A   1      46.276  22.215  36.131  1.00  0.00     0.074 A 
ATOM     78  C   UNL A   1      46.588  21.446  34.932  1.00  0.00     0.031 C 
ATOM     79  C   UNL A   1      46.942  22.353  37.323  1.00  0.00     0.031 A 
BRANCH  66  80
ATOM     80  C   UNL A   1      46.041  27.231  41.336  1.00  0.00    -0.014 A 
ATOM     81  C   UNL A   1      44.666  27.411  41.633  1.00  0.00     0.009 A 
ATOM     82  C   UNL A   1      46.892  27.636  42.381  1.00  0.00     0.009 A 
ATOM     83  C   UNL A   1      44.196  28.090  42.775  1.00  0.00     0.001 A 
ATOM     84  C   UNL A   1      46.427  28.211  43.583  1.00  0.00     0.001 A 
ATOM     85  C   UNL A   1      45.082  28.482  43.761  1.00  0.00     0.000 A 
ENDBRANCH  66  80
BRANCH  67  86
ATOM     86  C   UNL A   1      43.997  23.860  32.268  1.00  0.00    -0.014 A 
ATOM     87  C   UNL A   1      44.896  24.904  31.945  1.00  0.00     0.009 A 
ATOM     88  C   UNL A   1      43.551  23.058  31.205  1.00  0.00     0.009 A 
ATOM     89  C   UNL A   1      45.421  25.063  30.652  1.00  0.00     0.001 A 
ATOM     90  C   UNL A   1      44.098  23.204  29.911  1.00  0.00     0.001 A 
ATOM     91  C   UNL A   1      45.057  24.179  29.644  1.00  0.00     0.000 A 
ENDBRANCH  67  86
BRANCH  79  92
ATOM     92  C   UNL A   1      48.012  21.406  37.825  1.00  0.00    -0.014 A 
ATOM     93  C   UNL A   1      49.071  20.904  37.059  1.00  0.00     0.009 A 
ATOM     94  C   UNL A   1      47.819  20.808  39.094  1.00  0.00     0.009 A 
ATOM     95  C   UNL A   1      49.948  19.939  37.579  1.00  0.00     0.001 A 
ATOM     96  C   UNL A   1      48.652  19.811  39.592  1.00  0.00     0.001 A 
ATOM     97  C   UNL A   1      49.739  19.398  38.844  1.00  0.00     0.000 A 
ENDBRANCH  79  92
ENDBRANCH  53  54
ENDBRANCH  46  48
ENDBRANCH  45  46
ENDBRANCH  44  45
ENDBRANCH  43  44
ENDBRANCH  42  43
ENDBRANCH  41  42
ENDBRANCH  40  41
ENDBRANCH   1  40
TORSDOF 24
ENDMDL
MODEL 3
REMARK VINA RESULT:      -9.3      5.551      8.788
REMARK SMILES Cc1ccc(S(=O)(=O)n2cc(C(=O)C(=O)N[C@@H](Cc3cnc[nH]3)C(=O)OCCOCCOCCOC(=O)c3ccc(-c4c5nc(c(-c6ccccc6)c6ccc([nH]6)c(-c6ccccc6)c6nc(c(-c7ccccc7)c7ccc4[nH]7)C=C6)C=C5)cc3)c3ccccc32)cc1
REMARK SMILES IDX 29 1 28 2 27 3 26 4 24 5 25 6 17 7 16 8 14 9 15 10 12 12
REMARK SMILES IDX 13 13 11 14 9 15 10 16 91 17 86 18 90 19 87 20 89 21 88 22
REMARK SMILES IDX 6 23 7 24 8 25 5 26 1 27 2 28 3 29 93 30 4 31 92 32 18 33
REMARK SMILES IDX 19 34 20 35 23 36 21 37 22 38 30 40 31 41 32 42 33 43 34 44
REMARK SMILES IDX 35 45 36 46 37 47 38 48 39 49 85 50 40 51 84 52 41 53 42 54
REMARK SMILES IDX 43 55 78 56 44 57 83 58 77 59 79 60 45 61 82 62 76 63 75 64
REMARK SMILES IDX 46 66 68 67 53 68 67 69 54 70 57 71 66 72 80 73 55 74 56 75
REMARK SMILES IDX 65 77 81 78 58 79 47 80 48 81 52 82 49 83 51 84 50 85 69 86
REMARK SMILES IDX 70 87 74 88 71 89 73 90 72 91 59 92 60 93 64 94 61 95 63 96
REMARK SMILES IDX 62 97
REMARK H PARENT 16 11 23 39 79 65 57 76
REMARK Flexibility Score: inf
ROOT
ATOM      1  O   UNL A   1      46.469  29.547  24.956  1.00  0.00    -0.376 OA
ENDROOT
BRANCH   1   2
ATOM      2  C   UNL A   1      46.752  28.158  25.054  1.00  0.00     0.202 C 
BRANCH   2   3
ATOM      3  C   UNL A   1      46.374  27.491  26.392  1.00  0.00     0.261 C 
BRANCH   3   4
ATOM      4  O   UNL A   1      44.923  26.778  26.518  1.00  0.00    -0.462 OA
BRANCH   4   5
ATOM      5  C   UNL A   1      43.907  25.899  26.069  1.00  0.00     0.329 C 
ATOM      6  O   UNL A   1      42.944  26.514  25.590  1.00  0.00    -0.250 OA
BRANCH   5   7
ATOM      7  C   UNL A   1      43.789  24.076  26.093  1.00  0.00     0.198 C 
BRANCH   7   8
ATOM      8  N   UNL A   1      42.961  23.745  27.374  1.00  0.00    -0.335 N 
ATOM      9  C   UNL A   1      41.582  23.662  27.728  1.00  0.00     0.293 C 
ATOM     10  O   UNL A   1      41.312  23.149  28.817  1.00  0.00    -0.265 OA
ATOM     11  H   UNL A   1      43.544  23.538  28.140  1.00  0.00     0.164 HD
BRANCH   9  12
ATOM     12  C   UNL A   1      40.381  24.199  26.899  1.00  0.00     0.252 C 
ATOM     13  O   UNL A   1      40.291  25.432  26.934  1.00  0.00    -0.283 OA
BRANCH  12  14
ATOM     14  C   UNL A   1      39.242  23.373  26.276  1.00  0.00     0.054 A 
ATOM     15  N   UNL A   1      37.339  22.517  25.324  1.00  0.00    -0.240 N 
ATOM     16  C   UNL A   1      37.990  23.697  25.727  1.00  0.00     0.117 A 
ATOM     17  C   UNL A   1      38.192  21.442  25.432  1.00  0.00     0.065 A 
ATOM     18  C   UNL A   1      39.320  21.920  26.117  1.00  0.00     0.012 A 
ATOM     19  C   UNL A   1      38.076  20.099  25.016  1.00  0.00     0.028 A 
ATOM     20  C   UNL A   1      40.312  20.974  26.462  1.00  0.00     0.011 A 
ATOM     21  C   UNL A   1      39.083  19.203  25.368  1.00  0.00     0.002 A 
ATOM     22  C   UNL A   1      40.180  19.631  26.100  1.00  0.00     0.001 A 
BRANCH  15  23
ATOM     23  S   UNL A   1      35.797  22.389  24.528  1.00  0.00     0.268 S 
ATOM     24  O   UNL A   1      35.301  21.091  24.887  1.00  0.00    -0.201 OA
ATOM     25  O   UNL A   1      36.061  22.755  23.131  1.00  0.00    -0.201 OA
BRANCH  23  26
ATOM     26  C   UNL A   1      34.620  23.599  25.166  1.00  0.00     0.088 A 
ATOM     27  C   UNL A   1      31.801  26.625  26.504  1.00  0.00     0.044 C 
ATOM     28  C   UNL A   1      32.774  25.576  26.031  1.00  0.00    -0.051 A 
ATOM     29  C   UNL A   1      33.770  25.897  25.103  1.00  0.00     0.005 A 
ATOM     30  C   UNL A   1      32.718  24.263  26.521  1.00  0.00     0.005 A 
ATOM     31  C   UNL A   1      34.681  24.917  24.665  1.00  0.00     0.022 A 
ATOM     32  C   UNL A   1      33.639  23.283  26.103  1.00  0.00     0.022 A 
ENDBRANCH  23  26
ENDBRANCH  15  23
ENDBRANCH  12  14
ENDBRANCH   9  12
ENDBRANCH   7   8
BRANCH   7  33
ATOM     33  C   UNL A   1      43.691  22.722  24.751  1.00  0.00     0.092 C 
BRANCH  33  34
ATOM     34  C   UNL A   1      44.187  20.903  24.668  1.00  0.00     0.037 A 
ATOM     35  C   UNL A   1      45.371  20.079  24.451  1.00  0.00     0.134 A 
ATOM     36  N   UNL A   1      43.345  19.856  25.070  1.00  0.00    -0.348 N 
ATOM     37  N   UNL A   1      45.242  18.747  24.698  1.00  0.00    -0.245 NA
ATOM     38  C   UNL A   1      43.998  18.639  25.048  1.00  0.00     0.196 A 
ATOM     39  H   UNL A   1      42.405  19.974  25.337  1.00  0.00     0.167 HD
ENDBRANCH  33  34
ENDBRANCH   7  33
ENDBRANCH   5   7
ENDBRANCH   4   5
ENDBRANCH   3   4
ENDBRANCH   2   3
ENDBRANCH   1   2
BRANCH   1  40
ATOM     40  C   UNL A   1      46.411  30.149  26.239  1.00  0.00     0.188 C 
BRANCH  40  41
ATOM     41  C   UNL A   1      45.532  31.400  26.262  1.00  0.00     0.188 C 
BRANCH  41  42
ATOM     42  O   UNL A   1      44.154  31.161  26.423  1.00  0.00    -0.376 OA
BRANCH  42  43
ATOM     43  C   UNL A   1      43.705  29.936  26.997  1.00  0.00     0.202 C 
BRANCH  43  44
ATOM     44  C   UNL A   1      42.199  30.078  27.133  1.00  0.00     0.261 C 
BRANCH  44  45
ATOM     45  O   UNL A   1      41.849  30.059  28.543  1.00  0.00    -0.460 OA
BRANCH  45  46
ATOM     46  C   UNL A   1      40.941  29.108  28.909  1.00  0.00     0.338 C 
ATOM     47  O   UNL A   1      39.738  29.163  28.693  1.00  0.00    -0.246 OA
BRANCH  46  48
ATOM     48  C   UNL A   1      41.593  28.139  29.857  1.00  0.00     0.060 A 
ATOM     49  C   UNL A   1      42.124  28.628  31.039  1.00  0.00     0.016 A 
ATOM     50  C   UNL A   1      41.946  26.835  29.470  1.00  0.00     0.016 A 
ATOM     51  C   UNL A   1      43.129  27.898  31.685  1.00  0.00     0.010 A 
ATOM     52  C   UNL A   1      43.039  26.174  30.066  1.00  0.00     0.010 A 
ATOM     53  C   UNL A   1      43.758  26.793  31.082  1.00  0.00    -0.014 A 
BRANCH  53  54
ATOM     54  C   UNL A   1      45.198  26.343  31.424  1.00  0.00     0.031 A 
ATOM     55  C   UNL A   1      45.199  26.044  33.208  1.00  0.00     0.074 A 
ATOM     56  C   UNL A   1      46.355  26.327  30.396  1.00  0.00     0.049 A 
ATOM     57  N   UNL A   1      46.217  25.997  34.068  1.00  0.00    -0.248 NA
ATOM     58  C   UNL A   1      44.005  25.553  33.929  1.00  0.00     0.031 C 
ATOM     59  C   UNL A   1      47.083  25.225  29.597  1.00  0.00     0.029 A 
ATOM     60  N   UNL A   1      47.336  27.365  29.961  1.00  0.00    -0.354 N 
ATOM     61  C   UNL A   1      46.020  24.899  34.903  1.00  0.00     0.074 A 
ATOM     62  C   UNL A   1      44.563  24.929  34.992  1.00  0.00     0.031 C 
ATOM     63  C   UNL A   1      48.365  25.577  29.252  1.00  0.00     0.029 A 
ATOM     64  C   UNL A   1      48.576  26.976  29.495  1.00  0.00     0.049 A 
ATOM     65  H   UNL A   1      47.100  28.320  30.007  1.00  0.00     0.167 HD
ATOM     66  C   UNL A   1      46.950  23.864  35.122  1.00  0.00     0.031 A 
ATOM     67  C   UNL A   1      49.673  27.781  29.397  1.00  0.00     0.031 A 
ATOM     68  C   UNL A   1      48.419  23.960  34.646  1.00  0.00     0.049 A 
ATOM     69  C   UNL A   1      50.669  27.462  30.510  1.00  0.00     0.074 A 
ATOM     70  C   UNL A   1      49.254  22.984  34.067  1.00  0.00     0.029 A 
ATOM     71  N   UNL A   1      49.210  25.123  34.564  1.00  0.00    -0.354 N 
ATOM     72  N   UNL A   1      50.546  26.459  31.347  1.00  0.00    -0.248 NA
ATOM     73  C   UNL A   1      51.815  28.322  30.827  1.00  0.00     0.031 C 
ATOM     74  C   UNL A   1      50.427  23.561  33.524  1.00  0.00     0.029 A 
ATOM     75  C   UNL A   1      50.368  24.913  33.773  1.00  0.00     0.049 A 
ATOM     76  H   UNL A   1      48.985  25.976  35.001  1.00  0.00     0.167 HD
ATOM     77  C   UNL A   1      51.430  26.646  32.394  1.00  0.00     0.074 A 
ATOM     78  C   UNL A   1      52.249  27.779  31.977  1.00  0.00     0.031 C 
ATOM     79  C   UNL A   1      51.422  25.906  33.549  1.00  0.00     0.031 A 
BRANCH  66  80
ATOM     80  C   UNL A   1      46.452  22.392  35.464  1.00  0.00    -0.014 A 
ATOM     81  C   UNL A   1      46.841  21.759  36.671  1.00  0.00     0.009 A 
ATOM     82  C   UNL A   1      45.782  21.530  34.575  1.00  0.00     0.009 A 
ATOM     83  C   UNL A   1      46.735  20.371  36.895  1.00  0.00     0.001 A 
ATOM     84  C   UNL A   1      45.565  20.161  34.838  1.00  0.00     0.001 A 
ATOM     85  C   UNL A   1      46.083  19.569  35.976  1.00  0.00     0.000 A 
ENDBRANCH  66  80
BRANCH  67  86
ATOM     86  C   UNL A   1      49.383  29.185  28.903  1.00  0.00    -0.014 A 
ATOM     87  C   UNL A   1      49.250  30.187  29.893  1.00  0.00     0.009 A 
ATOM     88  C   UNL A   1      49.509  29.622  27.575  1.00  0.00     0.009 A 
ATOM     89  C   UNL A   1      49.362  31.554  29.591  1.00  0.00     0.001 A 
ATOM     90  C   UNL A   1      49.646  30.995  27.275  1.00  0.00     0.001 A 
ATOM     91  C   UNL A   1      49.609  31.956  28.284  1.00  0.00     0.000 A 
ENDBRANCH  67  86
BRANCH  79  92
ATOM     92  C   UNL A   1      52.558  25.860  34.550  1.00  0.00    -0.014 A 
ATOM     93  C   UNL A   1      53.642  24.975  34.501  1.00  0.00     0.009 A 
ATOM     94  C   UNL A   1      52.417  26.611  35.741  1.00  0.00     0.009 A 
ATOM     95  C   UNL A   1      54.586  24.927  35.538  1.00  0.00     0.001 A 
ATOM     96  C   UNL A   1      53.319  26.527  36.797  1.00  0.00     0.001 A 
ATOM     97  C   UNL A   1      54.426  25.706  36.681  1.00  0.00     0.000 A 
ENDBRANCH  79  92
ENDBRANCH  53  54
ENDBRANCH  46  48
ENDBRANCH  45  46
ENDBRANCH  44  45
ENDBRANCH  43  44
ENDBRANCH  42  43
ENDBRANCH  41  42
ENDBRANCH  40  41
ENDBRANCH   1  40
TORSDOF 24
ENDMDL
