MODEL 1
REMARK VINA RESULT:     -11.2      0.000      0.000
REMARK SMILES CCc1ccc(S(=O)(=O)N2CCC3(CC2)NC(=O)C[C@H]3C(=O)OCCOCCOCCOC(=O)c2ccc(-c3c4nc(c(-c5ccccc5)c5ccc([nH]5)c(-c5ccccc5)c5nc(c(-c6ccccc6)c6ccc3[nH]6)C=C5)C=C4)cc2)s1
REMARK SMILES IDX 27 1 26 2 25 3 24 4 23 5 21 6 22 7 20 8 10 9 11 10 15 11
REMARK SMILES IDX 12 12 14 13 13 14 16 15 17 16 19 18 18 19 7 20 8 21 9 22
REMARK SMILES IDX 6 23 3 24 4 25 83 26 5 27 2 28 1 29 28 30 29 31 30 32 31 33
REMARK SMILES IDX 32 34 33 35 34 36 35 37 36 38 82 39 37 40 81 41 38 42 39 43
REMARK SMILES IDX 40 44 75 45 41 46 80 47 74 48 76 49 42 50 79 51 73 52 72 53
REMARK SMILES IDX 43 55 65 56 50 57 64 58 51 59 54 60 63 61 77 62 52 63 53 64
REMARK SMILES IDX 62 66 78 67 55 68 44 69 45 70 49 71 46 72 48 73 47 74 66 75
REMARK SMILES IDX 67 76 71 77 68 78 70 79 69 80 56 81 57 82 61 83 58 84 60 85
REMARK SMILES IDX 59 86
REMARK H PARENT 16 17 76 54 54 65
REMARK Flexibility Score: inf
ROOT
ATOM      1  C   UNL A   1      38.984  21.911  26.041  1.00  0.00     0.188 C 
ENDROOT
BRANCH   1   2
ATOM      2  O   UNL A   1      37.808  22.119  25.266  1.00  0.00    -0.376 OA
BRANCH   2   3
ATOM      3  C   UNL A   1      37.202  21.026  24.597  1.00  0.00     0.202 C 
BRANCH   3   4
ATOM      4  C   UNL A   1      35.813  20.635  25.123  1.00  0.00     0.261 C 
BRANCH   4   5
ATOM      5  O   UNL A   1      35.207  21.532  26.091  1.00  0.00    -0.463 OA
BRANCH   5   6
ATOM      6  C   UNL A   1      33.864  21.647  25.989  1.00  0.00     0.311 C 
ATOM      7  O   UNL A   1      33.125  20.743  25.607  1.00  0.00    -0.252 OA
BRANCH   6   8
ATOM      8  C   UNL A   1      33.289  23.033  26.207  1.00  0.00     0.134 C 
ATOM      9  N   UNL A   1      33.734  25.589  23.250  1.00  0.00    -0.197 NA
ATOM     10  C   UNL A   1      33.868  25.968  24.655  1.00  0.00     0.105 C 
ATOM     11  C   UNL A   1      33.624  24.154  23.001  1.00  0.00     0.105 C 
ATOM     12  C   UNL A   1      32.740  25.378  25.498  1.00  0.00     0.046 C 
ATOM     13  C   UNL A   1      32.434  23.568  23.727  1.00  0.00     0.046 C 
ATOM     14  C   UNL A   1      32.422  23.869  25.230  1.00  0.00     0.056 C 
ATOM     15  N   UNL A   1      31.078  23.595  25.704  1.00  0.00    -0.350 N 
ATOM     16  C   UNL A   1      31.023  23.098  26.979  1.00  0.00     0.221 C 
ATOM     17  H   UNL A   1      30.274  23.753  25.157  1.00  0.00     0.164 HD
ATOM     18  C   UNL A   1      32.427  22.950  27.487  1.00  0.00     0.117 C 
ATOM     19  O   UNL A   1      29.996  22.873  27.591  1.00  0.00    -0.275 OA
BRANCH   9  20
ATOM     20  S   UNL A   1      33.318  26.718  22.055  1.00  0.00     0.252 S 
ATOM     21  O   UNL A   1      33.094  25.980  20.827  1.00  0.00    -0.206 OA
ATOM     22  O   UNL A   1      34.245  27.818  22.123  1.00  0.00    -0.206 OA
BRANCH  20  23
ATOM     23  C   UNL A   1      31.743  27.421  22.520  1.00  0.00     0.135 A 
ATOM     24  C   UNL A   1      29.942  29.054  22.981  1.00  0.00     0.006 A 
ATOM     25  C   UNL A   1      29.514  27.752  23.125  1.00  0.00     0.017 A 
ATOM     26  S   UNL A   1      31.596  29.127  22.538  1.00  0.00    -0.127 S 
ATOM     27  C   UNL A   1      30.563  26.826  22.916  1.00  0.00     0.034 A 
BRANCH  24  28
ATOM     28  C   UNL A   1      29.126  30.291  23.192  1.00  0.00     0.043 C 
ATOM     29  C   UNL A   1      27.777  30.196  22.495  1.00  0.00     0.010 C 
ENDBRANCH  24  28
ENDBRANCH  20  23
ENDBRANCH   9  20
ENDBRANCH   6   8
ENDBRANCH   5   6
ENDBRANCH   4   5
ENDBRANCH   3   4
ENDBRANCH   2   3
ENDBRANCH   1   2
BRANCH   1  30
ATOM     30  C   UNL A   1      39.582  20.513  26.143  1.00  0.00     0.188 C 
BRANCH  30  31
ATOM     31  O   UNL A   1      40.803  20.498  26.869  1.00  0.00    -0.376 OA
BRANCH  31  32
ATOM     32  C   UNL A   1      41.855  19.811  26.193  1.00  0.00     0.202 C 
BRANCH  32  33
ATOM     33  C   UNL A   1      42.848  20.847  25.660  1.00  0.00     0.261 C 
BRANCH  33  34
ATOM     34  O   UNL A   1      42.257  22.150  25.462  1.00  0.00    -0.460 OA
BRANCH  34  35
ATOM     35  C   UNL A   1      43.143  23.153  25.253  1.00  0.00     0.338 C 
ATOM     36  O   UNL A   1      43.858  23.291  24.277  1.00  0.00    -0.246 OA
BRANCH  35  37
ATOM     37  C   UNL A   1      42.949  24.180  26.293  1.00  0.00     0.060 A 
ATOM     38  C   UNL A   1      42.156  23.862  27.401  1.00  0.00     0.016 A 
ATOM     39  C   UNL A   1      43.504  25.449  26.172  1.00  0.00     0.016 A 
ATOM     40  C   UNL A   1      41.916  24.796  28.403  1.00  0.00     0.010 A 
ATOM     41  C   UNL A   1      43.242  26.402  27.161  1.00  0.00     0.010 A 
ATOM     42  C   UNL A   1      42.439  26.083  28.275  1.00  0.00    -0.014 A 
BRANCH  42  43
ATOM     43  C   UNL A   1      42.022  27.155  29.205  1.00  0.00     0.031 A 
ATOM     44  C   UNL A   1      42.821  27.356  30.457  1.00  0.00     0.074 A 
ATOM     45  C   UNL A   1      40.957  27.934  28.950  1.00  0.00     0.049 A 
ATOM     46  N   UNL A   1      42.504  28.002  31.548  1.00  0.00    -0.248 NA
ATOM     47  C   UNL A   1      44.155  26.732  30.482  1.00  0.00     0.031 C 
ATOM     48  C   UNL A   1      40.176  27.937  27.714  1.00  0.00     0.029 A 
ATOM     49  N   UNL A   1      40.336  28.867  29.744  1.00  0.00    -0.354 N 
ATOM     50  C   UNL A   1      43.575  27.811  32.413  1.00  0.00     0.074 A 
ATOM     51  C   UNL A   1      44.551  27.003  31.717  1.00  0.00     0.031 C 
ATOM     52  C   UNL A   1      39.165  28.814  27.841  1.00  0.00     0.029 A 
ATOM     53  C   UNL A   1      39.184  29.370  29.192  1.00  0.00     0.049 A 
ATOM     54  H   UNL A   1      40.684  29.148  30.621  1.00  0.00     0.167 HD
ATOM     55  C   UNL A   1      43.711  28.255  33.684  1.00  0.00     0.031 A 
ATOM     56  C   UNL A   1      38.220  30.134  29.740  1.00  0.00     0.031 A 
ATOM     57  C   UNL A   1      42.736  29.070  34.355  1.00  0.00     0.049 A 
ATOM     58  C   UNL A   1      38.340  30.536  31.187  1.00  0.00     0.074 A 
ATOM     59  C   UNL A   1      42.758  29.556  35.650  1.00  0.00     0.029 A 
ATOM     60  N   UNL A   1      41.565  29.529  33.772  1.00  0.00    -0.354 N 
ATOM     61  N   UNL A   1      39.306  30.284  32.039  1.00  0.00    -0.248 NA
ATOM     62  C   UNL A   1      37.228  31.313  31.754  1.00  0.00     0.031 C 
ATOM     63  C   UNL A   1      41.577  30.274  35.864  1.00  0.00     0.029 A 
ATOM     64  C   UNL A   1      40.850  30.283  34.684  1.00  0.00     0.049 A 
ATOM     65  H   UNL A   1      41.284  29.346  32.846  1.00  0.00     0.167 HD
ATOM     66  C   UNL A   1      38.934  30.896  33.229  1.00  0.00     0.074 A 
ATOM     67  C   UNL A   1      37.656  31.535  32.989  1.00  0.00     0.031 C 
ATOM     68  C   UNL A   1      39.591  30.928  34.415  1.00  0.00     0.031 A 
BRANCH  55  69
ATOM     69  C   UNL A   1      44.924  27.804  34.446  1.00  0.00    -0.014 A 
ATOM     70  C   UNL A   1      46.101  28.566  34.480  1.00  0.00     0.009 A 
ATOM     71  C   UNL A   1      44.878  26.590  35.151  1.00  0.00     0.009 A 
ATOM     72  C   UNL A   1      47.219  28.104  35.179  1.00  0.00     0.001 A 
ATOM     73  C   UNL A   1      45.987  26.145  35.870  1.00  0.00     0.001 A 
ATOM     74  C   UNL A   1      47.160  26.897  35.876  1.00  0.00     0.000 A 
ENDBRANCH  55  69
BRANCH  56  75
ATOM     75  C   UNL A   1      37.019  30.508  28.948  1.00  0.00    -0.014 A 
ATOM     76  C   UNL A   1      36.746  31.851  28.654  1.00  0.00     0.009 A 
ATOM     77  C   UNL A   1      36.127  29.522  28.495  1.00  0.00     0.009 A 
ATOM     78  C   UNL A   1      35.596  32.201  27.941  1.00  0.00     0.001 A 
ATOM     79  C   UNL A   1      34.995  29.871  27.757  1.00  0.00     0.001 A 
ATOM     80  C   UNL A   1      34.725  31.211  27.489  1.00  0.00     0.000 A 
ENDBRANCH  56  75
BRANCH  68  81
ATOM     81  C   UNL A   1      38.979  31.736  35.523  1.00  0.00    -0.014 A 
ATOM     82  C   UNL A   1      38.182  31.142  36.510  1.00  0.00     0.009 A 
ATOM     83  C   UNL A   1      39.272  33.106  35.614  1.00  0.00     0.009 A 
ATOM     84  C   UNL A   1      37.670  31.910  37.557  1.00  0.00     0.001 A 
ATOM     85  C   UNL A   1      38.782  33.866  36.675  1.00  0.00     0.001 A 
ATOM     86  C   UNL A   1      37.976  33.269  37.643  1.00  0.00     0.000 A 
ENDBRANCH  68  81
ENDBRANCH  42  43
ENDBRANCH  35  37
ENDBRANCH  34  35
ENDBRANCH  33  34
ENDBRANCH  32  33
ENDBRANCH  31  32
ENDBRANCH  30  31
ENDBRANCH   1  30
TORSDOF 20
ENDMDL
MODEL 2
REMARK VINA RESULT:     -10.9      4.153      6.192
REMARK SMILES CCc1ccc(S(=O)(=O)N2CCC3(CC2)NC(=O)C[C@H]3C(=O)OCCOCCOCCOC(=O)c2ccc(-c3c4nc(c(-c5ccccc5)c5ccc([nH]5)c(-c5ccccc5)c5nc(c(-c6ccccc6)c6ccc3[nH]6)C=C5)C=C4)cc2)s1
REMARK SMILES IDX 27 1 26 2 25 3 24 4 23 5 21 6 22 7 20 8 10 9 11 10 15 11
REMARK SMILES IDX 12 12 14 13 13 14 16 15 17 16 19 18 18 19 7 20 8 21 9 22
REMARK SMILES IDX 6 23 3 24 4 25 83 26 5 27 2 28 1 29 28 30 29 31 30 32 31 33
REMARK SMILES IDX 32 34 33 35 34 36 35 37 36 38 82 39 37 40 81 41 38 42 39 43
REMARK SMILES IDX 40 44 75 45 41 46 80 47 74 48 76 49 42 50 79 51 73 52 72 53
REMARK SMILES IDX 43 55 65 56 50 57 64 58 51 59 54 60 63 61 77 62 52 63 53 64
REMARK SMILES IDX 62 66 78 67 55 68 44 69 45 70 49 71 46 72 48 73 47 74 66 75
REMARK SMILES IDX 67 76 71 77 68 78 70 79 69 80 56 81 57 82 61 83 58 84 60 85
REMARK SMILES IDX 59 86
REMARK H PARENT 16 17 76 54 54 65
REMARK Flexibility Score: inf
ROOT
ATOM      1  C   UNL A   1      39.175  21.792  26.100  1.00  0.00     0.188 C 
ENDROOT
BRANCH   1   2
ATOM      2  O   UNL A   1      38.299  21.511  25.013  1.00  0.00    -0.376 OA
BRANCH   2   3
ATOM      3  C   UNL A   1      37.403  20.415  25.096  1.00  0.00     0.202 C 
BRANCH   3   4
ATOM      4  C   UNL A   1      35.917  20.786  24.983  1.00  0.00     0.261 C 
BRANCH   4   5
ATOM      5  O   UNL A   1      35.388  21.677  26.000  1.00  0.00    -0.463 OA
BRANCH   5   6
ATOM      6  C   UNL A   1      34.038  21.727  26.060  1.00  0.00     0.311 C 
ATOM      7  O   UNL A   1      33.304  20.778  25.792  1.00  0.00    -0.252 OA
BRANCH   6   8
ATOM      8  C   UNL A   1      33.426  23.089  26.316  1.00  0.00     0.134 C 
ATOM      9  N   UNL A   1      33.835  25.750  23.448  1.00  0.00    -0.197 NA
ATOM     10  C   UNL A   1      33.944  26.086  24.865  1.00  0.00     0.105 C 
ATOM     11  C   UNL A   1      33.765  24.321  23.151  1.00  0.00     0.105 C 
ATOM     12  C   UNL A   1      32.824  25.442  25.676  1.00  0.00     0.046 C 
ATOM     13  C   UNL A   1      32.583  23.682  23.845  1.00  0.00     0.046 C 
ATOM     14  C   UNL A   1      32.547  23.934  25.356  1.00  0.00     0.056 C 
ATOM     15  N   UNL A   1      31.206  23.611  25.807  1.00  0.00    -0.350 N 
ATOM     16  C   UNL A   1      31.150  23.071  27.064  1.00  0.00     0.221 C 
ATOM     17  H   UNL A   1      30.404  23.765  25.256  1.00  0.00     0.164 HD
ATOM     18  C   UNL A   1      32.553  22.943  27.583  1.00  0.00     0.117 C 
ATOM     19  O   UNL A   1      30.124  22.801  27.657  1.00  0.00    -0.275 OA
BRANCH   9  20
ATOM     20  S   UNL A   1      33.403  26.906  22.285  1.00  0.00     0.252 S 
ATOM     21  O   UNL A   1      33.348  26.227  21.004  1.00  0.00    -0.206 OA
ATOM     22  O   UNL A   1      34.208  28.082  22.488  1.00  0.00    -0.206 OA
BRANCH  20  23
ATOM     23  C   UNL A   1      31.735  27.427  22.655  1.00  0.00     0.135 A 
ATOM     24  C   UNL A   1      29.716  28.833  22.923  1.00  0.00     0.006 A 
ATOM     25  C   UNL A   1      29.466  27.505  23.195  1.00  0.00     0.017 A 
ATOM     26  S   UNL A   1      31.356  29.089  22.496  1.00  0.00    -0.127 S 
ATOM     27  C   UNL A   1      30.637  26.717  23.095  1.00  0.00     0.034 A 
BRANCH  24  28
ATOM     28  C   UNL A   1      28.734  29.960  22.996  1.00  0.00     0.043 C 
ATOM     29  C   UNL A   1      27.302  29.450  23.043  1.00  0.00     0.010 C 
ENDBRANCH  24  28
ENDBRANCH  20  23
ENDBRANCH   9  20
ENDBRANCH   6   8
ENDBRANCH   5   6
ENDBRANCH   4   5
ENDBRANCH   3   4
ENDBRANCH   2   3
ENDBRANCH   1   2
BRANCH   1  30
ATOM     30  C   UNL A   1      40.584  21.211  26.101  1.00  0.00     0.188 C 
BRANCH  30  31
ATOM     31  O   UNL A   1      40.914  20.593  27.336  1.00  0.00    -0.376 OA
BRANCH  31  32
ATOM     32  C   UNL A   1      41.936  19.603  27.219  1.00  0.00     0.202 C 
BRANCH  32  33
ATOM     33  C   UNL A   1      42.461  19.615  25.781  1.00  0.00     0.261 C 
BRANCH  33  34
ATOM     34  O   UNL A   1      43.793  19.072  25.659  1.00  0.00    -0.460 OA
BRANCH  34  35
ATOM     35  C   UNL A   1      44.500  19.526  24.597  1.00  0.00     0.338 C 
ATOM     36  O   UNL A   1      44.714  18.922  23.562  1.00  0.00    -0.246 OA
BRANCH  35  37
ATOM     37  C   UNL A   1      44.784  20.960  24.796  1.00  0.00     0.060 A 
ATOM     38  C   UNL A   1      45.300  21.369  26.030  1.00  0.00     0.016 A 
ATOM     39  C   UNL A   1      44.516  21.897  23.805  1.00  0.00     0.016 A 
ATOM     40  C   UNL A   1      45.566  22.710  26.287  1.00  0.00     0.010 A 
ATOM     41  C   UNL A   1      44.752  23.250  24.068  1.00  0.00     0.010 A 
ATOM     42  C   UNL A   1      45.269  23.663  25.312  1.00  0.00    -0.014 A 
BRANCH  42  43
ATOM     43  C   UNL A   1      45.331  25.105  25.634  1.00  0.00     0.031 A 
ATOM     44  C   UNL A   1      46.659  25.794  25.541  1.00  0.00     0.074 A 
ATOM     45  C   UNL A   1      44.238  25.793  26.005  1.00  0.00     0.049 A 
ATOM     46  N   UNL A   1      47.036  26.941  26.041  1.00  0.00    -0.248 NA
ATOM     47  C   UNL A   1      47.707  25.083  24.788  1.00  0.00     0.031 C 
ATOM     48  C   UNL A   1      42.867  25.283  26.007  1.00  0.00     0.029 A 
ATOM     49  N   UNL A   1      44.121  27.078  26.476  1.00  0.00    -0.354 N 
ATOM     50  C   UNL A   1      48.381  27.061  25.716  1.00  0.00     0.074 A 
ATOM     51  C   UNL A   1      48.749  25.881  24.966  1.00  0.00     0.031 C 
ATOM     52  C   UNL A   1      42.049  26.240  26.480  1.00  0.00     0.029 A 
ATOM     53  C   UNL A   1      42.849  27.392  26.886  1.00  0.00     0.049 A 
ATOM     54  H   UNL A   1      44.875  27.710  26.515  1.00  0.00     0.167 HD
ATOM     55  C   UNL A   1      49.233  28.062  26.039  1.00  0.00     0.031 A 
ATOM     56  C   UNL A   1      42.397  28.459  27.573  1.00  0.00     0.031 A 
ATOM     57  C   UNL A   1      48.845  29.235  26.772  1.00  0.00     0.049 A 
ATOM     58  C   UNL A   1      43.378  29.515  28.011  1.00  0.00     0.074 A 
ATOM     59  C   UNL A   1      49.629  30.300  27.178  1.00  0.00     0.029 A 
ATOM     60  N   UNL A   1      47.553  29.500  27.200  1.00  0.00    -0.354 N 
ATOM     61  N   UNL A   1      44.668  29.592  27.785  1.00  0.00    -0.248 NA
ATOM     62  C   UNL A   1      42.843  30.624  28.816  1.00  0.00     0.031 C 
ATOM     63  C   UNL A   1      48.818  31.190  27.890  1.00  0.00     0.029 A 
ATOM     64  C   UNL A   1      47.519  30.706  27.876  1.00  0.00     0.049 A 
ATOM     65  H   UNL A   1      46.775  28.917  27.045  1.00  0.00     0.167 HD
ATOM     66  C   UNL A   1      45.092  30.768  28.390  1.00  0.00     0.074 A 
ATOM     67  C   UNL A   1      43.921  31.376  28.990  1.00  0.00     0.031 C 
ATOM     68  C   UNL A   1      46.338  31.300  28.445  1.00  0.00     0.031 A 
BRANCH  55  69
ATOM     69  C   UNL A   1      50.676  27.888  25.663  1.00  0.00    -0.014 A 
ATOM     70  C   UNL A   1      51.591  27.254  26.515  1.00  0.00     0.009 A 
ATOM     71  C   UNL A   1      51.122  28.366  24.420  1.00  0.00     0.009 A 
ATOM     72  C   UNL A   1      52.933  27.131  26.143  1.00  0.00     0.001 A 
ATOM     73  C   UNL A   1      52.455  28.218  24.040  1.00  0.00     0.001 A 
ATOM     74  C   UNL A   1      53.362  27.609  24.905  1.00  0.00     0.000 A 
ENDBRANCH  55  69
BRANCH  56  75
ATOM     75  C   UNL A   1      40.964  28.550  27.958  1.00  0.00    -0.014 A 
ATOM     76  C   UNL A   1      40.042  29.209  27.131  1.00  0.00     0.009 A 
ATOM     77  C   UNL A   1      40.512  27.993  29.165  1.00  0.00     0.009 A 
ATOM     78  C   UNL A   1      38.703  29.324  27.515  1.00  0.00     0.001 A 
ATOM     79  C   UNL A   1      39.169  28.082  29.532  1.00  0.00     0.001 A 
ATOM     80  C   UNL A   1      38.267  28.757  28.711  1.00  0.00     0.000 A 
ENDBRANCH  56  75
BRANCH  68  81
ATOM     81  C   UNL A   1      46.491  32.637  29.112  1.00  0.00    -0.014 A 
ATOM     82  C   UNL A   1      46.828  32.744  30.469  1.00  0.00     0.009 A 
ATOM     83  C   UNL A   1      46.366  33.805  28.344  1.00  0.00     0.009 A 
ATOM     84  C   UNL A   1      47.015  34.000  31.049  1.00  0.00     0.001 A 
ATOM     85  C   UNL A   1      46.579  35.057  28.920  1.00  0.00     0.001 A 
ATOM     86  C   UNL A   1      46.898  35.154  30.273  1.00  0.00     0.000 A 
ENDBRANCH  68  81
ENDBRANCH  42  43
ENDBRANCH  35  37
ENDBRANCH  34  35
ENDBRANCH  33  34
ENDBRANCH  32  33
ENDBRANCH  31  32
ENDBRANCH  30  31
ENDBRANCH   1  30
TORSDOF 20
ENDMDL
MODEL 3
REMARK VINA RESULT:     -10.6      1.363      5.932
REMARK SMILES CCc1ccc(S(=O)(=O)N2CCC3(CC2)NC(=O)C[C@H]3C(=O)OCCOCCOCCOC(=O)c2ccc(-c3c4nc(c(-c5ccccc5)c5ccc([nH]5)c(-c5ccccc5)c5nc(c(-c6ccccc6)c6ccc3[nH]6)C=C5)C=C4)cc2)s1
REMARK SMILES IDX 27 1 26 2 25 3 24 4 23 5 21 6 22 7 20 8 10 9 11 10 15 11
REMARK SMILES IDX 12 12 14 13 13 14 16 15 17 16 19 18 18 19 7 20 8 21 9 22
REMARK SMILES IDX 6 23 3 24 4 25 83 26 5 27 2 28 1 29 28 30 29 31 30 32 31 33
REMARK SMILES IDX 32 34 33 35 34 36 35 37 36 38 82 39 37 40 81 41 38 42 39 43
REMARK SMILES IDX 40 44 75 45 41 46 80 47 74 48 76 49 42 50 79 51 73 52 72 53
REMARK SMILES IDX 43 55 65 56 50 57 64 58 51 59 54 60 63 61 77 62 52 63 53 64
REMARK SMILES IDX 62 66 78 67 55 68 44 69 45 70 49 71 46 72 48 73 47 74 66 75
REMARK SMILES IDX 67 76 71 77 68 78 70 79 69 80 56 81 57 82 61 83 58 84 60 85
REMARK SMILES IDX 59 86
REMARK H PARENT 16 17 76 54 54 65
REMARK Flexibility Score: inf
ROOT
ATOM      1  C   UNL A   1      39.059  22.058  26.125  1.00  0.00     0.188 C 
ENDROOT
BRANCH   1   2
ATOM      2  O   UNL A   1      38.147  21.512  25.178  1.00  0.00    -0.376 OA
BRANCH   2   3
ATOM      3  C   UNL A   1      36.853  22.075  25.041  1.00  0.00     0.202 C 
BRANCH   3   4
ATOM      4  C   UNL A   1      35.699  21.062  25.095  1.00  0.00     0.261 C 
BRANCH   4   5
ATOM      5  O   UNL A   1      34.770  21.191  26.203  1.00  0.00    -0.463 OA
BRANCH   5   6
ATOM      6  C   UNL A   1      33.507  21.516  25.846  1.00  0.00     0.311 C 
ATOM      7  O   UNL A   1      32.775  20.791  25.177  1.00  0.00    -0.252 OA
BRANCH   6   8
ATOM      8  C   UNL A   1      33.061  22.930  26.164  1.00  0.00     0.134 C 
ATOM      9  N   UNL A   1      33.698  25.628  23.372  1.00  0.00    -0.197 NA
ATOM     10  C   UNL A   1      33.881  25.899  24.796  1.00  0.00     0.105 C 
ATOM     11  C   UNL A   1      33.458  24.227  23.032  1.00  0.00     0.105 C 
ATOM     12  C   UNL A   1      32.715  25.356  25.618  1.00  0.00     0.046 C 
ATOM     13  C   UNL A   1      32.229  23.702  23.738  1.00  0.00     0.046 C 
ATOM     14  C   UNL A   1      32.260  23.902  25.257  1.00  0.00     0.056 C 
ATOM     15  N   UNL A   1      30.903  23.717  25.736  1.00  0.00    -0.350 N 
ATOM     16  C   UNL A   1      30.818  23.142  26.977  1.00  0.00     0.221 C 
ATOM     17  H   UNL A   1      30.110  23.980  25.215  1.00  0.00     0.164 HD
ATOM     18  C   UNL A   1      32.209  22.838  27.450  1.00  0.00     0.117 C 
ATOM     19  O   UNL A   1      29.783  22.969  27.590  1.00  0.00    -0.275 OA
BRANCH   9  20
ATOM     20  S   UNL A   1      33.371  26.865  22.261  1.00  0.00     0.252 S 
ATOM     21  O   UNL A   1      33.322  26.258  20.944  1.00  0.00    -0.206 OA
ATOM     22  O   UNL A   1      34.234  27.981  22.552  1.00  0.00    -0.206 OA
BRANCH  20  23
ATOM     23  C   UNL A   1      31.723  27.462  22.606  1.00  0.00     0.135 A 
ATOM     24  C   UNL A   1      29.761  28.953  22.825  1.00  0.00     0.006 A 
ATOM     25  C   UNL A   1      29.456  27.644  23.129  1.00  0.00     0.017 A 
ATOM     26  S   UNL A   1      31.413  29.133  22.403  1.00  0.00    -0.127 S 
ATOM     27  C   UNL A   1      30.595  26.807  23.057  1.00  0.00     0.034 A 
BRANCH  24  28
ATOM     28  C   UNL A   1      28.824  30.121  22.863  1.00  0.00     0.043 C 
ATOM     29  C   UNL A   1      27.395  29.680  23.137  1.00  0.00     0.010 C 
ENDBRANCH  24  28
ENDBRANCH  20  23
ENDBRANCH   9  20
ENDBRANCH   6   8
ENDBRANCH   5   6
ENDBRANCH   4   5
ENDBRANCH   3   4
ENDBRANCH   2   3
ENDBRANCH   1   2
BRANCH   1  30
ATOM     30  C   UNL A   1      40.384  21.352  26.389  1.00  0.00     0.188 C 
BRANCH  30  31
ATOM     31  O   UNL A   1      41.435  21.849  25.574  1.00  0.00    -0.376 OA
BRANCH  31  32
ATOM     32  C   UNL A   1      42.353  22.683  26.281  1.00  0.00     0.202 C 
BRANCH  32  33
ATOM     33  C   UNL A   1      43.012  23.637  25.281  1.00  0.00     0.261 C 
BRANCH  33  34
ATOM     34  O   UNL A   1      43.544  24.828  25.900  1.00  0.00    -0.460 OA
BRANCH  34  35
ATOM     35  C   UNL A   1      42.815  25.951  25.697  1.00  0.00     0.338 C 
ATOM     36  O   UNL A   1      42.286  26.289  24.653  1.00  0.00    -0.246 OA
BRANCH  35  37
ATOM     37  C   UNL A   1      42.571  26.598  26.999  1.00  0.00     0.060 A 
ATOM     38  C   UNL A   1      41.755  25.941  27.925  1.00  0.00     0.016 A 
ATOM     39  C   UNL A   1      43.103  27.848  27.300  1.00  0.00     0.016 A 
ATOM     40  C   UNL A   1      41.468  26.511  29.161  1.00  0.00     0.010 A 
ATOM     41  C   UNL A   1      42.793  28.440  28.527  1.00  0.00     0.010 A 
ATOM     42  C   UNL A   1      41.967  27.779  29.459  1.00  0.00    -0.014 A 
BRANCH  42  43
ATOM     43  C   UNL A   1      41.502  28.501  30.663  1.00  0.00     0.031 A 
ATOM     44  C   UNL A   1      40.299  29.386  30.537  1.00  0.00     0.074 A 
ATOM     45  C   UNL A   1      42.131  28.381  31.845  1.00  0.00     0.049 A 
ATOM     46  N   UNL A   1      39.877  30.331  31.333  1.00  0.00    -0.248 NA
ATOM     47  C   UNL A   1      39.465  29.179  29.340  1.00  0.00     0.031 C 
ATOM     48  C   UNL A   1      43.225  27.457  32.140  1.00  0.00     0.029 A 
ATOM     49  N   UNL A   1      41.943  29.069  33.018  1.00  0.00    -0.354 N 
ATOM     50  C   UNL A   1      38.763  30.875  30.704  1.00  0.00     0.074 A 
ATOM     51  C   UNL A   1      38.568  30.145  29.471  1.00  0.00     0.031 C 
ATOM     52  C   UNL A   1      43.627  27.651  33.409  1.00  0.00     0.029 A 
ATOM     53  C   UNL A   1      42.874  28.764  33.981  1.00  0.00     0.049 A 
ATOM     54  H   UNL A   1      41.214  29.715  33.156  1.00  0.00     0.167 HD
ATOM     55  C   UNL A   1      37.991  31.907  31.116  1.00  0.00     0.031 A 
ATOM     56  C   UNL A   1      43.132  29.363  35.160  1.00  0.00     0.031 A 
ATOM     57  C   UNL A   1      38.191  32.610  32.353  1.00  0.00     0.049 A 
ATOM     58  C   UNL A   1      42.327  30.574  35.556  1.00  0.00     0.074 A 
ATOM     59  C   UNL A   1      37.486  33.687  32.860  1.00  0.00     0.029 A 
ATOM     60  N   UNL A   1      39.168  32.293  33.285  1.00  0.00    -0.354 N 
ATOM     61  N   UNL A   1      41.331  31.148  34.924  1.00  0.00    -0.248 NA
ATOM     62  C   UNL A   1      42.694  31.229  36.820  1.00  0.00     0.031 C 
ATOM     63  C   UNL A   1      38.066  34.049  34.080  1.00  0.00     0.029 A 
ATOM     64  C   UNL A   1      39.092  33.161  34.359  1.00  0.00     0.049 A 
ATOM     65  H   UNL A   1      39.818  31.559  33.196  1.00  0.00     0.167 HD
ATOM     66  C   UNL A   1      40.933  32.210  35.726  1.00  0.00     0.074 A 
ATOM     67  C   UNL A   1      41.792  32.199  36.893  1.00  0.00     0.031 C 
ATOM     68  C   UNL A   1      39.945  33.115  35.519  1.00  0.00     0.031 A 
BRANCH  55  69
ATOM     69  C   UNL A   1      36.912  32.376  30.184  1.00  0.00    -0.014 A 
ATOM     70  C   UNL A   1      35.596  31.901  30.278  1.00  0.00     0.009 A 
ATOM     71  C   UNL A   1      37.225  33.322  29.195  1.00  0.00     0.009 A 
ATOM     72  C   UNL A   1      34.622  32.341  29.378  1.00  0.00     0.001 A 
ATOM     73  C   UNL A   1      36.244  33.780  28.315  1.00  0.00     0.001 A 
ATOM     74  C   UNL A   1      34.945  33.282  28.401  1.00  0.00     0.000 A 
ENDBRANCH  55  69
BRANCH  56  75
ATOM     75  C   UNL A   1      44.246  28.881  36.017  1.00  0.00    -0.014 A 
ATOM     76  C   UNL A   1      45.537  29.412  35.877  1.00  0.00     0.009 A 
ATOM     77  C   UNL A   1      44.030  27.871  36.968  1.00  0.00     0.009 A 
ATOM     78  C   UNL A   1      46.590  28.930  36.659  1.00  0.00     0.001 A 
ATOM     79  C   UNL A   1      45.077  27.411  37.769  1.00  0.00     0.001 A 
ATOM     80  C   UNL A   1      46.359  27.934  37.607  1.00  0.00     0.000 A 
ENDBRANCH  56  75
BRANCH  68  81
ATOM     81  C   UNL A   1      39.688  34.122  36.603  1.00  0.00    -0.014 A 
ATOM     82  C   UNL A   1      38.908  33.809  37.725  1.00  0.00     0.009 A 
ATOM     83  C   UNL A   1      40.304  35.381  36.528  1.00  0.00     0.009 A 
ATOM     84  C   UNL A   1      38.731  34.748  38.742  1.00  0.00     0.001 A 
ATOM     85  C   UNL A   1      40.147  36.308  37.558  1.00  0.00     0.001 A 
ATOM     86  C   UNL A   1      39.356  35.993  38.662  1.00  0.00     0.000 A 
ENDBRANCH  68  81
ENDBRANCH  42  43
ENDBRANCH  35  37
ENDBRANCH  34  35
ENDBRANCH  33  34
ENDBRANCH  32  33
ENDBRANCH  31  32
ENDBRANCH  30  31
ENDBRANCH   1  30
TORSDOF 20
ENDMDL
