MODEL 1
REMARK VINA RESULT:     -10.9      0.000      0.000
REMARK SMILES CC(=O)Nc1cccc(-c2cc(F)ccc2C(=O)OCCOCCOCCOC(=O)c2ccc(-c3c4nc(c(-c5ccccc5)c5ccc([nH]5)c(-c5ccccc5)c5nc(c(-c6ccccc6)c6ccc3[nH]6)C=C5)C=C4)cc2)c1
REMARK SMILES IDX 23 1 22 2 21 3 20 4 19 5 17 6 18 7 16 8 10 9 11 10 12 11
REMARK SMILES IDX 15 12 13 13 14 14 9 15 5 16 6 17 79 18 7 19 8 20 4 21 1 22
REMARK SMILES IDX 2 23 3 24 24 26 25 27 26 28 27 29 28 30 29 31 30 32 31 33
REMARK SMILES IDX 32 34 78 35 33 36 77 37 34 38 35 39 36 40 71 41 37 42 76 43
REMARK SMILES IDX 70 44 72 45 38 46 75 47 69 48 68 49 39 51 61 52 46 53 60 54
REMARK SMILES IDX 47 55 50 56 59 57 73 58 48 59 49 60 58 62 74 63 51 64 40 65
REMARK SMILES IDX 41 66 45 67 42 68 44 69 43 70 62 71 63 72 67 73 64 74 66 75
REMARK SMILES IDX 65 76 52 77 53 78 57 79 54 80 56 81 55 82
REMARK H PARENT 4 25 72 50 50 61
REMARK Flexibility Score: inf
ROOT
ATOM      1  C   UNL A   1      40.386  22.131  26.702  1.00  0.00     0.188 C 
ENDROOT
BRANCH   1   2
ATOM      2  O   UNL A   1      39.008  21.990  26.409  1.00  0.00    -0.376 OA
BRANCH   2   3
ATOM      3  C   UNL A   1      38.597  21.078  25.398  1.00  0.00     0.202 C 
BRANCH   3   4
ATOM      4  C   UNL A   1      37.116  20.924  25.028  1.00  0.00     0.261 C 
BRANCH   4   5
ATOM      5  O   UNL A   1      36.321  22.069  25.366  1.00  0.00    -0.460 OA
BRANCH   5   6
ATOM      6  C   UNL A   1      35.404  22.462  24.454  1.00  0.00     0.338 C 
ATOM      7  O   UNL A   1      35.547  22.457  23.242  1.00  0.00    -0.246 OA
BRANCH   6   8
ATOM      8  C   UNL A   1      34.090  22.773  25.090  1.00  0.00     0.068 A 
ATOM      9  C   UNL A   1      32.996  21.873  25.211  1.00  0.00    -0.001 A 
ATOM     10  C   UNL A   1      31.855  22.335  25.899  1.00  0.00     0.048 A 
ATOM     11  C   UNL A   1      31.781  23.638  26.387  1.00  0.00     0.123 A 
ATOM     12  C   UNL A   1      33.986  24.093  25.576  1.00  0.00     0.019 A 
ATOM     13  F   UNL A   1      30.674  24.042  27.024  1.00  0.00    -0.207 F 
ATOM     14  C   UNL A   1      32.828  24.529  26.211  1.00  0.00     0.040 A 
BRANCH   9  15
ATOM     15  C   UNL A   1      32.970  20.520  24.606  1.00  0.00    -0.015 A 
ATOM     16  C   UNL A   1      33.986  18.307  24.396  1.00  0.00     0.041 A 
ATOM     17  C   UNL A   1      33.268  18.095  23.217  1.00  0.00     0.026 A 
ATOM     18  C   UNL A   1      33.782  19.490  25.106  1.00  0.00     0.034 A 
ATOM     19  C   UNL A   1      32.364  19.053  22.759  1.00  0.00     0.003 A 
ATOM     20  C   UNL A   1      32.229  20.263  23.440  1.00  0.00     0.009 A 
BRANCH  16  21
ATOM     21  N   UNL A   1      34.985  17.372  24.720  1.00  0.00    -0.326 N 
ATOM     22  C   UNL A   1      33.665  15.300  25.173  1.00  0.00     0.114 C 
ATOM     23  C   UNL A   1      34.929  16.112  25.241  1.00  0.00     0.221 C 
ATOM     24  O   UNL A   1      35.954  15.630  25.729  1.00  0.00    -0.275 OA
ATOM     25  H   UNL A   1      35.899  17.687  24.536  1.00  0.00     0.169 HD
ENDBRANCH  16  21
ENDBRANCH   9  15
ENDBRANCH   6   8
ENDBRANCH   5   6
ENDBRANCH   4   5
ENDBRANCH   3   4
ENDBRANCH   2   3
ENDBRANCH   1   2
BRANCH   1  26
ATOM     26  C   UNL A   1      41.400  21.090  26.178  1.00  0.00     0.188 C 
BRANCH  26  27
ATOM     27  O   UNL A   1      42.751  21.206  26.546  1.00  0.00    -0.376 OA
BRANCH  27  28
ATOM     28  C   UNL A   1      43.783  20.979  25.604  1.00  0.00     0.202 C 
BRANCH  28  29
ATOM     29  C   UNL A   1      44.346  22.016  24.612  1.00  0.00     0.261 C 
BRANCH  29  30
ATOM     30  O   UNL A   1      43.744  23.312  24.573  1.00  0.00    -0.460 OA
BRANCH  30  31
ATOM     31  C   UNL A   1      44.535  24.335  24.992  1.00  0.00     0.338 C 
ATOM     32  O   UNL A   1      45.634  24.639  24.572  1.00  0.00    -0.246 OA
BRANCH  31  33
ATOM     33  C   UNL A   1      43.761  25.179  25.923  1.00  0.00     0.060 A 
ATOM     34  C   UNL A   1      43.978  26.565  25.913  1.00  0.00     0.016 A 
ATOM     35  C   UNL A   1      42.850  24.610  26.812  1.00  0.00     0.016 A 
ATOM     36  C   UNL A   1      43.293  27.386  26.808  1.00  0.00     0.010 A 
ATOM     37  C   UNL A   1      42.186  25.432  27.727  1.00  0.00     0.010 A 
ATOM     38  C   UNL A   1      42.424  26.820  27.747  1.00  0.00    -0.014 A 
BRANCH  38  39
ATOM     39  C   UNL A   1      41.901  27.646  28.862  1.00  0.00     0.031 A 
ATOM     40  C   UNL A   1      42.599  27.578  30.194  1.00  0.00     0.074 A 
ATOM     41  C   UNL A   1      40.831  28.445  28.700  1.00  0.00     0.049 A 
ATOM     42  N   UNL A   1      42.286  28.157  31.324  1.00  0.00    -0.248 NA
ATOM     43  C   UNL A   1      43.809  26.741  30.259  1.00  0.00     0.031 C 
ATOM     44  C   UNL A   1      40.090  28.632  27.454  1.00  0.00     0.029 A 
ATOM     45  N   UNL A   1      40.172  29.240  29.607  1.00  0.00    -0.354 N 
ATOM     46  C   UNL A   1      43.244  27.737  32.238  1.00  0.00     0.074 A 
ATOM     47  C   UNL A   1      44.142  26.846  31.537  1.00  0.00     0.031 C 
ATOM     48  C   UNL A   1      39.063  29.472  27.680  1.00  0.00     0.029 A 
ATOM     49  C   UNL A   1      39.054  29.851  29.093  1.00  0.00     0.049 A 
ATOM     50  H   UNL A   1      40.472  29.359  30.536  1.00  0.00     0.167 HD
ATOM     51  C   UNL A   1      43.363  28.061  33.547  1.00  0.00     0.031 A 
ATOM     52  C   UNL A   1      38.115  30.602  29.701  1.00  0.00     0.031 A 
ATOM     53  C   UNL A   1      42.472  28.947  34.246  1.00  0.00     0.049 A 
ATOM     54  C   UNL A   1      38.240  30.895  31.176  1.00  0.00     0.074 A 
ATOM     55  C   UNL A   1      42.541  29.369  35.563  1.00  0.00     0.029 A 
ATOM     56  N   UNL A   1      41.346  29.533  33.694  1.00  0.00    -0.354 N 
ATOM     57  N   UNL A   1      39.181  30.539  32.016  1.00  0.00    -0.248 NA
ATOM     58  C   UNL A   1      37.171  31.704  31.784  1.00  0.00     0.031 C 
ATOM     59  C   UNL A   1      41.415  30.154  35.827  1.00  0.00     0.029 A 
ATOM     60  C   UNL A   1      40.689  30.282  34.655  1.00  0.00     0.049 A 
ATOM     61  H   UNL A   1      41.056  29.433  32.759  1.00  0.00     0.167 HD
ATOM     62  C   UNL A   1      38.836  31.108  33.237  1.00  0.00     0.074 A 
ATOM     63  C   UNL A   1      37.612  31.849  33.025  1.00  0.00     0.031 C 
ATOM     64  C   UNL A   1      39.477  31.024  34.429  1.00  0.00     0.031 A 
BRANCH  51  65
ATOM     65  C   UNL A   1      44.476  27.424  34.330  1.00  0.00    -0.014 A 
ATOM     66  C   UNL A   1      45.733  28.033  34.452  1.00  0.00     0.009 A 
ATOM     67  C   UNL A   1      44.229  26.226  35.021  1.00  0.00     0.009 A 
ATOM     68  C   UNL A   1      46.727  27.445  35.238  1.00  0.00     0.001 A 
ATOM     69  C   UNL A   1      45.215  25.656  35.827  1.00  0.00     0.001 A 
ATOM     70  C   UNL A   1      46.465  26.263  35.931  1.00  0.00     0.000 A 
ENDBRANCH  51  65
BRANCH  52  71
ATOM     71  C   UNL A   1      36.934  31.099  28.940  1.00  0.00    -0.014 A 
ATOM     72  C   UNL A   1      36.815  32.455  28.596  1.00  0.00     0.009 A 
ATOM     73  C   UNL A   1      35.884  30.225  28.616  1.00  0.00     0.009 A 
ATOM     74  C   UNL A   1      35.651  32.931  27.985  1.00  0.00     0.001 A 
ATOM     75  C   UNL A   1      34.738  30.697  27.972  1.00  0.00     0.001 A 
ATOM     76  C   UNL A   1      34.616  32.053  27.672  1.00  0.00     0.000 A 
ENDBRANCH  52  71
BRANCH  64  77
ATOM     77  C   UNL A   1      38.899  31.794  35.586  1.00  0.00    -0.014 A 
ATOM     78  C   UNL A   1      38.156  31.159  36.594  1.00  0.00     0.009 A 
ATOM     79  C   UNL A   1      39.144  33.173  35.691  1.00  0.00     0.009 A 
ATOM     80  C   UNL A   1      37.640  31.897  37.662  1.00  0.00     0.001 A 
ATOM     81  C   UNL A   1      38.658  33.900  36.776  1.00  0.00     0.001 A 
ATOM     82  C   UNL A   1      37.896  33.265  37.755  1.00  0.00     0.000 A 
ENDBRANCH  64  77
ENDBRANCH  38  39
ENDBRANCH  31  33
ENDBRANCH  30  31
ENDBRANCH  29  30
ENDBRANCH  28  29
ENDBRANCH  27  28
ENDBRANCH  26  27
ENDBRANCH   1  26
TORSDOF 19
ENDMDL
MODEL 2
REMARK VINA RESULT:     -10.7      2.565      7.321
REMARK SMILES CC(=O)Nc1cccc(-c2cc(F)ccc2C(=O)OCCOCCOCCOC(=O)c2ccc(-c3c4nc(c(-c5ccccc5)c5ccc([nH]5)c(-c5ccccc5)c5nc(c(-c6ccccc6)c6ccc3[nH]6)C=C5)C=C4)cc2)c1
REMARK SMILES IDX 23 1 22 2 21 3 20 4 19 5 17 6 18 7 16 8 10 9 11 10 12 11
REMARK SMILES IDX 15 12 13 13 14 14 9 15 5 16 6 17 79 18 7 19 8 20 4 21 1 22
REMARK SMILES IDX 2 23 3 24 24 26 25 27 26 28 27 29 28 30 29 31 30 32 31 33
REMARK SMILES IDX 32 34 78 35 33 36 77 37 34 38 35 39 36 40 71 41 37 42 76 43
REMARK SMILES IDX 70 44 72 45 38 46 75 47 69 48 68 49 39 51 61 52 46 53 60 54
REMARK SMILES IDX 47 55 50 56 59 57 73 58 48 59 49 60 58 62 74 63 51 64 40 65
REMARK SMILES IDX 41 66 45 67 42 68 44 69 43 70 62 71 63 72 67 73 64 74 66 75
REMARK SMILES IDX 65 76 52 77 53 78 57 79 54 80 56 81 55 82
REMARK H PARENT 4 25 72 50 50 61
REMARK Flexibility Score: inf
ROOT
ATOM      1  C   UNL A   1      38.713  21.799  25.773  1.00  0.00     0.188 C 
ENDROOT
BRANCH   1   2
ATOM      2  O   UNL A   1      37.859  22.899  26.034  1.00  0.00    -0.376 OA
BRANCH   2   3
ATOM      3  C   UNL A   1      36.517  22.869  25.565  1.00  0.00     0.202 C 
BRANCH   3   4
ATOM      4  C   UNL A   1      35.905  24.078  24.845  1.00  0.00     0.261 C 
BRANCH   4   5
ATOM      5  O   UNL A   1      34.833  24.693  25.573  1.00  0.00    -0.460 OA
BRANCH   5   6
ATOM      6  C   UNL A   1      33.723  25.009  24.868  1.00  0.00     0.338 C 
ATOM      7  O   UNL A   1      33.697  25.504  23.753  1.00  0.00    -0.246 OA
BRANCH   6   8
ATOM      8  C   UNL A   1      32.482  24.535  25.548  1.00  0.00     0.068 A 
ATOM      9  C   UNL A   1      31.367  25.345  25.893  1.00  0.00    -0.001 A 
ATOM     10  C   UNL A   1      30.259  24.700  26.481  1.00  0.00     0.048 A 
ATOM     11  C   UNL A   1      30.282  23.336  26.765  1.00  0.00     0.123 A 
ATOM     12  C   UNL A   1      32.491  23.159  25.862  1.00  0.00     0.019 A 
ATOM     13  F   UNL A   1      29.214  22.764  27.336  1.00  0.00    -0.207 F 
ATOM     14  C   UNL A   1      31.397  22.564  26.482  1.00  0.00     0.040 A 
BRANCH   9  15
ATOM     15  C   UNL A   1      31.335  26.818  25.729  1.00  0.00    -0.015 A 
ATOM     16  C   UNL A   1      31.039  28.749  24.260  1.00  0.00     0.041 A 
ATOM     17  C   UNL A   1      31.665  29.560  25.209  1.00  0.00     0.026 A 
ATOM     18  C   UNL A   1      30.829  27.403  24.557  1.00  0.00     0.034 A 
ATOM     19  C   UNL A   1      32.073  29.030  26.433  1.00  0.00     0.003 A 
ATOM     20  C   UNL A   1      31.923  27.666  26.683  1.00  0.00     0.009 A 
BRANCH  16  21
ATOM     21  N   UNL A   1      30.790  29.310  22.994  1.00  0.00    -0.326 N 
ATOM     22  C   UNL A   1      28.682  30.595  23.376  1.00  0.00     0.114 C 
ATOM     23  C   UNL A   1      29.709  29.964  22.477  1.00  0.00     0.221 C 
ATOM     24  O   UNL A   1      29.616  30.071  21.253  1.00  0.00    -0.275 OA
ATOM     25  H   UNL A   1      31.537  29.211  22.361  1.00  0.00     0.169 HD
ENDBRANCH  16  21
ENDBRANCH   9  15
ENDBRANCH   6   8
ENDBRANCH   5   6
ENDBRANCH   4   5
ENDBRANCH   3   4
ENDBRANCH   2   3
ENDBRANCH   1   2
BRANCH   1  26
ATOM     26  C   UNL A   1      40.103  21.722  26.441  1.00  0.00     0.188 C 
BRANCH  26  27
ATOM     27  O   UNL A   1      41.105  20.936  25.847  1.00  0.00    -0.376 OA
BRANCH  27  28
ATOM     28  C   UNL A   1      42.471  21.147  26.152  1.00  0.00     0.202 C 
BRANCH  28  29
ATOM     29  C   UNL A   1      43.433  22.080  25.389  1.00  0.00     0.261 C 
BRANCH  29  30
ATOM     30  O   UNL A   1      42.943  23.352  24.958  1.00  0.00    -0.460 OA
BRANCH  30  31
ATOM     31  C   UNL A   1      43.754  24.409  25.222  1.00  0.00     0.338 C 
ATOM     32  O   UNL A   1      44.768  24.729  24.633  1.00  0.00    -0.246 OA
BRANCH  31  33
ATOM     33  C   UNL A   1      43.102  25.263  26.234  1.00  0.00     0.060 A 
ATOM     34  C   UNL A   1      43.615  26.550  26.460  1.00  0.00     0.016 A 
ATOM     35  C   UNL A   1      42.013  24.795  26.968  1.00  0.00     0.016 A 
ATOM     36  C   UNL A   1      43.047  27.366  27.437  1.00  0.00     0.010 A 
ATOM     37  C   UNL A   1      41.463  25.605  27.966  1.00  0.00     0.010 A 
ATOM     38  C   UNL A   1      41.994  26.884  28.223  1.00  0.00    -0.014 A 
BRANCH  38  39
ATOM     39  C   UNL A   1      41.565  27.637  29.427  1.00  0.00     0.031 A 
ATOM     40  C   UNL A   1      40.346  28.513  29.328  1.00  0.00     0.074 A 
ATOM     41  C   UNL A   1      42.241  27.546  30.586  1.00  0.00     0.049 A 
ATOM     42  N   UNL A   1      39.823  29.310  30.224  1.00  0.00    -0.248 NA
ATOM     43  C   UNL A   1      39.621  28.489  28.045  1.00  0.00     0.031 C 
ATOM     44  C   UNL A   1      43.412  26.706  30.826  1.00  0.00     0.029 A 
ATOM     45  N   UNL A   1      42.038  28.191  31.783  1.00  0.00    -0.354 N 
ATOM     46  C   UNL A   1      38.725  29.898  29.607  1.00  0.00     0.074 A 
ATOM     47  C   UNL A   1      38.663  29.377  28.259  1.00  0.00     0.031 C 
ATOM     48  C   UNL A   1      43.838  26.902  32.087  1.00  0.00     0.029 A 
ATOM     49  C   UNL A   1      42.993  27.908  32.729  1.00  0.00     0.049 A 
ATOM     50  H   UNL A   1      41.281  28.798  31.947  1.00  0.00     0.167 HD
ATOM     51  C   UNL A   1      37.850  30.795  30.118  1.00  0.00     0.031 A 
ATOM     52  C   UNL A   1      43.182  28.426  33.959  1.00  0.00     0.031 A 
ATOM     53  C   UNL A   1      37.909  31.313  31.458  1.00  0.00     0.049 A 
ATOM     54  C   UNL A   1      42.225  29.472  34.477  1.00  0.00     0.074 A 
ATOM     55  C   UNL A   1      37.038  32.193  32.077  1.00  0.00     0.029 A 
ATOM     56  N   UNL A   1      38.899  31.012  32.377  1.00  0.00    -0.354 N 
ATOM     57  N   UNL A   1      41.159  29.978  33.906  1.00  0.00    -0.248 NA
ATOM     58  C   UNL A   1      42.497  30.013  35.819  1.00  0.00     0.031 C 
ATOM     59  C   UNL A   1      37.541  32.480  33.348  1.00  0.00     0.029 A 
ATOM     60  C   UNL A   1      38.682  31.721  33.547  1.00  0.00     0.049 A 
ATOM     61  H   UNL A   1      39.645  30.389  32.225  1.00  0.00     0.167 HD
ATOM     62  C   UNL A   1      40.618  30.866  34.830  1.00  0.00     0.074 A 
ATOM     63  C   UNL A   1      41.459  30.815  36.005  1.00  0.00     0.031 C 
ATOM     64  C   UNL A   1      39.520  31.653  34.714  1.00  0.00     0.031 A 
BRANCH  51  65
ATOM     65  C   UNL A   1      36.768  31.314  29.213  1.00  0.00    -0.014 A 
ATOM     66  C   UNL A   1      35.663  30.525  28.860  1.00  0.00     0.009 A 
ATOM     67  C   UNL A   1      36.824  32.645  28.770  1.00  0.00     0.009 A 
ATOM     68  C   UNL A   1      34.643  31.057  28.067  1.00  0.00     0.001 A 
ATOM     69  C   UNL A   1      35.790  33.181  28.001  1.00  0.00     0.001 A 
ATOM     70  C   UNL A   1      34.703  32.385  27.646  1.00  0.00     0.000 A 
ENDBRANCH  51  65
BRANCH  52  71
ATOM     71  C   UNL A   1      44.351  28.012  34.784  1.00  0.00    -0.014 A 
ATOM     72  C   UNL A   1      45.586  28.670  34.669  1.00  0.00     0.009 A 
ATOM     73  C   UNL A   1      44.252  26.906  35.643  1.00  0.00     0.009 A 
ATOM     74  C   UNL A   1      46.706  28.200  35.362  1.00  0.00     0.001 A 
ATOM     75  C   UNL A   1      45.364  26.462  36.363  1.00  0.00     0.001 A 
ATOM     76  C   UNL A   1      46.593  27.100  36.209  1.00  0.00     0.000 A 
ENDBRANCH  52  71
BRANCH  64  77
ATOM     77  C   UNL A   1      39.133  32.486  35.907  1.00  0.00    -0.014 A 
ATOM     78  C   UNL A   1      39.668  33.767  36.115  1.00  0.00     0.009 A 
ATOM     79  C   UNL A   1      38.176  31.995  36.811  1.00  0.00     0.009 A 
ATOM     80  C   UNL A   1      39.282  34.521  37.226  1.00  0.00     0.001 A 
ATOM     81  C   UNL A   1      37.767  32.765  37.899  1.00  0.00     0.001 A 
ATOM     82  C   UNL A   1      38.328  34.023  38.113  1.00  0.00     0.000 A 
ENDBRANCH  64  77
ENDBRANCH  38  39
ENDBRANCH  31  33
ENDBRANCH  30  31
ENDBRANCH  29  30
ENDBRANCH  28  29
ENDBRANCH  27  28
ENDBRANCH  26  27
ENDBRANCH   1  26
TORSDOF 19
ENDMDL
MODEL 3
REMARK VINA RESULT:     -10.5      1.875      3.550
REMARK SMILES CC(=O)Nc1cccc(-c2cc(F)ccc2C(=O)OCCOCCOCCOC(=O)c2ccc(-c3c4nc(c(-c5ccccc5)c5ccc([nH]5)c(-c5ccccc5)c5nc(c(-c6ccccc6)c6ccc3[nH]6)C=C5)C=C4)cc2)c1
REMARK SMILES IDX 23 1 22 2 21 3 20 4 19 5 17 6 18 7 16 8 10 9 11 10 12 11
REMARK SMILES IDX 15 12 13 13 14 14 9 15 5 16 6 17 79 18 7 19 8 20 4 21 1 22
REMARK SMILES IDX 2 23 3 24 24 26 25 27 26 28 27 29 28 30 29 31 30 32 31 33
REMARK SMILES IDX 32 34 78 35 33 36 77 37 34 38 35 39 36 40 71 41 37 42 76 43
REMARK SMILES IDX 70 44 72 45 38 46 75 47 69 48 68 49 39 51 61 52 46 53 60 54
REMARK SMILES IDX 47 55 50 56 59 57 73 58 48 59 49 60 58 62 74 63 51 64 40 65
REMARK SMILES IDX 41 66 45 67 42 68 44 69 43 70 62 71 63 72 67 73 64 74 66 75
REMARK SMILES IDX 65 76 52 77 53 78 57 79 54 80 56 81 55 82
REMARK H PARENT 4 25 72 50 50 61
REMARK Flexibility Score: inf
ROOT
ATOM      1  C   UNL A   1      40.166  20.064  25.899  1.00  0.00     0.188 C 
ENDROOT
BRANCH   1   2
ATOM      2  O   UNL A   1      39.982  21.431  25.578  1.00  0.00    -0.376 OA
BRANCH   2   3
ATOM      3  C   UNL A   1      39.101  22.223  26.365  1.00  0.00     0.202 C 
BRANCH   3   4
ATOM      4  C   UNL A   1      37.800  22.780  25.775  1.00  0.00     0.261 C 
BRANCH   4   5
ATOM      5  O   UNL A   1      37.438  22.181  24.523  1.00  0.00    -0.460 OA
BRANCH   5   6
ATOM      6  C   UNL A   1      36.377  22.716  23.878  1.00  0.00     0.338 C 
ATOM      7  O   UNL A   1      36.421  23.577  23.013  1.00  0.00    -0.246 OA
BRANCH   6   8
ATOM      8  C   UNL A   1      35.106  22.017  24.229  1.00  0.00     0.068 A 
ATOM      9  C   UNL A   1      33.808  22.594  24.195  1.00  0.00    -0.001 A 
ATOM     10  C   UNL A   1      32.720  21.753  24.507  1.00  0.00     0.048 A 
ATOM     11  C   UNL A   1      32.916  20.427  24.890  1.00  0.00     0.123 A 
ATOM     12  C   UNL A   1      35.283  20.678  24.637  1.00  0.00     0.019 A 
ATOM     13  F   UNL A   1      31.857  19.664  25.190  1.00  0.00    -0.207 F 
ATOM     14  C   UNL A   1      34.189  19.889  24.980  1.00  0.00     0.040 A 
BRANCH   9  15
ATOM     15  C   UNL A   1      33.550  24.027  23.917  1.00  0.00    -0.015 A 
ATOM     16  C   UNL A   1      32.849  26.221  24.738  1.00  0.00     0.041 A 
ATOM     17  C   UNL A   1      32.631  26.636  23.422  1.00  0.00     0.026 A 
ATOM     18  C   UNL A   1      33.362  24.944  24.964  1.00  0.00     0.034 A 
ATOM     19  C   UNL A   1      32.921  25.787  22.355  1.00  0.00     0.003 A 
ATOM     20  C   UNL A   1      33.361  24.487  22.602  1.00  0.00     0.009 A 
BRANCH  16  21
ATOM     21  N   UNL A   1      32.397  27.066  25.766  1.00  0.00    -0.326 N 
ATOM     22  C   UNL A   1      34.389  28.511  26.195  1.00  0.00     0.114 C 
ATOM     23  C   UNL A   1      33.045  27.955  26.575  1.00  0.00     0.221 C 
ATOM     24  O   UNL A   1      32.482  28.331  27.605  1.00  0.00    -0.275 OA
ATOM     25  H   UNL A   1      31.429  27.006  25.935  1.00  0.00     0.169 HD
ENDBRANCH  16  21
ENDBRANCH   9  15
ENDBRANCH   6   8
ENDBRANCH   5   6
ENDBRANCH   4   5
ENDBRANCH   3   4
ENDBRANCH   2   3
ENDBRANCH   1   2
BRANCH   1  26
ATOM     26  C   UNL A   1      41.578  19.527  26.221  1.00  0.00     0.188 C 
BRANCH  26  27
ATOM     27  O   UNL A   1      42.532  19.455  25.192  1.00  0.00    -0.376 OA
BRANCH  27  28
ATOM     28  C   UNL A   1      43.790  20.093  25.322  1.00  0.00     0.202 C 
BRANCH  28  29
ATOM     29  C   UNL A   1      44.024  21.542  25.792  1.00  0.00     0.261 C 
BRANCH  29  30
ATOM     30  O   UNL A   1      43.163  22.565  25.288  1.00  0.00    -0.460 OA
BRANCH  30  31
ATOM     31  C   UNL A   1      43.745  23.778  25.103  1.00  0.00     0.338 C 
ATOM     32  O   UNL A   1      44.532  24.096  24.232  1.00  0.00    -0.246 OA
BRANCH  31  33
ATOM     33  C   UNL A   1      43.115  24.749  26.018  1.00  0.00     0.060 A 
ATOM     34  C   UNL A   1      43.628  26.054  26.073  1.00  0.00     0.016 A 
ATOM     35  C   UNL A   1      42.046  24.373  26.831  1.00  0.00     0.016 A 
ATOM     36  C   UNL A   1      43.081  26.983  26.956  1.00  0.00     0.010 A 
ATOM     37  C   UNL A   1      41.518  25.299  27.736  1.00  0.00     0.010 A 
ATOM     38  C   UNL A   1      42.050  26.599  27.821  1.00  0.00    -0.014 A 
BRANCH  38  39
ATOM     39  C   UNL A   1      41.648  27.494  28.935  1.00  0.00     0.031 A 
ATOM     40  C   UNL A   1      42.389  27.391  30.240  1.00  0.00     0.074 A 
ATOM     41  C   UNL A   1      40.648  28.382  28.793  1.00  0.00     0.049 A 
ATOM     42  N   UNL A   1      42.175  28.020  31.367  1.00  0.00    -0.248 NA
ATOM     43  C   UNL A   1      43.522  26.450  30.281  1.00  0.00     0.031 C 
ATOM     44  C   UNL A   1      39.878  28.609  27.572  1.00  0.00     0.029 A 
ATOM     45  N   UNL A   1      40.100  29.253  29.704  1.00  0.00    -0.354 N 
ATOM     46  C   UNL A   1      43.127  27.535  32.255  1.00  0.00     0.074 A 
ATOM     47  C   UNL A   1      43.913  26.552  31.542  1.00  0.00     0.031 C 
ATOM     48  C   UNL A   1      38.941  29.543  27.815  1.00  0.00     0.029 A 
ATOM     49  C   UNL A   1      39.022  29.951  29.217  1.00  0.00     0.049 A 
ATOM     50  H   UNL A   1      40.446  29.365  30.618  1.00  0.00     0.167 HD
ATOM     51  C   UNL A   1      43.326  27.875  33.549  1.00  0.00     0.031 A 
ATOM     52  C   UNL A   1      38.178  30.797  29.841  1.00  0.00     0.031 A 
ATOM     53  C   UNL A   1      42.546  28.852  34.260  1.00  0.00     0.049 A 
ATOM     54  C   UNL A   1      38.387  31.109  31.302  1.00  0.00     0.074 A 
ATOM     55  C   UNL A   1      42.705  29.295  35.562  1.00  0.00     0.029 A 
ATOM     56  N   UNL A   1      41.457  29.526  33.735  1.00  0.00    -0.354 N 
ATOM     57  N   UNL A   1      39.326  30.687  32.115  1.00  0.00    -0.248 NA
ATOM     58  C   UNL A   1      37.421  32.024  31.930  1.00  0.00     0.031 C 
ATOM     59  C   UNL A   1      41.666  30.184  35.848  1.00  0.00     0.029 A 
ATOM     60  C   UNL A   1      40.907  30.352  34.701  1.00  0.00     0.049 A 
ATOM     61  H   UNL A   1      41.122  29.433  32.815  1.00  0.00     0.167 HD
ATOM     62  C   UNL A   1      39.082  31.311  33.334  1.00  0.00     0.074 A 
ATOM     63  C   UNL A   1      37.922  32.155  33.150  1.00  0.00     0.031 C 
ATOM     64  C   UNL A   1      39.759  31.196  34.503  1.00  0.00     0.031 A 
BRANCH  51  65
ATOM     65  C   UNL A   1      44.407  27.156  34.306  1.00  0.00    -0.014 A 
ATOM     66  C   UNL A   1      45.714  27.661  34.381  1.00  0.00     0.009 A 
ATOM     67  C   UNL A   1      44.085  25.991  35.020  1.00  0.00     0.009 A 
ATOM     68  C   UNL A   1      46.681  27.002  35.143  1.00  0.00     0.001 A 
ATOM     69  C   UNL A   1      45.047  25.350  35.803  1.00  0.00     0.001 A 
ATOM     70  C   UNL A   1      46.345  25.853  35.859  1.00  0.00     0.000 A 
ENDBRANCH  51  65
BRANCH  52  71
ATOM     71  C   UNL A   1      37.017  31.383  29.113  1.00  0.00    -0.014 A 
ATOM     72  C   UNL A   1      37.098  32.658  28.532  1.00  0.00     0.009 A 
ATOM     73  C   UNL A   1      35.797  30.691  29.058  1.00  0.00     0.009 A 
ATOM     74  C   UNL A   1      35.969  33.245  27.953  1.00  0.00     0.001 A 
ATOM     75  C   UNL A   1      34.680  31.265  28.446  1.00  0.00     0.001 A 
ATOM     76  C   UNL A   1      34.764  32.548  27.908  1.00  0.00     0.000 A 
ENDBRANCH  52  71
BRANCH  64  77
ATOM     77  C   UNL A   1      39.298  32.039  35.661  1.00  0.00    -0.014 A 
ATOM     78  C   UNL A   1      39.796  33.335  35.872  1.00  0.00     0.009 A 
ATOM     79  C   UNL A   1      38.311  31.542  36.528  1.00  0.00     0.009 A 
ATOM     80  C   UNL A   1      39.343  34.098  36.950  1.00  0.00     0.001 A 
ATOM     81  C   UNL A   1      37.835  32.321  37.582  1.00  0.00     0.001 A 
ATOM     82  C   UNL A   1      38.359  33.594  37.800  1.00  0.00     0.000 A 
ENDBRANCH  64  77
ENDBRANCH  38  39
ENDBRANCH  31  33
ENDBRANCH  30  31
ENDBRANCH  29  30
ENDBRANCH  28  29
ENDBRANCH  27  28
ENDBRANCH  26  27
ENDBRANCH   1  26
TORSDOF 19
ENDMDL
