MODEL 1
REMARK VINA RESULT:      -8.4      0.000      0.000
REMARK SMILES C[C@H]([N@H+](CCC(=O)OCCOCCOCCOC(=O)c1ccc(-c2c3nc(c(-c4ccccc4)c4ccc([nH]4)c(-c4ccccc4)c4nc(c(-c5ccccc5)c5ccc2[nH]5)C=C4)C=C3)cc1)C(C)(C)C)C1(C)CC1
REMARK SMILES IDX 12 1 11 2 10 3 9 4 8 5 6 6 7 7 5 8 4 9 3 10 2 12 1 13 72 14
REMARK SMILES IDX 73 15 74 16 75 17 68 18 69 19 70 20 71 21 13 22 14 23 15 24
REMARK SMILES IDX 16 25 17 26 18 27 19 28 20 29 21 30 67 31 22 32 66 33 23 34
REMARK SMILES IDX 24 35 25 36 60 37 26 38 65 39 59 40 61 41 27 42 64 43 58 44
REMARK SMILES IDX 57 45 28 47 50 48 35 49 49 50 36 51 39 52 48 53 62 54 37 55
REMARK SMILES IDX 38 56 47 58 63 59 40 60 29 61 30 62 34 63 31 64 33 65 32 66
REMARK SMILES IDX 51 67 52 68 56 69 53 70 55 71 54 72 41 73 42 74 46 75 43 76
REMARK SMILES IDX 45 77 44 78
REMARK H PARENT 3 11 61 46 39 57
REMARK Flexibility Score: inf
ROOT
ATOM      1  C   UNL A   1      40.779  21.596  27.473  1.00  0.00     0.188 C 
ENDROOT
BRANCH   1   2
ATOM      2  O   UNL A   1      40.323  22.579  26.552  1.00  0.00    -0.376 OA
BRANCH   2   3
ATOM      3  C   UNL A   1      39.438  23.532  27.147  1.00  0.00     0.202 C 
BRANCH   3   4
ATOM      4  C   UNL A   1      38.285  23.938  26.204  1.00  0.00     0.261 C 
BRANCH   4   5
ATOM      5  O   UNL A   1      37.238  22.937  26.111  1.00  0.00    -0.463 OA
BRANCH   5   6
ATOM      6  C   UNL A   1      37.202  22.035  25.097  1.00  0.00     0.311 C 
ATOM      7  O   UNL A   1      37.938  21.060  25.009  1.00  0.00    -0.252 OA
BRANCH   6   8
ATOM      8  C   UNL A   1      36.102  22.366  24.089  1.00  0.00     0.184 C 
BRANCH   8   9
ATOM      9  C   UNL A   1      34.928  23.243  24.611  1.00  0.00     0.274 C 
BRANCH   9  10
ATOM     10  N   UNL A   1      33.566  22.909  24.124  1.00  0.00    -0.328 N 
ATOM     11  H   UNL A   1      33.830  22.118  23.537  1.00  0.00     0.348 HD
BRANCH  10  12
ATOM     12  C   UNL A   1      32.640  22.249  25.074  1.00  0.00     0.187 C 
ATOM     13  C   UNL A   1      32.948  20.739  25.088  1.00  0.00     0.076 C 
BRANCH  12  14
ATOM     14  C   UNL A   1      32.421  22.808  26.504  1.00  0.00     0.019 C 
ATOM     15  C   UNL A   1      33.267  22.207  27.610  1.00  0.00     0.018 C 
ATOM     16  C   UNL A   1      31.862  24.191  26.812  1.00  0.00     0.013 C 
ATOM     17  C   UNL A   1      30.950  23.014  26.875  1.00  0.00     0.013 C 
ENDBRANCH  12  14
ENDBRANCH  10  12
BRANCH  10  18
ATOM     18  C   UNL A   1      32.952  23.766  23.066  1.00  0.00     0.089 C 
ATOM     19  C   UNL A   1      31.428  23.765  23.183  1.00  0.00     0.078 C 
ATOM     20  C   UNL A   1      33.329  25.263  23.179  1.00  0.00     0.078 C 
ATOM     21  C   UNL A   1      33.275  23.289  21.639  1.00  0.00     0.078 C 
ENDBRANCH  10  18
ENDBRANCH   9  10
ENDBRANCH   8   9
ENDBRANCH   6   8
ENDBRANCH   5   6
ENDBRANCH   4   5
ENDBRANCH   3   4
ENDBRANCH   2   3
ENDBRANCH   1   2
BRANCH   1  22
ATOM     22  C   UNL A   1      41.017  20.254  26.810  1.00  0.00     0.188 C 
BRANCH  22  23
ATOM     23  O   UNL A   1      42.263  19.683  27.212  1.00  0.00    -0.376 OA
BRANCH  23  24
ATOM     24  C   UNL A   1      42.481  18.365  26.700  1.00  0.00     0.202 C 
BRANCH  24  25
ATOM     25  C   UNL A   1      43.669  18.224  25.737  1.00  0.00     0.261 C 
BRANCH  25  26
ATOM     26  O   UNL A   1      43.605  19.228  24.712  1.00  0.00    -0.460 OA
BRANCH  26  27
ATOM     27  C   UNL A   1      44.791  19.577  24.145  1.00  0.00     0.338 C 
ATOM     28  O   UNL A   1      45.442  18.939  23.348  1.00  0.00    -0.246 OA
BRANCH  27  29
ATOM     29  C   UNL A   1      45.061  21.004  24.481  1.00  0.00     0.060 A 
ATOM     30  C   UNL A   1      45.575  21.294  25.755  1.00  0.00     0.016 A 
ATOM     31  C   UNL A   1      44.908  22.023  23.537  1.00  0.00     0.016 A 
ATOM     32  C   UNL A   1      45.890  22.609  26.103  1.00  0.00     0.010 A 
ATOM     33  C   UNL A   1      45.219  23.336  23.884  1.00  0.00     0.010 A 
ATOM     34  C   UNL A   1      45.670  23.639  25.182  1.00  0.00    -0.014 A 
BRANCH  34  35
ATOM     35  C   UNL A   1      45.635  25.052  25.621  1.00  0.00     0.031 A 
ATOM     36  C   UNL A   1      46.939  25.801  25.625  1.00  0.00     0.074 A 
ATOM     37  C   UNL A   1      44.508  25.642  26.053  1.00  0.00     0.049 A 
ATOM     38  N   UNL A   1      47.220  26.984  26.104  1.00  0.00    -0.248 NA
ATOM     39  C   UNL A   1      48.088  25.102  25.023  1.00  0.00     0.031 C 
ATOM     40  C   UNL A   1      43.176  25.041  26.060  1.00  0.00     0.029 A 
ATOM     41  N   UNL A   1      44.320  26.889  26.596  1.00  0.00    -0.354 N 
ATOM     42  C   UNL A   1      48.580  27.158  25.882  1.00  0.00     0.074 A 
ATOM     43  C   UNL A   1      49.073  25.953  25.254  1.00  0.00     0.031 C 
ATOM     44  C   UNL A   1      42.309  25.915  26.600  1.00  0.00     0.029 A 
ATOM     45  C   UNL A   1      43.032  27.118  27.011  1.00  0.00     0.049 A 
ATOM     46  H   UNL A   1      45.040  27.555  26.680  1.00  0.00     0.167 HD
ATOM     47  C   UNL A   1      49.355  28.228  26.174  1.00  0.00     0.031 A 
ATOM     48  C   UNL A   1      42.509  28.169  27.674  1.00  0.00     0.031 A 
ATOM     49  C   UNL A   1      48.869  29.418  26.814  1.00  0.00     0.049 A 
ATOM     50  C   UNL A   1      43.403  29.324  28.052  1.00  0.00     0.074 A 
ATOM     51  C   UNL A   1      49.566  30.565  27.145  1.00  0.00     0.029 A 
ATOM     52  N   UNL A   1      47.558  29.606  27.223  1.00  0.00    -0.354 N 
ATOM     53  N   UNL A   1      44.684  29.491  27.823  1.00  0.00    -0.248 NA
ATOM     54  C   UNL A   1      42.774  30.437  28.779  1.00  0.00     0.031 C 
ATOM     55  C   UNL A   1      48.686  31.430  27.804  1.00  0.00     0.029 A 
ATOM     56  C   UNL A   1      47.429  30.845  27.826  1.00  0.00     0.049 A 
ATOM     57  H   UNL A   1      46.829  28.957  27.105  1.00  0.00     0.167 HD
ATOM     58  C   UNL A   1      45.005  30.739  28.344  1.00  0.00     0.074 A 
ATOM     59  C   UNL A   1      43.784  31.288  28.896  1.00  0.00     0.031 C 
ATOM     60  C   UNL A   1      46.202  31.376  28.360  1.00  0.00     0.031 A 
BRANCH  47  61
ATOM     61  C   UNL A   1      50.816  28.123  25.841  1.00  0.00    -0.014 A 
ATOM     62  C   UNL A   1      51.740  27.603  26.763  1.00  0.00     0.009 A 
ATOM     63  C   UNL A   1      51.276  28.563  24.592  1.00  0.00     0.009 A 
ATOM     64  C   UNL A   1      53.101  27.566  26.454  1.00  0.00     0.001 A 
ATOM     65  C   UNL A   1      52.634  28.496  24.273  1.00  0.00     0.001 A 
ATOM     66  C   UNL A   1      53.546  28.009  25.209  1.00  0.00     0.000 A 
ENDBRANCH  47  61
BRANCH  48  67
ATOM     67  C   UNL A   1      41.068  28.181  28.041  1.00  0.00    -0.014 A 
ATOM     68  C   UNL A   1      40.140  28.894  27.267  1.00  0.00     0.009 A 
ATOM     69  C   UNL A   1      40.615  27.495  29.180  1.00  0.00     0.009 A 
ATOM     70  C   UNL A   1      38.793  28.940  27.639  1.00  0.00     0.001 A 
ATOM     71  C   UNL A   1      39.264  27.521  29.533  1.00  0.00     0.001 A 
ATOM     72  C   UNL A   1      38.355  28.250  28.768  1.00  0.00     0.000 A 
ENDBRANCH  48  67
BRANCH  60  73
ATOM     73  C   UNL A   1      46.245  32.762  28.943  1.00  0.00    -0.014 A 
ATOM     74  C   UNL A   1      46.560  32.981  30.292  1.00  0.00     0.009 A 
ATOM     75  C   UNL A   1      46.029  33.867  28.105  1.00  0.00     0.009 A 
ATOM     76  C   UNL A   1      46.632  34.281  30.796  1.00  0.00     0.001 A 
ATOM     77  C   UNL A   1      46.131  35.167  28.605  1.00  0.00     0.001 A 
ATOM     78  C   UNL A   1      46.423  35.372  29.951  1.00  0.00     0.000 A 
ENDBRANCH  60  73
ENDBRANCH  34  35
ENDBRANCH  27  29
ENDBRANCH  26  27
ENDBRANCH  25  26
ENDBRANCH  24  25
ENDBRANCH  23  24
ENDBRANCH  22  23
ENDBRANCH   1  22
TORSDOF 22
ENDMDL
MODEL 2
REMARK VINA RESULT:      -8.2      5.702     10.711
REMARK SMILES C[C@H]([N@H+](CCC(=O)OCCOCCOCCOC(=O)c1ccc(-c2c3nc(c(-c4ccccc4)c4ccc([nH]4)c(-c4ccccc4)c4nc(c(-c5ccccc5)c5ccc2[nH]5)C=C4)C=C3)cc1)C(C)(C)C)C1(C)CC1
REMARK SMILES IDX 12 1 11 2 10 3 9 4 8 5 6 6 7 7 5 8 4 9 3 10 2 12 1 13 72 14
REMARK SMILES IDX 73 15 74 16 75 17 68 18 69 19 70 20 71 21 13 22 14 23 15 24
REMARK SMILES IDX 16 25 17 26 18 27 19 28 20 29 21 30 67 31 22 32 66 33 23 34
REMARK SMILES IDX 24 35 25 36 60 37 26 38 65 39 59 40 61 41 27 42 64 43 58 44
REMARK SMILES IDX 57 45 28 47 50 48 35 49 49 50 36 51 39 52 48 53 62 54 37 55
REMARK SMILES IDX 38 56 47 58 63 59 40 60 29 61 30 62 34 63 31 64 33 65 32 66
REMARK SMILES IDX 51 67 52 68 56 69 53 70 55 71 54 72 41 73 42 74 46 75 43 76
REMARK SMILES IDX 45 77 44 78
REMARK H PARENT 3 11 61 46 39 57
REMARK Flexibility Score: inf
ROOT
ATOM      1  C   UNL A   1      32.818  28.820  25.740  1.00  0.00     0.188 C 
ENDROOT
BRANCH   1   2
ATOM      2  O   UNL A   1      32.765  29.284  24.396  1.00  0.00    -0.376 OA
BRANCH   2   3
ATOM      3  C   UNL A   1      32.787  28.220  23.440  1.00  0.00     0.202 C 
BRANCH   3   4
ATOM      4  C   UNL A   1      31.400  27.569  23.248  1.00  0.00     0.261 C 
BRANCH   4   5
ATOM      5  O   UNL A   1      31.455  26.123  23.128  1.00  0.00    -0.463 OA
BRANCH   5   6
ATOM      6  C   UNL A   1      30.578  25.320  23.782  1.00  0.00     0.311 C 
ATOM      7  O   UNL A   1      29.682  25.721  24.514  1.00  0.00    -0.252 OA
BRANCH   6   8
ATOM      8  C   UNL A   1      30.821  23.845  23.462  1.00  0.00     0.184 C 
BRANCH   8   9
ATOM      9  C   UNL A   1      31.552  23.013  24.555  1.00  0.00     0.274 C 
BRANCH   9  10
ATOM     10  N   UNL A   1      32.815  22.341  24.160  1.00  0.00    -0.328 N 
ATOM     11  H   UNL A   1      32.685  22.403  23.151  1.00  0.00     0.348 HD
BRANCH  10  12
ATOM     12  C   UNL A   1      34.076  23.102  24.322  1.00  0.00     0.187 C 
ATOM     13  C   UNL A   1      34.252  24.023  23.098  1.00  0.00     0.076 C 
BRANCH  12  14
ATOM     14  C   UNL A   1      34.411  23.831  25.649  1.00  0.00     0.019 C 
ATOM     15  C   UNL A   1      34.085  25.311  25.718  1.00  0.00     0.018 C 
ATOM     16  C   UNL A   1      34.533  23.144  27.003  1.00  0.00     0.013 C 
ATOM     17  C   UNL A   1      35.774  23.457  26.240  1.00  0.00     0.013 C 
ENDBRANCH  12  14
ENDBRANCH  10  12
BRANCH  10  18
ATOM     18  C   UNL A   1      32.903  20.854  24.273  1.00  0.00     0.089 C 
ATOM     19  C   UNL A   1      34.359  20.402  24.376  1.00  0.00     0.078 C 
ATOM     20  C   UNL A   1      32.249  20.286  25.557  1.00  0.00     0.078 C 
ATOM     21  C   UNL A   1      32.309  20.119  23.058  1.00  0.00     0.078 C 
ENDBRANCH  10  18
ENDBRANCH   9  10
ENDBRANCH   8   9
ENDBRANCH   6   8
ENDBRANCH   5   6
ENDBRANCH   4   5
ENDBRANCH   3   4
ENDBRANCH   2   3
ENDBRANCH   1   2
BRANCH   1  22
ATOM     22  C   UNL A   1      32.128  29.768  26.701  1.00  0.00     0.188 C 
BRANCH  22  23
ATOM     23  O   UNL A   1      32.589  31.110  26.538  1.00  0.00    -0.376 OA
BRANCH  23  24
ATOM     24  C   UNL A   1      31.590  32.097  26.809  1.00  0.00     0.202 C 
BRANCH  24  25
ATOM     25  C   UNL A   1      32.124  33.469  27.244  1.00  0.00     0.261 C 
BRANCH  25  26
ATOM     26  O   UNL A   1      33.194  33.313  28.190  1.00  0.00    -0.460 OA
BRANCH  26  27
ATOM     27  C   UNL A   1      34.356  33.952  27.885  1.00  0.00     0.338 C 
ATOM     28  O   UNL A   1      34.490  35.097  27.516  1.00  0.00    -0.246 OA
BRANCH  27  29
ATOM     29  C   UNL A   1      35.487  33.081  28.311  1.00  0.00     0.060 A 
ATOM     30  C   UNL A   1      35.327  31.691  28.195  1.00  0.00     0.016 A 
ATOM     31  C   UNL A   1      36.712  33.615  28.720  1.00  0.00     0.016 A 
ATOM     32  C   UNL A   1      36.374  30.831  28.536  1.00  0.00     0.010 A 
ATOM     33  C   UNL A   1      37.757  32.758  29.062  1.00  0.00     0.010 A 
ATOM     34  C   UNL A   1      37.577  31.364  29.012  1.00  0.00    -0.014 A 
BRANCH  34  35
ATOM     35  C   UNL A   1      38.554  30.508  29.721  1.00  0.00     0.031 A 
ATOM     36  C   UNL A   1      38.695  30.712  31.204  1.00  0.00     0.074 A 
ATOM     37  C   UNL A   1      39.331  29.620  29.078  1.00  0.00     0.049 A 
ATOM     38  N   UNL A   1      39.574  30.216  32.035  1.00  0.00    -0.248 NA
ATOM     39  C   UNL A   1      37.718  31.622  31.827  1.00  0.00     0.031 C 
ATOM     40  C   UNL A   1      39.263  29.298  27.655  1.00  0.00     0.029 A 
ATOM     41  N   UNL A   1      40.354  28.838  29.554  1.00  0.00    -0.354 N 
ATOM     42  C   UNL A   1      39.269  30.774  33.270  1.00  0.00     0.074 A 
ATOM     43  C   UNL A   1      38.147  31.664  33.077  1.00  0.00     0.031 C 
ATOM     44  C   UNL A   1      40.220  28.397  27.368  1.00  0.00     0.029 A 
ATOM     45  C   UNL A   1      40.989  28.110  28.578  1.00  0.00     0.049 A 
ATOM     46  H   UNL A   1      40.609  28.803  30.505  1.00  0.00     0.167 HD
ATOM     47  C   UNL A   1      39.870  30.565  34.465  1.00  0.00     0.031 A 
ATOM     48  C   UNL A   1      42.083  27.328  28.655  1.00  0.00     0.031 A 
ATOM     49  C   UNL A   1      40.996  29.694  34.652  1.00  0.00     0.049 A 
ATOM     50  C   UNL A   1      42.780  27.160  29.982  1.00  0.00     0.074 A 
ATOM     51  C   UNL A   1      41.673  29.400  35.822  1.00  0.00     0.029 A 
ATOM     52  N   UNL A   1      41.612  28.980  33.636  1.00  0.00    -0.354 N 
ATOM     53  N   UNL A   1      42.477  27.674  31.150  1.00  0.00    -0.248 NA
ATOM     54  C   UNL A   1      43.973  26.299  29.999  1.00  0.00     0.031 C 
ATOM     55  C   UNL A   1      42.735  28.547  35.503  1.00  0.00     0.029 A 
ATOM     56  C   UNL A   1      42.678  28.262  34.147  1.00  0.00     0.049 A 
ATOM     57  H   UNL A   1      41.334  28.984  32.692  1.00  0.00     0.167 HD
ATOM     58  C   UNL A   1      43.416  27.172  32.045  1.00  0.00     0.074 A 
ATOM     59  C   UNL A   1      44.295  26.308  31.285  1.00  0.00     0.031 C 
ATOM     60  C   UNL A   1      43.536  27.401  33.375  1.00  0.00     0.031 A 
BRANCH  47  61
ATOM     61  C   UNL A   1      39.338  31.334  35.640  1.00  0.00    -0.014 A 
ATOM     62  C   UNL A   1      38.260  30.853  36.401  1.00  0.00     0.009 A 
ATOM     63  C   UNL A   1      39.918  32.564  35.983  1.00  0.00     0.009 A 
ATOM     64  C   UNL A   1      37.746  31.611  37.455  1.00  0.00     0.001 A 
ATOM     65  C   UNL A   1      39.422  33.306  37.057  1.00  0.00     0.001 A 
ATOM     66  C   UNL A   1      38.330  32.834  37.784  1.00  0.00     0.000 A 
ENDBRANCH  47  61
BRANCH  48  67
ATOM     67  C   UNL A   1      42.605  26.651  27.439  1.00  0.00    -0.014 A 
ATOM     68  C   UNL A   1      43.491  27.315  26.576  1.00  0.00     0.009 A 
ATOM     69  C   UNL A   1      42.206  25.342  27.122  1.00  0.00     0.009 A 
ATOM     70  C   UNL A   1      43.945  26.693  25.410  1.00  0.00     0.001 A 
ATOM     71  C   UNL A   1      42.684  24.713  25.970  1.00  0.00     0.001 A 
ATOM     72  C   UNL A   1      43.546  25.392  25.110  1.00  0.00     0.000 A 
ENDBRANCH  48  67
BRANCH  60  73
ATOM     73  C   UNL A   1      44.622  26.667  34.112  1.00  0.00    -0.014 A 
ATOM     74  C   UNL A   1      45.887  27.238  34.312  1.00  0.00     0.009 A 
ATOM     75  C   UNL A   1      44.345  25.409  34.670  1.00  0.00     0.009 A 
ATOM     76  C   UNL A   1      46.863  26.549  35.035  1.00  0.00     0.001 A 
ATOM     77  C   UNL A   1      45.313  24.736  35.418  1.00  0.00     0.001 A 
ATOM     78  C   UNL A   1      46.574  25.303  35.592  1.00  0.00     0.000 A 
ENDBRANCH  60  73
ENDBRANCH  34  35
ENDBRANCH  27  29
ENDBRANCH  26  27
ENDBRANCH  25  26
ENDBRANCH  24  25
ENDBRANCH  23  24
ENDBRANCH  22  23
ENDBRANCH   1  22
TORSDOF 22
ENDMDL
MODEL 3
REMARK VINA RESULT:      -7.9      5.608      9.470
REMARK SMILES C[C@H]([N@H+](CCC(=O)OCCOCCOCCOC(=O)c1ccc(-c2c3nc(c(-c4ccccc4)c4ccc([nH]4)c(-c4ccccc4)c4nc(c(-c5ccccc5)c5ccc2[nH]5)C=C4)C=C3)cc1)C(C)(C)C)C1(C)CC1
REMARK SMILES IDX 12 1 11 2 10 3 9 4 8 5 6 6 7 7 5 8 4 9 3 10 2 12 1 13 72 14
REMARK SMILES IDX 73 15 74 16 75 17 68 18 69 19 70 20 71 21 13 22 14 23 15 24
REMARK SMILES IDX 16 25 17 26 18 27 19 28 20 29 21 30 67 31 22 32 66 33 23 34
REMARK SMILES IDX 24 35 25 36 60 37 26 38 65 39 59 40 61 41 27 42 64 43 58 44
REMARK SMILES IDX 57 45 28 47 50 48 35 49 49 50 36 51 39 52 48 53 62 54 37 55
REMARK SMILES IDX 38 56 47 58 63 59 40 60 29 61 30 62 34 63 31 64 33 65 32 66
REMARK SMILES IDX 51 67 52 68 56 69 53 70 55 71 54 72 41 73 42 74 46 75 43 76
REMARK SMILES IDX 45 77 44 78
REMARK H PARENT 3 11 61 46 39 57
REMARK Flexibility Score: inf
ROOT
ATOM      1  C   UNL A   1      40.835  20.871  26.491  1.00  0.00     0.188 C 
ENDROOT
BRANCH   1   2
ATOM      2  O   UNL A   1      39.690  21.331  25.784  1.00  0.00    -0.376 OA
BRANCH   2   3
ATOM      3  C   UNL A   1      39.047  22.435  26.425  1.00  0.00     0.202 C 
BRANCH   3   4
ATOM      4  C   UNL A   1      37.859  22.985  25.606  1.00  0.00     0.261 C 
BRANCH   4   5
ATOM      5  O   UNL A   1      36.812  23.565  26.429  1.00  0.00    -0.463 OA
BRANCH   5   6
ATOM      6  C   UNL A   1      35.516  23.582  26.026  1.00  0.00     0.311 C 
ATOM      7  O   UNL A   1      34.989  24.507  25.421  1.00  0.00    -0.252 OA
BRANCH   6   8
ATOM      8  C   UNL A   1      34.798  22.284  26.390  1.00  0.00     0.184 C 
BRANCH   8   9
ATOM      9  C   UNL A   1      34.700  21.210  25.268  1.00  0.00     0.274 C 
BRANCH   9  10
ATOM     10  N   UNL A   1      33.380  20.562  25.065  1.00  0.00    -0.328 N 
ATOM     11  H   UNL A   1      33.137  20.455  26.048  1.00  0.00     0.348 HD
BRANCH  10  12
ATOM     12  C   UNL A   1      32.263  21.416  24.597  1.00  0.00     0.187 C 
ATOM     13  C   UNL A   1      31.407  21.812  25.816  1.00  0.00     0.076 C 
BRANCH  12  14
ATOM     14  C   UNL A   1      32.511  22.617  23.648  1.00  0.00     0.019 C 
ATOM     15  C   UNL A   1      31.863  23.935  24.029  1.00  0.00     0.018 C 
ATOM     16  C   UNL A   1      33.706  22.744  22.713  1.00  0.00     0.013 C 
ATOM     17  C   UNL A   1      32.407  22.269  22.160  1.00  0.00     0.013 C 
ENDBRANCH  12  14
ENDBRANCH  10  12
BRANCH  10  18
ATOM     18  C   UNL A   1      33.339  19.121  24.675  1.00  0.00     0.089 C 
ATOM     19  C   UNL A   1      32.651  18.286  25.753  1.00  0.00     0.078 C 
ATOM     20  C   UNL A   1      32.503  18.842  23.402  1.00  0.00     0.078 C 
ATOM     21  C   UNL A   1      34.738  18.508  24.481  1.00  0.00     0.078 C 
ENDBRANCH  10  18
ENDBRANCH   9  10
ENDBRANCH   8   9
ENDBRANCH   6   8
ENDBRANCH   5   6
ENDBRANCH   4   5
ENDBRANCH   3   4
ENDBRANCH   2   3
ENDBRANCH   1   2
BRANCH   1  22
ATOM     22  C   UNL A   1      41.695  22.013  26.996  1.00  0.00     0.188 C 
BRANCH  22  23
ATOM     23  O   UNL A   1      42.433  22.622  25.935  1.00  0.00    -0.376 OA
BRANCH  23  24
ATOM     24  C   UNL A   1      42.943  23.918  26.263  1.00  0.00     0.202 C 
BRANCH  24  25
ATOM     25  C   UNL A   1      42.934  24.937  25.114  1.00  0.00     0.261 C 
BRANCH  25  26
ATOM     26  O   UNL A   1      41.901  25.914  25.319  1.00  0.00    -0.460 OA
BRANCH  26  27
ATOM     27  C   UNL A   1      42.310  27.211  25.371  1.00  0.00     0.338 C 
ATOM     28  O   UNL A   1      42.567  27.939  24.438  1.00  0.00    -0.246 OA
BRANCH  27  29
ATOM     29  C   UNL A   1      42.164  27.685  26.776  1.00  0.00     0.060 A 
ATOM     30  C   UNL A   1      41.298  26.976  27.624  1.00  0.00     0.016 A 
ATOM     31  C   UNL A   1      42.933  28.738  27.280  1.00  0.00     0.016 A 
ATOM     32  C   UNL A   1      41.161  27.350  28.962  1.00  0.00     0.010 A 
ATOM     33  C   UNL A   1      42.795  29.114  28.615  1.00  0.00     0.010 A 
ATOM     34  C   UNL A   1      41.877  28.449  29.449  1.00  0.00    -0.014 A 
BRANCH  34  35
ATOM     35  C   UNL A   1      41.494  29.098  30.723  1.00  0.00     0.031 A 
ATOM     36  C   UNL A   1      40.275  29.977  30.704  1.00  0.00     0.074 A 
ATOM     37  C   UNL A   1      42.221  28.964  31.844  1.00  0.00     0.049 A 
ATOM     38  N   UNL A   1      39.810  30.779  31.625  1.00  0.00    -0.248 NA
ATOM     39  C   UNL A   1      39.485  29.961  29.459  1.00  0.00     0.031 C 
ATOM     40  C   UNL A   1      43.396  28.111  32.004  1.00  0.00     0.029 A 
ATOM     41  N   UNL A   1      42.078  29.577  33.065  1.00  0.00    -0.354 N 
ATOM     42  C   UNL A   1      38.691  31.380  31.062  1.00  0.00     0.074 A 
ATOM     43  C   UNL A   1      38.562  30.874  29.714  1.00  0.00     0.031 C 
ATOM     44  C   UNL A   1      43.880  28.269  33.250  1.00  0.00     0.029 A 
ATOM     45  C   UNL A   1      43.072  29.261  33.957  1.00  0.00     0.049 A 
ATOM     46  H   UNL A   1      41.333  30.185  33.279  1.00  0.00     0.167 HD
ATOM     47  C   UNL A   1      37.842  32.275  31.616  1.00  0.00     0.031 A 
ATOM     48  C   UNL A   1      43.313  29.746  35.192  1.00  0.00     0.031 A 
ATOM     49  C   UNL A   1      37.980  32.791  32.949  1.00  0.00     0.049 A 
ATOM     50  C   UNL A   1      42.394  30.794  35.768  1.00  0.00     0.074 A 
ATOM     51  C   UNL A   1      37.169  33.692  33.613  1.00  0.00     0.029 A 
ATOM     52  N   UNL A   1      39.005  32.450  33.817  1.00  0.00    -0.354 N 
ATOM     53  N   UNL A   1      41.328  31.343  35.238  1.00  0.00    -0.248 NA
ATOM     54  C   UNL A   1      42.714  31.286  37.116  1.00  0.00     0.031 C 
ATOM     55  C   UNL A   1      37.734  33.938  34.869  1.00  0.00     0.029 A 
ATOM     56  C   UNL A   1      38.860  33.141  35.007  1.00  0.00     0.049 A 
ATOM     57  H   UNL A   1      39.728  31.813  33.618  1.00  0.00     0.167 HD
ATOM     58  C   UNL A   1      40.830  32.216  36.199  1.00  0.00     0.074 A 
ATOM     59  C   UNL A   1      41.708  32.119  37.346  1.00  0.00     0.031 C 
ATOM     60  C   UNL A   1      39.742  33.022  36.140  1.00  0.00     0.031 A 
BRANCH  47  61
ATOM     61  C   UNL A   1      36.721  32.779  30.751  1.00  0.00    -0.014 A 
ATOM     62  C   UNL A   1      35.438  32.211  30.813  1.00  0.00     0.009 A 
ATOM     63  C   UNL A   1      36.957  33.830  29.854  1.00  0.00     0.009 A 
ATOM     64  C   UNL A   1      34.426  32.657  29.961  1.00  0.00     0.001 A 
ATOM     65  C   UNL A   1      35.934  34.295  29.024  1.00  0.00     0.001 A 
ATOM     66  C   UNL A   1      34.675  33.700  29.071  1.00  0.00     0.000 A 
ENDBRANCH  47  61
BRANCH  48  67
ATOM     67  C   UNL A   1      44.483  29.260  35.970  1.00  0.00    -0.014 A 
ATOM     68  C   UNL A   1      45.718  29.923  35.892  1.00  0.00     0.009 A 
ATOM     69  C   UNL A   1      44.379  28.118  36.781  1.00  0.00     0.009 A 
ATOM     70  C   UNL A   1      46.829  29.439  36.589  1.00  0.00     0.001 A 
ATOM     71  C   UNL A   1      45.484  27.653  37.498  1.00  0.00     0.001 A 
ATOM     72  C   UNL A   1      46.710  28.309  37.395  1.00  0.00     0.000 A 
ENDBRANCH  48  67
BRANCH  60  73
ATOM     73  C   UNL A   1      39.402  33.824  37.366  1.00  0.00    -0.014 A 
ATOM     74  C   UNL A   1      38.682  33.264  38.432  1.00  0.00     0.009 A 
ATOM     75  C   UNL A   1      39.872  35.142  37.478  1.00  0.00     0.009 A 
ATOM     76  C   UNL A   1      38.417  34.021  39.575  1.00  0.00     0.001 A 
ATOM     77  C   UNL A   1      39.630  35.886  38.634  1.00  0.00     0.001 A 
ATOM     78  C   UNL A   1      38.895  35.328  39.678  1.00  0.00     0.000 A 
ENDBRANCH  60  73
ENDBRANCH  34  35
ENDBRANCH  27  29
ENDBRANCH  26  27
ENDBRANCH  25  26
ENDBRANCH  24  25
ENDBRANCH  23  24
ENDBRANCH  22  23
ENDBRANCH   1  22
TORSDOF 22
ENDMDL
