MODEL 1
REMARK VINA RESULT:      -9.8      0.000      0.000
REMARK SMILES COc1cc2c(cc1OC)C1=C(C#N)C[N@H+](CC(=O)OCCOCCOCCOC(=O)c3ccc(-c4c5nc(c(-c6ccccc6)c6ccc([nH]6)c(-c6ccccc6)c6nc(c(-c7ccccc7)c7ccc4[nH]7)C=C6)C=C5)cc3)CN1CC2
REMARK SMILES IDX 24 1 23 2 22 3 21 4 20 5 18 6 19 7 17 8 16 9 3 10 4 11 8 12
REMARK SMILES IDX 5 13 7 14 6 15 83 16 11 17 82 18 12 19 81 20 15 21 80 22
REMARK SMILES IDX 2 24 1 25 9 26 10 27 13 28 14 29 25 30 26 31 27 32 28 33
REMARK SMILES IDX 29 34 30 35 31 36 32 37 33 38 79 39 34 40 78 41 35 42 36 43
REMARK SMILES IDX 37 44 72 45 38 46 77 47 71 48 73 49 39 50 76 51 70 52 69 53
REMARK SMILES IDX 40 55 62 56 47 57 61 58 48 59 51 60 60 61 74 62 49 63 50 64
REMARK SMILES IDX 59 66 75 67 52 68 41 69 42 70 46 71 43 72 45 73 44 74 63 75
REMARK SMILES IDX 64 76 68 77 65 78 67 79 66 80 53 81 54 82 58 83 55 84 57 85
REMARK SMILES IDX 56 86
REMARK H PARENT 16 23 73 54 51 65
REMARK Flexibility Score: inf
ROOT
ATOM      1  C   UNL A   1      38.252  20.997  25.186  1.00  0.00     0.188 C 
ENDROOT
BRANCH   1   2
ATOM      2  O   UNL A   1      37.279  21.583  24.316  1.00  0.00    -0.376 OA
BRANCH   2   3
ATOM      3  C   UNL A   1      36.276  22.413  24.889  1.00  0.00     0.202 C 
BRANCH   3   4
ATOM      4  C   UNL A   1      35.767  21.956  26.257  1.00  0.00     0.261 C 
BRANCH   4   5
ATOM      5  O   UNL A   1      34.352  22.149  26.397  1.00  0.00    -0.459 OA
BRANCH   5   6
ATOM      6  C   UNL A   1      33.498  21.339  25.709  1.00  0.00     0.361 C 
ATOM      7  O   UNL A   1      33.812  20.273  25.196  1.00  0.00    -0.245 OA
BRANCH   6   8
ATOM      8  C   UNL A   1      32.052  21.899  25.666  1.00  0.00     0.388 C 
BRANCH   8   9
ATOM      9  N   UNL A   1      32.032  23.281  25.208  1.00  0.00    -0.304 N 
ATOM     10  C   UNL A   1      30.155  29.599  22.871  1.00  0.00     0.161 A 
ATOM     11  C   UNL A   1      30.454  28.506  22.048  1.00  0.00     0.055 A 
ATOM     12  C   UNL A   1      30.721  29.663  24.138  1.00  0.00     0.161 A 
ATOM     13  C   UNL A   1      31.184  27.403  22.541  1.00  0.00    -0.033 A 
ATOM     14  C   UNL A   1      31.435  28.544  24.609  1.00  0.00     0.061 A 
ATOM     15  C   UNL A   1      31.555  27.339  23.895  1.00  0.00     0.006 A 
ATOM     16  C   UNL A   1      31.489  26.239  21.633  1.00  0.00     0.058 C 
ATOM     17  C   UNL A   1      31.967  25.986  24.471  1.00  0.00     0.068 C 
ATOM     18  C   UNL A   1      32.670  25.411  22.149  1.00  0.00     0.127 C 
ATOM     19  C   UNL A   1      31.867  25.604  25.776  1.00  0.00     0.108 C 
ATOM     20  N   UNL A   1      32.407  25.027  23.535  1.00  0.00    -0.323 N 
ATOM     21  C   UNL A   1      32.324  24.264  26.245  1.00  0.00     0.314 C 
ATOM     22  C   UNL A   1      32.723  23.661  23.985  1.00  0.00     0.390 C 
ATOM     23  H   UNL A   1      31.047  23.302  24.943  1.00  0.00     0.350 HD
BRANCH  10  24
ATOM     24  O   UNL A   1      29.373  30.605  22.371  1.00  0.00    -0.493 OA
ATOM     25  C   UNL A   1      28.181  30.074  21.783  1.00  0.00     0.278 C 
ENDBRANCH  10  24
BRANCH  12  26
ATOM     26  O   UNL A   1      30.653  30.669  25.062  1.00  0.00    -0.493 OA
ATOM     27  C   UNL A   1      31.657  30.768  26.059  1.00  0.00     0.278 C 
ENDBRANCH  12  26
BRANCH  19  28
ATOM     28  C   UNL A   1      31.663  26.691  26.819  1.00  0.00     0.103 C 
ATOM     29  N   UNL A   1      31.493  27.591  27.684  1.00  0.00    -0.192 NA
ENDBRANCH  19  28
ENDBRANCH   8   9
ENDBRANCH   6   8
ENDBRANCH   5   6
ENDBRANCH   4   5
ENDBRANCH   3   4
ENDBRANCH   2   3
ENDBRANCH   1   2
BRANCH   1  30
ATOM     30  C   UNL A   1      38.374  19.471  25.251  1.00  0.00     0.188 C 
BRANCH  30  31
ATOM     31  O   UNL A   1      39.744  19.078  25.331  1.00  0.00    -0.376 OA
BRANCH  31  32
ATOM     32  C   UNL A   1      40.520  19.922  26.164  1.00  0.00     0.202 C 
BRANCH  32  33
ATOM     33  C   UNL A   1      41.882  19.280  26.407  1.00  0.00     0.261 C 
BRANCH  33  34
ATOM     34  O   UNL A   1      42.622  19.164  25.174  1.00  0.00    -0.460 OA
BRANCH  34  35
ATOM     35  C   UNL A   1      43.921  19.516  25.186  1.00  0.00     0.338 C 
ATOM     36  O   UNL A   1      44.897  18.796  25.160  1.00  0.00    -0.246 OA
BRANCH  35  37
ATOM     37  C   UNL A   1      43.979  20.985  25.264  1.00  0.00     0.060 A 
ATOM     38  C   UNL A   1      44.140  21.552  26.523  1.00  0.00     0.016 A 
ATOM     39  C   UNL A   1      43.931  21.787  24.115  1.00  0.00     0.016 A 
ATOM     40  C   UNL A   1      44.255  22.933  26.635  1.00  0.00     0.010 A 
ATOM     41  C   UNL A   1      44.080  23.175  24.228  1.00  0.00     0.010 A 
ATOM     42  C   UNL A   1      44.246  23.754  25.492  1.00  0.00    -0.014 A 
BRANCH  42  43
ATOM     43  C   UNL A   1      44.495  25.202  25.687  1.00  0.00     0.031 A 
ATOM     44  C   UNL A   1      43.433  26.094  26.244  1.00  0.00     0.074 A 
ATOM     45  C   UNL A   1      45.746  25.661  25.501  1.00  0.00     0.049 A 
ATOM     46  N   UNL A   1      43.567  27.260  26.822  1.00  0.00    -0.248 NA
ATOM     47  C   UNL A   1      42.046  25.620  26.144  1.00  0.00     0.031 C 
ATOM     48  C   UNL A   1      46.842  24.873  24.933  1.00  0.00     0.029 A 
ATOM     49  N   UNL A   1      46.326  26.858  25.834  1.00  0.00    -0.354 N 
ATOM     50  C   UNL A   1      42.287  27.635  27.205  1.00  0.00     0.074 A 
ATOM     51  C   UNL A   1      41.383  26.614  26.719  1.00  0.00     0.031 C 
ATOM     52  C   UNL A   1      47.980  25.576  25.034  1.00  0.00     0.029 A 
ATOM     53  C   UNL A   1      47.691  26.862  25.664  1.00  0.00     0.049 A 
ATOM     54  H   UNL A   1      45.818  27.635  26.160  1.00  0.00     0.167 HD
ATOM     55  C   UNL A   1      41.912  28.719  27.927  1.00  0.00     0.031 A 
ATOM     56  C   UNL A   1      48.618  27.771  26.026  1.00  0.00     0.031 A 
ATOM     57  C   UNL A   1      42.824  29.748  28.353  1.00  0.00     0.049 A 
ATOM     58  C   UNL A   1      48.181  28.985  26.794  1.00  0.00     0.074 A 
ATOM     59  C   UNL A   1      42.555  30.893  29.080  1.00  0.00     0.029 A 
ATOM     60  N   UNL A   1      44.186  29.760  28.077  1.00  0.00    -0.354 N 
ATOM     61  N   UNL A   1      46.981  29.297  27.221  1.00  0.00    -0.248 NA
ATOM     62  C   UNL A   1      49.221  29.959  27.150  1.00  0.00     0.031 C 
ATOM     63  C   UNL A   1      43.740  31.629  29.187  1.00  0.00     0.029 A 
ATOM     64  C   UNL A   1      44.764  30.907  28.592  1.00  0.00     0.049 A 
ATOM     65  H   UNL A   1      44.668  29.054  27.588  1.00  0.00     0.167 HD
ATOM     66  C   UNL A   1      47.118  30.500  27.900  1.00  0.00     0.074 A 
ATOM     67  C   UNL A   1      48.525  30.848  27.850  1.00  0.00     0.031 C 
ATOM     68  C   UNL A   1      46.164  31.247  28.509  1.00  0.00     0.031 A 
BRANCH  55  69
ATOM     69  C   UNL A   1      40.459  28.838  28.299  1.00  0.00    -0.014 A 
ATOM     70  C   UNL A   1      39.546  29.441  27.419  1.00  0.00     0.009 A 
ATOM     71  C   UNL A   1      39.996  28.394  29.550  1.00  0.00     0.009 A 
ATOM     72  C   UNL A   1      38.205  29.593  27.780  1.00  0.00     0.001 A 
ATOM     73  C   UNL A   1      38.649  28.519  29.896  1.00  0.00     0.001 A 
ATOM     74  C   UNL A   1      37.756  29.123  29.013  1.00  0.00     0.000 A 
ENDBRANCH  55  69
BRANCH  56  75
ATOM     75  C   UNL A   1      50.048  27.491  25.727  1.00  0.00    -0.014 A 
ATOM     76  C   UNL A   1      50.603  27.872  24.493  1.00  0.00     0.009 A 
ATOM     77  C   UNL A   1      50.833  26.741  26.617  1.00  0.00     0.009 A 
ATOM     78  C   UNL A   1      51.893  27.473  24.138  1.00  0.00     0.001 A 
ATOM     79  C   UNL A   1      52.135  26.366  26.270  1.00  0.00     0.001 A 
ATOM     80  C   UNL A   1      52.658  26.719  25.026  1.00  0.00     0.000 A 
ENDBRANCH  56  75
BRANCH  68  81
ATOM     81  C   UNL A   1      46.590  32.538  29.153  1.00  0.00    -0.014 A 
ATOM     82  C   UNL A   1      46.923  32.563  30.518  1.00  0.00     0.009 A 
ATOM     83  C   UNL A   1      46.542  33.746  28.442  1.00  0.00     0.009 A 
ATOM     84  C   UNL A   1      47.176  33.775  31.162  1.00  0.00     0.001 A 
ATOM     85  C   UNL A   1      46.825  34.955  29.083  1.00  0.00     0.001 A 
ATOM     86  C   UNL A   1      47.129  34.968  30.444  1.00  0.00     0.000 A 
ENDBRANCH  68  81
ENDBRANCH  42  43
ENDBRANCH  35  37
ENDBRANCH  34  35
ENDBRANCH  33  34
ENDBRANCH  32  33
ENDBRANCH  31  32
ENDBRANCH  30  31
ENDBRANCH   1  30
TORSDOF 21
ENDMDL
MODEL 2
REMARK VINA RESULT:      -9.8      1.319      2.290
REMARK SMILES COc1cc2c(cc1OC)C1=C(C#N)C[N@H+](CC(=O)OCCOCCOCCOC(=O)c3ccc(-c4c5nc(c(-c6ccccc6)c6ccc([nH]6)c(-c6ccccc6)c6nc(c(-c7ccccc7)c7ccc4[nH]7)C=C6)C=C5)cc3)CN1CC2
REMARK SMILES IDX 24 1 23 2 22 3 21 4 20 5 18 6 19 7 17 8 16 9 3 10 4 11 8 12
REMARK SMILES IDX 5 13 7 14 6 15 83 16 11 17 82 18 12 19 81 20 15 21 80 22
REMARK SMILES IDX 2 24 1 25 9 26 10 27 13 28 14 29 25 30 26 31 27 32 28 33
REMARK SMILES IDX 29 34 30 35 31 36 32 37 33 38 79 39 34 40 78 41 35 42 36 43
REMARK SMILES IDX 37 44 72 45 38 46 77 47 71 48 73 49 39 50 76 51 70 52 69 53
REMARK SMILES IDX 40 55 62 56 47 57 61 58 48 59 51 60 60 61 74 62 49 63 50 64
REMARK SMILES IDX 59 66 75 67 52 68 41 69 42 70 46 71 43 72 45 73 44 74 63 75
REMARK SMILES IDX 64 76 68 77 65 78 67 79 66 80 53 81 54 82 58 83 55 84 57 85
REMARK SMILES IDX 56 86
REMARK H PARENT 16 23 73 54 51 65
REMARK Flexibility Score: inf
ROOT
ATOM      1  C   UNL A   1      37.630  21.113  24.861  1.00  0.00     0.188 C 
ENDROOT
BRANCH   1   2
ATOM      2  O   UNL A   1      36.410  21.646  24.338  1.00  0.00    -0.376 OA
BRANCH   2   3
ATOM      3  C   UNL A   1      35.468  22.195  25.253  1.00  0.00     0.202 C 
BRANCH   3   4
ATOM      4  C   UNL A   1      34.951  21.216  26.309  1.00  0.00     0.261 C 
BRANCH   4   5
ATOM      5  O   UNL A   1      33.670  20.672  25.957  1.00  0.00    -0.459 OA
BRANCH   5   6
ATOM      6  C   UNL A   1      33.570  19.849  24.875  1.00  0.00     0.361 C 
ATOM      7  O   UNL A   1      34.203  18.811  24.730  1.00  0.00    -0.245 OA
BRANCH   6   8
ATOM      8  C   UNL A   1      32.530  20.351  23.839  1.00  0.00     0.388 C 
BRANCH   8   9
ATOM      9  N   UNL A   1      32.267  21.774  23.999  1.00  0.00    -0.304 N 
ATOM     10  C   UNL A   1      32.638  28.580  25.559  1.00  0.00     0.161 A 
ATOM     11  C   UNL A   1      32.158  27.593  26.428  1.00  0.00     0.055 A 
ATOM     12  C   UNL A   1      32.561  28.367  24.189  1.00  0.00     0.161 A 
ATOM     13  C   UNL A   1      31.750  26.333  25.943  1.00  0.00    -0.033 A 
ATOM     14  C   UNL A   1      32.161  27.097  23.731  1.00  0.00     0.061 A 
ATOM     15  C   UNL A   1      31.896  26.010  24.582  1.00  0.00     0.006 A 
ATOM     16  C   UNL A   1      31.240  25.288  26.902  1.00  0.00     0.058 C 
ATOM     17  C   UNL A   1      31.834  24.539  24.176  1.00  0.00     0.068 C 
ATOM     18  C   UNL A   1      30.396  24.226  26.188  1.00  0.00     0.127 C 
ATOM     19  C   UNL A   1      32.426  23.983  23.081  1.00  0.00     0.108 C 
ATOM     20  N   UNL A   1      31.170  23.679  25.075  1.00  0.00    -0.323 N 
ATOM     21  C   UNL A   1      32.283  22.534  22.755  1.00  0.00     0.314 C 
ATOM     22  C   UNL A   1      31.153  22.229  24.819  1.00  0.00     0.390 C 
ATOM     23  H   UNL A   1      33.086  21.980  24.572  1.00  0.00     0.350 HD
BRANCH  10  24
ATOM     24  O   UNL A   1      33.101  29.755  26.088  1.00  0.00    -0.493 OA
ATOM     25  C   UNL A   1      34.243  29.520  26.918  1.00  0.00     0.278 C 
ENDBRANCH  10  24
BRANCH  12  26
ATOM     26  O   UNL A   1      32.870  29.220  23.165  1.00  0.00    -0.493 OA
ATOM     27  C   UNL A   1      34.006  28.956  22.358  1.00  0.00     0.278 C 
ENDBRANCH  12  26
BRANCH  19  28
ATOM     28  C   UNL A   1      32.898  24.916  21.978  1.00  0.00     0.103 C 
ATOM     29  N   UNL A   1      33.289  25.691  21.064  1.00  0.00    -0.192 NA
ENDBRANCH  19  28
ENDBRANCH   8   9
ENDBRANCH   6   8
ENDBRANCH   5   6
ENDBRANCH   4   5
ENDBRANCH   3   4
ENDBRANCH   2   3
ENDBRANCH   1   2
BRANCH   1  30
ATOM     30  C   UNL A   1      37.783  19.596  25.003  1.00  0.00     0.188 C 
BRANCH  30  31
ATOM     31  O   UNL A   1      39.162  19.233  25.076  1.00  0.00    -0.376 OA
BRANCH  31  32
ATOM     32  C   UNL A   1      39.938  20.132  25.852  1.00  0.00     0.202 C 
BRANCH  32  33
ATOM     33  C   UNL A   1      41.147  19.397  26.419  1.00  0.00     0.261 C 
BRANCH  33  34
ATOM     34  O   UNL A   1      42.073  19.044  25.372  1.00  0.00    -0.460 OA
BRANCH  34  35
ATOM     35  C   UNL A   1      43.374  19.330  25.561  1.00  0.00     0.338 C 
ATOM     36  O   UNL A   1      44.296  18.562  25.737  1.00  0.00    -0.246 OA
BRANCH  35  37
ATOM     37  C   UNL A   1      43.511  20.796  25.543  1.00  0.00     0.060 A 
ATOM     38  C   UNL A   1      43.519  21.452  26.769  1.00  0.00     0.016 A 
ATOM     39  C   UNL A   1      43.681  21.507  24.347  1.00  0.00     0.016 A 
ATOM     40  C   UNL A   1      43.701  22.830  26.800  1.00  0.00     0.010 A 
ATOM     41  C   UNL A   1      43.897  22.890  24.383  1.00  0.00     0.010 A 
ATOM     42  C   UNL A   1      43.910  23.557  25.614  1.00  0.00    -0.014 A 
BRANCH  42  43
ATOM     43  C   UNL A   1      44.217  25.002  25.742  1.00  0.00     0.031 A 
ATOM     44  C   UNL A   1      43.206  25.953  26.294  1.00  0.00     0.074 A 
ATOM     45  C   UNL A   1      45.477  25.407  25.500  1.00  0.00     0.049 A 
ATOM     46  N   UNL A   1      43.399  27.135  26.820  1.00  0.00    -0.248 NA
ATOM     47  C   UNL A   1      41.800  25.527  26.256  1.00  0.00     0.031 C 
ATOM     48  C   UNL A   1      46.526  24.558  24.932  1.00  0.00     0.029 A 
ATOM     49  N   UNL A   1      46.109  26.594  25.766  1.00  0.00    -0.354 N 
ATOM     50  C   UNL A   1      42.146  27.573  27.226  1.00  0.00     0.074 A 
ATOM     51  C   UNL A   1      41.191  26.567  26.810  1.00  0.00     0.031 C 
ATOM     52  C   UNL A   1      47.690  25.222  24.969  1.00  0.00     0.029 A 
ATOM     53  C   UNL A   1      47.468  26.541  25.555  1.00  0.00     0.049 A 
ATOM     54  H   UNL A   1      45.639  27.402  26.075  1.00  0.00     0.167 HD
ATOM     55  C   UNL A   1      41.832  28.697  27.914  1.00  0.00     0.031 A 
ATOM     56  C   UNL A   1      48.437  27.429  25.851  1.00  0.00     0.031 A 
ATOM     57  C   UNL A   1      42.794  29.708  28.270  1.00  0.00     0.049 A 
ATOM     58  C   UNL A   1      48.068  28.688  26.582  1.00  0.00     0.074 A 
ATOM     59  C   UNL A   1      42.588  30.890  28.958  1.00  0.00     0.029 A 
ATOM     60  N   UNL A   1      44.145  29.659  27.953  1.00  0.00    -0.354 N 
ATOM     61  N   UNL A   1      46.893  29.061  27.032  1.00  0.00    -0.248 NA
ATOM     62  C   UNL A   1      49.152  29.637  26.867  1.00  0.00     0.031 C 
ATOM     63  C   UNL A   1      43.801  31.585  28.999  1.00  0.00     0.029 A 
ATOM     64  C   UNL A   1      44.779  30.804  28.404  1.00  0.00     0.049 A 
ATOM     65  H   UNL A   1      44.587  28.918  27.478  1.00  0.00     0.167 HD
ATOM     66  C   UNL A   1      47.095  30.284  27.658  1.00  0.00     0.074 A 
ATOM     67  C   UNL A   1      48.511  30.577  27.550  1.00  0.00     0.031 C 
ATOM     68  C   UNL A   1      46.188  31.089  28.264  1.00  0.00     0.031 A 
BRANCH  55  69
ATOM     69  C   UNL A   1      40.397  28.884  28.325  1.00  0.00    -0.014 A 
ATOM     70  C   UNL A   1      39.986  28.582  29.633  1.00  0.00     0.009 A 
ATOM     71  C   UNL A   1      39.432  29.317  27.398  1.00  0.00     0.009 A 
ATOM     72  C   UNL A   1      38.645  28.712  30.005  1.00  0.00     0.001 A 
ATOM     73  C   UNL A   1      38.099  29.476  27.781  1.00  0.00     0.001 A 
ATOM     74  C   UNL A   1      37.705  29.168  29.082  1.00  0.00     0.000 A 
ENDBRANCH  55  69
BRANCH  56  75
ATOM     75  C   UNL A   1      49.846  27.085  25.521  1.00  0.00    -0.014 A 
ATOM     76  C   UNL A   1      50.398  27.465  24.285  1.00  0.00     0.009 A 
ATOM     77  C   UNL A   1      50.608  26.279  26.381  1.00  0.00     0.009 A 
ATOM     78  C   UNL A   1      51.661  27.010  23.899  1.00  0.00     0.001 A 
ATOM     79  C   UNL A   1      51.883  25.848  26.003  1.00  0.00     0.001 A 
ATOM     80  C   UNL A   1      52.402  26.201  24.757  1.00  0.00     0.000 A 
ENDBRANCH  56  75
BRANCH  68  81
ATOM     81  C   UNL A   1      46.679  32.387  28.842  1.00  0.00    -0.014 A 
ATOM     82  C   UNL A   1      46.794  33.521  28.019  1.00  0.00     0.009 A 
ATOM     83  C   UNL A   1      47.144  32.456  30.164  1.00  0.00     0.009 A 
ATOM     84  C   UNL A   1      47.386  34.689  28.503  1.00  0.00     0.001 A 
ATOM     85  C   UNL A   1      47.707  33.636  30.654  1.00  0.00     0.001 A 
ATOM     86  C   UNL A   1      47.839  34.746  29.819  1.00  0.00     0.000 A 
ENDBRANCH  68  81
ENDBRANCH  42  43
ENDBRANCH  35  37
ENDBRANCH  34  35
ENDBRANCH  33  34
ENDBRANCH  32  33
ENDBRANCH  31  32
ENDBRANCH  30  31
ENDBRANCH   1  30
TORSDOF 21
ENDMDL
MODEL 3
REMARK VINA RESULT:      -9.7      4.798      8.390
REMARK SMILES COc1cc2c(cc1OC)C1=C(C#N)C[N@H+](CC(=O)OCCOCCOCCOC(=O)c3ccc(-c4c5nc(c(-c6ccccc6)c6ccc([nH]6)c(-c6ccccc6)c6nc(c(-c7ccccc7)c7ccc4[nH]7)C=C6)C=C5)cc3)CN1CC2
REMARK SMILES IDX 24 1 23 2 22 3 21 4 20 5 18 6 19 7 17 8 16 9 3 10 4 11 8 12
REMARK SMILES IDX 5 13 7 14 6 15 83 16 11 17 82 18 12 19 81 20 15 21 80 22
REMARK SMILES IDX 2 24 1 25 9 26 10 27 13 28 14 29 25 30 26 31 27 32 28 33
REMARK SMILES IDX 29 34 30 35 31 36 32 37 33 38 79 39 34 40 78 41 35 42 36 43
REMARK SMILES IDX 37 44 72 45 38 46 77 47 71 48 73 49 39 50 76 51 70 52 69 53
REMARK SMILES IDX 40 55 62 56 47 57 61 58 48 59 51 60 60 61 74 62 49 63 50 64
REMARK SMILES IDX 59 66 75 67 52 68 41 69 42 70 46 71 43 72 45 73 44 74 63 75
REMARK SMILES IDX 64 76 68 77 65 78 67 79 66 80 53 81 54 82 58 83 55 84 57 85
REMARK SMILES IDX 56 86
REMARK H PARENT 16 23 73 54 51 65
REMARK Flexibility Score: inf
ROOT
ATOM      1  C   UNL A   1      39.650  21.134  26.367  1.00  0.00     0.188 C 
ENDROOT
BRANCH   1   2
ATOM      2  O   UNL A   1      38.666  21.727  25.515  1.00  0.00    -0.376 OA
BRANCH   2   3
ATOM      3  C   UNL A   1      37.537  20.945  25.144  1.00  0.00     0.202 C 
BRANCH   3   4
ATOM      4  C   UNL A   1      36.431  21.715  24.420  1.00  0.00     0.261 C 
BRANCH   4   5
ATOM      5  O   UNL A   1      35.132  21.165  24.682  1.00  0.00    -0.459 OA
BRANCH   5   6
ATOM      6  C   UNL A   1      34.458  21.551  25.802  1.00  0.00     0.361 C 
ATOM      7  O   UNL A   1      34.963  21.669  26.912  1.00  0.00    -0.245 OA
BRANCH   6   8
ATOM      8  C   UNL A   1      32.964  21.863  25.521  1.00  0.00     0.388 C 
BRANCH   8   9
ATOM      9  N   UNL A   1      32.784  23.240  25.085  1.00  0.00    -0.304 N 
ATOM     10  C   UNL A   1      30.176  29.354  22.912  1.00  0.00     0.161 A 
ATOM     11  C   UNL A   1      30.558  28.308  22.063  1.00  0.00     0.055 A 
ATOM     12  C   UNL A   1      30.777  29.462  24.159  1.00  0.00     0.161 A 
ATOM     13  C   UNL A   1      31.416  27.282  22.513  1.00  0.00    -0.033 A 
ATOM     14  C   UNL A   1      31.621  28.418  24.589  1.00  0.00     0.061 A 
ATOM     15  C   UNL A   1      31.840  27.241  23.853  1.00  0.00     0.006 A 
ATOM     16  C   UNL A   1      31.808  26.167  21.577  1.00  0.00     0.058 C 
ATOM     17  C   UNL A   1      32.411  25.932  24.392  1.00  0.00     0.068 C 
ATOM     18  C   UNL A   1      33.087  25.462  22.039  1.00  0.00     0.127 C 
ATOM     19  C   UNL A   1      32.398  25.526  25.694  1.00  0.00     0.108 C 
ATOM     20  N   UNL A   1      32.915  25.035  23.427  1.00  0.00    -0.323 N 
ATOM     21  C   UNL A   1      33.009  24.236  26.126  1.00  0.00     0.314 C 
ATOM     22  C   UNL A   1      33.388  23.705  23.845  1.00  0.00     0.390 C 
ATOM     23  H   UNL A   1      31.793  23.161  24.854  1.00  0.00     0.350 HD
BRANCH  10  24
ATOM     24  O   UNL A   1      29.276  30.279  22.455  1.00  0.00    -0.493 OA
ATOM     25  C   UNL A   1      27.966  29.710  22.374  1.00  0.00     0.278 C 
ENDBRANCH  10  24
BRANCH  12  26
ATOM     26  O   UNL A   1      30.638  30.444  25.102  1.00  0.00    -0.493 OA
ATOM     27  C   UNL A   1      31.728  30.749  25.957  1.00  0.00     0.278 C 
ENDBRANCH  12  26
BRANCH  19  28
ATOM     28  C   UNL A   1      32.120  26.573  26.761  1.00  0.00     0.103 C 
ATOM     29  N   UNL A   1      31.889  27.440  27.646  1.00  0.00    -0.192 NA
ENDBRANCH  19  28
ENDBRANCH   8   9
ENDBRANCH   6   8
ENDBRANCH   5   6
ENDBRANCH   4   5
ENDBRANCH   3   4
ENDBRANCH   2   3
ENDBRANCH   1   2
BRANCH   1  30
ATOM     30  C   UNL A   1      40.576  22.040  27.184  1.00  0.00     0.188 C 
BRANCH  30  31
ATOM     31  O   UNL A   1      41.208  23.005  26.342  1.00  0.00    -0.376 OA
BRANCH  31  32
ATOM     32  C   UNL A   1      42.344  22.495  25.662  1.00  0.00     0.202 C 
BRANCH  32  33
ATOM     33  C   UNL A   1      43.319  23.633  25.384  1.00  0.00     0.261 C 
BRANCH  33  34
ATOM     34  O   UNL A   1      43.100  24.732  26.292  1.00  0.00    -0.460 OA
BRANCH  34  35
ATOM     35  C   UNL A   1      42.632  25.886  25.780  1.00  0.00     0.338 C 
ATOM     36  O   UNL A   1      42.630  26.250  24.623  1.00  0.00    -0.246 OA
BRANCH  35  37
ATOM     37  C   UNL A   1      42.119  26.690  26.901  1.00  0.00     0.060 A 
ATOM     38  C   UNL A   1      41.225  26.075  27.772  1.00  0.00     0.016 A 
ATOM     39  C   UNL A   1      42.548  28.006  27.124  1.00  0.00     0.016 A 
ATOM     40  C   UNL A   1      40.758  26.781  28.875  1.00  0.00     0.010 A 
ATOM     41  C   UNL A   1      42.102  28.703  28.253  1.00  0.00     0.010 A 
ATOM     42  C   UNL A   1      41.205  28.090  29.136  1.00  0.00    -0.014 A 
BRANCH  42  43
ATOM     43  C   UNL A   1      40.754  28.728  30.396  1.00  0.00     0.031 A 
ATOM     44  C   UNL A   1      41.577  28.638  31.639  1.00  0.00     0.074 A 
ATOM     45  C   UNL A   1      39.667  29.521  30.351  1.00  0.00     0.049 A 
ATOM     46  N   UNL A   1      41.550  29.410  32.694  1.00  0.00    -0.248 NA
ATOM     47  C   UNL A   1      42.560  27.548  31.708  1.00  0.00     0.031 C 
ATOM     48  C   UNL A   1      38.781  29.649  29.192  1.00  0.00     0.029 A 
ATOM     49  N   UNL A   1      39.166  30.416  31.261  1.00  0.00    -0.354 N 
ATOM     50  C   UNL A   1      42.548  28.934  33.532  1.00  0.00     0.074 A 
ATOM     51  C   UNL A   1      43.105  27.756  32.899  1.00  0.00     0.031 C 
ATOM     52  C   UNL A   1      37.897  30.629  29.427  1.00  0.00     0.029 A 
ATOM     53  C   UNL A   1      38.149  31.190  30.752  1.00  0.00     0.049 A 
ATOM     54  H   UNL A   1      39.500  30.497  32.183  1.00  0.00     0.167 HD
ATOM     55  C   UNL A   1      42.979  29.457  34.705  1.00  0.00     0.031 A 
ATOM     56  C   UNL A   1      37.524  32.267  31.267  1.00  0.00     0.031 A 
ATOM     57  C   UNL A   1      42.374  30.599  35.340  1.00  0.00     0.049 A 
ATOM     58  C   UNL A   1      37.990  32.813  32.586  1.00  0.00     0.074 A 
ATOM     59  C   UNL A   1      42.721  31.210  36.531  1.00  0.00     0.029 A 
ATOM     60  N   UNL A   1      41.283  31.296  34.835  1.00  0.00    -0.354 N 
ATOM     61  N   UNL A   1      38.985  32.406  33.337  1.00  0.00    -0.248 NA
ATOM     62  C   UNL A   1      37.268  33.976  33.119  1.00  0.00     0.031 C 
ATOM     63  C   UNL A   1      41.800  32.233  36.779  1.00  0.00     0.029 A 
ATOM     64  C   UNL A   1      40.925  32.310  35.706  1.00  0.00     0.049 A 
ATOM     65  H   UNL A   1      40.832  31.097  33.982  1.00  0.00     0.167 HD
ATOM     66  C   UNL A   1      39.014  33.262  34.430  1.00  0.00     0.074 A 
ATOM     67  C   UNL A   1      37.951  34.228  34.229  1.00  0.00     0.031 C 
ATOM     68  C   UNL A   1      39.846  33.246  35.500  1.00  0.00     0.031 A 
BRANCH  55  69
ATOM     69  C   UNL A   1      44.159  28.799  35.369  1.00  0.00    -0.014 A 
ATOM     70  C   UNL A   1      43.966  27.798  36.333  1.00  0.00     0.009 A 
ATOM     71  C   UNL A   1      45.472  29.206  35.072  1.00  0.00     0.009 A 
ATOM     72  C   UNL A   1      45.058  27.217  36.983  1.00  0.00     0.001 A 
ATOM     73  C   UNL A   1      46.563  28.602  35.700  1.00  0.00     0.001 A 
ATOM     74  C   UNL A   1      46.355  27.612  36.659  1.00  0.00     0.000 A 
ENDBRANCH  55  69
BRANCH  56  75
ATOM     75  C   UNL A   1      36.457  32.926  30.465  1.00  0.00    -0.014 A 
ATOM     76  C   UNL A   1      35.115  32.537  30.617  1.00  0.00     0.009 A 
ATOM     77  C   UNL A   1      36.782  33.856  29.466  1.00  0.00     0.009 A 
ATOM     78  C   UNL A   1      34.129  33.031  29.759  1.00  0.00     0.001 A 
ATOM     79  C   UNL A   1      35.788  34.369  28.626  1.00  0.00     0.001 A 
ATOM     80  C   UNL A   1      34.467  33.945  28.763  1.00  0.00     0.000 A 
ENDBRANCH  56  75
BRANCH  68  81
ATOM     81  C   UNL A   1      39.635  34.286  36.566  1.00  0.00    -0.014 A 
ATOM     82  C   UNL A   1      40.314  35.514  36.490  1.00  0.00     0.009 A 
ATOM     83  C   UNL A   1      38.865  34.004  37.704  1.00  0.00     0.009 A 
ATOM     84  C   UNL A   1      40.244  36.427  37.544  1.00  0.00     0.001 A 
ATOM     85  C   UNL A   1      38.773  34.933  38.743  1.00  0.00     0.001 A 
ATOM     86  C   UNL A   1      39.473  36.137  38.666  1.00  0.00     0.000 A 
ENDBRANCH  68  81
ENDBRANCH  42  43
ENDBRANCH  35  37
ENDBRANCH  34  35
ENDBRANCH  33  34
ENDBRANCH  32  33
ENDBRANCH  31  32
ENDBRANCH  30  31
ENDBRANCH   1  30
TORSDOF 21
ENDMDL
