MODEL 1
REMARK VINA RESULT:      -8.5      0.000      0.000
REMARK SMILES CCc1ccc(-c2nc(-c3cccc(C(=O)OCCOCCOCCOC(=O)c4ccc(-c5c6nc(c(-c7ccccc7)c7ccc([nH]7)c(-c7ccccc7)c7nc(c(-c8ccccc8)c8ccc5[nH]8)C=C7)C=C6)cc4)c3)no2)o1
REMARK SMILES IDX 21 1 20 2 19 3 18 4 17 5 15 6 16 7 14 8 10 9 11 10 77 11
REMARK SMILES IDX 12 12 13 13 9 14 7 15 8 16 79 17 78 18 6 19 3 20 4 21 80 22
REMARK SMILES IDX 5 23 2 24 1 25 22 26 23 27 24 28 25 29 26 30 27 31 28 32
REMARK SMILES IDX 29 33 30 34 76 35 31 36 75 37 32 38 33 39 34 40 69 41 35 42
REMARK SMILES IDX 74 43 68 44 70 45 36 46 73 47 67 48 66 49 37 51 59 52 44 53
REMARK SMILES IDX 58 54 45 55 48 56 57 57 71 58 46 59 47 60 56 62 72 63 49 64
REMARK SMILES IDX 38 65 39 66 43 67 40 68 42 69 41 70 60 71 61 72 65 73 62 74
REMARK SMILES IDX 64 75 63 76 50 77 51 78 55 79 52 80 54 81 53 82
REMARK H PARENT 70 50 48 61
REMARK Flexibility Score: inf
ROOT
ATOM      1  C   UNL A   1      33.310  37.235  30.668  1.00  0.00     0.188 C 
ENDROOT
BRANCH   1   2
ATOM      2  O   UNL A   1      32.625  37.180  31.912  1.00  0.00    -0.376 OA
BRANCH   2   3
ATOM      3  C   UNL A   1      32.999  36.210  32.884  1.00  0.00     0.202 C 
BRANCH   3   4
ATOM      4  C   UNL A   1      33.366  34.781  32.449  1.00  0.00     0.261 C 
BRANCH   4   5
ATOM      5  O   UNL A   1      34.258  34.089  33.337  1.00  0.00    -0.460 OA
BRANCH   5   6
ATOM      6  C   UNL A   1      34.818  32.952  32.847  1.00  0.00     0.338 C 
ATOM      7  O   UNL A   1      34.383  32.239  31.963  1.00  0.00    -0.246 OA
BRANCH   6   8
ATOM      8  C   UNL A   1      36.188  32.813  33.395  1.00  0.00     0.060 A 
ATOM      9  C   UNL A   1      38.160  31.509  33.917  1.00  0.00     0.024 A 
ATOM     10  C   UNL A   1      38.691  32.604  34.614  1.00  0.00     0.012 A 
ATOM     11  C   UNL A   1      36.897  31.612  33.315  1.00  0.00     0.027 A 
ATOM     12  C   UNL A   1      37.986  33.807  34.679  1.00  0.00     0.002 A 
ATOM     13  C   UNL A   1      36.741  33.916  34.060  1.00  0.00     0.016 A 
BRANCH   9  14
ATOM     14  C   UNL A   1      38.926  30.287  33.765  1.00  0.00     0.202 A 
ATOM     15  C   UNL A   1      40.602  29.019  33.790  1.00  0.00     0.293 A 
ATOM     16  N   UNL A   1      40.268  30.265  34.046  1.00  0.00    -0.184 NA
ATOM     17  O   UNL A   1      39.541  28.269  33.358  1.00  0.00    -0.330 OA
ATOM     18  N   UNL A   1      38.419  29.107  33.379  1.00  0.00    -0.057 NA
BRANCH  15  19
ATOM     19  C   UNL A   1      41.924  28.516  33.989  1.00  0.00     0.192 A 
ATOM     20  C   UNL A   1      43.956  28.303  34.825  1.00  0.00     0.104 A 
ATOM     21  C   UNL A   1      43.782  27.241  33.965  1.00  0.00     0.046 A 
ATOM     22  O   UNL A   1      42.853  29.105  34.808  1.00  0.00    -0.456 OA
ATOM     23  C   UNL A   1      42.472  27.365  33.449  1.00  0.00     0.056 A 
BRANCH  20  24
ATOM     24  C   UNL A   1      45.062  28.713  35.730  1.00  0.00     0.072 C 
ATOM     25  C   UNL A   1      46.386  28.074  35.333  1.00  0.00     0.012 C 
ENDBRANCH  20  24
ENDBRANCH  15  19
ENDBRANCH   9  14
ENDBRANCH   6   8
ENDBRANCH   5   6
ENDBRANCH   4   5
ENDBRANCH   3   4
ENDBRANCH   2   3
ENDBRANCH   1   2
BRANCH   1  26
ATOM     26  C   UNL A   1      32.774  36.450  29.451  1.00  0.00     0.188 C 
BRANCH  26  27
ATOM     27  O   UNL A   1      33.773  35.932  28.610  1.00  0.00    -0.376 OA
BRANCH  27  28
ATOM     28  C   UNL A   1      34.408  34.709  28.937  1.00  0.00     0.202 C 
BRANCH  28  29
ATOM     29  C   UNL A   1      33.952  33.320  28.442  1.00  0.00     0.261 C 
BRANCH  29  30
ATOM     30  O   UNL A   1      34.938  32.425  27.915  1.00  0.00    -0.460 OA
BRANCH  30  31
ATOM     31  C   UNL A   1      34.691  31.103  28.033  1.00  0.00     0.338 C 
ATOM     32  O   UNL A   1      33.631  30.523  27.836  1.00  0.00    -0.246 OA
BRANCH  31  33
ATOM     33  C   UNL A   1      35.968  30.417  28.297  1.00  0.00     0.060 A 
ATOM     34  C   UNL A   1      36.207  29.889  29.572  1.00  0.00     0.016 A 
ATOM     35  C   UNL A   1      36.931  30.303  27.291  1.00  0.00     0.016 A 
ATOM     36  C   UNL A   1      37.417  29.250  29.847  1.00  0.00     0.010 A 
ATOM     37  C   UNL A   1      38.150  29.680  27.574  1.00  0.00     0.010 A 
ATOM     38  C   UNL A   1      38.408  29.166  28.858  1.00  0.00    -0.014 A 
BRANCH  38  39
ATOM     39  C   UNL A   1      39.759  28.654  29.194  1.00  0.00     0.031 A 
ATOM     40  C   UNL A   1      40.714  29.547  29.936  1.00  0.00     0.074 A 
ATOM     41  C   UNL A   1      40.136  27.412  28.843  1.00  0.00     0.049 A 
ATOM     42  N   UNL A   1      41.959  29.329  30.277  1.00  0.00    -0.248 NA
ATOM     43  C   UNL A   1      40.196  30.862  30.345  1.00  0.00     0.031 C 
ATOM     44  C   UNL A   1      39.294  26.430  28.160  1.00  0.00     0.029 A 
ATOM     45  N   UNL A   1      41.338  26.768  29.008  1.00  0.00    -0.354 N 
ATOM     46  C   UNL A   1      42.376  30.480  30.934  1.00  0.00     0.074 A 
ATOM     47  C   UNL A   1      41.260  31.403  30.921  1.00  0.00     0.031 C 
ATOM     48  C   UNL A   1      40.011  25.312  27.953  1.00  0.00     0.029 A 
ATOM     49  C   UNL A   1      41.370  25.512  28.453  1.00  0.00     0.049 A 
ATOM     50  H   UNL A   1      42.104  27.169  29.479  1.00  0.00     0.167 HD
ATOM     51  C   UNL A   1      43.577  30.746  31.498  1.00  0.00     0.031 A 
ATOM     52  C   UNL A   1      42.387  24.636  28.335  1.00  0.00     0.031 A 
ATOM     53  C   UNL A   1      44.695  29.840  31.493  1.00  0.00     0.049 A 
ATOM     54  C   UNL A   1      43.743  24.994  28.890  1.00  0.00     0.074 A 
ATOM     55  C   UNL A   1      45.949  30.015  32.054  1.00  0.00     0.029 A 
ATOM     56  N   UNL A   1      44.700  28.595  30.884  1.00  0.00    -0.354 N 
ATOM     57  N   UNL A   1      44.116  26.071  29.538  1.00  0.00    -0.248 NA
ATOM     58  C   UNL A   1      44.817  24.007  28.698  1.00  0.00     0.031 C 
ATOM     59  C   UNL A   1      46.733  28.903  31.730  1.00  0.00     0.029 A 
ATOM     60  C   UNL A   1      45.945  28.005  31.027  1.00  0.00     0.049 A 
ATOM     61  H   UNL A   1      43.932  28.190  30.420  1.00  0.00     0.167 HD
ATOM     62  C   UNL A   1      45.455  25.879  29.856  1.00  0.00     0.074 A 
ATOM     63  C   UNL A   1      45.825  24.576  29.345  1.00  0.00     0.031 C 
ATOM     64  C   UNL A   1      46.304  26.708  30.513  1.00  0.00     0.031 A 
BRANCH  51  65
ATOM     65  C   UNL A   1      43.758  32.094  32.139  1.00  0.00    -0.014 A 
ATOM     66  C   UNL A   1      43.412  32.319  33.481  1.00  0.00     0.009 A 
ATOM     67  C   UNL A   1      44.320  33.145  31.397  1.00  0.00     0.009 A 
ATOM     68  C   UNL A   1      43.595  33.578  34.057  1.00  0.00     0.001 A 
ATOM     69  C   UNL A   1      44.531  34.394  31.984  1.00  0.00     0.001 A 
ATOM     70  C   UNL A   1      44.159  34.612  33.309  1.00  0.00     0.000 A 
ENDBRANCH  51  65
BRANCH  52  71
ATOM     71  C   UNL A   1      42.181  23.339  27.638  1.00  0.00    -0.014 A 
ATOM     72  C   UNL A   1      42.540  23.183  26.290  1.00  0.00     0.009 A 
ATOM     73  C   UNL A   1      41.592  22.256  28.312  1.00  0.00     0.009 A 
ATOM     74  C   UNL A   1      42.287  21.981  25.625  1.00  0.00     0.001 A 
ATOM     75  C   UNL A   1      41.370  21.045  27.652  1.00  0.00     0.001 A 
ATOM     76  C   UNL A   1      41.708  20.912  26.306  1.00  0.00     0.000 A 
ENDBRANCH  52  71
BRANCH  64  77
ATOM     77  C   UNL A   1      47.705  26.216  30.755  1.00  0.00    -0.014 A 
ATOM     78  C   UNL A   1      48.696  26.311  29.765  1.00  0.00     0.009 A 
ATOM     79  C   UNL A   1      48.048  25.687  32.009  1.00  0.00     0.009 A 
ATOM     80  C   UNL A   1      49.992  25.853  30.016  1.00  0.00     0.001 A 
ATOM     81  C   UNL A   1      49.351  25.260  32.269  1.00  0.00     0.001 A 
ATOM     82  C   UNL A   1      50.319  25.334  31.268  1.00  0.00     0.000 A 
ENDBRANCH  64  77
ENDBRANCH  38  39
ENDBRANCH  31  33
ENDBRANCH  30  31
ENDBRANCH  29  30
ENDBRANCH  28  29
ENDBRANCH  27  28
ENDBRANCH  26  27
ENDBRANCH   1  26
TORSDOF 20
ENDMDL
MODEL 2
REMARK VINA RESULT:      -8.2      3.855      9.147
REMARK SMILES CCc1ccc(-c2nc(-c3cccc(C(=O)OCCOCCOCCOC(=O)c4ccc(-c5c6nc(c(-c7ccccc7)c7ccc([nH]7)c(-c7ccccc7)c7nc(c(-c8ccccc8)c8ccc5[nH]8)C=C7)C=C6)cc4)c3)no2)o1
REMARK SMILES IDX 21 1 20 2 19 3 18 4 17 5 15 6 16 7 14 8 10 9 11 10 77 11
REMARK SMILES IDX 12 12 13 13 9 14 7 15 8 16 79 17 78 18 6 19 3 20 4 21 80 22
REMARK SMILES IDX 5 23 2 24 1 25 22 26 23 27 24 28 25 29 26 30 27 31 28 32
REMARK SMILES IDX 29 33 30 34 76 35 31 36 75 37 32 38 33 39 34 40 69 41 35 42
REMARK SMILES IDX 74 43 68 44 70 45 36 46 73 47 67 48 66 49 37 51 59 52 44 53
REMARK SMILES IDX 58 54 45 55 48 56 57 57 71 58 46 59 47 60 56 62 72 63 49 64
REMARK SMILES IDX 38 65 39 66 43 67 40 68 42 69 41 70 60 71 61 72 65 73 62 74
REMARK SMILES IDX 64 75 63 76 50 77 51 78 55 79 52 80 54 81 53 82
REMARK H PARENT 70 50 48 61
REMARK Flexibility Score: inf
ROOT
ATOM      1  C   UNL A   1      34.489  35.184  32.297  1.00  0.00     0.188 C 
ENDROOT
BRANCH   1   2
ATOM      2  O   UNL A   1      33.898  35.996  31.292  1.00  0.00    -0.376 OA
BRANCH   2   3
ATOM      3  C   UNL A   1      32.897  35.451  30.440  1.00  0.00     0.202 C 
BRANCH   3   4
ATOM      4  C   UNL A   1      33.236  35.079  28.986  1.00  0.00     0.261 C 
BRANCH   4   5
ATOM      5  O   UNL A   1      33.709  33.735  28.800  1.00  0.00    -0.460 OA
BRANCH   5   6
ATOM      6  C   UNL A   1      35.033  33.607  28.521  1.00  0.00     0.338 C 
ATOM      7  O   UNL A   1      35.908  34.429  28.710  1.00  0.00    -0.246 OA
BRANCH   6   8
ATOM      8  C   UNL A   1      35.313  32.200  28.149  1.00  0.00     0.060 A 
ATOM      9  C   UNL A   1      34.630  30.030  27.319  1.00  0.00     0.024 A 
ATOM     10  C   UNL A   1      35.892  29.514  27.649  1.00  0.00     0.012 A 
ATOM     11  C   UNL A   1      34.337  31.377  27.582  1.00  0.00     0.027 A 
ATOM     12  C   UNL A   1      36.869  30.343  28.203  1.00  0.00     0.002 A 
ATOM     13  C   UNL A   1      36.585  31.688  28.441  1.00  0.00     0.016 A 
BRANCH   9  14
ATOM     14  C   UNL A   1      33.642  29.200  26.658  1.00  0.00     0.202 A 
ATOM     15  C   UNL A   1      32.023  28.715  25.407  1.00  0.00     0.293 A 
ATOM     16  N   UNL A   1      32.737  29.753  25.789  1.00  0.00    -0.184 NA
ATOM     17  O   UNL A   1      32.433  27.551  25.999  1.00  0.00    -0.330 OA
ATOM     18  N   UNL A   1      33.535  27.872  26.802  1.00  0.00    -0.057 NA
BRANCH  15  19
ATOM     19  C   UNL A   1      30.970  28.811  24.447  1.00  0.00     0.192 A 
ATOM     20  C   UNL A   1      29.445  29.708  23.128  1.00  0.00     0.104 A 
ATOM     21  C   UNL A   1      29.480  28.367  22.817  1.00  0.00     0.046 A 
ATOM     22  O   UNL A   1      30.310  29.975  24.147  1.00  0.00    -0.456 OA
ATOM     23  C   UNL A   1      30.474  27.798  23.645  1.00  0.00     0.056 A 
BRANCH  20  24
ATOM     24  C   UNL A   1      28.684  30.863  22.582  1.00  0.00     0.072 C 
ATOM     25  C   UNL A   1      27.514  31.246  23.478  1.00  0.00     0.012 C 
ENDBRANCH  20  24
ENDBRANCH  15  19
ENDBRANCH   9  14
ENDBRANCH   6   8
ENDBRANCH   5   6
ENDBRANCH   4   5
ENDBRANCH   3   4
ENDBRANCH   2   3
ENDBRANCH   1   2
BRANCH   1  26
ATOM     26  C   UNL A   1      33.638  34.139  33.052  1.00  0.00     0.188 C 
BRANCH  26  27
ATOM     27  O   UNL A   1      33.712  32.840  32.519  1.00  0.00    -0.376 OA
BRANCH  27  28
ATOM     28  C   UNL A   1      34.903  32.398  31.895  1.00  0.00     0.202 C 
BRANCH  28  29
ATOM     29  C   UNL A   1      35.875  31.356  32.488  1.00  0.00     0.261 C 
BRANCH  29  30
ATOM     30  O   UNL A   1      36.793  31.778  33.504  1.00  0.00    -0.460 OA
BRANCH  30  31
ATOM     31  C   UNL A   1      37.521  32.886  33.251  1.00  0.00     0.338 C 
ATOM     32  O   UNL A   1      37.347  34.011  33.704  1.00  0.00    -0.246 OA
BRANCH  31  33
ATOM     33  C   UNL A   1      38.687  32.497  32.438  1.00  0.00     0.060 A 
ATOM     34  C   UNL A   1      38.720  32.850  31.082  1.00  0.00     0.016 A 
ATOM     35  C   UNL A   1      39.739  31.778  33.009  1.00  0.00     0.016 A 
ATOM     36  C   UNL A   1      39.808  32.476  30.291  1.00  0.00     0.010 A 
ATOM     37  C   UNL A   1      40.818  31.388  32.210  1.00  0.00     0.010 A 
ATOM     38  C   UNL A   1      40.851  31.719  30.843  1.00  0.00    -0.014 A 
BRANCH  38  39
ATOM     39  C   UNL A   1      41.915  31.164  29.972  1.00  0.00     0.031 A 
ATOM     40  C   UNL A   1      41.728  29.800  29.369  1.00  0.00     0.074 A 
ATOM     41  C   UNL A   1      43.037  31.862  29.719  1.00  0.00     0.049 A 
ATOM     42  N   UNL A   1      42.551  29.098  28.631  1.00  0.00    -0.248 NA
ATOM     43  C   UNL A   1      40.442  29.137  29.637  1.00  0.00     0.031 C 
ATOM     44  C   UNL A   1      43.325  33.211  30.204  1.00  0.00     0.029 A 
ATOM     45  N   UNL A   1      44.152  31.519  28.993  1.00  0.00    -0.354 N 
ATOM     46  C   UNL A   1      41.886  27.910  28.352  1.00  0.00     0.074 A 
ATOM     47  C   UNL A   1      40.604  27.975  29.021  1.00  0.00     0.031 C 
ATOM     48  C   UNL A   1      44.544  33.577  29.773  1.00  0.00     0.029 A 
ATOM     49  C   UNL A   1      45.137  32.476  29.015  1.00  0.00     0.049 A 
ATOM     50  H   UNL A   1      44.236  30.669  28.504  1.00  0.00     0.167 HD
ATOM     51  C   UNL A   1      42.304  26.861  27.606  1.00  0.00     0.031 A 
ATOM     52  C   UNL A   1      46.385  32.454  28.507  1.00  0.00     0.031 A 
ATOM     53  C   UNL A   1      43.587  26.783  26.959  1.00  0.00     0.049 A 
ATOM     54  C   UNL A   1      46.861  31.234  27.759  1.00  0.00     0.074 A 
ATOM     55  C   UNL A   1      44.094  25.766  26.168  1.00  0.00     0.029 A 
ATOM     56  N   UNL A   1      44.572  27.755  27.040  1.00  0.00    -0.354 N 
ATOM     57  N   UNL A   1      46.213  30.131  27.474  1.00  0.00    -0.248 NA
ATOM     58  C   UNL A   1      48.245  31.263  27.259  1.00  0.00     0.031 C 
ATOM     59  C   UNL A   1      45.409  26.094  25.823  1.00  0.00     0.029 A 
ATOM     60  C   UNL A   1      45.696  27.347  26.341  1.00  0.00     0.049 A 
ATOM     61  H   UNL A   1      44.485  28.609  27.522  1.00  0.00     0.167 HD
ATOM     62  C   UNL A   1      47.096  29.350  26.739  1.00  0.00     0.074 A 
ATOM     63  C   UNL A   1      48.320  30.112  26.608  1.00  0.00     0.031 C 
ATOM     64  C   UNL A   1      46.911  28.112  26.219  1.00  0.00     0.031 A 
BRANCH  51  65
ATOM     65  C   UNL A   1      41.374  25.686  27.482  1.00  0.00    -0.014 A 
ATOM     66  C   UNL A   1      41.548  24.530  28.258  1.00  0.00     0.009 A 
ATOM     67  C   UNL A   1      40.284  25.754  26.600  1.00  0.00     0.009 A 
ATOM     68  C   UNL A   1      40.668  23.453  28.130  1.00  0.00     0.001 A 
ATOM     69  C   UNL A   1      39.388  24.689  26.497  1.00  0.00     0.001 A 
ATOM     70  C   UNL A   1      39.586  23.536  27.254  1.00  0.00     0.000 A 
ENDBRANCH  51  65
BRANCH  52  71
ATOM     71  C   UNL A   1      47.295  33.613  28.707  1.00  0.00    -0.014 A 
ATOM     72  C   UNL A   1      47.318  34.676  27.792  1.00  0.00     0.009 A 
ATOM     73  C   UNL A   1      48.174  33.644  29.803  1.00  0.00     0.009 A 
ATOM     74  C   UNL A   1      48.218  35.731  27.954  1.00  0.00     0.001 A 
ATOM     75  C   UNL A   1      49.052  34.717  29.979  1.00  0.00     0.001 A 
ATOM     76  C   UNL A   1      49.081  35.754  29.048  1.00  0.00     0.000 A 
ENDBRANCH  52  71
BRANCH  64  77
ATOM     77  C   UNL A   1      48.041  27.517  25.423  1.00  0.00    -0.014 A 
ATOM     78  C   UNL A   1      49.093  26.827  26.047  1.00  0.00     0.009 A 
ATOM     79  C   UNL A   1      48.031  27.615  24.023  1.00  0.00     0.009 A 
ATOM     80  C   UNL A   1      50.128  26.279  25.286  1.00  0.00     0.001 A 
ATOM     81  C   UNL A   1      49.049  27.038  23.262  1.00  0.00     0.001 A 
ATOM     82  C   UNL A   1      50.102  26.379  23.895  1.00  0.00     0.000 A 
ENDBRANCH  64  77
ENDBRANCH  38  39
ENDBRANCH  31  33
ENDBRANCH  30  31
ENDBRANCH  29  30
ENDBRANCH  28  29
ENDBRANCH  27  28
ENDBRANCH  26  27
ENDBRANCH   1  26
TORSDOF 20
ENDMDL
MODEL 3
REMARK VINA RESULT:      -8.0      3.013      7.130
REMARK SMILES CCc1ccc(-c2nc(-c3cccc(C(=O)OCCOCCOCCOC(=O)c4ccc(-c5c6nc(c(-c7ccccc7)c7ccc([nH]7)c(-c7ccccc7)c7nc(c(-c8ccccc8)c8ccc5[nH]8)C=C7)C=C6)cc4)c3)no2)o1
REMARK SMILES IDX 21 1 20 2 19 3 18 4 17 5 15 6 16 7 14 8 10 9 11 10 77 11
REMARK SMILES IDX 12 12 13 13 9 14 7 15 8 16 79 17 78 18 6 19 3 20 4 21 80 22
REMARK SMILES IDX 5 23 2 24 1 25 22 26 23 27 24 28 25 29 26 30 27 31 28 32
REMARK SMILES IDX 29 33 30 34 76 35 31 36 75 37 32 38 33 39 34 40 69 41 35 42
REMARK SMILES IDX 74 43 68 44 70 45 36 46 73 47 67 48 66 49 37 51 59 52 44 53
REMARK SMILES IDX 58 54 45 55 48 56 57 57 71 58 46 59 47 60 56 62 72 63 49 64
REMARK SMILES IDX 38 65 39 66 43 67 40 68 42 69 41 70 60 71 61 72 65 73 62 74
REMARK SMILES IDX 64 75 63 76 50 77 51 78 55 79 52 80 54 81 53 82
REMARK H PARENT 70 50 48 61
REMARK Flexibility Score: inf
ROOT
ATOM      1  C   UNL A   1      33.392  36.967  30.250  1.00  0.00     0.188 C 
ENDROOT
BRANCH   1   2
ATOM      2  O   UNL A   1      33.046  37.409  31.557  1.00  0.00    -0.376 OA
BRANCH   2   3
ATOM      3  C   UNL A   1      34.004  37.337  32.605  1.00  0.00     0.202 C 
BRANCH   3   4
ATOM      4  C   UNL A   1      34.301  35.992  33.291  1.00  0.00     0.261 C 
BRANCH   4   5
ATOM      5  O   UNL A   1      35.696  35.671  33.416  1.00  0.00    -0.460 OA
BRANCH   5   6
ATOM      6  C   UNL A   1      35.978  34.415  33.849  1.00  0.00     0.338 C 
ATOM      7  O   UNL A   1      35.211  33.624  34.365  1.00  0.00    -0.246 OA
BRANCH   6   8
ATOM      8  C   UNL A   1      37.337  34.040  33.394  1.00  0.00     0.060 A 
ATOM      9  C   UNL A   1      39.084  33.957  31.719  1.00  0.00     0.024 A 
ATOM     10  C   UNL A   1      39.844  33.134  32.562  1.00  0.00     0.012 A 
ATOM     11  C   UNL A   1      37.819  34.403  32.133  1.00  0.00     0.027 A 
ATOM     12  C   UNL A   1      39.364  32.787  33.826  1.00  0.00     0.002 A 
ATOM     13  C   UNL A   1      38.118  33.249  34.247  1.00  0.00     0.016 A 
BRANCH   9  14
ATOM     14  C   UNL A   1      39.613  34.400  30.443  1.00  0.00     0.202 A 
ATOM     15  C   UNL A   1      41.000  35.188  29.073  1.00  0.00     0.293 A 
ATOM     16  N   UNL A   1      40.888  34.896  30.352  1.00  0.00    -0.184 NA
ATOM     17  O   UNL A   1      39.860  34.905  28.370  1.00  0.00    -0.330 OA
ATOM     18  N   UNL A   1      38.953  34.345  29.278  1.00  0.00    -0.057 NA
BRANCH  15  19
ATOM     19  C   UNL A   1      42.202  35.702  28.500  1.00  0.00     0.192 A 
ATOM     20  C   UNL A   1      43.911  37.050  28.132  1.00  0.00     0.104 A 
ATOM     21  C   UNL A   1      44.139  35.925  27.371  1.00  0.00     0.046 A 
ATOM     22  O   UNL A   1      42.716  36.942  28.780  1.00  0.00    -0.456 OA
ATOM     23  C   UNL A   1      43.058  35.052  27.626  1.00  0.00     0.056 A 
BRANCH  20  24
ATOM     24  C   UNL A   1      44.688  38.295  28.373  1.00  0.00     0.072 C 
ATOM     25  C   UNL A   1      46.180  38.017  28.490  1.00  0.00     0.012 C 
ENDBRANCH  20  24
ENDBRANCH  15  19
ENDBRANCH   9  14
ENDBRANCH   6   8
ENDBRANCH   5   6
ENDBRANCH   4   5
ENDBRANCH   3   4
ENDBRANCH   2   3
ENDBRANCH   1   2
BRANCH   1  26
ATOM     26  C   UNL A   1      32.813  35.647  29.698  1.00  0.00     0.188 C 
BRANCH  26  27
ATOM     27  O   UNL A   1      33.783  34.707  29.311  1.00  0.00    -0.376 OA
BRANCH  27  28
ATOM     28  C   UNL A   1      34.721  34.228  30.258  1.00  0.00     0.202 C 
BRANCH  28  29
ATOM     29  C   UNL A   1      34.754  32.790  30.818  1.00  0.00     0.261 C 
BRANCH  29  30
ATOM     30  O   UNL A   1      35.815  31.920  30.407  1.00  0.00    -0.460 OA
BRANCH  30  31
ATOM     31  C   UNL A   1      36.400  31.172  31.365  1.00  0.00     0.338 C 
ATOM     32  O   UNL A   1      35.954  30.900  32.473  1.00  0.00    -0.246 OA
BRANCH  31  33
ATOM     33  C   UNL A   1      37.631  30.586  30.806  1.00  0.00     0.060 A 
ATOM     34  C   UNL A   1      38.554  29.987  31.673  1.00  0.00     0.016 A 
ATOM     35  C   UNL A   1      37.877  30.637  29.432  1.00  0.00     0.016 A 
ATOM     36  C   UNL A   1      39.734  29.440  31.165  1.00  0.00     0.010 A 
ATOM     37  C   UNL A   1      39.069  30.106  28.929  1.00  0.00     0.010 A 
ATOM     38  C   UNL A   1      40.012  29.522  29.793  1.00  0.00    -0.014 A 
BRANCH  38  39
ATOM     39  C   UNL A   1      41.339  29.110  29.273  1.00  0.00     0.031 A 
ATOM     40  C   UNL A   1      41.528  27.698  28.791  1.00  0.00     0.074 A 
ATOM     41  C   UNL A   1      42.366  29.977  29.229  1.00  0.00     0.049 A 
ATOM     42  N   UNL A   1      42.612  27.108  28.356  1.00  0.00    -0.248 NA
ATOM     43  C   UNL A   1      40.334  26.837  28.806  1.00  0.00     0.031 C 
ATOM     44  C   UNL A   1      42.305  31.384  29.623  1.00  0.00     0.029 A 
ATOM     45  N   UNL A   1      43.669  29.792  28.837  1.00  0.00    -0.354 N 
ATOM     46  C   UNL A   1      42.234  25.806  28.051  1.00  0.00     0.074 A 
ATOM     47  C   UNL A   1      40.829  25.685  28.376  1.00  0.00     0.031 C 
ATOM     48  C   UNL A   1      43.523  31.932  29.466  1.00  0.00     0.029 A 
ATOM     49  C   UNL A   1      44.455  30.908  28.998  1.00  0.00     0.049 A 
ATOM     50  H   UNL A   1      44.008  28.941  28.478  1.00  0.00     0.167 HD
ATOM     51  C   UNL A   1      42.988  24.801  27.546  1.00  0.00     0.031 A 
ATOM     52  C   UNL A   1      45.779  31.074  28.815  1.00  0.00     0.031 A 
ATOM     53  C   UNL A   1      44.391  24.911  27.243  1.00  0.00     0.049 A 
ATOM     54  C   UNL A   1      46.616  29.913  28.341  1.00  0.00     0.074 A 
ATOM     55  C   UNL A   1      45.236  23.951  26.713  1.00  0.00     0.029 A 
ATOM     56  N   UNL A   1      45.158  26.045  27.459  1.00  0.00    -0.354 N 
ATOM     57  N   UNL A   1      46.242  28.697  28.025  1.00  0.00    -0.248 NA
ATOM     58  C   UNL A   1      48.060  30.154  28.194  1.00  0.00     0.031 C 
ATOM     59  C   UNL A   1      46.529  24.484  26.667  1.00  0.00     0.029 A 
ATOM     60  C   UNL A   1      46.474  25.798  27.103  1.00  0.00     0.049 A 
ATOM     61  H   UNL A   1      44.819  26.899  27.811  1.00  0.00     0.167 HD
ATOM     62  C   UNL A   1      47.396  28.038  27.615  1.00  0.00     0.074 A 
ATOM     63  C   UNL A   1      48.479  28.995  27.707  1.00  0.00     0.031 C 
ATOM     64  C   UNL A   1      47.546  26.756  27.200  1.00  0.00     0.031 A 
BRANCH  51  65
ATOM     65  C   UNL A   1      42.316  23.475  27.324  1.00  0.00    -0.014 A 
ATOM     66  C   UNL A   1      41.649  23.185  26.123  1.00  0.00     0.009 A 
ATOM     67  C   UNL A   1      42.384  22.487  28.318  1.00  0.00     0.009 A 
ATOM     68  C   UNL A   1      41.037  21.943  25.936  1.00  0.00     0.001 A 
ATOM     69  C   UNL A   1      41.798  21.236  28.117  1.00  0.00     0.001 A 
ATOM     70  C   UNL A   1      41.116  20.969  26.931  1.00  0.00     0.000 A 
ENDBRANCH  51  65
BRANCH  52  71
ATOM     71  C   UNL A   1      46.416  32.386  29.107  1.00  0.00    -0.014 A 
ATOM     72  C   UNL A   1      46.631  33.324  28.086  1.00  0.00     0.009 A 
ATOM     73  C   UNL A   1      46.844  32.693  30.409  1.00  0.00     0.009 A 
ATOM     74  C   UNL A   1      47.284  34.528  28.356  1.00  0.00     0.001 A 
ATOM     75  C   UNL A   1      47.469  33.912  30.683  1.00  0.00     0.001 A 
ATOM     76  C   UNL A   1      47.699  34.824  29.654  1.00  0.00     0.000 A 
ENDBRANCH  52  71
BRANCH  64  77
ATOM     77  C   UNL A   1      48.921  26.322  26.773  1.00  0.00    -0.014 A 
ATOM     78  C   UNL A   1      49.325  26.383  25.430  1.00  0.00     0.009 A 
ATOM     79  C   UNL A   1      49.841  25.883  27.738  1.00  0.00     0.009 A 
ATOM     80  C   UNL A   1      50.610  25.979  25.060  1.00  0.00     0.001 A 
ATOM     81  C   UNL A   1      51.135  25.511  27.370  1.00  0.00     0.001 A 
ATOM     82  C   UNL A   1      51.515  25.549  26.029  1.00  0.00     0.000 A 
ENDBRANCH  64  77
ENDBRANCH  38  39
ENDBRANCH  31  33
ENDBRANCH  30  31
ENDBRANCH  29  30
ENDBRANCH  28  29
ENDBRANCH  27  28
ENDBRANCH  26  27
ENDBRANCH   1  26
TORSDOF 20
ENDMDL
