MODEL 1
REMARK VINA RESULT:     -10.7      0.000      0.000
REMARK SMILES C[C@H](NC(=O)c1c(C(=O)OCCOCCOCCOC(=O)c2ccc(-c3c4nc(c(-c5ccccc5)c5ccc([nH]5)c(-c5ccccc5)c5nc(c(-c6ccccc6)c6ccc3[nH]6)C=C5)C=C4)cc2)cnn1C)[C@]12C[C@H]3C[C@H](C[C@H](C3)C1)C2
REMARK SMILES IDX 14 1 13 2 12 3 11 4 10 5 8 6 9 7 7 8 6 9 72 10 70 11 71 12
REMARK SMILES IDX 73 13 4 14 3 15 5 17 2 18 1 19 74 20 75 21 82 22 83 23 76 24
REMARK SMILES IDX 80 25 78 26 77 27 81 28 79 29 15 30 16 31 17 32 18 33 19 34
REMARK SMILES IDX 20 35 21 36 22 37 23 38 69 39 24 40 68 41 25 42 26 43 27 44
REMARK SMILES IDX 62 45 28 46 67 47 61 48 63 49 29 50 66 51 60 52 59 53 30 55
REMARK SMILES IDX 52 56 37 57 51 58 38 59 41 60 50 61 64 62 39 63 40 64 49 66
REMARK SMILES IDX 65 67 42 68 31 69 32 70 36 71 33 72 35 73 34 74 53 75 54 76
REMARK SMILES IDX 58 77 55 78 57 79 56 80 43 81 44 82 48 83 45 84 47 85 46 86
REMARK H PARENT 3 16 63 54 41 65
REMARK Flexibility Score: inf
ROOT
ATOM      1  C   UNL A   1      40.778  20.694  26.821  1.00  0.00     0.188 C 
ENDROOT
BRANCH   1   2
ATOM      2  O   UNL A   1      39.613  21.157  26.149  1.00  0.00    -0.376 OA
BRANCH   2   3
ATOM      3  C   UNL A   1      38.824  20.170  25.495  1.00  0.00     0.202 C 
BRANCH   3   4
ATOM      4  C   UNL A   1      37.628  20.770  24.745  1.00  0.00     0.261 C 
BRANCH   4   5
ATOM      5  O   UNL A   1      36.356  20.325  25.243  1.00  0.00    -0.460 OA
BRANCH   5   6
ATOM      6  C   UNL A   1      35.545  21.303  25.719  1.00  0.00     0.342 C 
ATOM      7  O   UNL A   1      35.921  22.235  26.421  1.00  0.00    -0.246 OA
BRANCH   6   8
ATOM      8  C   UNL A   1      34.216  21.252  25.159  1.00  0.00     0.111 A 
ATOM      9  C   UNL A   1      33.617  22.066  24.195  1.00  0.00     0.140 A 
ATOM     10  N   UNL A   1      32.513  21.321  23.833  1.00  0.00    -0.262 N 
ATOM     11  C   UNL A   1      33.223  20.319  25.524  1.00  0.00     0.151 A 
ATOM     12  N   UNL A   1      32.121  20.455  24.792  1.00  0.00    -0.180 NA
ATOM     13  C   UNL A   1      32.047  21.043  22.490  1.00  0.00     0.174 C 
BRANCH   9  14
ATOM     14  C   UNL A   1      34.188  23.178  23.472  1.00  0.00     0.270 C 
ATOM     15  N   UNL A   1      33.777  24.474  23.706  1.00  0.00    -0.348 N 
ATOM     16  H   UNL A   1      34.154  25.132  23.079  1.00  0.00     0.164 HD
ATOM     17  O   UNL A   1      35.066  23.007  22.628  1.00  0.00    -0.267 OA
BRANCH  15  18
ATOM     18  C   UNL A   1      32.877  25.059  24.716  1.00  0.00     0.085 C 
ATOM     19  C   UNL A   1      33.476  24.823  26.109  1.00  0.00     0.031 C 
BRANCH  18  20
ATOM     20  C   UNL A   1      32.543  26.584  24.456  1.00  0.00    -0.009 C 
ATOM     21  C   UNL A   1      33.141  27.471  25.570  1.00  0.00     0.012 C 
ATOM     22  C   UNL A   1      31.030  26.942  24.371  1.00  0.00     0.012 C 
ATOM     23  C   UNL A   1      33.186  27.003  23.100  1.00  0.00     0.012 C 
ATOM     24  C   UNL A   1      32.967  28.967  25.301  1.00  0.00    -0.010 C 
ATOM     25  C   UNL A   1      30.829  28.453  24.099  1.00  0.00    -0.010 C 
ATOM     26  C   UNL A   1      33.004  28.507  22.832  1.00  0.00    -0.010 C 
ATOM     27  C   UNL A   1      33.650  29.310  23.971  1.00  0.00     0.007 C 
ATOM     28  C   UNL A   1      31.469  29.277  25.226  1.00  0.00     0.007 C 
ATOM     29  C   UNL A   1      31.504  28.833  22.770  1.00  0.00     0.007 C 
ENDBRANCH  18  20
ENDBRANCH  15  18
ENDBRANCH   9  14
ENDBRANCH   6   8
ENDBRANCH   5   6
ENDBRANCH   4   5
ENDBRANCH   3   4
ENDBRANCH   2   3
ENDBRANCH   1   2
BRANCH   1  30
ATOM     30  C   UNL A   1      41.501  19.524  26.127  1.00  0.00     0.188 C 
BRANCH  30  31
ATOM     31  O   UNL A   1      42.430  19.747  25.073  1.00  0.00    -0.376 OA
BRANCH  31  32
ATOM     32  C   UNL A   1      43.805  19.921  25.359  1.00  0.00     0.202 C 
BRANCH  32  33
ATOM     33  C   UNL A   1      44.283  21.354  25.588  1.00  0.00     0.261 C 
BRANCH  33  34
ATOM     34  O   UNL A   1      43.382  22.349  25.080  1.00  0.00    -0.460 OA
BRANCH  34  35
ATOM     35  C   UNL A   1      43.912  23.589  24.950  1.00  0.00     0.338 C 
ATOM     36  O   UNL A   1      44.763  23.953  24.156  1.00  0.00    -0.246 OA
BRANCH  35  37
ATOM     37  C   UNL A   1      43.202  24.531  25.840  1.00  0.00     0.060 A 
ATOM     38  C   UNL A   1      43.611  25.870  25.836  1.00  0.00     0.016 A 
ATOM     39  C   UNL A   1      42.194  24.100  26.708  1.00  0.00     0.016 A 
ATOM     40  C   UNL A   1      43.041  26.777  26.727  1.00  0.00     0.010 A 
ATOM     41  C   UNL A   1      41.638  25.007  27.616  1.00  0.00     0.010 A 
ATOM     42  C   UNL A   1      42.083  26.340  27.651  1.00  0.00    -0.014 A 
BRANCH  42  43
ATOM     43  C   UNL A   1      41.682  27.231  28.762  1.00  0.00     0.031 A 
ATOM     44  C   UNL A   1      42.493  27.218  30.029  1.00  0.00     0.074 A 
ATOM     45  C   UNL A   1      40.625  28.054  28.650  1.00  0.00     0.049 A 
ATOM     46  N   UNL A   1      42.333  27.916  31.124  1.00  0.00    -0.248 NA
ATOM     47  C   UNL A   1      43.640  26.294  30.061  1.00  0.00     0.031 C 
ATOM     48  C   UNL A   1      39.783  28.198  27.465  1.00  0.00     0.029 A 
ATOM     49  N   UNL A   1      40.084  28.928  29.560  1.00  0.00    -0.354 N 
ATOM     50  C   UNL A   1      43.357  27.518  31.974  1.00  0.00     0.074 A 
ATOM     51  C   UNL A   1      44.117  26.502  31.279  1.00  0.00     0.031 C 
ATOM     52  C   UNL A   1      38.828  29.109  27.720  1.00  0.00     0.029 A 
ATOM     53  C   UNL A   1      38.978  29.592  29.092  1.00  0.00     0.049 A 
ATOM     54  H   UNL A   1      40.455  29.065  30.461  1.00  0.00     0.167 HD
ATOM     55  C   UNL A   1      43.644  27.959  33.221  1.00  0.00     0.031 A 
ATOM     56  C   UNL A   1      38.174  30.480  29.708  1.00  0.00     0.031 A 
ATOM     57  C   UNL A   1      42.882  28.951  33.928  1.00  0.00     0.049 A 
ATOM     58  C   UNL A   1      38.456  30.881  31.130  1.00  0.00     0.074 A 
ATOM     59  C   UNL A   1      43.112  29.482  35.186  1.00  0.00     0.029 A 
ATOM     60  N   UNL A   1      41.730  29.548  33.445  1.00  0.00    -0.354 N 
ATOM     61  N   UNL A   1      39.450  30.529  31.908  1.00  0.00    -0.248 NA
ATOM     62  C   UNL A   1      37.499  31.805  31.757  1.00  0.00     0.031 C 
ATOM     63  C   UNL A   1      42.069  30.366  35.484  1.00  0.00     0.029 A 
ATOM     64  C   UNL A   1      41.216  30.416  34.393  1.00  0.00     0.049 A 
ATOM     65  H   UNL A   1      41.335  29.381  32.559  1.00  0.00     0.167 HD
ATOM     66  C   UNL A   1      39.255  31.209  33.104  1.00  0.00     0.074 A 
ATOM     67  C   UNL A   1      38.049  31.997  32.948  1.00  0.00     0.031 C 
ATOM     68  C   UNL A   1      40.013  31.189  34.227  1.00  0.00     0.031 A 
BRANCH  55  69
ATOM     69  C   UNL A   1      44.818  27.330  33.911  1.00  0.00    -0.014 A 
ATOM     70  C   UNL A   1      44.669  26.172  34.690  1.00  0.00     0.009 A 
ATOM     71  C   UNL A   1      46.091  27.904  33.777  1.00  0.00     0.009 A 
ATOM     72  C   UNL A   1      45.767  25.622  35.352  1.00  0.00     0.001 A 
ATOM     73  C   UNL A   1      47.191  27.340  34.424  1.00  0.00     0.001 A 
ATOM     74  C   UNL A   1      47.027  26.205  35.218  1.00  0.00     0.000 A 
ENDBRANCH  55  69
BRANCH  56  75
ATOM     75  C   UNL A   1      37.012  31.053  28.985  1.00  0.00    -0.014 A 
ATOM     76  C   UNL A   1      37.002  32.407  28.619  1.00  0.00     0.009 A 
ATOM     77  C   UNL A   1      35.899  30.255  28.676  1.00  0.00     0.009 A 
ATOM     78  C   UNL A   1      35.892  32.956  27.972  1.00  0.00     0.001 A 
ATOM     79  C   UNL A   1      34.799  30.802  28.013  1.00  0.00     0.001 A 
ATOM     80  C   UNL A   1      34.794  32.153  27.668  1.00  0.00     0.000 A 
ENDBRANCH  56  75
BRANCH  68  81
ATOM     81  C   UNL A   1      39.578  32.064  35.366  1.00  0.00    -0.014 A 
ATOM     82  C   UNL A   1      39.976  33.407  35.445  1.00  0.00     0.009 A 
ATOM     83  C   UNL A   1      38.719  31.549  36.351  1.00  0.00     0.009 A 
ATOM     84  C   UNL A   1      39.545  34.210  36.503  1.00  0.00     0.001 A 
ATOM     85  C   UNL A   1      38.271  32.361  37.394  1.00  0.00     0.001 A 
ATOM     86  C   UNL A   1      38.689  33.688  37.473  1.00  0.00     0.000 A 
ENDBRANCH  68  81
ENDBRANCH  42  43
ENDBRANCH  35  37
ENDBRANCH  34  35
ENDBRANCH  33  34
ENDBRANCH  32  33
ENDBRANCH  31  32
ENDBRANCH  30  31
ENDBRANCH   1  30
TORSDOF 20
ENDMDL
MODEL 2
REMARK VINA RESULT:     -10.5      3.880      9.248
REMARK SMILES C[C@H](NC(=O)c1c(C(=O)OCCOCCOCCOC(=O)c2ccc(-c3c4nc(c(-c5ccccc5)c5ccc([nH]5)c(-c5ccccc5)c5nc(c(-c6ccccc6)c6ccc3[nH]6)C=C5)C=C4)cc2)cnn1C)[C@]12C[C@H]3C[C@H](C[C@H](C3)C1)C2
REMARK SMILES IDX 14 1 13 2 12 3 11 4 10 5 8 6 9 7 7 8 6 9 72 10 70 11 71 12
REMARK SMILES IDX 73 13 4 14 3 15 5 17 2 18 1 19 74 20 75 21 82 22 83 23 76 24
REMARK SMILES IDX 80 25 78 26 77 27 81 28 79 29 15 30 16 31 17 32 18 33 19 34
REMARK SMILES IDX 20 35 21 36 22 37 23 38 69 39 24 40 68 41 25 42 26 43 27 44
REMARK SMILES IDX 62 45 28 46 67 47 61 48 63 49 29 50 66 51 60 52 59 53 30 55
REMARK SMILES IDX 52 56 37 57 51 58 38 59 41 60 50 61 64 62 39 63 40 64 49 66
REMARK SMILES IDX 65 67 42 68 31 69 32 70 36 71 33 72 35 73 34 74 53 75 54 76
REMARK SMILES IDX 58 77 55 78 57 79 56 80 43 81 44 82 48 83 45 84 47 85 46 86
REMARK H PARENT 3 16 63 54 41 65
REMARK Flexibility Score: inf
ROOT
ATOM      1  C   UNL A   1      35.936  32.863  28.123  1.00  0.00     0.188 C 
ENDROOT
BRANCH   1   2
ATOM      2  O   UNL A   1      35.655  31.601  27.531  1.00  0.00    -0.376 OA
BRANCH   2   3
ATOM      3  C   UNL A   1      34.360  31.063  27.767  1.00  0.00     0.202 C 
BRANCH   3   4
ATOM      4  C   UNL A   1      34.317  29.536  27.618  1.00  0.00     0.261 C 
BRANCH   4   5
ATOM      5  O   UNL A   1      34.411  29.090  26.256  1.00  0.00    -0.460 OA
BRANCH   5   6
ATOM      6  C   UNL A   1      33.527  28.123  25.901  1.00  0.00     0.342 C 
ATOM      7  O   UNL A   1      33.438  27.031  26.451  1.00  0.00    -0.246 OA
BRANCH   6   8
ATOM      8  C   UNL A   1      32.561  28.574  24.929  1.00  0.00     0.111 A 
ATOM      9  C   UNL A   1      32.463  28.294  23.564  1.00  0.00     0.140 A 
ATOM     10  N   UNL A   1      31.176  28.703  23.277  1.00  0.00    -0.262 N 
ATOM     11  C   UNL A   1      31.486  29.445  25.206  1.00  0.00     0.151 A 
ATOM     12  N   UNL A   1      30.709  29.629  24.143  1.00  0.00    -0.180 NA
ATOM     13  C   UNL A   1      30.180  27.985  22.510  1.00  0.00     0.174 C 
BRANCH   9  14
ATOM     14  C   UNL A   1      33.303  27.443  22.756  1.00  0.00     0.270 C 
ATOM     15  N   UNL A   1      33.328  26.076  22.937  1.00  0.00    -0.348 N 
ATOM     16  H   UNL A   1      34.018  25.615  22.407  1.00  0.00     0.164 HD
ATOM     17  O   UNL A   1      34.021  27.910  21.873  1.00  0.00    -0.267 OA
BRANCH  15  18
ATOM     18  C   UNL A   1      32.518  25.175  23.776  1.00  0.00     0.085 C 
ATOM     19  C   UNL A   1      31.390  24.583  22.920  1.00  0.00     0.031 C 
BRANCH  18  20
ATOM     20  C   UNL A   1      33.369  24.057  24.506  1.00  0.00    -0.009 C 
ATOM     21  C   UNL A   1      33.308  22.727  23.723  1.00  0.00     0.012 C 
ATOM     22  C   UNL A   1      32.945  23.729  25.968  1.00  0.00     0.012 C 
ATOM     23  C   UNL A   1      34.854  24.526  24.556  1.00  0.00     0.012 C 
ATOM     24  C   UNL A   1      34.220  21.648  24.307  1.00  0.00    -0.010 C 
ATOM     25  C   UNL A   1      33.857  22.637  26.580  1.00  0.00    -0.010 C 
ATOM     26  C   UNL A   1      35.767  23.439  25.149  1.00  0.00    -0.010 C 
ATOM     27  C   UNL A   1      35.664  22.166  24.295  1.00  0.00     0.007 C 
ATOM     28  C   UNL A   1      33.771  21.354  25.741  1.00  0.00     0.007 C 
ATOM     29  C   UNL A   1      35.316  23.125  26.583  1.00  0.00     0.007 C 
ENDBRANCH  18  20
ENDBRANCH  15  18
ENDBRANCH   9  14
ENDBRANCH   6   8
ENDBRANCH   5   6
ENDBRANCH   4   5
ENDBRANCH   3   4
ENDBRANCH   2   3
ENDBRANCH   1   2
BRANCH   1  30
ATOM     30  C   UNL A   1      34.691  33.681  28.517  1.00  0.00     0.188 C 
BRANCH  30  31
ATOM     31  O   UNL A   1      34.802  35.012  29.006  1.00  0.00    -0.376 OA
BRANCH  31  32
ATOM     32  C   UNL A   1      33.820  35.978  28.679  1.00  0.00     0.202 C 
BRANCH  32  33
ATOM     33  C   UNL A   1      32.796  36.309  29.764  1.00  0.00     0.261 C 
BRANCH  33  34
ATOM     34  O   UNL A   1      32.617  35.260  30.727  1.00  0.00    -0.460 OA
BRANCH  34  35
ATOM     35  C   UNL A   1      32.789  35.633  32.018  1.00  0.00     0.338 C 
ATOM     36  O   UNL A   1      32.049  36.327  32.695  1.00  0.00    -0.246 OA
BRANCH  35  37
ATOM     37  C   UNL A   1      33.973  34.951  32.580  1.00  0.00     0.060 A 
ATOM     38  C   UNL A   1      35.217  35.579  32.441  1.00  0.00     0.016 A 
ATOM     39  C   UNL A   1      33.879  33.692  33.179  1.00  0.00     0.016 A 
ATOM     40  C   UNL A   1      36.378  34.934  32.865  1.00  0.00     0.010 A 
ATOM     41  C   UNL A   1      35.046  33.037  33.585  1.00  0.00     0.010 A 
ATOM     42  C   UNL A   1      36.301  33.641  33.399  1.00  0.00    -0.014 A 
BRANCH  42  43
ATOM     43  C   UNL A   1      37.542  32.859  33.596  1.00  0.00     0.031 A 
ATOM     44  C   UNL A   1      38.341  33.074  34.852  1.00  0.00     0.074 A 
ATOM     45  C   UNL A   1      37.950  31.957  32.686  1.00  0.00     0.049 A 
ATOM     46  N   UNL A   1      39.450  32.497  35.239  1.00  0.00    -0.248 NA
ATOM     47  C   UNL A   1      37.815  34.072  35.798  1.00  0.00     0.031 C 
ATOM     48  C   UNL A   1      37.247  31.619  31.451  1.00  0.00     0.029 A 
ATOM     49  N   UNL A   1      39.066  31.158  32.671  1.00  0.00    -0.354 N 
ATOM     50  C   UNL A   1      39.754  33.060  36.471  1.00  0.00     0.074 A 
ATOM     51  C   UNL A   1      38.728  34.039  36.757  1.00  0.00     0.031 C 
ATOM     52  C   UNL A   1      37.950  30.679  30.795  1.00  0.00     0.029 A 
ATOM     53  C   UNL A   1      39.161  30.370  31.553  1.00  0.00     0.049 A 
ATOM     54  H   UNL A   1      39.733  31.152  33.396  1.00  0.00     0.167 HD
ATOM     55  C   UNL A   1      40.791  32.786  37.296  1.00  0.00     0.031 A 
ATOM     56  C   UNL A   1      40.124  29.505  31.180  1.00  0.00     0.031 A 
ATOM     57  C   UNL A   1      41.827  31.832  37.011  1.00  0.00     0.049 A 
ATOM     58  C   UNL A   1      41.319  29.290  32.069  1.00  0.00     0.074 A 
ATOM     59  C   UNL A   1      42.905  31.466  37.799  1.00  0.00     0.029 A 
ATOM     60  N   UNL A   1      41.924  31.104  35.837  1.00  0.00    -0.354 N 
ATOM     61  N   UNL A   1      41.574  29.798  33.250  1.00  0.00    -0.248 NA
ATOM     62  C   UNL A   1      42.360  28.381  31.567  1.00  0.00     0.031 C 
ATOM     63  C   UNL A   1      43.682  30.552  37.078  1.00  0.00     0.029 A 
ATOM     64  C   UNL A   1      43.062  30.318  35.862  1.00  0.00     0.049 A 
ATOM     65  H   UNL A   1      41.278  31.140  35.095  1.00  0.00     0.167 HD
ATOM     66  C   UNL A   1      42.788  29.248  33.645  1.00  0.00     0.074 A 
ATOM     67  C   UNL A   1      43.217  28.366  32.579  1.00  0.00     0.031 C 
ATOM     68  C   UNL A   1      43.480  29.449  34.792  1.00  0.00     0.031 A 
BRANCH  55  69
ATOM     69  C   UNL A   1      40.870  33.571  38.573  1.00  0.00    -0.014 A 
ATOM     70  C   UNL A   1      40.236  33.121  39.741  1.00  0.00     0.009 A 
ATOM     71  C   UNL A   1      41.590  34.774  38.605  1.00  0.00     0.009 A 
ATOM     72  C   UNL A   1      40.293  33.882  40.910  1.00  0.00     0.001 A 
ATOM     73  C   UNL A   1      41.662  35.522  39.781  1.00  0.00     0.001 A 
ATOM     74  C   UNL A   1      41.006  35.081  40.929  1.00  0.00     0.000 A 
ENDBRANCH  55  69
BRANCH  56  75
ATOM     75  C   UNL A   1      40.007  28.773  29.894  1.00  0.00    -0.014 A 
ATOM     76  C   UNL A   1      39.492  27.468  29.866  1.00  0.00     0.009 A 
ATOM     77  C   UNL A   1      40.427  29.367  28.695  1.00  0.00     0.009 A 
ATOM     78  C   UNL A   1      39.418  26.766  28.661  1.00  0.00     0.001 A 
ATOM     79  C   UNL A   1      40.333  28.669  27.489  1.00  0.00     0.001 A 
ATOM     80  C   UNL A   1      39.835  27.367  27.475  1.00  0.00     0.000 A 
ENDBRANCH  56  75
BRANCH  68  81
ATOM     81  C   UNL A   1      44.759  28.683  34.969  1.00  0.00    -0.014 A 
ATOM     82  C   UNL A   1      44.774  27.428  35.595  1.00  0.00     0.009 A 
ATOM     83  C   UNL A   1      45.958  29.205  34.459  1.00  0.00     0.009 A 
ATOM     84  C   UNL A   1      45.971  26.722  35.732  1.00  0.00     0.001 A 
ATOM     85  C   UNL A   1      47.149  28.487  34.576  1.00  0.00     0.001 A 
ATOM     86  C   UNL A   1      47.156  27.250  35.219  1.00  0.00     0.000 A 
ENDBRANCH  68  81
ENDBRANCH  42  43
ENDBRANCH  35  37
ENDBRANCH  34  35
ENDBRANCH  33  34
ENDBRANCH  32  33
ENDBRANCH  31  32
ENDBRANCH  30  31
ENDBRANCH   1  30
TORSDOF 20
ENDMDL
MODEL 3
REMARK VINA RESULT:     -10.4      1.301      5.919
REMARK SMILES C[C@H](NC(=O)c1c(C(=O)OCCOCCOCCOC(=O)c2ccc(-c3c4nc(c(-c5ccccc5)c5ccc([nH]5)c(-c5ccccc5)c5nc(c(-c6ccccc6)c6ccc3[nH]6)C=C5)C=C4)cc2)cnn1C)[C@]12C[C@H]3C[C@H](C[C@H](C3)C1)C2
REMARK SMILES IDX 14 1 13 2 12 3 11 4 10 5 8 6 9 7 7 8 6 9 72 10 70 11 71 12
REMARK SMILES IDX 73 13 4 14 3 15 5 17 2 18 1 19 74 20 75 21 82 22 83 23 76 24
REMARK SMILES IDX 80 25 78 26 77 27 81 28 79 29 15 30 16 31 17 32 18 33 19 34
REMARK SMILES IDX 20 35 21 36 22 37 23 38 69 39 24 40 68 41 25 42 26 43 27 44
REMARK SMILES IDX 62 45 28 46 67 47 61 48 63 49 29 50 66 51 60 52 59 53 30 55
REMARK SMILES IDX 52 56 37 57 51 58 38 59 41 60 50 61 64 62 39 63 40 64 49 66
REMARK SMILES IDX 65 67 42 68 31 69 32 70 36 71 33 72 35 73 34 74 53 75 54 76
REMARK SMILES IDX 58 77 55 78 57 79 56 80 43 81 44 82 48 83 45 84 47 85 46 86
REMARK H PARENT 3 16 63 54 41 65
REMARK Flexibility Score: inf
ROOT
ATOM      1  C   UNL A   1      40.143  20.943  25.831  1.00  0.00     0.188 C 
ENDROOT
BRANCH   1   2
ATOM      2  O   UNL A   1      39.607  19.712  25.362  1.00  0.00    -0.376 OA
BRANCH   2   3
ATOM      3  C   UNL A   1      38.218  19.699  25.061  1.00  0.00     0.202 C 
BRANCH   3   4
ATOM      4  C   UNL A   1      37.602  21.104  25.047  1.00  0.00     0.261 C 
BRANCH   4   5
ATOM      5  O   UNL A   1      36.453  21.219  24.193  1.00  0.00    -0.460 OA
BRANCH   5   6
ATOM      6  C   UNL A   1      36.142  22.481  23.804  1.00  0.00     0.342 C 
ATOM      7  O   UNL A   1      36.574  23.019  22.790  1.00  0.00    -0.246 OA
BRANCH   6   8
ATOM      8  C   UNL A   1      35.093  23.072  24.598  1.00  0.00     0.111 A 
ATOM      9  C   UNL A   1      33.735  23.234  24.315  1.00  0.00     0.140 A 
ATOM     10  N   UNL A   1      33.212  23.520  25.561  1.00  0.00    -0.262 N 
ATOM     11  C   UNL A   1      35.275  23.641  25.878  1.00  0.00     0.151 A 
ATOM     12  N   UNL A   1      34.124  24.039  26.411  1.00  0.00    -0.180 NA
ATOM     13  C   UNL A   1      32.027  22.947  26.164  1.00  0.00     0.174 C 
BRANCH   9  14
ATOM     14  C   UNL A   1      33.004  22.821  23.141  1.00  0.00     0.270 C 
ATOM     15  N   UNL A   1      32.553  23.740  22.216  1.00  0.00    -0.348 N 
ATOM     16  H   UNL A   1      31.974  23.354  21.519  1.00  0.00     0.164 HD
ATOM     17  O   UNL A   1      32.764  21.635  22.924  1.00  0.00    -0.267 OA
BRANCH  15  18
ATOM     18  C   UNL A   1      32.773  25.190  22.074  1.00  0.00     0.085 C 
ATOM     19  C   UNL A   1      32.578  25.579  20.602  1.00  0.00     0.031 C 
BRANCH  18  20
ATOM     20  C   UNL A   1      31.881  26.061  23.049  1.00  0.00    -0.009 C 
ATOM     21  C   UNL A   1      31.349  27.318  22.325  1.00  0.00     0.012 C 
ATOM     22  C   UNL A   1      32.585  26.564  24.344  1.00  0.00     0.012 C 
ATOM     23  C   UNL A   1      30.661  25.203  23.498  1.00  0.00     0.012 C 
ATOM     24  C   UNL A   1      30.371  28.129  23.176  1.00  0.00    -0.010 C 
ATOM     25  C   UNL A   1      31.613  27.388  25.223  1.00  0.00    -0.010 C 
ATOM     26  C   UNL A   1      29.683  26.021  24.358  1.00  0.00    -0.010 C 
ATOM     27  C   UNL A   1      29.185  27.231  23.552  1.00  0.00     0.007 C 
ATOM     28  C   UNL A   1      31.100  28.604  24.437  1.00  0.00     0.007 C 
ATOM     29  C   UNL A   1      30.408  26.516  25.618  1.00  0.00     0.007 C 
ENDBRANCH  18  20
ENDBRANCH  15  18
ENDBRANCH   9  14
ENDBRANCH   6   8
ENDBRANCH   5   6
ENDBRANCH   4   5
ENDBRANCH   3   4
ENDBRANCH   2   3
ENDBRANCH   1   2
BRANCH   1  30
ATOM     30  C   UNL A   1      41.611  20.872  26.295  1.00  0.00     0.188 C 
BRANCH  30  31
ATOM     31  O   UNL A   1      42.585  20.135  25.566  1.00  0.00    -0.376 OA
BRANCH  31  32
ATOM     32  C   UNL A   1      43.814  20.739  25.206  1.00  0.00     0.202 C 
BRANCH  32  33
ATOM     33  C   UNL A   1      44.105  22.114  25.806  1.00  0.00     0.261 C 
BRANCH  33  34
ATOM     34  O   UNL A   1      43.724  23.205  24.955  1.00  0.00    -0.460 OA
BRANCH  34  35
ATOM     35  C   UNL A   1      44.360  24.375  25.205  1.00  0.00     0.338 C 
ATOM     36  O   UNL A   1      45.374  24.797  24.673  1.00  0.00    -0.246 OA
BRANCH  35  37
ATOM     37  C   UNL A   1      43.563  25.184  26.150  1.00  0.00     0.060 A 
ATOM     38  C   UNL A   1      43.911  26.531  26.313  1.00  0.00     0.016 A 
ATOM     39  C   UNL A   1      42.533  24.622  26.908  1.00  0.00     0.016 A 
ATOM     40  C   UNL A   1      43.256  27.312  27.264  1.00  0.00     0.010 A 
ATOM     41  C   UNL A   1      41.890  25.401  27.876  1.00  0.00     0.010 A 
ATOM     42  C   UNL A   1      42.272  26.738  28.080  1.00  0.00    -0.014 A 
BRANCH  42  43
ATOM     43  C   UNL A   1      41.774  27.485  29.256  1.00  0.00     0.031 A 
ATOM     44  C   UNL A   1      40.467  28.222  29.144  1.00  0.00     0.074 A 
ATOM     45  C   UNL A   1      42.456  27.499  30.414  1.00  0.00     0.049 A 
ATOM     46  N   UNL A   1      39.835  28.932  30.044  1.00  0.00    -0.248 NA
ATOM     47  C   UNL A   1      39.782  28.144  27.844  1.00  0.00     0.031 C 
ATOM     48  C   UNL A   1      43.708  26.791  30.670  1.00  0.00     0.029 A 
ATOM     49  N   UNL A   1      42.179  28.139  31.596  1.00  0.00    -0.354 N 
ATOM     50  C   UNL A   1      38.680  29.384  29.420  1.00  0.00     0.074 A 
ATOM     51  C   UNL A   1      38.709  28.889  28.061  1.00  0.00     0.031 C 
ATOM     52  C   UNL A   1      44.094  27.037  31.935  1.00  0.00     0.029 A 
ATOM     53  C   UNL A   1      43.129  27.936  32.565  1.00  0.00     0.049 A 
ATOM     54  H   UNL A   1      41.375  28.690  31.735  1.00  0.00     0.167 HD
ATOM     55  C   UNL A   1      37.681  30.140  29.930  1.00  0.00     0.031 A 
ATOM     56  C   UNL A   1      43.213  28.431  33.815  1.00  0.00     0.031 A 
ATOM     57  C   UNL A   1      37.654  30.655  31.272  1.00  0.00     0.049 A 
ATOM     58  C   UNL A   1      42.138  29.351  34.328  1.00  0.00     0.074 A 
ATOM     59  C   UNL A   1      36.669  31.409  31.888  1.00  0.00     0.029 A 
ATOM     60  N   UNL A   1      38.668  30.484  32.199  1.00  0.00    -0.354 N 
ATOM     61  N   UNL A   1      41.031  29.737  33.742  1.00  0.00    -0.248 NA
ATOM     62  C   UNL A   1      42.330  29.903  35.677  1.00  0.00     0.031 C 
ATOM     63  C   UNL A   1      37.112  31.735  33.175  1.00  0.00     0.029 A 
ATOM     64  C   UNL A   1      38.351  31.147  33.372  1.00  0.00     0.049 A 
ATOM     65  H   UNL A   1      39.492  29.966  32.048  1.00  0.00     0.167 HD
ATOM     66  C   UNL A   1      40.381  30.552  34.661  1.00  0.00     0.074 A 
ATOM     67  C   UNL A   1      41.216  30.603  35.844  1.00  0.00     0.031 C 
ATOM     68  C   UNL A   1      39.194  31.194  34.538  1.00  0.00     0.031 A 
BRANCH  55  69
ATOM     69  C   UNL A   1      36.551  30.488  29.006  1.00  0.00    -0.014 A 
ATOM     70  C   UNL A   1      36.333  31.810  28.589  1.00  0.00     0.009 A 
ATOM     71  C   UNL A   1      35.694  29.476  28.547  1.00  0.00     0.009 A 
ATOM     72  C   UNL A   1      35.256  32.117  27.757  1.00  0.00     0.001 A 
ATOM     73  C   UNL A   1      34.630  29.784  27.698  1.00  0.00     0.001 A 
ATOM     74  C   UNL A   1      34.406  31.105  27.312  1.00  0.00     0.000 A 
ENDBRANCH  55  69
BRANCH  56  75
ATOM     75  C   UNL A   1      44.366  28.074  34.679  1.00  0.00    -0.014 A 
ATOM     76  C   UNL A   1      44.296  26.960  35.530  1.00  0.00     0.009 A 
ATOM     77  C   UNL A   1      45.532  28.854  34.671  1.00  0.00     0.009 A 
ATOM     78  C   UNL A   1      45.366  26.646  36.370  1.00  0.00     0.001 A 
ATOM     79  C   UNL A   1      46.608  28.526  35.498  1.00  0.00     0.001 A 
ATOM     80  C   UNL A   1      46.521  27.427  36.352  1.00  0.00     0.000 A 
ENDBRANCH  56  75
BRANCH  68  81
ATOM     81  C   UNL A   1      38.712  31.983  35.721  1.00  0.00    -0.014 A 
ATOM     82  C   UNL A   1      38.068  31.358  36.799  1.00  0.00     0.009 A 
ATOM     83  C   UNL A   1      38.948  33.366  35.777  1.00  0.00     0.009 A 
ATOM     84  C   UNL A   1      37.645  32.107  37.899  1.00  0.00     0.001 A 
ATOM     85  C   UNL A   1      38.545  34.108  36.888  1.00  0.00     0.001 A 
ATOM     86  C   UNL A   1      37.888  33.480  37.945  1.00  0.00     0.000 A 
ENDBRANCH  68  81
ENDBRANCH  42  43
ENDBRANCH  35  37
ENDBRANCH  34  35
ENDBRANCH  33  34
ENDBRANCH  32  33
ENDBRANCH  31  32
ENDBRANCH  30  31
ENDBRANCH   1  30
TORSDOF 20
ENDMDL
