MODEL 1
REMARK VINA RESULT:     -11.0      0.000      0.000
REMARK SMILES CCn1c(C(=O)OCCOCCOCCOC(=O)c2ccc(-c3c4nc(c(-c5ccccc5)c5ccc([nH]5)c(-c5ccccc5)c5nc(c(-c6ccccc6)c6ccc3[nH]6)C=C5)C=C4)cc2)c(C[NH2+]Cc2ccccc2Cl)c2ccc(C)cc21
REMARK SMILES IDX 11 1 10 2 9 3 8 4 7 5 5 6 6 7 4 8 3 9 84 10 67 11 78 12
REMARK SMILES IDX 83 13 79 14 81 15 80 16 82 17 2 18 1 19 68 20 69 21 70 24
REMARK SMILES IDX 71 25 72 26 76 27 73 28 75 29 77 30 74 31 12 32 13 33 14 34
REMARK SMILES IDX 15 35 16 36 17 37 18 38 19 39 20 40 66 41 21 42 65 43 22 44
REMARK SMILES IDX 23 45 24 46 59 47 25 48 64 49 58 50 60 51 26 52 63 53 57 54
REMARK SMILES IDX 56 55 27 57 49 58 34 59 48 60 35 61 38 62 47 63 61 64 36 65
REMARK SMILES IDX 37 66 46 68 62 69 39 70 28 71 29 72 33 73 30 74 32 75 31 76
REMARK SMILES IDX 50 77 51 78 55 79 52 80 54 81 53 82 40 83 41 84 45 85 42 86
REMARK SMILES IDX 44 87 43 88
REMARK H PARENT 69 22 69 23 60 56 38 67
REMARK Flexibility Score: inf
ROOT
ATOM      1  C   UNL A   1      37.772  20.670  24.975  1.00  0.00     0.188 C 
ENDROOT
BRANCH   1   2
ATOM      2  O   UNL A   1      37.048  21.407  24.010  1.00  0.00    -0.376 OA
BRANCH   2   3
ATOM      3  C   UNL A   1      37.046  22.802  24.186  1.00  0.00     0.202 C 
BRANCH   3   4
ATOM      4  C   UNL A   1      35.787  23.487  23.653  1.00  0.00     0.261 C 
BRANCH   4   5
ATOM      5  O   UNL A   1      35.246  24.498  24.533  1.00  0.00    -0.459 OA
BRANCH   5   6
ATOM      6  C   UNL A   1      34.016  24.296  25.062  1.00  0.00     0.355 C 
ATOM      7  O   UNL A   1      33.450  25.170  25.721  1.00  0.00    -0.244 OA
BRANCH   6   8
ATOM      8  C   UNL A   1      33.563  22.907  24.920  1.00  0.00     0.137 A 
ATOM      9  N   UNL A   1      33.912  21.726  25.572  1.00  0.00    -0.335 N 
ATOM     10  C   UNL A   1      33.663  20.650  24.738  1.00  0.00     0.049 A 
ATOM     11  C   UNL A   1      32.614  22.496  23.983  1.00  0.00     0.047 A 
ATOM     12  C   UNL A   1      32.716  21.074  23.821  1.00  0.00     0.009 A 
ATOM     13  C   UNL A   1      34.108  19.319  24.792  1.00  0.00     0.030 A 
ATOM     14  C   UNL A   1      32.129  20.080  23.005  1.00  0.00     0.011 A 
ATOM     15  C   UNL A   1      33.516  18.338  24.012  1.00  0.00    -0.049 A 
ATOM     16  C   UNL A   1      32.517  18.723  23.129  1.00  0.00     0.004 A 
ATOM     17  C   UNL A   1      34.041  16.940  24.173  1.00  0.00     0.044 C 
BRANCH   9  18
ATOM     18  C   UNL A   1      34.046  21.523  27.015  1.00  0.00     0.119 C 
ATOM     19  C   UNL A   1      33.058  22.301  27.898  1.00  0.00     0.027 C 
ENDBRANCH   9  18
BRANCH  11  20
ATOM     20  C   UNL A   1      31.673  23.454  23.343  1.00  0.00     0.300 C 
BRANCH  20  21
ATOM     21  N   UNL A   1      32.562  24.389  22.643  1.00  0.00    -0.339 N 
ATOM     22  H   UNL A   1      33.056  23.868  21.919  1.00  0.00     0.346 HD
ATOM     23  H   UNL A   1      33.172  24.782  23.358  1.00  0.00     0.346 HD
BRANCH  21  24
ATOM     24  C   UNL A   1      31.908  25.521  22.012  1.00  0.00     0.299 C 
BRANCH  24  25
ATOM     25  C   UNL A   1      32.257  26.819  22.696  1.00  0.00     0.025 A 
ATOM     26  C   UNL A   1      33.461  27.478  22.356  1.00  0.00     0.011 A 
ATOM     27  C   UNL A   1      31.503  27.308  23.769  1.00  0.00     0.049 A 
ATOM     28  C   UNL A   1      33.974  28.484  23.166  1.00  0.00     0.001 A 
ATOM     29  C   UNL A   1      32.011  28.337  24.562  1.00  0.00     0.021 A 
ATOM     30  Cl  UNL A   1      29.966  26.647  24.195  1.00  0.00    -0.084 Cl
ATOM     31  C   UNL A   1      33.258  28.898  24.283  1.00  0.00     0.002 A 
ENDBRANCH  24  25
ENDBRANCH  21  24
ENDBRANCH  20  21
ENDBRANCH  11  20
ENDBRANCH   6   8
ENDBRANCH   5   6
ENDBRANCH   4   5
ENDBRANCH   3   4
ENDBRANCH   2   3
ENDBRANCH   1   2
BRANCH   1  32
ATOM     32  C   UNL A   1      38.767  21.555  25.743  1.00  0.00     0.188 C 
BRANCH  32  33
ATOM     33  O   UNL A   1      40.013  20.986  26.133  1.00  0.00    -0.376 OA
BRANCH  33  34
ATOM     34  C   UNL A   1      40.877  21.762  26.962  1.00  0.00     0.202 C 
BRANCH  34  35
ATOM     35  C   UNL A   1      41.031  23.234  26.560  1.00  0.00     0.261 C 
BRANCH  35  36
ATOM     36  O   UNL A   1      40.585  24.123  27.611  1.00  0.00    -0.460 OA
BRANCH  36  37
ATOM     37  C   UNL A   1      39.642  25.039  27.270  1.00  0.00     0.338 C 
ATOM     38  O   UNL A   1      38.765  24.886  26.435  1.00  0.00    -0.246 OA
BRANCH  37  39
ATOM     39  C   UNL A   1      39.587  26.090  28.335  1.00  0.00     0.060 A 
ATOM     40  C   UNL A   1      39.224  25.905  29.681  1.00  0.00     0.016 A 
ATOM     41  C   UNL A   1      39.733  27.385  27.878  1.00  0.00     0.016 A 
ATOM     42  C   UNL A   1      38.817  27.009  30.498  1.00  0.00     0.010 A 
ATOM     43  C   UNL A   1      39.403  28.448  28.720  1.00  0.00     0.010 A 
ATOM     44  C   UNL A   1      38.815  28.314  29.998  1.00  0.00    -0.014 A 
BRANCH  44  45
ATOM     45  C   UNL A   1      38.451  29.579  30.760  1.00  0.00     0.031 A 
ATOM     46  C   UNL A   1      37.562  30.450  29.988  1.00  0.00     0.074 A 
ATOM     47  C   UNL A   1      38.728  30.073  32.016  1.00  0.00     0.049 A 
ATOM     48  N   UNL A   1      37.971  31.574  29.506  1.00  0.00    -0.248 NA
ATOM     49  C   UNL A   1      36.190  30.082  29.629  1.00  0.00     0.031 C 
ATOM     50  C   UNL A   1      39.696  29.544  32.951  1.00  0.00     0.029 A 
ATOM     51  N   UNL A   1      38.162  31.093  32.805  1.00  0.00    -0.354 N 
ATOM     52  C   UNL A   1      36.830  32.185  29.053  1.00  0.00     0.074 A 
ATOM     53  C   UNL A   1      35.827  31.157  28.929  1.00  0.00     0.031 C 
ATOM     54  C   UNL A   1      39.470  29.986  34.218  1.00  0.00     0.029 A 
ATOM     55  C   UNL A   1      38.427  30.991  34.200  1.00  0.00     0.049 A 
ATOM     56  H   UNL A   1      37.622  31.822  32.420  1.00  0.00     0.167 HD
ATOM     57  C   UNL A   1      36.699  33.525  29.195  1.00  0.00     0.031 A 
ATOM     58  C   UNL A   1      38.090  31.793  35.267  1.00  0.00     0.031 A 
ATOM     59  C   UNL A   1      37.944  34.186  29.503  1.00  0.00     0.049 A 
ATOM     60  C   UNL A   1      38.309  33.155  34.772  1.00  0.00     0.074 A 
ATOM     61  C   UNL A   1      39.134  34.396  28.841  1.00  0.00     0.029 A 
ATOM     62  N   UNL A   1      38.184  34.412  30.834  1.00  0.00    -0.354 N 
ATOM     63  N   UNL A   1      39.494  33.639  34.545  1.00  0.00    -0.248 NA
ATOM     64  C   UNL A   1      37.190  33.993  34.373  1.00  0.00     0.031 C 
ATOM     65  C   UNL A   1      40.125  34.652  29.830  1.00  0.00     0.029 A 
ATOM     66  C   UNL A   1      39.525  34.616  31.081  1.00  0.00     0.049 A 
ATOM     67  H   UNL A   1      37.487  34.427  31.528  1.00  0.00     0.167 HD
ATOM     68  C   UNL A   1      39.261  34.513  33.514  1.00  0.00     0.074 A 
ATOM     69  C   UNL A   1      37.856  34.879  33.631  1.00  0.00     0.031 C 
ATOM     70  C   UNL A   1      40.068  34.488  32.420  1.00  0.00     0.031 A 
BRANCH  57  71
ATOM     71  C   UNL A   1      35.367  34.147  29.461  1.00  0.00    -0.014 A 
ATOM     72  C   UNL A   1      34.795  34.203  30.750  1.00  0.00     0.009 A 
ATOM     73  C   UNL A   1      34.744  34.874  28.443  1.00  0.00     0.009 A 
ATOM     74  C   UNL A   1      33.608  34.890  30.997  1.00  0.00     0.001 A 
ATOM     75  C   UNL A   1      33.577  35.597  28.697  1.00  0.00     0.001 A 
ATOM     76  C   UNL A   1      33.002  35.593  29.967  1.00  0.00     0.000 A 
ENDBRANCH  57  71
BRANCH  58  77
ATOM     77  C   UNL A   1      37.888  31.671  36.762  1.00  0.00    -0.014 A 
ATOM     78  C   UNL A   1      37.683  30.424  37.349  1.00  0.00     0.009 A 
ATOM     79  C   UNL A   1      37.529  32.771  37.571  1.00  0.00     0.009 A 
ATOM     80  C   UNL A   1      37.026  30.249  38.583  1.00  0.00     0.001 A 
ATOM     81  C   UNL A   1      36.890  32.614  38.822  1.00  0.00     0.001 A 
ATOM     82  C   UNL A   1      36.596  31.348  39.309  1.00  0.00     0.000 A 
ENDBRANCH  58  77
BRANCH  70  83
ATOM     83  C   UNL A   1      41.504  34.043  32.587  1.00  0.00    -0.014 A 
ATOM     84  C   UNL A   1      42.446  34.984  33.025  1.00  0.00     0.009 A 
ATOM     85  C   UNL A   1      41.976  32.763  32.246  1.00  0.00     0.009 A 
ATOM     86  C   UNL A   1      43.810  34.674  33.081  1.00  0.00     0.001 A 
ATOM     87  C   UNL A   1      43.336  32.439  32.324  1.00  0.00     0.001 A 
ATOM     88  C   UNL A   1      44.255  33.403  32.726  1.00  0.00     0.000 A 
ENDBRANCH  70  83
ENDBRANCH  44  45
ENDBRANCH  37  39
ENDBRANCH  36  37
ENDBRANCH  35  36
ENDBRANCH  34  35
ENDBRANCH  33  34
ENDBRANCH  32  33
ENDBRANCH   1  32
TORSDOF 22
ENDMDL
MODEL 2
REMARK VINA RESULT:     -10.4      3.482      8.429
REMARK SMILES CCn1c(C(=O)OCCOCCOCCOC(=O)c2ccc(-c3c4nc(c(-c5ccccc5)c5ccc([nH]5)c(-c5ccccc5)c5nc(c(-c6ccccc6)c6ccc3[nH]6)C=C5)C=C4)cc2)c(C[NH2+]Cc2ccccc2Cl)c2ccc(C)cc21
REMARK SMILES IDX 11 1 10 2 9 3 8 4 7 5 5 6 6 7 4 8 3 9 84 10 67 11 78 12
REMARK SMILES IDX 83 13 79 14 81 15 80 16 82 17 2 18 1 19 68 20 69 21 70 24
REMARK SMILES IDX 71 25 72 26 76 27 73 28 75 29 77 30 74 31 12 32 13 33 14 34
REMARK SMILES IDX 15 35 16 36 17 37 18 38 19 39 20 40 66 41 21 42 65 43 22 44
REMARK SMILES IDX 23 45 24 46 59 47 25 48 64 49 58 50 60 51 26 52 63 53 57 54
REMARK SMILES IDX 56 55 27 57 49 58 34 59 48 60 35 61 38 62 47 63 61 64 36 65
REMARK SMILES IDX 37 66 46 68 62 69 39 70 28 71 29 72 33 73 30 74 32 75 31 76
REMARK SMILES IDX 50 77 51 78 55 79 52 80 54 81 53 82 40 83 41 84 45 85 42 86
REMARK SMILES IDX 44 87 43 88
REMARK H PARENT 69 22 69 23 60 56 38 67
REMARK Flexibility Score: inf
ROOT
ATOM      1  C   UNL A   1      30.764  28.994  23.619  1.00  0.00     0.188 C 
ENDROOT
BRANCH   1   2
ATOM      2  O   UNL A   1      30.087  27.776  23.860  1.00  0.00    -0.376 OA
BRANCH   2   3
ATOM      3  C   UNL A   1      30.906  26.677  24.174  1.00  0.00     0.202 C 
BRANCH   3   4
ATOM      4  C   UNL A   1      31.029  26.412  25.675  1.00  0.00     0.261 C 
BRANCH   4   5
ATOM      5  O   UNL A   1      31.694  25.171  26.004  1.00  0.00    -0.459 OA
BRANCH   5   6
ATOM      6  C   UNL A   1      32.994  25.028  25.655  1.00  0.00     0.355 C 
ATOM      7  O   UNL A   1      33.770  25.985  25.662  1.00  0.00    -0.244 OA
BRANCH   6   8
ATOM      8  C   UNL A   1      33.286  23.697  25.109  1.00  0.00     0.137 A 
ATOM      9  N   UNL A   1      33.056  23.113  23.864  1.00  0.00    -0.335 N 
ATOM     10  C   UNL A   1      32.978  21.739  24.009  1.00  0.00     0.049 A 
ATOM     11  C   UNL A   1      33.894  22.677  25.842  1.00  0.00     0.047 A 
ATOM     12  C   UNL A   1      33.649  21.428  25.180  1.00  0.00     0.009 A 
ATOM     13  C   UNL A   1      32.473  20.748  23.151  1.00  0.00     0.030 A 
ATOM     14  C   UNL A   1      33.904  20.059  25.424  1.00  0.00     0.011 A 
ATOM     15  C   UNL A   1      32.744  19.407  23.374  1.00  0.00    -0.049 A 
ATOM     16  C   UNL A   1      33.472  19.069  24.506  1.00  0.00     0.004 A 
ATOM     17  C   UNL A   1      32.189  18.432  22.376  1.00  0.00     0.044 C 
BRANCH   9  18
ATOM     18  C   UNL A   1      33.328  23.700  22.551  1.00  0.00     0.119 C 
ATOM     19  C   UNL A   1      32.735  22.954  21.346  1.00  0.00     0.027 C 
ENDBRANCH   9  18
BRANCH  11  20
ATOM     20  C   UNL A   1      34.678  22.954  27.076  1.00  0.00     0.300 C 
BRANCH  20  21
ATOM     21  N   UNL A   1      36.032  22.510  26.726  1.00  0.00    -0.339 N 
ATOM     22  H   UNL A   1      35.948  21.761  26.040  1.00  0.00     0.346 HD
ATOM     23  H   UNL A   1      36.466  22.221  27.602  1.00  0.00     0.346 HD
BRANCH  21  24
ATOM     24  C   UNL A   1      36.901  23.531  26.170  1.00  0.00     0.299 C 
BRANCH  24  25
ATOM     25  C   UNL A   1      38.356  23.153  26.290  1.00  0.00     0.025 A 
ATOM     26  C   UNL A   1      38.776  21.874  25.857  1.00  0.00     0.011 A 
ATOM     27  C   UNL A   1      39.272  23.969  26.964  1.00  0.00     0.049 A 
ATOM     28  C   UNL A   1      40.014  21.368  26.233  1.00  0.00     0.001 A 
ATOM     29  C   UNL A   1      40.524  23.465  27.313  1.00  0.00     0.021 A 
ATOM     30  Cl  UNL A   1      38.896  25.587  27.434  1.00  0.00    -0.084 Cl
ATOM     31  C   UNL A   1      40.880  22.156  26.981  1.00  0.00     0.002 A 
ENDBRANCH  24  25
ENDBRANCH  21  24
ENDBRANCH  20  21
ENDBRANCH  11  20
ENDBRANCH   6   8
ENDBRANCH   5   6
ENDBRANCH   4   5
ENDBRANCH   3   4
ENDBRANCH   2   3
ENDBRANCH   1   2
BRANCH   1  32
ATOM     32  C   UNL A   1      32.291  28.817  23.662  1.00  0.00     0.188 C 
BRANCH  32  33
ATOM     33  O   UNL A   1      33.021  29.516  24.666  1.00  0.00    -0.376 OA
BRANCH  33  34
ATOM     34  C   UNL A   1      32.441  29.629  25.964  1.00  0.00     0.202 C 
BRANCH  34  35
ATOM     35  C   UNL A   1      32.605  30.994  26.644  1.00  0.00     0.261 C 
BRANCH  35  36
ATOM     36  O   UNL A   1      33.398  30.897  27.850  1.00  0.00    -0.460 OA
BRANCH  36  37
ATOM     37  C   UNL A   1      34.380  31.822  28.005  1.00  0.00     0.338 C 
ATOM     38  O   UNL A   1      34.234  32.955  28.433  1.00  0.00    -0.246 OA
BRANCH  37  39
ATOM     39  C   UNL A   1      35.706  31.127  27.959  1.00  0.00     0.060 A 
ATOM     40  C   UNL A   1      35.944  29.794  27.578  1.00  0.00     0.016 A 
ATOM     41  C   UNL A   1      36.749  31.831  28.528  1.00  0.00     0.016 A 
ATOM     42  C   UNL A   1      37.153  29.121  27.949  1.00  0.00     0.010 A 
ATOM     43  C   UNL A   1      37.946  31.171  28.810  1.00  0.00     0.010 A 
ATOM     44  C   UNL A   1      38.157  29.782  28.661  1.00  0.00    -0.014 A 
BRANCH  44  45
ATOM     45  C   UNL A   1      39.501  29.209  29.082  1.00  0.00     0.031 A 
ATOM     46  C   UNL A   1      39.661  29.192  30.538  1.00  0.00     0.074 A 
ATOM     47  C   UNL A   1      40.580  28.666  28.418  1.00  0.00     0.049 A 
ATOM     48  N   UNL A   1      40.485  29.983  31.135  1.00  0.00    -0.248 NA
ATOM     49  C   UNL A   1      38.848  28.356  31.425  1.00  0.00     0.031 C 
ATOM     50  C   UNL A   1      40.806  28.687  26.990  1.00  0.00     0.029 A 
ATOM     51  N   UNL A   1      41.680  27.887  28.826  1.00  0.00    -0.354 N 
ATOM     52  C   UNL A   1      40.515  29.530  32.429  1.00  0.00     0.074 A 
ATOM     53  C   UNL A   1      39.342  28.712  32.612  1.00  0.00     0.031 C 
ATOM     54  C   UNL A   1      41.724  27.758  26.609  1.00  0.00     0.029 A 
ATOM     55  C   UNL A   1      42.316  27.152  27.784  1.00  0.00     0.049 A 
ATOM     56  H   UNL A   1      41.987  27.853  29.761  1.00  0.00     0.167 HD
ATOM     57  C   UNL A   1      41.686  29.547  33.107  1.00  0.00     0.031 A 
ATOM     58  C   UNL A   1      43.418  26.328  27.775  1.00  0.00     0.031 A 
ATOM     59  C   UNL A   1      42.693  30.366  32.478  1.00  0.00     0.049 A 
ATOM     60  C   UNL A   1      44.392  27.024  28.619  1.00  0.00     0.074 A 
ATOM     61  C   UNL A   1      42.846  31.713  32.227  1.00  0.00     0.029 A 
ATOM     62  N   UNL A   1      43.571  29.707  31.657  1.00  0.00    -0.354 N 
ATOM     63  N   UNL A   1      44.982  28.123  28.253  1.00  0.00    -0.248 NA
ATOM     64  C   UNL A   1      44.644  26.587  29.982  1.00  0.00     0.031 C 
ATOM     65  C   UNL A   1      43.769  31.837  31.151  1.00  0.00     0.029 A 
ATOM     66  C   UNL A   1      44.184  30.568  30.772  1.00  0.00     0.049 A 
ATOM     67  H   UNL A   1      43.742  28.739  31.694  1.00  0.00     0.167 HD
ATOM     68  C   UNL A   1      45.180  28.761  29.450  1.00  0.00     0.074 A 
ATOM     69  C   UNL A   1      45.207  27.702  30.451  1.00  0.00     0.031 C 
ATOM     70  C   UNL A   1      44.838  30.072  29.576  1.00  0.00     0.031 A 
BRANCH  57  71
ATOM     71  C   UNL A   1      42.017  28.484  34.103  1.00  0.00    -0.014 A 
ATOM     72  C   UNL A   1      41.614  28.552  35.454  1.00  0.00     0.009 A 
ATOM     73  C   UNL A   1      42.575  27.284  33.653  1.00  0.00     0.009 A 
ATOM     74  C   UNL A   1      41.831  27.497  36.339  1.00  0.00     0.001 A 
ATOM     75  C   UNL A   1      42.755  26.211  34.528  1.00  0.00     0.001 A 
ATOM     76  C   UNL A   1      42.398  26.322  35.870  1.00  0.00     0.000 A 
ENDBRANCH  57  71
BRANCH  58  77
ATOM     77  C   UNL A   1      43.970  25.180  26.957  1.00  0.00    -0.014 A 
ATOM     78  C   UNL A   1      43.836  25.168  25.571  1.00  0.00     0.009 A 
ATOM     79  C   UNL A   1      44.297  23.930  27.529  1.00  0.00     0.009 A 
ATOM     80  C   UNL A   1      43.864  23.989  24.800  1.00  0.00     0.001 A 
ATOM     81  C   UNL A   1      44.353  22.740  26.768  1.00  0.00     0.001 A 
ATOM     82  C   UNL A   1      44.090  22.763  25.406  1.00  0.00     0.000 A 
ENDBRANCH  58  77
BRANCH  70  83
ATOM     83  C   UNL A   1      44.886  30.955  28.349  1.00  0.00    -0.014 A 
ATOM     84  C   UNL A   1      46.014  31.766  28.157  1.00  0.00     0.009 A 
ATOM     85  C   UNL A   1      43.831  31.082  27.429  1.00  0.00     0.009 A 
ATOM     86  C   UNL A   1      46.068  32.697  27.113  1.00  0.00     0.001 A 
ATOM     87  C   UNL A   1      43.890  31.994  26.368  1.00  0.00     0.001 A 
ATOM     88  C   UNL A   1      45.004  32.814  26.222  1.00  0.00     0.000 A 
ENDBRANCH  70  83
ENDBRANCH  44  45
ENDBRANCH  37  39
ENDBRANCH  36  37
ENDBRANCH  35  36
ENDBRANCH  34  35
ENDBRANCH  33  34
ENDBRANCH  32  33
ENDBRANCH   1  32
TORSDOF 22
ENDMDL
MODEL 3
REMARK VINA RESULT:     -10.2      4.345     10.101
REMARK SMILES CCn1c(C(=O)OCCOCCOCCOC(=O)c2ccc(-c3c4nc(c(-c5ccccc5)c5ccc([nH]5)c(-c5ccccc5)c5nc(c(-c6ccccc6)c6ccc3[nH]6)C=C5)C=C4)cc2)c(C[NH2+]Cc2ccccc2Cl)c2ccc(C)cc21
REMARK SMILES IDX 11 1 10 2 9 3 8 4 7 5 5 6 6 7 4 8 3 9 84 10 67 11 78 12
REMARK SMILES IDX 83 13 79 14 81 15 80 16 82 17 2 18 1 19 68 20 69 21 70 24
REMARK SMILES IDX 71 25 72 26 76 27 73 28 75 29 77 30 74 31 12 32 13 33 14 34
REMARK SMILES IDX 15 35 16 36 17 37 18 38 19 39 20 40 66 41 21 42 65 43 22 44
REMARK SMILES IDX 23 45 24 46 59 47 25 48 64 49 58 50 60 51 26 52 63 53 57 54
REMARK SMILES IDX 56 55 27 57 49 58 34 59 48 60 35 61 38 62 47 63 61 64 36 65
REMARK SMILES IDX 37 66 46 68 62 69 39 70 28 71 29 72 33 73 30 74 32 75 31 76
REMARK SMILES IDX 50 77 51 78 55 79 52 80 54 81 53 82 40 83 41 84 45 85 42 86
REMARK SMILES IDX 44 87 43 88
REMARK H PARENT 69 22 69 23 60 56 38 67
REMARK Flexibility Score: inf
ROOT
ATOM      1  C   UNL A   1      32.706  32.769  27.400  1.00  0.00     0.188 C 
ENDROOT
BRANCH   1   2
ATOM      2  O   UNL A   1      33.324  31.527  27.676  1.00  0.00    -0.376 OA
BRANCH   2   3
ATOM      3  C   UNL A   1      32.970  30.469  26.821  1.00  0.00     0.202 C 
BRANCH   3   4
ATOM      4  C   UNL A   1      33.631  29.138  27.186  1.00  0.00     0.261 C 
BRANCH   4   5
ATOM      5  O   UNL A   1      32.788  27.983  26.975  1.00  0.00    -0.459 OA
BRANCH   5   6
ATOM      6  C   UNL A   1      32.989  27.236  25.863  1.00  0.00     0.355 C 
ATOM      7  O   UNL A   1      33.998  26.543  25.729  1.00  0.00    -0.244 OA
BRANCH   6   8
ATOM      8  C   UNL A   1      31.994  27.506  24.818  1.00  0.00     0.137 A 
ATOM      9  N   UNL A   1      31.989  28.355  23.713  1.00  0.00    -0.335 N 
ATOM     10  C   UNL A   1      30.684  28.677  23.386  1.00  0.00     0.049 A 
ATOM     11  C   UNL A   1      30.738  26.900  24.771  1.00  0.00     0.047 A 
ATOM     12  C   UNL A   1      29.888  27.674  23.912  1.00  0.00     0.009 A 
ATOM     13  C   UNL A   1      30.160  29.702  22.581  1.00  0.00     0.030 A 
ATOM     14  C   UNL A   1      28.532  27.659  23.512  1.00  0.00     0.011 A 
ATOM     15  C   UNL A   1      28.838  29.676  22.166  1.00  0.00    -0.049 A 
ATOM     16  C   UNL A   1      28.031  28.644  22.624  1.00  0.00     0.004 A 
ATOM     17  C   UNL A   1      28.388  30.799  21.275  1.00  0.00     0.044 C 
BRANCH   9  18
ATOM     18  C   UNL A   1      33.057  28.523  22.725  1.00  0.00     0.119 C 
ATOM     19  C   UNL A   1      33.645  27.227  22.145  1.00  0.00     0.027 C 
ENDBRANCH   9  18
BRANCH  11  20
ATOM     20  C   UNL A   1      30.446  25.637  25.501  1.00  0.00     0.300 C 
BRANCH  20  21
ATOM     21  N   UNL A   1      30.283  24.652  24.425  1.00  0.00    -0.339 N 
ATOM     22  H   UNL A   1      30.644  25.064  23.566  1.00  0.00     0.346 HD
ATOM     23  H   UNL A   1      29.287  24.437  24.393  1.00  0.00     0.346 HD
BRANCH  21  24
ATOM     24  C   UNL A   1      30.957  23.383  24.631  1.00  0.00     0.299 C 
BRANCH  24  25
ATOM     25  C   UNL A   1      32.421  23.465  24.279  1.00  0.00     0.025 A 
ATOM     26  C   UNL A   1      32.802  23.565  22.921  1.00  0.00     0.011 A 
ATOM     27  C   UNL A   1      33.417  23.286  25.245  1.00  0.00     0.049 A 
ATOM     28  C   UNL A   1      34.114  23.325  22.532  1.00  0.00     0.001 A 
ATOM     29  C   UNL A   1      34.738  23.074  24.850  1.00  0.00     0.021 A 
ATOM     30  Cl  UNL A   1      33.071  23.266  26.937  1.00  0.00    -0.084 Cl
ATOM     31  C   UNL A   1      35.079  23.057  23.496  1.00  0.00     0.002 A 
ENDBRANCH  24  25
ENDBRANCH  21  24
ENDBRANCH  20  21
ENDBRANCH  11  20
ENDBRANCH   6   8
ENDBRANCH   5   6
ENDBRANCH   4   5
ENDBRANCH   3   4
ENDBRANCH   2   3
ENDBRANCH   1   2
BRANCH   1  32
ATOM     32  C   UNL A   1      33.203  33.877  28.343  1.00  0.00     0.188 C 
BRANCH  32  33
ATOM     33  O   UNL A   1      34.116  33.522  29.377  1.00  0.00    -0.376 OA
BRANCH  33  34
ATOM     34  C   UNL A   1      34.623  34.561  30.213  1.00  0.00     0.202 C 
BRANCH  34  35
ATOM     35  C   UNL A   1      35.914  34.226  30.971  1.00  0.00     0.261 C 
BRANCH  35  36
ATOM     36  O   UNL A   1      36.677  33.199  30.296  1.00  0.00    -0.460 OA
BRANCH  36  37
ATOM     37  C   UNL A   1      38.013  33.410  30.185  1.00  0.00     0.338 C 
ATOM     38  O   UNL A   1      38.621  34.381  30.606  1.00  0.00    -0.246 OA
BRANCH  37  39
ATOM     39  C   UNL A   1      38.677  32.114  29.839  1.00  0.00     0.060 A 
ATOM     40  C   UNL A   1      38.058  30.964  29.316  1.00  0.00     0.016 A 
ATOM     41  C   UNL A   1      39.989  32.005  30.257  1.00  0.00     0.016 A 
ATOM     42  C   UNL A   1      38.685  29.680  29.401  1.00  0.00     0.010 A 
ATOM     43  C   UNL A   1      40.605  30.753  30.258  1.00  0.00     0.010 A 
ATOM     44  C   UNL A   1      39.956  29.533  29.963  1.00  0.00    -0.014 A 
BRANCH  44  45
ATOM     45  C   UNL A   1      40.755  28.245  30.079  1.00  0.00     0.031 A 
ATOM     46  C   UNL A   1      41.416  28.123  31.381  1.00  0.00     0.074 A 
ATOM     47  C   UNL A   1      40.967  27.153  29.266  1.00  0.00     0.049 A 
ATOM     48  N   UNL A   1      42.696  28.225  31.500  1.00  0.00    -0.248 NA
ATOM     49  C   UNL A   1      40.685  27.969  32.642  1.00  0.00     0.031 C 
ATOM     50  C   UNL A   1      40.598  27.038  27.873  1.00  0.00     0.029 A 
ATOM     51  N   UNL A   1      41.467  25.856  29.492  1.00  0.00    -0.354 N 
ATOM     52  C   UNL A   1      42.949  27.844  32.793  1.00  0.00     0.074 A 
ATOM     53  C   UNL A   1      41.700  27.933  33.506  1.00  0.00     0.031 C 
ATOM     54  C   UNL A   1      40.579  25.741  27.460  1.00  0.00     0.029 A 
ATOM     55  C   UNL A   1      41.105  24.892  28.509  1.00  0.00     0.049 A 
ATOM     56  H   UNL A   1      42.026  25.632  30.273  1.00  0.00     0.167 HD
ATOM     57  C   UNL A   1      44.063  27.124  33.062  1.00  0.00     0.031 A 
ATOM     58  C   UNL A   1      41.421  23.560  28.359  1.00  0.00     0.031 A 
ATOM     59  C   UNL A   1      45.023  27.143  31.985  1.00  0.00     0.049 A 
ATOM     60  C   UNL A   1      42.848  23.493  28.683  1.00  0.00     0.074 A 
ATOM     61  C   UNL A   1      45.815  28.103  31.393  1.00  0.00     0.029 A 
ATOM     62  N   UNL A   1      44.963  26.085  31.115  1.00  0.00    -0.354 N 
ATOM     63  N   UNL A   1      43.769  23.989  27.910  1.00  0.00    -0.248 NA
ATOM     64  C   UNL A   1      43.297  22.986  29.969  1.00  0.00     0.031 C 
ATOM     65  C   UNL A   1      46.143  27.632  30.091  1.00  0.00     0.029 A 
ATOM     66  C   UNL A   1      45.565  26.383  29.911  1.00  0.00     0.049 A 
ATOM     67  H   UNL A   1      44.541  25.221  31.322  1.00  0.00     0.167 HD
ATOM     68  C   UNL A   1      44.737  24.357  28.809  1.00  0.00     0.074 A 
ATOM     69  C   UNL A   1      44.527  23.505  29.972  1.00  0.00     0.031 C 
ATOM     70  C   UNL A   1      45.295  25.595  28.723  1.00  0.00     0.031 A 
BRANCH  57  71
ATOM     71  C   UNL A   1      44.068  26.080  34.130  1.00  0.00    -0.014 A 
ATOM     72  C   UNL A   1      43.377  24.856  34.003  1.00  0.00     0.009 A 
ATOM     73  C   UNL A   1      44.940  26.223  35.212  1.00  0.00     0.009 A 
ATOM     74  C   UNL A   1      43.488  23.847  34.959  1.00  0.00     0.001 A 
ATOM     75  C   UNL A   1      45.086  25.197  36.149  1.00  0.00     0.001 A 
ATOM     76  C   UNL A   1      44.351  24.018  36.030  1.00  0.00     0.000 A 
ENDBRANCH  57  71
BRANCH  58  77
ATOM     77  C   UNL A   1      40.845  22.323  27.704  1.00  0.00    -0.014 A 
ATOM     78  C   UNL A   1      41.610  21.165  27.583  1.00  0.00     0.009 A 
ATOM     79  C   UNL A   1      39.703  22.366  26.873  1.00  0.00     0.009 A 
ATOM     80  C   UNL A   1      41.371  20.178  26.607  1.00  0.00     0.001 A 
ATOM     81  C   UNL A   1      39.435  21.373  25.904  1.00  0.00     0.001 A 
ATOM     82  C   UNL A   1      40.297  20.298  25.739  1.00  0.00     0.000 A 
ENDBRANCH  58  77
BRANCH  70  83
ATOM     83  C   UNL A   1      45.371  26.264  27.368  1.00  0.00    -0.014 A 
ATOM     84  C   UNL A   1      44.307  27.085  26.970  1.00  0.00     0.009 A 
ATOM     85  C   UNL A   1      46.405  26.045  26.440  1.00  0.00     0.009 A 
ATOM     86  C   UNL A   1      44.256  27.631  25.683  1.00  0.00     0.001 A 
ATOM     87  C   UNL A   1      46.371  26.610  25.160  1.00  0.00     0.001 A 
ATOM     88  C   UNL A   1      45.285  27.390  24.776  1.00  0.00     0.000 A 
ENDBRANCH  70  83
ENDBRANCH  44  45
ENDBRANCH  37  39
ENDBRANCH  36  37
ENDBRANCH  35  36
ENDBRANCH  34  35
ENDBRANCH  33  34
ENDBRANCH  32  33
ENDBRANCH   1  32
TORSDOF 22
ENDMDL
