MODEL 1
REMARK VINA RESULT:     -10.6      0.000      0.000
REMARK SMILES COc1ccc(-c2nc3ccc(C)cc3[nH]2)c(C(=O)OCCOCCOCCOC(=O)c2ccc(-c3c4nc(c(-c5ccccc5)c5ccc([nH]5)c(-c5ccccc5)c5nc(c(-c6ccccc6)c6ccc3[nH]6)C=C5)C=C4)cc2)c1OC
REMARK SMILES IDX 25 1 24 2 23 3 22 4 21 5 20 6 18 7 19 8 17 9 3 10 4 11 80 12
REMARK SMILES IDX 5 13 6 14 2 15 1 16 81 17 82 18 7 19 8 20 16 21 9 22 15 23
REMARK SMILES IDX 10 25 14 26 11 27 12 28 13 29 26 30 27 31 28 32 29 33 30 34
REMARK SMILES IDX 31 35 32 36 33 37 79 38 34 39 78 40 35 41 36 42 37 43 72 44
REMARK SMILES IDX 38 45 77 46 71 47 73 48 39 49 76 50 70 51 69 52 40 54 62 55
REMARK SMILES IDX 47 56 61 57 48 58 51 59 60 60 74 61 49 62 50 63 59 65 75 66
REMARK SMILES IDX 52 67 41 68 42 69 46 70 43 71 45 72 44 73 63 74 64 75 68 76
REMARK SMILES IDX 65 77 67 78 66 79 53 80 54 81 58 82 55 83 57 84 56 85
REMARK H PARENT 16 24 73 53 51 64
REMARK Flexibility Score: inf
ROOT
ATOM      1  C   UNL A   1      34.220  32.311  27.975  1.00  0.00     0.188 C 
ENDROOT
BRANCH   1   2
ATOM      2  C   UNL A   1      33.594  30.988  27.516  1.00  0.00     0.188 C 
BRANCH   2   3
ATOM      3  O   UNL A   1      34.543  29.980  27.165  1.00  0.00    -0.376 OA
BRANCH   3   4
ATOM      4  C   UNL A   1      34.007  28.657  27.232  1.00  0.00     0.202 C 
BRANCH   4   5
ATOM      5  C   UNL A   1      33.063  28.406  26.058  1.00  0.00     0.261 C 
BRANCH   5   6
ATOM      6  O   UNL A   1      33.024  27.013  25.702  1.00  0.00    -0.460 OA
BRANCH   6   7
ATOM      7  C   UNL A   1      31.956  26.287  26.102  1.00  0.00     0.342 C 
ATOM      8  O   UNL A   1      31.216  26.532  27.041  1.00  0.00    -0.246 OA
BRANCH   7   9
ATOM      9  C   UNL A   1      31.760  25.162  25.153  1.00  0.00     0.116 A 
ATOM     10  C   UNL A   1      32.361  22.965  24.325  1.00  0.00     0.161 A 
ATOM     11  C   UNL A   1      31.387  23.075  23.330  1.00  0.00     0.051 A 
ATOM     12  C   UNL A   1      32.558  24.003  25.248  1.00  0.00     0.176 A 
ATOM     13  C   UNL A   1      30.599  24.225  23.234  1.00  0.00     0.017 A 
ATOM     14  C   UNL A   1      30.795  25.288  24.125  1.00  0.00     0.036 A 
BRANCH  10  15
ATOM     15  O   UNL A   1      33.173  21.865  24.260  1.00  0.00    -0.493 OA
ATOM     16  C   UNL A   1      32.444  20.642  24.233  1.00  0.00     0.278 C 
ENDBRANCH  10  15
BRANCH  12  17
ATOM     17  O   UNL A   1      33.444  23.902  26.290  1.00  0.00    -0.492 OA
ATOM     18  C   UNL A   1      33.040  23.007  27.329  1.00  0.00     0.278 C 
ENDBRANCH  12  17
BRANCH  14  19
ATOM     19  C   UNL A   1      30.193  26.584  23.824  1.00  0.00     0.139 A 
ATOM     20  N   UNL A   1      28.899  26.803  23.903  1.00  0.00    -0.228 NA
ATOM     21  N   UNL A   1      30.842  27.713  23.380  1.00  0.00    -0.338 N 
ATOM     22  C   UNL A   1      28.683  28.019  23.326  1.00  0.00     0.089 A 
ATOM     23  C   UNL A   1      29.885  28.640  23.023  1.00  0.00     0.066 A 
ATOM     24  H   UNL A   1      31.817  27.838  23.326  1.00  0.00     0.168 HD
ATOM     25  C   UNL A   1      27.467  28.649  23.036  1.00  0.00     0.031 A 
ATOM     26  C   UNL A   1      29.948  29.925  22.471  1.00  0.00     0.031 A 
ATOM     27  C   UNL A   1      27.501  29.927  22.474  1.00  0.00     0.006 A 
ATOM     28  C   UNL A   1      28.720  30.570  22.213  1.00  0.00    -0.049 A 
ATOM     29  C   UNL A   1      28.687  31.983  21.706  1.00  0.00     0.044 C 
ENDBRANCH  14  19
ENDBRANCH   7   9
ENDBRANCH   6   7
ENDBRANCH   5   6
ENDBRANCH   4   5
ENDBRANCH   3   4
ENDBRANCH   2   3
ENDBRANCH   1   2
BRANCH   1  30
ATOM     30  O   UNL A   1      33.412  33.470  28.157  1.00  0.00    -0.376 OA
BRANCH  30  31
ATOM     31  C   UNL A   1      34.019  34.648  28.659  1.00  0.00     0.202 C 
BRANCH  31  32
ATOM     32  C   UNL A   1      33.098  35.601  29.428  1.00  0.00     0.261 C 
BRANCH  32  33
ATOM     33  O   UNL A   1      32.484  35.022  30.594  1.00  0.00    -0.460 OA
BRANCH  33  34
ATOM     34  C   UNL A   1      32.766  35.647  31.763  1.00  0.00     0.338 C 
ATOM     35  O   UNL A   1      32.171  36.591  32.258  1.00  0.00    -0.246 OA
BRANCH  34  36
ATOM     36  C   UNL A   1      33.897  34.989  32.451  1.00  0.00     0.060 A 
ATOM     37  C   UNL A   1      35.152  35.605  32.391  1.00  0.00     0.016 A 
ATOM     38  C   UNL A   1      33.766  33.719  33.019  1.00  0.00     0.016 A 
ATOM     39  C   UNL A   1      36.290  34.933  32.847  1.00  0.00     0.010 A 
ATOM     40  C   UNL A   1      34.910  33.043  33.467  1.00  0.00     0.010 A 
ATOM     41  C   UNL A   1      36.185  33.628  33.347  1.00  0.00    -0.014 A 
BRANCH  41  42
ATOM     42  C   UNL A   1      37.411  32.824  33.600  1.00  0.00     0.031 A 
ATOM     43  C   UNL A   1      38.202  33.056  34.856  1.00  0.00     0.074 A 
ATOM     44  C   UNL A   1      37.822  31.870  32.745  1.00  0.00     0.049 A 
ATOM     45  N   UNL A   1      39.326  32.501  35.240  1.00  0.00    -0.248 NA
ATOM     46  C   UNL A   1      37.653  34.032  35.809  1.00  0.00     0.031 C 
ATOM     47  C   UNL A   1      37.122  31.478  31.531  1.00  0.00     0.029 A 
ATOM     48  N   UNL A   1      38.934  31.063  32.765  1.00  0.00    -0.354 N 
ATOM     49  C   UNL A   1      39.617  33.059  36.476  1.00  0.00     0.074 A 
ATOM     50  C   UNL A   1      38.570  34.016  36.766  1.00  0.00     0.031 C 
ATOM     51  C   UNL A   1      37.831  30.526  30.904  1.00  0.00     0.029 A 
ATOM     52  C   UNL A   1      39.048  30.262  31.657  1.00  0.00     0.049 A 
ATOM     53  H   UNL A   1      39.586  31.060  33.504  1.00  0.00     0.167 HD
ATOM     54  C   UNL A   1      40.658  32.794  37.301  1.00  0.00     0.031 A 
ATOM     55  C   UNL A   1      40.030  29.425  31.267  1.00  0.00     0.031 A 
ATOM     56  C   UNL A   1      41.713  31.856  37.019  1.00  0.00     0.049 A 
ATOM     57  C   UNL A   1      41.235  29.239  32.139  1.00  0.00     0.074 A 
ATOM     58  C   UNL A   1      42.796  31.515  37.813  1.00  0.00     0.029 A 
ATOM     59  N   UNL A   1      41.828  31.121  35.851  1.00  0.00    -0.354 N 
ATOM     60  N   UNL A   1      41.495  29.770  33.306  1.00  0.00    -0.248 NA
ATOM     61  C   UNL A   1      42.277  28.329  31.640  1.00  0.00     0.031 C 
ATOM     62  C   UNL A   1      43.595  30.613  37.102  1.00  0.00     0.029 A 
ATOM     63  C   UNL A   1      42.980  30.351  35.889  1.00  0.00     0.049 A 
ATOM     64  H   UNL A   1      41.186  31.141  35.106  1.00  0.00     0.167 HD
ATOM     65  C   UNL A   1      42.717  29.240  33.697  1.00  0.00     0.074 A 
ATOM     66  C   UNL A   1      43.143  28.341  32.645  1.00  0.00     0.031 C 
ATOM     67  C   UNL A   1      43.413  29.472  34.835  1.00  0.00     0.031 A 
BRANCH  54  68
ATOM     68  C   UNL A   1      40.721  33.566  38.587  1.00  0.00    -0.014 A 
ATOM     69  C   UNL A   1      40.105  33.090  39.754  1.00  0.00     0.009 A 
ATOM     70  C   UNL A   1      41.432  34.776  38.634  1.00  0.00     0.009 A 
ATOM     71  C   UNL A   1      40.173  33.827  40.937  1.00  0.00     0.001 A 
ATOM     72  C   UNL A   1      41.518  35.497  39.824  1.00  0.00     0.001 A 
ATOM     73  C   UNL A   1      40.882  35.028  40.972  1.00  0.00     0.000 A 
ENDBRANCH  54  68
BRANCH  55  74
ATOM     74  C   UNL A   1      39.939  28.722  29.962  1.00  0.00    -0.014 A 
ATOM     75  C   UNL A   1      39.449  27.410  29.886  1.00  0.00     0.009 A 
ATOM     76  C   UNL A   1      40.383  29.353  28.790  1.00  0.00     0.009 A 
ATOM     77  C   UNL A   1      39.423  26.737  28.661  1.00  0.00     0.001 A 
ATOM     78  C   UNL A   1      40.338  28.685  27.566  1.00  0.00     0.001 A 
ATOM     79  C   UNL A   1      39.864  27.376  27.502  1.00  0.00     0.000 A 
ENDBRANCH  55  74
BRANCH  67  80
ATOM     80  C   UNL A   1      44.696  28.714  35.016  1.00  0.00    -0.014 A 
ATOM     81  C   UNL A   1      45.931  29.273  34.652  1.00  0.00     0.009 A 
ATOM     82  C   UNL A   1      44.669  27.428  35.575  1.00  0.00     0.009 A 
ATOM     83  C   UNL A   1      47.111  28.544  34.817  1.00  0.00     0.001 A 
ATOM     84  C   UNL A   1      45.852  26.711  35.761  1.00  0.00     0.001 A 
ATOM     85  C   UNL A   1      47.071  27.267  35.374  1.00  0.00     0.000 A 
ENDBRANCH  67  80
ENDBRANCH  41  42
ENDBRANCH  34  36
ENDBRANCH  33  34
ENDBRANCH  32  33
ENDBRANCH  31  32
ENDBRANCH  30  31
ENDBRANCH   1  30
TORSDOF 20
ENDMDL
MODEL 2
REMARK VINA RESULT:     -10.0      4.782      8.362
REMARK SMILES COc1ccc(-c2nc3ccc(C)cc3[nH]2)c(C(=O)OCCOCCOCCOC(=O)c2ccc(-c3c4nc(c(-c5ccccc5)c5ccc([nH]5)c(-c5ccccc5)c5nc(c(-c6ccccc6)c6ccc3[nH]6)C=C5)C=C4)cc2)c1OC
REMARK SMILES IDX 25 1 24 2 23 3 22 4 21 5 20 6 18 7 19 8 17 9 3 10 4 11 80 12
REMARK SMILES IDX 5 13 6 14 2 15 1 16 81 17 82 18 7 19 8 20 16 21 9 22 15 23
REMARK SMILES IDX 10 25 14 26 11 27 12 28 13 29 26 30 27 31 28 32 29 33 30 34
REMARK SMILES IDX 31 35 32 36 33 37 79 38 34 39 78 40 35 41 36 42 37 43 72 44
REMARK SMILES IDX 38 45 77 46 71 47 73 48 39 49 76 50 70 51 69 52 40 54 62 55
REMARK SMILES IDX 47 56 61 57 48 58 51 59 60 60 74 61 49 62 50 63 59 65 75 66
REMARK SMILES IDX 52 67 41 68 42 69 46 70 43 71 45 72 44 73 63 74 64 75 68 76
REMARK SMILES IDX 65 77 67 78 66 79 53 80 54 81 58 82 55 83 57 84 56 85
REMARK H PARENT 16 24 73 53 51 64
REMARK Flexibility Score: inf
ROOT
ATOM      1  C   UNL A   1      34.917  31.272  27.474  1.00  0.00     0.188 C 
ENDROOT
BRANCH   1   2
ATOM      2  C   UNL A   1      34.713  29.780  27.181  1.00  0.00     0.188 C 
BRANCH   2   3
ATOM      3  O   UNL A   1      33.496  29.476  26.499  1.00  0.00    -0.376 OA
BRANCH   3   4
ATOM      4  C   UNL A   1      33.528  28.215  25.828  1.00  0.00     0.202 C 
BRANCH   4   5
ATOM      5  C   UNL A   1      32.452  27.287  26.390  1.00  0.00     0.261 C 
BRANCH   5   6
ATOM      6  O   UNL A   1      32.984  25.987  26.696  1.00  0.00    -0.460 OA
BRANCH   6   7
ATOM      7  C   UNL A   1      32.261  24.905  26.329  1.00  0.00     0.342 C 
ATOM      8  O   UNL A   1      31.144  24.606  26.721  1.00  0.00    -0.246 OA
BRANCH   7   9
ATOM      9  C   UNL A   1      33.012  24.157  25.289  1.00  0.00     0.116 A 
ATOM     10  C   UNL A   1      34.818  22.679  24.637  1.00  0.00     0.161 A 
ATOM     11  C   UNL A   1      34.425  22.790  23.302  1.00  0.00     0.051 A 
ATOM     12  C   UNL A   1      34.117  23.358  25.645  1.00  0.00     0.176 A 
ATOM     13  C   UNL A   1      33.332  23.586  22.949  1.00  0.00     0.017 A 
ATOM     14  C   UNL A   1      32.633  24.297  23.932  1.00  0.00     0.036 A 
BRANCH  10  15
ATOM     15  O   UNL A   1      35.976  21.988  24.874  1.00  0.00    -0.493 OA
ATOM     16  C   UNL A   1      35.771  20.581  24.959  1.00  0.00     0.278 C 
ENDBRANCH  10  15
BRANCH  12  17
ATOM     17  O   UNL A   1      34.418  23.210  26.975  1.00  0.00    -0.492 OA
ATOM     18  C   UNL A   1      33.648  22.213  27.652  1.00  0.00     0.278 C 
ENDBRANCH  12  17
BRANCH  14  19
ATOM     19  C   UNL A   1      31.709  25.350  23.522  1.00  0.00     0.139 A 
ATOM     20  N   UNL A   1      32.094  26.416  22.857  1.00  0.00    -0.228 NA
ATOM     21  N   UNL A   1      30.363  25.422  23.799  1.00  0.00    -0.338 N 
ATOM     22  C   UNL A   1      31.036  27.275  22.866  1.00  0.00     0.089 A 
ATOM     23  C   UNL A   1      29.915  26.668  23.413  1.00  0.00     0.066 A 
ATOM     24  H   UNL A   1      29.815  24.710  24.202  1.00  0.00     0.168 HD
ATOM     25  C   UNL A   1      30.975  28.598  22.413  1.00  0.00     0.031 A 
ATOM     26  C   UNL A   1      28.676  27.313  23.492  1.00  0.00     0.031 A 
ATOM     27  C   UNL A   1      29.753  29.269  22.490  1.00  0.00     0.006 A 
ATOM     28  C   UNL A   1      28.611  28.635  23.001  1.00  0.00    -0.049 A 
ATOM     29  C   UNL A   1      27.306  29.375  22.962  1.00  0.00     0.044 C 
ENDBRANCH  14  19
ENDBRANCH   7   9
ENDBRANCH   6   7
ENDBRANCH   5   6
ENDBRANCH   4   5
ENDBRANCH   3   4
ENDBRANCH   2   3
ENDBRANCH   1   2
BRANCH   1  30
ATOM     30  O   UNL A   1      34.033  31.965  28.351  1.00  0.00    -0.376 OA
BRANCH  30  31
ATOM     31  C   UNL A   1      34.576  32.923  29.243  1.00  0.00     0.202 C 
BRANCH  31  32
ATOM     32  C   UNL A   1      34.912  32.414  30.648  1.00  0.00     0.261 C 
BRANCH  32  33
ATOM     33  O   UNL A   1      36.308  32.132  30.860  1.00  0.00    -0.460 OA
BRANCH  33  34
ATOM     34  C   UNL A   1      36.567  30.977  31.519  1.00  0.00     0.338 C 
ATOM     35  O   UNL A   1      35.978  30.534  32.492  1.00  0.00    -0.246 OA
BRANCH  34  36
ATOM     36  C   UNL A   1      37.660  30.229  30.861  1.00  0.00     0.060 A 
ATOM     37  C   UNL A   1      38.547  29.511  31.672  1.00  0.00     0.016 A 
ATOM     38  C   UNL A   1      37.903  30.348  29.490  1.00  0.00     0.016 A 
ATOM     39  C   UNL A   1      39.707  28.956  31.127  1.00  0.00     0.010 A 
ATOM     40  C   UNL A   1      39.074  29.798  28.948  1.00  0.00     0.010 A 
ATOM     41  C   UNL A   1      40.005  29.134  29.769  1.00  0.00    -0.014 A 
BRANCH  41  42
ATOM     42  C   UNL A   1      41.345  28.762  29.241  1.00  0.00     0.031 A 
ATOM     43  C   UNL A   1      41.590  27.359  28.763  1.00  0.00     0.074 A 
ATOM     44  C   UNL A   1      42.346  29.658  29.155  1.00  0.00     0.049 A 
ATOM     45  N   UNL A   1      42.698  26.819  28.318  1.00  0.00    -0.248 NA
ATOM     46  C   UNL A   1      40.435  26.448  28.776  1.00  0.00     0.031 C 
ATOM     47  C   UNL A   1      42.239  31.066  29.506  1.00  0.00     0.029 A 
ATOM     48  N   UNL A   1      43.652  29.510  28.753  1.00  0.00    -0.354 N 
ATOM     49  C   UNL A   1      42.375  25.508  27.999  1.00  0.00     0.074 A 
ATOM     50  C   UNL A   1      40.976  25.325  28.327  1.00  0.00     0.031 C 
ATOM     51  C   UNL A   1      43.434  31.652  29.332  1.00  0.00     0.029 A 
ATOM     52  C   UNL A   1      44.397  30.655  28.886  1.00  0.00     0.049 A 
ATOM     53  H   UNL A   1      44.017  28.665  28.403  1.00  0.00     0.167 HD
ATOM     54  C   UNL A   1      43.167  24.544  27.472  1.00  0.00     0.031 A 
ATOM     55  C   UNL A   1      45.711  30.882  28.699  1.00  0.00     0.031 A 
ATOM     56  C   UNL A   1      44.561  24.707  27.155  1.00  0.00     0.049 A 
ATOM     57  C   UNL A   1      46.598  29.766  28.233  1.00  0.00     0.074 A 
ATOM     58  C   UNL A   1      45.431  23.783  26.601  1.00  0.00     0.029 A 
ATOM     59  N   UNL A   1      45.293  25.862  27.376  1.00  0.00    -0.354 N 
ATOM     60  N   UNL A   1      46.277  28.533  27.932  1.00  0.00    -0.248 NA
ATOM     61  C   UNL A   1      48.025  30.078  28.072  1.00  0.00     0.031 C 
ATOM     62  C   UNL A   1      46.703  24.362  26.535  1.00  0.00     0.029 A 
ATOM     63  C   UNL A   1      46.612  25.665  26.998  1.00  0.00     0.049 A 
ATOM     64  H   UNL A   1      44.930  26.699  27.745  1.00  0.00     0.167 HD
ATOM     65  C   UNL A   1      47.457  27.928  27.520  1.00  0.00     0.074 A 
ATOM     66  C   UNL A   1      48.498  28.931  27.604  1.00  0.00     0.031 C 
ATOM     67  C   UNL A   1      47.650  26.656  27.099  1.00  0.00     0.031 A 
BRANCH  54  68
ATOM     68  C   UNL A   1      42.540  23.200  27.239  1.00  0.00    -0.014 A 
ATOM     69  C   UNL A   1      41.947  22.877  26.009  1.00  0.00     0.009 A 
ATOM     70  C   UNL A   1      42.568  22.235  28.258  1.00  0.00     0.009 A 
ATOM     71  C   UNL A   1      41.366  21.623  25.815  1.00  0.00     0.001 A 
ATOM     72  C   UNL A   1      42.008  20.975  28.052  1.00  0.00     0.001 A 
ATOM     73  C   UNL A   1      41.400  20.672  26.835  1.00  0.00     0.000 A 
ENDBRANCH  54  68
BRANCH  55  74
ATOM     74  C   UNL A   1      46.289  32.218  28.991  1.00  0.00    -0.014 A 
ATOM     75  C   UNL A   1      46.750  32.537  30.277  1.00  0.00     0.009 A 
ATOM     76  C   UNL A   1      46.342  33.196  27.986  1.00  0.00     0.009 A 
ATOM     77  C   UNL A   1      47.237  33.817  30.554  1.00  0.00     0.001 A 
ATOM     78  C   UNL A   1      46.847  34.468  28.261  1.00  0.00     0.001 A 
ATOM     79  C   UNL A   1      47.289  34.780  29.546  1.00  0.00     0.000 A 
ENDBRANCH  55  74
BRANCH  67  80
ATOM     80  C   UNL A   1      49.039  26.287  26.663  1.00  0.00    -0.014 A 
ATOM     81  C   UNL A   1      49.906  25.581  27.512  1.00  0.00     0.009 A 
ATOM     82  C   UNL A   1      49.478  26.635  25.377  1.00  0.00     0.009 A 
ATOM     83  C   UNL A   1      51.198  25.260  27.090  1.00  0.00     0.001 A 
ATOM     84  C   UNL A   1      50.761  26.290  24.949  1.00  0.00     0.001 A 
ATOM     85  C   UNL A   1      51.623  25.612  25.810  1.00  0.00     0.000 A 
ENDBRANCH  67  80
ENDBRANCH  41  42
ENDBRANCH  34  36
ENDBRANCH  33  34
ENDBRANCH  32  33
ENDBRANCH  31  32
ENDBRANCH  30  31
ENDBRANCH   1  30
TORSDOF 20
ENDMDL
MODEL 3
REMARK VINA RESULT:      -9.6      1.100      5.741
REMARK SMILES COc1ccc(-c2nc3ccc(C)cc3[nH]2)c(C(=O)OCCOCCOCCOC(=O)c2ccc(-c3c4nc(c(-c5ccccc5)c5ccc([nH]5)c(-c5ccccc5)c5nc(c(-c6ccccc6)c6ccc3[nH]6)C=C5)C=C4)cc2)c1OC
REMARK SMILES IDX 25 1 24 2 23 3 22 4 21 5 20 6 18 7 19 8 17 9 3 10 4 11 80 12
REMARK SMILES IDX 5 13 6 14 2 15 1 16 81 17 82 18 7 19 8 20 16 21 9 22 15 23
REMARK SMILES IDX 10 25 14 26 11 27 12 28 13 29 26 30 27 31 28 32 29 33 30 34
REMARK SMILES IDX 31 35 32 36 33 37 79 38 34 39 78 40 35 41 36 42 37 43 72 44
REMARK SMILES IDX 38 45 77 46 71 47 73 48 39 49 76 50 70 51 69 52 40 54 62 55
REMARK SMILES IDX 47 56 61 57 48 58 51 59 60 60 74 61 49 62 50 63 59 65 75 66
REMARK SMILES IDX 52 67 41 68 42 69 46 70 43 71 45 72 44 73 63 74 64 75 68 76
REMARK SMILES IDX 65 77 67 78 66 79 53 80 54 81 58 82 55 83 57 84 56 85
REMARK H PARENT 16 24 73 53 51 64
REMARK Flexibility Score: inf
ROOT
ATOM      1  C   UNL A   1      34.676  31.761  27.953  1.00  0.00     0.188 C 
ENDROOT
BRANCH   1   2
ATOM      2  C   UNL A   1      33.240  31.396  27.555  1.00  0.00     0.188 C 
BRANCH   2   3
ATOM      3  O   UNL A   1      32.973  29.994  27.541  1.00  0.00    -0.376 OA
BRANCH   3   4
ATOM      4  C   UNL A   1      34.138  29.203  27.297  1.00  0.00     0.202 C 
BRANCH   4   5
ATOM      5  C   UNL A   1      34.247  28.863  25.812  1.00  0.00     0.261 C 
BRANCH   5   6
ATOM      6  O   UNL A   1      33.110  28.108  25.359  1.00  0.00    -0.460 OA
BRANCH   6   7
ATOM      7  C   UNL A   1      33.073  27.738  24.059  1.00  0.00     0.342 C 
ATOM      8  O   UNL A   1      33.650  28.278  23.128  1.00  0.00    -0.246 OA
BRANCH   7   9
ATOM      9  C   UNL A   1      32.270  26.495  23.937  1.00  0.00     0.116 A 
ATOM     10  C   UNL A   1      32.122  24.082  23.771  1.00  0.00     0.161 A 
ATOM     11  C   UNL A   1      30.732  24.175  23.675  1.00  0.00     0.051 A 
ATOM     12  C   UNL A   1      32.906  25.237  23.905  1.00  0.00     0.176 A 
ATOM     13  C   UNL A   1      30.102  25.422  23.703  1.00  0.00     0.017 A 
ATOM     14  C   UNL A   1      30.864  26.593  23.807  1.00  0.00     0.036 A 
BRANCH  10  15
ATOM     15  O   UNL A   1      32.659  22.835  23.600  1.00  0.00    -0.493 OA
ATOM     16  C   UNL A   1      32.862  22.504  22.229  1.00  0.00     0.278 C 
ENDBRANCH  10  15
BRANCH  12  17
ATOM     17  O   UNL A   1      34.265  25.185  24.086  1.00  0.00    -0.492 OA
ATOM     18  C   UNL A   1      34.675  24.793  25.399  1.00  0.00     0.278 C 
ENDBRANCH  12  17
BRANCH  14  19
ATOM     19  C   UNL A   1      30.230  27.878  23.524  1.00  0.00     0.139 A 
ATOM     20  N   UNL A   1      29.596  28.127  22.400  1.00  0.00    -0.228 NA
ATOM     21  N   UNL A   1      30.240  28.997  24.324  1.00  0.00    -0.338 N 
ATOM     22  C   UNL A   1      29.359  29.468  22.385  1.00  0.00     0.089 A 
ATOM     23  C   UNL A   1      29.711  30.044  23.597  1.00  0.00     0.066 A 
ATOM     24  H   UNL A   1      30.568  29.044  25.251  1.00  0.00     0.168 HD
ATOM     25  C   UNL A   1      28.834  30.256  21.354  1.00  0.00     0.031 A 
ATOM     26  C   UNL A   1      29.519  31.403  23.867  1.00  0.00     0.031 A 
ATOM     27  C   UNL A   1      28.641  31.618  21.593  1.00  0.00     0.006 A 
ATOM     28  C   UNL A   1      28.957  32.186  22.836  1.00  0.00    -0.049 A 
ATOM     29  C   UNL A   1      28.630  33.633  23.063  1.00  0.00     0.044 C 
ENDBRANCH  14  19
ENDBRANCH   7   9
ENDBRANCH   6   7
ENDBRANCH   5   6
ENDBRANCH   4   5
ENDBRANCH   3   4
ENDBRANCH   2   3
ENDBRANCH   1   2
BRANCH   1  30
ATOM     30  O   UNL A   1      34.937  32.917  28.744  1.00  0.00    -0.376 OA
BRANCH  30  31
ATOM     31  C   UNL A   1      34.455  34.171  28.293  1.00  0.00     0.202 C 
BRANCH  31  32
ATOM     32  C   UNL A   1      33.260  34.745  29.060  1.00  0.00     0.261 C 
BRANCH  32  33
ATOM     33  O   UNL A   1      33.613  35.655  30.117  1.00  0.00    -0.460 OA
BRANCH  33  34
ATOM     34  C   UNL A   1      33.198  35.288  31.354  1.00  0.00     0.338 C 
ATOM     35  O   UNL A   1      32.075  35.402  31.819  1.00  0.00    -0.246 OA
BRANCH  34  36
ATOM     36  C   UNL A   1      34.292  34.636  32.104  1.00  0.00     0.060 A 
ATOM     37  C   UNL A   1      35.402  35.413  32.456  1.00  0.00     0.016 A 
ATOM     38  C   UNL A   1      34.301  33.257  32.332  1.00  0.00     0.016 A 
ATOM     39  C   UNL A   1      36.546  34.808  32.984  1.00  0.00     0.010 A 
ATOM     40  C   UNL A   1      35.454  32.652  32.852  1.00  0.00     0.010 A 
ATOM     41  C   UNL A   1      36.600  33.417  33.144  1.00  0.00    -0.014 A 
BRANCH  41  42
ATOM     42  C   UNL A   1      37.889  32.750  33.468  1.00  0.00     0.031 A 
ATOM     43  C   UNL A   1      38.453  31.728  32.522  1.00  0.00     0.074 A 
ATOM     44  C   UNL A   1      38.585  33.054  34.579  1.00  0.00     0.049 A 
ATOM     45  N   UNL A   1      39.533  30.995  32.644  1.00  0.00    -0.248 NA
ATOM     46  C   UNL A   1      37.711  31.510  31.270  1.00  0.00     0.031 C 
ATOM     47  C   UNL A   1      38.208  34.072  35.548  1.00  0.00     0.029 A 
ATOM     48  N   UNL A   1      39.750  32.528  35.082  1.00  0.00    -0.354 N 
ATOM     49  C   UNL A   1      39.600  30.231  31.488  1.00  0.00     0.074 A 
ATOM     50  C   UNL A   1      38.440  30.567  30.690  1.00  0.00     0.031 C 
ATOM     51  C   UNL A   1      39.107  34.082  36.545  1.00  0.00     0.029 A 
ATOM     52  C   UNL A   1      40.105  33.052  36.300  1.00  0.00     0.049 A 
ATOM     53  H   UNL A   1      40.280  31.843  34.614  1.00  0.00     0.167 HD
ATOM     54  C   UNL A   1      40.547  29.336  31.118  1.00  0.00     0.031 A 
ATOM     55  C   UNL A   1      41.103  32.729  37.145  1.00  0.00     0.031 A 
ATOM     56  C   UNL A   1      41.698  28.982  31.907  1.00  0.00     0.049 A 
ATOM     57  C   UNL A   1      42.071  31.646  36.771  1.00  0.00     0.074 A 
ATOM     58  C   UNL A   1      42.715  28.096  31.595  1.00  0.00     0.029 A 
ATOM     59  N   UNL A   1      41.978  29.483  33.168  1.00  0.00    -0.354 N 
ATOM     60  N   UNL A   1      42.125  30.935  35.674  1.00  0.00    -0.248 NA
ATOM     61  C   UNL A   1      43.121  31.331  37.750  1.00  0.00     0.031 C 
ATOM     62  C   UNL A   1      43.583  28.021  32.689  1.00  0.00     0.029 A 
ATOM     63  C   UNL A   1      43.136  28.901  33.661  1.00  0.00     0.049 A 
ATOM     64  H   UNL A   1      41.436  30.153  33.642  1.00  0.00     0.167 HD
ATOM     65  C   UNL A   1      43.228  30.106  35.816  1.00  0.00     0.074 A 
ATOM     66  C   UNL A   1      43.819  30.407  37.104  1.00  0.00     0.031 C 
ATOM     67  C   UNL A   1      43.712  29.187  34.948  1.00  0.00     0.031 A 
BRANCH  54  68
ATOM     68  C   UNL A   1      40.352  28.644  29.800  1.00  0.00    -0.014 A 
ATOM     69  C   UNL A   1      39.627  27.446  29.707  1.00  0.00     0.009 A 
ATOM     70  C   UNL A   1      40.881  29.215  28.632  1.00  0.00     0.009 A 
ATOM     71  C   UNL A   1      39.462  26.817  28.472  1.00  0.00     0.001 A 
ATOM     72  C   UNL A   1      40.692  28.597  27.397  1.00  0.00     0.001 A 
ATOM     73  C   UNL A   1      39.992  27.395  27.318  1.00  0.00     0.000 A 
ENDBRANCH  54  68
BRANCH  55  74
ATOM     74  C   UNL A   1      41.223  33.413  38.458  1.00  0.00    -0.014 A 
ATOM     75  C   UNL A   1      40.532  32.936  39.582  1.00  0.00     0.009 A 
ATOM     76  C   UNL A   1      42.001  34.574  38.578  1.00  0.00     0.009 A 
ATOM     77  C   UNL A   1      40.606  33.622  40.797  1.00  0.00     0.001 A 
ATOM     78  C   UNL A   1      42.087  35.246  39.798  1.00  0.00     0.001 A 
ATOM     79  C   UNL A   1      41.386  34.773  40.906  1.00  0.00     0.000 A 
ENDBRANCH  55  74
BRANCH  67  80
ATOM     80  C   UNL A   1      44.964  28.463  35.349  1.00  0.00    -0.014 A 
ATOM     81  C   UNL A   1      46.234  28.985  35.059  1.00  0.00     0.009 A 
ATOM     82  C   UNL A   1      44.870  27.247  36.043  1.00  0.00     0.009 A 
ATOM     83  C   UNL A   1      47.385  28.287  35.430  1.00  0.00     0.001 A 
ATOM     84  C   UNL A   1      46.022  26.564  36.435  1.00  0.00     0.001 A 
ATOM     85  C   UNL A   1      47.278  27.080  36.120  1.00  0.00     0.000 A 
ENDBRANCH  67  80
ENDBRANCH  41  42
ENDBRANCH  34  36
ENDBRANCH  33  34
ENDBRANCH  32  33
ENDBRANCH  31  32
ENDBRANCH  30  31
ENDBRANCH   1  30
TORSDOF 20
ENDMDL
