MODEL 1
REMARK VINA RESULT:      -8.8      0.000      0.000
REMARK SMILES CCOc1cc2nccc(Nc3ccc(C(=O)OCCOCCOCCOC(=O)c4ccc(-c5c6nc(c(-c7ccccc7)c7ccc([nH]7)c(-c7ccccc7)c7nc(c(-c8ccccc8)c8ccc5[nH]8)C=C7)C=C6)cc4)cc3)c2cc1OCC
REMARK SMILES IDX 22 1 21 2 20 3 19 4 18 5 16 6 17 7 15 8 12 9 13 10 79 11
REMARK SMILES IDX 14 12 78 13 11 14 10 16 4 17 5 18 82 19 6 20 81 21 7 22
REMARK SMILES IDX 80 23 8 24 9 25 3 26 2 27 1 28 83 29 84 30 85 31 23 32 24 33
REMARK SMILES IDX 25 34 26 35 27 36 28 37 29 38 30 39 31 40 77 41 32 42 76 43
REMARK SMILES IDX 33 44 34 45 35 46 70 47 36 48 75 49 69 50 71 51 37 52 74 53
REMARK SMILES IDX 68 54 67 55 38 57 60 58 45 59 59 60 46 61 49 62 58 63 72 64
REMARK SMILES IDX 47 65 48 66 57 68 73 69 50 70 39 71 40 72 44 73 41 74 43 75
REMARK SMILES IDX 42 76 61 77 62 78 66 79 63 80 65 81 64 82 51 83 52 84 56 85
REMARK SMILES IDX 53 86 55 87 54 88
REMARK H PARENT 11 15 71 56 49 67
REMARK Flexibility Score: inf
ROOT
ATOM      1  C   UNL A   1      40.855  28.946  28.012  1.00  0.00     0.188 C 
ENDROOT
BRANCH   1   2
ATOM      2  O   UNL A   1      40.058  29.137  29.159  1.00  0.00    -0.376 OA
BRANCH   2   3
ATOM      3  C   UNL A   1      38.684  29.466  29.054  1.00  0.00     0.202 C 
BRANCH   3   4
ATOM      4  C   UNL A   1      38.024  30.690  29.711  1.00  0.00     0.261 C 
BRANCH   4   5
ATOM      5  O   UNL A   1      36.595  30.730  29.704  1.00  0.00    -0.460 OA
BRANCH   5   6
ATOM      6  C   UNL A   1      36.059  31.553  28.770  1.00  0.00     0.338 C 
ATOM      7  O   UNL A   1      36.435  32.677  28.481  1.00  0.00    -0.246 OA
BRANCH   6   8
ATOM      8  C   UNL A   1      35.036  30.836  27.984  1.00  0.00     0.060 A 
ATOM      9  C   UNL A   1      32.918  29.512  26.736  1.00  0.00     0.038 A 
ATOM     10  C   UNL A   1      32.814  30.875  27.036  1.00  0.00     0.027 A 
ATOM     11  C   UNL A   1      34.131  28.849  26.967  1.00  0.00     0.027 A 
ATOM     12  C   UNL A   1      33.863  31.532  27.671  1.00  0.00     0.018 A 
ATOM     13  C   UNL A   1      35.197  29.509  27.581  1.00  0.00     0.018 A 
BRANCH   9  14
ATOM     14  N   UNL A   1      31.752  28.817  26.371  1.00  0.00    -0.355 N 
ATOM     15  H   UNL A   1      31.120  28.630  27.102  1.00  0.00     0.167 HD
BRANCH  14  16
ATOM     16  C   UNL A   1      31.363  28.349  25.084  1.00  0.00     0.050 A 
ATOM     17  C   UNL A   1      32.194  24.377  23.851  1.00  0.00     0.163 A 
ATOM     18  C   UNL A   1      31.538  25.278  23.002  1.00  0.00     0.079 A 
ATOM     19  C   UNL A   1      32.514  24.778  25.147  1.00  0.00     0.161 A 
ATOM     20  C   UNL A   1      31.232  26.582  23.405  1.00  0.00     0.076 A 
ATOM     21  C   UNL A   1      32.219  26.073  25.559  1.00  0.00     0.063 A 
ATOM     22  N   UNL A   1      30.628  27.410  22.537  1.00  0.00    -0.256 NA
ATOM     23  C   UNL A   1      31.601  27.002  24.705  1.00  0.00     0.028 A 
ATOM     24  C   UNL A   1      30.392  28.681  22.927  1.00  0.00     0.114 A 
ATOM     25  C   UNL A   1      30.734  29.187  24.166  1.00  0.00     0.047 A 
BRANCH  17  26
ATOM     26  O   UNL A   1      32.677  23.183  23.391  1.00  0.00    -0.490 OA
BRANCH  26  27
ATOM     27  C   UNL A   1      33.927  23.241  22.699  1.00  0.00     0.226 C 
ATOM     28  C   UNL A   1      34.975  22.590  23.596  1.00  0.00     0.049 C 
ENDBRANCH  26  27
ENDBRANCH  17  26
BRANCH  19  29
ATOM     29  O   UNL A   1      33.135  24.045  26.118  1.00  0.00    -0.490 OA
BRANCH  29  30
ATOM     30  C   UNL A   1      32.303  23.280  26.986  1.00  0.00     0.226 C 
ATOM     31  C   UNL A   1      33.068  22.369  27.939  1.00  0.00     0.049 C 
ENDBRANCH  29  30
ENDBRANCH  19  29
ENDBRANCH  14  16
ENDBRANCH   9  14
ENDBRANCH   6   8
ENDBRANCH   5   6
ENDBRANCH   4   5
ENDBRANCH   3   4
ENDBRANCH   2   3
ENDBRANCH   1   2
BRANCH   1  32
ATOM     32  C   UNL A   1      41.000  27.539  27.398  1.00  0.00     0.188 C 
BRANCH  32  33
ATOM     33  O   UNL A   1      40.757  26.409  28.200  1.00  0.00    -0.376 OA
BRANCH  33  34
ATOM     34  C   UNL A   1      39.913  25.369  27.738  1.00  0.00     0.202 C 
BRANCH  34  35
ATOM     35  C   UNL A   1      40.293  23.877  27.648  1.00  0.00     0.261 C 
BRANCH  35  36
ATOM     36  O   UNL A   1      41.635  23.501  27.965  1.00  0.00    -0.460 OA
BRANCH  36  37
ATOM     37  C   UNL A   1      42.460  23.308  26.904  1.00  0.00     0.338 C 
ATOM     38  O   UNL A   1      42.455  22.383  26.117  1.00  0.00    -0.246 OA
BRANCH  37  39
ATOM     39  C   UNL A   1      43.301  24.510  26.746  1.00  0.00     0.060 A 
ATOM     40  C   UNL A   1      43.377  25.135  25.492  1.00  0.00     0.016 A 
ATOM     41  C   UNL A   1      44.014  25.011  27.834  1.00  0.00     0.016 A 
ATOM     42  C   UNL A   1      44.153  26.284  25.331  1.00  0.00     0.010 A 
ATOM     43  C   UNL A   1      44.814  26.143  27.660  1.00  0.00     0.010 A 
ATOM     44  C   UNL A   1      44.892  26.784  26.410  1.00  0.00    -0.014 A 
BRANCH  44  45
ATOM     45  C   UNL A   1      45.830  27.918  26.234  1.00  0.00     0.031 A 
ATOM     46  C   UNL A   1      47.290  27.628  26.026  1.00  0.00     0.074 A 
ATOM     47  C   UNL A   1      45.397  29.189  26.312  1.00  0.00     0.049 A 
ATOM     48  N   UNL A   1      48.303  28.455  26.006  1.00  0.00    -0.248 NA
ATOM     49  C   UNL A   1      47.656  26.217  25.815  1.00  0.00     0.031 C 
ATOM     50  C   UNL A   1      44.002  29.604  26.457  1.00  0.00     0.029 A 
ATOM     51  N   UNL A   1      46.100  30.370  26.307  1.00  0.00    -0.354 N 
ATOM     52  C   UNL A   1      49.429  27.665  25.811  1.00  0.00     0.074 A 
ATOM     53  C   UNL A   1      48.976  26.294  25.720  1.00  0.00     0.031 C 
ATOM     54  C   UNL A   1      43.954  30.944  26.553  1.00  0.00     0.029 A 
ATOM     55  C   UNL A   1      45.315  31.476  26.529  1.00  0.00     0.049 A 
ATOM     56  H   UNL A   1      47.071  30.418  26.160  1.00  0.00     0.167 HD
ATOM     57  C   UNL A   1      50.723  28.051  25.729  1.00  0.00     0.031 A 
ATOM     58  C   UNL A   1      45.661  32.762  26.737  1.00  0.00     0.031 A 
ATOM     59  C   UNL A   1      51.171  29.415  25.826  1.00  0.00     0.049 A 
ATOM     60  C   UNL A   1      47.122  33.144  26.741  1.00  0.00     0.074 A 
ATOM     61  C   UNL A   1      52.460  29.905  25.709  1.00  0.00     0.029 A 
ATOM     62  N   UNL A   1      50.350  30.499  26.082  1.00  0.00    -0.354 N 
ATOM     63  N   UNL A   1      48.173  32.399  26.504  1.00  0.00    -0.248 NA
ATOM     64  C   UNL A   1      47.440  34.546  27.052  1.00  0.00     0.031 C 
ATOM     65  C   UNL A   1      52.430  31.276  25.972  1.00  0.00     0.029 A 
ATOM     66  C   UNL A   1      51.112  31.651  26.180  1.00  0.00     0.049 A 
ATOM     67  H   UNL A   1      49.371  30.459  26.180  1.00  0.00     0.167 HD
ATOM     68  C   UNL A   1      49.271  33.247  26.605  1.00  0.00     0.074 A 
ATOM     69  C   UNL A   1      48.757  34.566  26.906  1.00  0.00     0.031 C 
ATOM     70  C   UNL A   1      50.588  32.959  26.468  1.00  0.00     0.031 A 
BRANCH  57  71
ATOM     71  C   UNL A   1      51.769  26.983  25.571  1.00  0.00    -0.014 A 
ATOM     72  C   UNL A   1      52.254  26.261  26.671  1.00  0.00     0.009 A 
ATOM     73  C   UNL A   1      52.211  26.641  24.283  1.00  0.00     0.009 A 
ATOM     74  C   UNL A   1      53.174  25.226  26.484  1.00  0.00     0.001 A 
ATOM     75  C   UNL A   1      53.108  25.589  24.096  1.00  0.00     0.001 A 
ATOM     76  C   UNL A   1      53.592  24.886  25.197  1.00  0.00     0.000 A 
ENDBRANCH  57  71
BRANCH  58  77
ATOM     77  C   UNL A   1      44.626  33.793  27.022  1.00  0.00    -0.014 A 
ATOM     78  C   UNL A   1      44.213  34.048  28.340  1.00  0.00     0.009 A 
ATOM     79  C   UNL A   1      43.992  34.479  25.973  1.00  0.00     0.009 A 
ATOM     80  C   UNL A   1      43.161  34.932  28.596  1.00  0.00     0.001 A 
ATOM     81  C   UNL A   1      42.965  35.389  26.235  1.00  0.00     0.001 A 
ATOM     82  C   UNL A   1      42.541  35.603  27.545  1.00  0.00     0.000 A 
ENDBRANCH  58  77
BRANCH  70  83
ATOM     83  C   UNL A   1      51.568  34.093  26.600  1.00  0.00    -0.014 A 
ATOM     84  C   UNL A   1      52.128  34.432  27.842  1.00  0.00     0.009 A 
ATOM     85  C   UNL A   1      51.986  34.788  25.453  1.00  0.00     0.009 A 
ATOM     86  C   UNL A   1      53.067  35.461  27.935  1.00  0.00     0.001 A 
ATOM     87  C   UNL A   1      52.949  35.793  25.545  1.00  0.00     0.001 A 
ATOM     88  C   UNL A   1      53.483  36.135  26.786  1.00  0.00     0.000 A 
ENDBRANCH  70  83
ENDBRANCH  44  45
ENDBRANCH  37  39
ENDBRANCH  36  37
ENDBRANCH  35  36
ENDBRANCH  34  35
ENDBRANCH  33  34
ENDBRANCH  32  33
ENDBRANCH   1  32
TORSDOF 23
ENDMDL
MODEL 2
REMARK VINA RESULT:      -8.6      3.264      5.416
REMARK SMILES CCOc1cc2nccc(Nc3ccc(C(=O)OCCOCCOCCOC(=O)c4ccc(-c5c6nc(c(-c7ccccc7)c7ccc([nH]7)c(-c7ccccc7)c7nc(c(-c8ccccc8)c8ccc5[nH]8)C=C7)C=C6)cc4)cc3)c2cc1OCC
REMARK SMILES IDX 22 1 21 2 20 3 19 4 18 5 16 6 17 7 15 8 12 9 13 10 79 11
REMARK SMILES IDX 14 12 78 13 11 14 10 16 4 17 5 18 82 19 6 20 81 21 7 22
REMARK SMILES IDX 80 23 8 24 9 25 3 26 2 27 1 28 83 29 84 30 85 31 23 32 24 33
REMARK SMILES IDX 25 34 26 35 27 36 28 37 29 38 30 39 31 40 77 41 32 42 76 43
REMARK SMILES IDX 33 44 34 45 35 46 70 47 36 48 75 49 69 50 71 51 37 52 74 53
REMARK SMILES IDX 68 54 67 55 38 57 60 58 45 59 59 60 46 61 49 62 58 63 72 64
REMARK SMILES IDX 47 65 48 66 57 68 73 69 50 70 39 71 40 72 44 73 41 74 43 75
REMARK SMILES IDX 42 76 61 77 62 78 66 79 63 80 65 81 64 82 51 83 52 84 56 85
REMARK SMILES IDX 53 86 55 87 54 88
REMARK H PARENT 11 15 71 56 49 67
REMARK Flexibility Score: inf
ROOT
ATOM      1  C   UNL A   1      35.452  35.033  33.321  1.00  0.00     0.188 C 
ENDROOT
BRANCH   1   2
ATOM      2  O   UNL A   1      35.673  34.926  31.932  1.00  0.00    -0.376 OA
BRANCH   2   3
ATOM      3  C   UNL A   1      34.842  34.121  31.115  1.00  0.00     0.202 C 
BRANCH   3   4
ATOM      4  C   UNL A   1      35.293  33.432  29.817  1.00  0.00     0.261 C 
BRANCH   4   5
ATOM      5  O   UNL A   1      34.553  32.279  29.410  1.00  0.00    -0.460 OA
BRANCH   5   6
ATOM      6  C   UNL A   1      33.859  32.433  28.256  1.00  0.00     0.338 C 
ATOM      7  O   UNL A   1      33.437  33.479  27.789  1.00  0.00    -0.246 OA
BRANCH   6   8
ATOM      8  C   UNL A   1      33.824  31.162  27.505  1.00  0.00     0.060 A 
ATOM      9  C   UNL A   1      33.536  28.674  26.272  1.00  0.00     0.038 A 
ATOM     10  C   UNL A   1      32.509  29.621  26.190  1.00  0.00     0.027 A 
ATOM     11  C   UNL A   1      34.747  29.027  26.882  1.00  0.00     0.027 A 
ATOM     12  C   UNL A   1      32.645  30.856  26.817  1.00  0.00     0.018 A 
ATOM     13  C   UNL A   1      34.901  30.274  27.491  1.00  0.00     0.018 A 
BRANCH   9  14
ATOM     14  N   UNL A   1      33.256  27.351  25.890  1.00  0.00    -0.355 N 
ATOM     15  H   UNL A   1      32.863  26.779  26.588  1.00  0.00     0.167 HD
BRANCH  14  16
ATOM     16  C   UNL A   1      33.465  26.727  24.628  1.00  0.00     0.050 A 
ATOM     17  C   UNL A   1      35.059  22.807  24.355  1.00  0.00     0.163 A 
ATOM     18  C   UNL A   1      34.732  23.538  23.206  1.00  0.00     0.079 A 
ATOM     19  C   UNL A   1      34.788  23.355  25.607  1.00  0.00     0.161 A 
ATOM     20  C   UNL A   1      34.179  24.821  23.281  1.00  0.00     0.076 A 
ATOM     21  C   UNL A   1      34.243  24.632  25.696  1.00  0.00     0.063 A 
ATOM     22  N   UNL A   1      33.913  25.486  22.144  1.00  0.00    -0.256 NA
ATOM     23  C   UNL A   1      33.950  25.395  24.553  1.00  0.00     0.028 A 
ATOM     24  C   UNL A   1      33.432  26.744  22.239  1.00  0.00     0.114 A 
ATOM     25  C   UNL A   1      33.196  27.394  23.435  1.00  0.00     0.047 A 
BRANCH  17  26
ATOM     26  O   UNL A   1      35.787  21.650  24.284  1.00  0.00    -0.490 OA
BRANCH  26  27
ATOM     27  C   UNL A   1      37.016  21.642  25.014  1.00  0.00     0.226 C 
ATOM     28  C   UNL A   1      37.681  20.290  24.769  1.00  0.00     0.049 C 
ENDBRANCH  26  27
ENDBRANCH  17  26
BRANCH  19  29
ATOM     29  O   UNL A   1      35.020  22.795  26.832  1.00  0.00    -0.490 OA
BRANCH  29  30
ATOM     30  C   UNL A   1      34.095  21.807  27.279  1.00  0.00     0.226 C 
ATOM     31  C   UNL A   1      32.995  22.350  28.185  1.00  0.00     0.049 C 
ENDBRANCH  29  30
ENDBRANCH  19  29
ENDBRANCH  14  16
ENDBRANCH   9  14
ENDBRANCH   6   8
ENDBRANCH   5   6
ENDBRANCH   4   5
ENDBRANCH   3   4
ENDBRANCH   2   3
ENDBRANCH   1   2
BRANCH   1  32
ATOM     32  C   UNL A   1      34.874  33.837  34.105  1.00  0.00     0.188 C 
BRANCH  32  33
ATOM     33  O   UNL A   1      35.671  32.694  34.304  1.00  0.00    -0.376 OA
BRANCH  33  34
ATOM     34  C   UNL A   1      37.072  32.752  34.103  1.00  0.00     0.202 C 
BRANCH  34  35
ATOM     35  C   UNL A   1      38.039  31.553  34.174  1.00  0.00     0.261 C 
BRANCH  35  36
ATOM     36  O   UNL A   1      37.808  30.446  33.300  1.00  0.00    -0.460 OA
BRANCH  36  37
ATOM     37  C   UNL A   1      38.870  29.624  33.094  1.00  0.00     0.338 C 
ATOM     38  O   UNL A   1      38.985  28.461  33.424  1.00  0.00    -0.246 OA
BRANCH  37  39
ATOM     39  C   UNL A   1      39.844  30.331  32.240  1.00  0.00     0.060 A 
ATOM     40  C   UNL A   1      39.657  30.342  30.850  1.00  0.00     0.016 A 
ATOM     41  C   UNL A   1      40.940  30.973  32.815  1.00  0.00     0.016 A 
ATOM     42  C   UNL A   1      40.559  31.022  30.030  1.00  0.00     0.010 A 
ATOM     43  C   UNL A   1      41.857  31.626  31.988  1.00  0.00     0.010 A 
ATOM     44  C   UNL A   1      41.675  31.652  30.593  1.00  0.00    -0.014 A 
BRANCH  44  45
ATOM     45  C   UNL A   1      42.721  32.262  29.738  1.00  0.00     0.031 A 
ATOM     46  C   UNL A   1      43.955  31.466  29.419  1.00  0.00     0.074 A 
ATOM     47  C   UNL A   1      42.598  33.527  29.295  1.00  0.00     0.049 A 
ATOM     48  N   UNL A   1      45.058  31.850  28.828  1.00  0.00    -0.248 NA
ATOM     49  C   UNL A   1      43.947  30.051  29.824  1.00  0.00     0.031 C 
ATOM     50  C   UNL A   1      41.430  34.384  29.489  1.00  0.00     0.029 A 
ATOM     51  N   UNL A   1      43.488  34.319  28.610  1.00  0.00    -0.354 N 
ATOM     52  C   UNL A   1      45.885  30.734  28.817  1.00  0.00     0.074 A 
ATOM     53  C   UNL A   1      45.160  29.660  29.460  1.00  0.00     0.031 C 
ATOM     54  C   UNL A   1      41.684  35.594  28.957  1.00  0.00     0.029 A 
ATOM     55  C   UNL A   1      43.048  35.610  28.435  1.00  0.00     0.049 A 
ATOM     56  H   UNL A   1      44.355  33.994  28.279  1.00  0.00     0.167 HD
ATOM     57  C   UNL A   1      47.140  30.623  28.324  1.00  0.00     0.031 A 
ATOM     58  C   UNL A   1      43.693  36.691  27.951  1.00  0.00     0.031 A 
ATOM     59  C   UNL A   1      47.861  31.695  27.690  1.00  0.00     0.049 A 
ATOM     60  C   UNL A   1      45.129  36.558  27.504  1.00  0.00     0.074 A 
ATOM     61  C   UNL A   1      49.122  31.662  27.119  1.00  0.00     0.029 A 
ATOM     62  N   UNL A   1      47.394  32.992  27.560  1.00  0.00    -0.354 N 
ATOM     63  N   UNL A   1      45.884  35.488  27.449  1.00  0.00    -0.248 NA
ATOM     64  C   UNL A   1      45.803  37.788  27.061  1.00  0.00     0.031 C 
ATOM     65  C   UNL A   1      49.450  32.957  26.714  1.00  0.00     0.029 A 
ATOM     66  C   UNL A   1      48.365  33.781  26.967  1.00  0.00     0.049 A 
ATOM     67  H   UNL A   1      46.506  33.307  27.847  1.00  0.00     0.167 HD
ATOM     68  C   UNL A   1      47.105  35.910  26.937  1.00  0.00     0.074 A 
ATOM     69  C   UNL A   1      46.986  37.329  26.679  1.00  0.00     0.031 C 
ATOM     70  C   UNL A   1      48.230  35.190  26.705  1.00  0.00     0.031 A 
BRANCH  57  71
ATOM     71  C   UNL A   1      47.849  29.309  28.488  1.00  0.00    -0.014 A 
ATOM     72  C   UNL A   1      47.815  28.324  27.490  1.00  0.00     0.009 A 
ATOM     73  C   UNL A   1      48.635  29.092  29.633  1.00  0.00     0.009 A 
ATOM     74  C   UNL A   1      48.543  27.142  27.642  1.00  0.00     0.001 A 
ATOM     75  C   UNL A   1      49.383  27.922  29.769  1.00  0.00     0.001 A 
ATOM     76  C   UNL A   1      49.332  26.946  28.776  1.00  0.00     0.000 A 
ENDBRANCH  57  71
BRANCH  58  77
ATOM     77  C   UNL A   1      43.026  38.022  27.912  1.00  0.00    -0.014 A 
ATOM     78  C   UNL A   1      43.086  38.885  29.017  1.00  0.00     0.009 A 
ATOM     79  C   UNL A   1      42.264  38.406  26.796  1.00  0.00     0.009 A 
ATOM     80  C   UNL A   1      42.364  40.082  29.023  1.00  0.00     0.001 A 
ATOM     81  C   UNL A   1      41.574  39.620  26.791  1.00  0.00     0.001 A 
ATOM     82  C   UNL A   1      41.612  40.450  27.909  1.00  0.00     0.000 A 
ENDBRANCH  58  77
BRANCH  70  83
ATOM     83  C   UNL A   1      49.409  35.908  26.109  1.00  0.00    -0.014 A 
ATOM     84  C   UNL A   1      50.387  36.504  26.921  1.00  0.00     0.009 A 
ATOM     85  C   UNL A   1      49.577  35.929  24.715  1.00  0.00     0.009 A 
ATOM     86  C   UNL A   1      51.495  37.130  26.347  1.00  0.00     0.001 A 
ATOM     87  C   UNL A   1      50.703  36.527  24.146  1.00  0.00     0.001 A 
ATOM     88  C   UNL A   1      51.656  37.133  24.960  1.00  0.00     0.000 A 
ENDBRANCH  70  83
ENDBRANCH  44  45
ENDBRANCH  37  39
ENDBRANCH  36  37
ENDBRANCH  35  36
ENDBRANCH  34  35
ENDBRANCH  33  34
ENDBRANCH  32  33
ENDBRANCH   1  32
TORSDOF 23
ENDMDL
MODEL 3
REMARK VINA RESULT:      -8.5      7.305     13.468
REMARK SMILES CCOc1cc2nccc(Nc3ccc(C(=O)OCCOCCOCCOC(=O)c4ccc(-c5c6nc(c(-c7ccccc7)c7ccc([nH]7)c(-c7ccccc7)c7nc(c(-c8ccccc8)c8ccc5[nH]8)C=C7)C=C6)cc4)cc3)c2cc1OCC
REMARK SMILES IDX 22 1 21 2 20 3 19 4 18 5 16 6 17 7 15 8 12 9 13 10 79 11
REMARK SMILES IDX 14 12 78 13 11 14 10 16 4 17 5 18 82 19 6 20 81 21 7 22
REMARK SMILES IDX 80 23 8 24 9 25 3 26 2 27 1 28 83 29 84 30 85 31 23 32 24 33
REMARK SMILES IDX 25 34 26 35 27 36 28 37 29 38 30 39 31 40 77 41 32 42 76 43
REMARK SMILES IDX 33 44 34 45 35 46 70 47 36 48 75 49 69 50 71 51 37 52 74 53
REMARK SMILES IDX 68 54 67 55 38 57 60 58 45 59 59 60 46 61 49 62 58 63 72 64
REMARK SMILES IDX 47 65 48 66 57 68 73 69 50 70 39 71 40 72 44 73 41 74 43 75
REMARK SMILES IDX 42 76 61 77 62 78 66 79 63 80 65 81 64 82 51 83 52 84 56 85
REMARK SMILES IDX 53 86 55 87 54 88
REMARK H PARENT 11 15 71 56 49 67
REMARK Flexibility Score: inf
ROOT
ATOM      1  C   UNL A   1      36.401  34.813  33.569  1.00  0.00     0.188 C 
ENDROOT
BRANCH   1   2
ATOM      2  O   UNL A   1      36.577  34.333  34.883  1.00  0.00    -0.376 OA
BRANCH   2   3
ATOM      3  C   UNL A   1      37.694  33.534  35.231  1.00  0.00     0.202 C 
BRANCH   3   4
ATOM      4  C   UNL A   1      38.077  32.215  34.538  1.00  0.00     0.261 C 
BRANCH   4   5
ATOM      5  O   UNL A   1      39.107  31.441  35.155  1.00  0.00    -0.460 OA
BRANCH   5   6
ATOM      6  C   UNL A   1      39.637  30.476  34.365  1.00  0.00     0.338 C 
ATOM      7  O   UNL A   1      39.345  30.237  33.204  1.00  0.00    -0.246 OA
BRANCH   6   8
ATOM      8  C   UNL A   1      40.784  29.834  35.038  1.00  0.00     0.060 A 
ATOM      9  C   UNL A   1      43.122  28.843  36.198  1.00  0.00     0.038 A 
ATOM     10  C   UNL A   1      42.588  30.064  36.627  1.00  0.00     0.027 A 
ATOM     11  C   UNL A   1      42.414  28.076  35.263  1.00  0.00     0.027 A 
ATOM     12  C   UNL A   1      41.432  30.566  36.039  1.00  0.00     0.018 A 
ATOM     13  C   UNL A   1      41.239  28.561  34.688  1.00  0.00     0.018 A 
BRANCH   9  14
ATOM     14  N   UNL A   1      44.429  28.510  36.593  1.00  0.00    -0.355 N 
ATOM     15  H   UNL A   1      45.152  28.927  36.072  1.00  0.00     0.167 HD
BRANCH  14  16
ATOM     16  C   UNL A   1      44.846  27.650  37.647  1.00  0.00     0.050 A 
ATOM     17  C   UNL A   1      46.158  29.213  41.365  1.00  0.00     0.163 A 
ATOM     18  C   UNL A   1      46.133  27.833  41.127  1.00  0.00     0.079 A 
ATOM     19  C   UNL A   1      45.677  30.078  40.385  1.00  0.00     0.161 A 
ATOM     20  C   UNL A   1      45.676  27.301  39.916  1.00  0.00     0.076 A 
ATOM     21  C   UNL A   1      45.224  29.563  39.174  1.00  0.00     0.063 A 
ATOM     22  N   UNL A   1      45.702  25.971  39.735  1.00  0.00    -0.256 NA
ATOM     23  C   UNL A   1      45.233  28.185  38.904  1.00  0.00     0.028 A 
ATOM     24  C   UNL A   1      45.310  25.482  38.539  1.00  0.00     0.114 A 
ATOM     25  C   UNL A   1      44.881  26.266  37.485  1.00  0.00     0.047 A 
BRANCH  17  26
ATOM     26  O   UNL A   1      46.795  29.739  42.456  1.00  0.00    -0.490 OA
BRANCH  26  27
ATOM     27  C   UNL A   1      46.211  29.432  43.725  1.00  0.00     0.226 C 
ATOM     28  C   UNL A   1      45.252  30.566  44.071  1.00  0.00     0.049 C 
ENDBRANCH  26  27
ENDBRANCH  17  26
BRANCH  19  29
ATOM     29  O   UNL A   1      45.607  31.442  40.436  1.00  0.00    -0.490 OA
BRANCH  29  30
ATOM     30  C   UNL A   1      45.172  32.113  39.256  1.00  0.00     0.226 C 
ATOM     31  C   UNL A   1      44.101  33.171  39.501  1.00  0.00     0.049 C 
ENDBRANCH  29  30
ENDBRANCH  19  29
ENDBRANCH  14  16
ENDBRANCH   9  14
ENDBRANCH   6   8
ENDBRANCH   5   6
ENDBRANCH   4   5
ENDBRANCH   3   4
ENDBRANCH   2   3
ENDBRANCH   1   2
BRANCH   1  32
ATOM     32  C   UNL A   1      34.983  35.112  33.040  1.00  0.00     0.188 C 
BRANCH  32  33
ATOM     33  O   UNL A   1      34.617  36.441  32.762  1.00  0.00    -0.376 OA
BRANCH  33  34
ATOM     34  C   UNL A   1      33.325  36.742  32.265  1.00  0.00     0.202 C 
BRANCH  34  35
ATOM     35  C   UNL A   1      32.667  36.094  31.029  1.00  0.00     0.261 C 
BRANCH  35  36
ATOM     36  O   UNL A   1      33.480  35.848  29.881  1.00  0.00    -0.460 OA
BRANCH  36  37
ATOM     37  C   UNL A   1      33.424  34.587  29.377  1.00  0.00     0.338 C 
ATOM     38  O   UNL A   1      32.516  34.076  28.753  1.00  0.00    -0.246 OA
BRANCH  37  39
ATOM     39  C   UNL A   1      34.742  33.953  29.570  1.00  0.00     0.060 A 
ATOM     40  C   UNL A   1      34.894  32.974  30.563  1.00  0.00     0.016 A 
ATOM     41  C   UNL A   1      35.823  34.333  28.777  1.00  0.00     0.016 A 
ATOM     42  C   UNL A   1      36.130  32.351  30.747  1.00  0.00     0.010 A 
ATOM     43  C   UNL A   1      37.066  33.730  28.984  1.00  0.00     0.010 A 
ATOM     44  C   UNL A   1      37.228  32.739  29.970  1.00  0.00    -0.014 A 
BRANCH  44  45
ATOM     45  C   UNL A   1      38.581  32.196  30.236  1.00  0.00     0.031 A 
ATOM     46  C   UNL A   1      38.966  30.875  29.630  1.00  0.00     0.074 A 
ATOM     47  C   UNL A   1      39.436  32.842  31.050  1.00  0.00     0.049 A 
ATOM     48  N   UNL A   1      40.027  30.141  29.851  1.00  0.00    -0.248 NA
ATOM     49  C   UNL A   1      38.031  30.306  28.646  1.00  0.00     0.031 C 
ATOM     50  C   UNL A   1      39.204  34.152  31.657  1.00  0.00     0.029 A 
ATOM     51  N   UNL A   1      40.667  32.462  31.528  1.00  0.00    -0.354 N 
ATOM     52  C   UNL A   1      39.872  29.012  29.059  1.00  0.00     0.074 A 
ATOM     53  C   UNL A   1      38.618  29.154  28.352  1.00  0.00     0.031 C 
ATOM     54  C   UNL A   1      40.249  34.457  32.448  1.00  0.00     0.029 A 
ATOM     55  C   UNL A   1      41.194  33.342  32.443  1.00  0.00     0.049 A 
ATOM     56  H   UNL A   1      41.126  31.640  31.244  1.00  0.00     0.167 HD
ATOM     57  C   UNL A   1      40.699  27.946  28.942  1.00  0.00     0.031 A 
ATOM     58  C   UNL A   1      42.290  33.237  33.222  1.00  0.00     0.031 A 
ATOM     59  C   UNL A   1      41.943  27.804  29.650  1.00  0.00     0.049 A 
ATOM     60  C   UNL A   1      43.136  31.989  33.143  1.00  0.00     0.074 A 
ATOM     61  C   UNL A   1      42.869  26.778  29.561  1.00  0.00     0.029 A 
ATOM     62  N   UNL A   1      42.425  28.700  30.589  1.00  0.00    -0.354 N 
ATOM     63  N   UNL A   1      43.010  30.951  32.354  1.00  0.00    -0.248 NA
ATOM     64  C   UNL A   1      44.272  31.898  34.073  1.00  0.00     0.031 C 
ATOM     65  C   UNL A   1      43.873  27.015  30.502  1.00  0.00     0.029 A 
ATOM     66  C   UNL A   1      43.609  28.224  31.125  1.00  0.00     0.049 A 
ATOM     67  H   UNL A   1      41.991  29.548  30.838  1.00  0.00     0.167 HD
ATOM     68  C   UNL A   1      44.066  30.103  32.669  1.00  0.00     0.074 A 
ATOM     69  C   UNL A   1      44.834  30.755  33.708  1.00  0.00     0.031 C 
ATOM     70  C   UNL A   1      44.370  28.888  32.151  1.00  0.00     0.031 A 
BRANCH  57  71
ATOM     71  C   UNL A   1      40.271  26.815  28.051  1.00  0.00    -0.014 A 
ATOM     72  C   UNL A   1      40.765  26.678  26.746  1.00  0.00     0.009 A 
ATOM     73  C   UNL A   1      39.420  25.822  28.564  1.00  0.00     0.009 A 
ATOM     74  C   UNL A   1      40.403  25.577  25.967  1.00  0.00     0.001 A 
ATOM     75  C   UNL A   1      39.083  24.708  27.794  1.00  0.00     0.001 A 
ATOM     76  C   UNL A   1      39.571  24.590  26.494  1.00  0.00     0.000 A 
ENDBRANCH  57  71
BRANCH  58  77
ATOM     77  C   UNL A   1      42.636  34.306  34.198  1.00  0.00    -0.014 A 
ATOM     78  C   UNL A   1      43.443  35.390  33.816  1.00  0.00     0.009 A 
ATOM     79  C   UNL A   1      42.222  34.212  35.537  1.00  0.00     0.009 A 
ATOM     80  C   UNL A   1      43.863  36.330  34.762  1.00  0.00     0.001 A 
ATOM     81  C   UNL A   1      42.614  35.174  36.472  1.00  0.00     0.001 A 
ATOM     82  C   UNL A   1      43.445  36.223  36.087  1.00  0.00     0.000 A 
ENDBRANCH  58  77
BRANCH  70  83
ATOM     83  C   UNL A   1      45.604  28.199  32.664  1.00  0.00    -0.014 A 
ATOM     84  C   UNL A   1      46.886  28.598  32.257  1.00  0.00     0.009 A 
ATOM     85  C   UNL A   1      45.482  27.178  33.622  1.00  0.00     0.009 A 
ATOM     86  C   UNL A   1      48.020  27.971  32.777  1.00  0.00     0.001 A 
ATOM     87  C   UNL A   1      46.618  26.576  34.165  1.00  0.00     0.001 A 
ATOM     88  C   UNL A   1      47.885  26.967  33.737  1.00  0.00     0.000 A 
ENDBRANCH  70  83
ENDBRANCH  44  45
ENDBRANCH  37  39
ENDBRANCH  36  37
ENDBRANCH  35  36
ENDBRANCH  34  35
ENDBRANCH  33  34
ENDBRANCH  32  33
ENDBRANCH   1  32
TORSDOF 23
ENDMDL
