MODEL 1
REMARK VINA RESULT:     -11.3      0.000      0.000
REMARK SMILES O=C(OCCOCCOCCOC(=O)c1ccc(-c2c3nc(c(-c4ccccc4)c4ccc([nH]4)c(-c4ccccc4)c4nc(c(-c5ccccc5)c5ccc2[nH]5)C=C4)C=C3)cc1)C1=Cc2cc(OC(F)(F)F)ccc2O[C@@H]1C(F)(F)F
REMARK SMILES IDX 7 1 6 2 5 3 4 4 3 5 2 6 1 7 63 8 64 9 77 10 65 11 76 12
REMARK SMILES IDX 66 13 75 14 67 15 74 16 73 17 78 18 79 19 80 20 81 21 68 22
REMARK SMILES IDX 69 23 70 24 71 25 72 26 8 27 9 28 10 29 11 30 12 31 13 32
REMARK SMILES IDX 14 33 15 34 16 35 62 36 17 37 61 38 18 39 19 40 20 41 55 42
REMARK SMILES IDX 21 43 60 44 54 45 56 46 22 47 59 48 53 49 52 50 23 52 45 53
REMARK SMILES IDX 30 54 44 55 31 56 34 57 43 58 57 59 32 60 33 61 42 63 58 64
REMARK SMILES IDX 35 65 24 66 25 67 29 68 26 69 28 70 27 71 46 72 47 73 51 74
REMARK SMILES IDX 48 75 50 76 49 77 36 78 37 79 41 80 38 81 40 82 39 83
REMARK H PARENT 56 51 34 62
REMARK Flexibility Score: inf
ROOT
ATOM      1  C   UNL A   1      35.831  32.371  28.070  1.00  0.00     0.188 C 
ENDROOT
BRANCH   1   2
ATOM      2  O   UNL A   1      36.103  30.933  27.781  1.00  0.00    -0.376 OA
BRANCH   2   3
ATOM      3  C   UNL A   1      34.984  29.701  27.323  1.00  0.00     0.202 C 
BRANCH   3   4
ATOM      4  C   UNL A   1      32.820  29.927  27.316  1.00  0.00     0.261 C 
BRANCH   4   5
ATOM      5  O   UNL A   1      31.844  29.236  26.368  1.00  0.00    -0.460 OA
BRANCH   5   6
ATOM      6  C   UNL A   1      31.651  27.951  26.698  1.00  0.00     0.338 C 
ATOM      7  O   UNL A   1      31.583  27.460  27.796  1.00  0.00    -0.246 OA
BRANCH   6   8
ATOM      8  C   UNL A   1      32.074  27.388  25.427  1.00  0.00     0.087 C 
ATOM      9  C   UNL A   1      33.364  26.708  25.437  1.00  0.00     0.027 C 
ATOM     10  C   UNL A   1      30.385  26.536  25.106  1.00  0.00     0.316 C 
ATOM     11  C   UNL A   1      33.554  24.925  25.446  1.00  0.00     0.021 A 
ATOM     12  O   UNL A   1      30.547  24.594  25.277  1.00  0.00    -0.475 OA
ATOM     13  C   UNL A   1      34.804  24.392  25.553  1.00  0.00     0.058 A 
ATOM     14  C   UNL A   1      32.211  23.848  25.438  1.00  0.00     0.128 A 
ATOM     15  C   UNL A   1      34.880  22.984  25.591  1.00  0.00     0.130 A 
ATOM     16  C   UNL A   1      32.350  22.489  25.459  1.00  0.00     0.051 A 
ATOM     17  C   UNL A   1      33.721  22.090  25.532  1.00  0.00     0.050 A 
BRANCH  10  18
ATOM     18  C   UNL A   1      30.053  27.537  23.799  1.00  0.00     0.430 C 
ATOM     19  F   UNL A   1      30.227  28.854  23.858  1.00  0.00    -0.167 F 
ATOM     20  F   UNL A   1      30.813  27.116  22.750  1.00  0.00    -0.167 F 
ATOM     21  F   UNL A   1      28.763  27.396  23.357  1.00  0.00    -0.167 F 
ENDBRANCH  10  18
BRANCH  15  22
ATOM     22  O   UNL A   1      36.197  22.599  25.694  1.00  0.00    -0.406 OA
BRANCH  22  23
ATOM     23  C   UNL A   1      36.802  21.851  24.663  1.00  0.00     0.573 C 
ATOM     24  F   UNL A   1      36.363  20.578  24.669  1.00  0.00    -0.132 F 
ATOM     25  F   UNL A   1      36.567  22.413  23.461  1.00  0.00    -0.132 F 
ATOM     26  F   UNL A   1      38.138  21.841  24.873  1.00  0.00    -0.132 F 
ENDBRANCH  22  23
ENDBRANCH  15  22
ENDBRANCH   6   8
ENDBRANCH   5   6
ENDBRANCH   4   5
ENDBRANCH   3   4
ENDBRANCH   2   3
ENDBRANCH   1   2
BRANCH   1  27
ATOM     27  C   UNL A   1      34.651  32.864  28.921  1.00  0.00     0.188 C 
BRANCH  27  28
ATOM     28  O   UNL A   1      33.703  33.720  28.339  1.00  0.00    -0.376 OA
BRANCH  28  29
ATOM     29  C   UNL A   1      33.942  35.108  28.531  1.00  0.00     0.202 C 
BRANCH  29  30
ATOM     30  C   UNL A   1      33.003  35.879  29.475  1.00  0.00     0.261 C 
BRANCH  30  31
ATOM     31  O   UNL A   1      32.520  35.093  30.590  1.00  0.00    -0.460 OA
BRANCH  31  32
ATOM     32  C   UNL A   1      32.726  35.583  31.840  1.00  0.00     0.338 C 
ATOM     33  O   UNL A   1      32.023  36.366  32.453  1.00  0.00    -0.246 OA
BRANCH  32  34
ATOM     34  C   UNL A   1      33.896  34.914  32.447  1.00  0.00     0.060 A 
ATOM     35  C   UNL A   1      35.163  35.512  32.360  1.00  0.00     0.016 A 
ATOM     36  C   UNL A   1      33.747  33.666  33.049  1.00  0.00     0.016 A 
ATOM     37  C   UNL A   1      36.281  34.877  32.910  1.00  0.00     0.010 A 
ATOM     38  C   UNL A   1      34.872  33.004  33.547  1.00  0.00     0.010 A 
ATOM     39  C   UNL A   1      36.146  33.598  33.463  1.00  0.00    -0.014 A 
BRANCH  39  40
ATOM     40  C   UNL A   1      37.348  32.759  33.682  1.00  0.00     0.031 A 
ATOM     41  C   UNL A   1      38.127  32.993  34.947  1.00  0.00     0.074 A 
ATOM     42  C   UNL A   1      37.762  31.842  32.790  1.00  0.00     0.049 A 
ATOM     43  N   UNL A   1      39.253  32.462  35.346  1.00  0.00    -0.248 NA
ATOM     44  C   UNL A   1      37.556  33.974  35.887  1.00  0.00     0.031 C 
ATOM     45  C   UNL A   1      37.072  31.487  31.552  1.00  0.00     0.029 A 
ATOM     46  N   UNL A   1      38.883  31.048  32.793  1.00  0.00    -0.354 N 
ATOM     47  C   UNL A   1      39.526  33.050  36.574  1.00  0.00     0.074 A 
ATOM     48  C   UNL A   1      38.471  34.000  36.840  1.00  0.00     0.031 C 
ATOM     49  C   UNL A   1      37.794  30.553  30.907  1.00  0.00     0.029 A 
ATOM     50  C   UNL A   1      39.013  30.274  31.666  1.00  0.00     0.049 A 
ATOM     51  H   UNL A   1      39.533  31.037  33.533  1.00  0.00     0.167 HD
ATOM     52  C   UNL A   1      40.567  32.822  37.409  1.00  0.00     0.031 A 
ATOM     53  C   UNL A   1      40.016  29.455  31.286  1.00  0.00     0.031 A 
ATOM     54  C   UNL A   1      41.639  31.911  37.121  1.00  0.00     0.049 A 
ATOM     55  C   UNL A   1      41.216  29.290  32.187  1.00  0.00     0.074 A 
ATOM     56  C   UNL A   1      42.740  31.603  37.899  1.00  0.00     0.029 A 
ATOM     57  N   UNL A   1      41.754  31.175  35.951  1.00  0.00    -0.354 N 
ATOM     58  N   UNL A   1      41.453  29.824  33.362  1.00  0.00    -0.248 NA
ATOM     59  C   UNL A   1      42.287  28.401  31.710  1.00  0.00     0.031 C 
ATOM     60  C   UNL A   1      43.562  30.741  37.166  1.00  0.00     0.029 A 
ATOM     61  C   UNL A   1      42.927  30.440  35.971  1.00  0.00     0.049 A 
ATOM     62  H   UNL A   1      41.100  31.176  35.216  1.00  0.00     0.167 HD
ATOM     63  C   UNL A   1      42.675  29.307  33.780  1.00  0.00     0.074 A 
ATOM     64  C   UNL A   1      43.124  28.407  32.738  1.00  0.00     0.031 C 
ATOM     65  C   UNL A   1      43.360  29.549  34.925  1.00  0.00     0.031 A 
BRANCH  52  66
ATOM     66  C   UNL A   1      40.613  33.621  38.682  1.00  0.00    -0.014 A 
ATOM     67  C   UNL A   1      40.014  33.155  39.865  1.00  0.00     0.009 A 
ATOM     68  C   UNL A   1      41.269  34.861  38.699  1.00  0.00     0.009 A 
ATOM     69  C   UNL A   1      40.032  33.936  41.022  1.00  0.00     0.001 A 
ATOM     70  C   UNL A   1      41.319  35.622  39.867  1.00  0.00     0.001 A 
ATOM     71  C   UNL A   1      40.690  35.166  41.024  1.00  0.00     0.000 A 
ENDBRANCH  52  66
BRANCH  53  72
ATOM     72  C   UNL A   1      39.949  28.738  29.981  1.00  0.00    -0.014 A 
ATOM     73  C   UNL A   1      40.374  29.360  28.796  1.00  0.00     0.009 A 
ATOM     74  C   UNL A   1      39.428  27.437  29.908  1.00  0.00     0.009 A 
ATOM     75  C   UNL A   1      40.253  28.707  27.566  1.00  0.00     0.001 A 
ATOM     76  C   UNL A   1      39.340  26.772  28.682  1.00  0.00     0.001 A 
ATOM     77  C   UNL A   1      39.742  27.411  27.511  1.00  0.00     0.000 A 
ENDBRANCH  53  72
BRANCH  65  78
ATOM     78  C   UNL A   1      44.644  28.792  35.145  1.00  0.00    -0.014 A 
ATOM     79  C   UNL A   1      45.889  29.316  34.765  1.00  0.00     0.009 A 
ATOM     80  C   UNL A   1      44.605  27.549  35.800  1.00  0.00     0.009 A 
ATOM     81  C   UNL A   1      47.061  28.594  35.002  1.00  0.00     0.001 A 
ATOM     82  C   UNL A   1      45.781  26.849  36.071  1.00  0.00     0.001 A 
ATOM     83  C   UNL A   1      47.008  27.366  35.662  1.00  0.00     0.000 A 
ENDBRANCH  65  78
ENDBRANCH  39  40
ENDBRANCH  32  34
ENDBRANCH  31  32
ENDBRANCH  30  31
ENDBRANCH  29  30
ENDBRANCH  28  29
ENDBRANCH  27  28
ENDBRANCH   1  27
TORSDOF 20
ENDMDL
MODEL 2
REMARK VINA RESULT:     -10.8      4.070      6.360
REMARK SMILES O=C(OCCOCCOCCOC(=O)c1ccc(-c2c3nc(c(-c4ccccc4)c4ccc([nH]4)c(-c4ccccc4)c4nc(c(-c5ccccc5)c5ccc2[nH]5)C=C4)C=C3)cc1)C1=Cc2cc(OC(F)(F)F)ccc2O[C@@H]1C(F)(F)F
REMARK SMILES IDX 7 1 6 2 5 3 4 4 3 5 2 6 1 7 63 8 64 9 77 10 65 11 76 12
REMARK SMILES IDX 66 13 75 14 67 15 74 16 73 17 78 18 79 19 80 20 81 21 68 22
REMARK SMILES IDX 69 23 70 24 71 25 72 26 8 27 9 28 10 29 11 30 12 31 13 32
REMARK SMILES IDX 14 33 15 34 16 35 62 36 17 37 61 38 18 39 19 40 20 41 55 42
REMARK SMILES IDX 21 43 60 44 54 45 56 46 22 47 59 48 53 49 52 50 23 52 45 53
REMARK SMILES IDX 30 54 44 55 31 56 34 57 43 58 57 59 32 60 33 61 42 63 58 64
REMARK SMILES IDX 35 65 24 66 25 67 29 68 26 69 28 70 27 71 46 72 47 73 51 74
REMARK SMILES IDX 48 75 50 76 49 77 36 78 37 79 41 80 38 81 40 82 39 83
REMARK H PARENT 56 51 34 62
REMARK Flexibility Score: inf
ROOT
ATOM      1  C   UNL A   1      29.381  30.309  23.730  1.00  0.00     0.188 C 
ENDROOT
BRANCH   1   2
ATOM      2  O   UNL A   1      29.802  29.113  22.944  1.00  0.00    -0.376 OA
BRANCH   2   3
ATOM      3  C   UNL A   1      31.305  28.831  22.144  1.00  0.00     0.202 C 
BRANCH   3   4
ATOM      4  C   UNL A   1      32.116  26.867  21.678  1.00  0.00     0.261 C 
BRANCH   4   5
ATOM      5  O   UNL A   1      31.725  25.549  22.340  1.00  0.00    -0.460 OA
BRANCH   5   6
ATOM      6  C   UNL A   1      32.726  24.659  22.314  1.00  0.00     0.338 C 
ATOM      7  O   UNL A   1      33.252  24.147  21.357  1.00  0.00    -0.246 OA
BRANCH   6   8
ATOM      8  C   UNL A   1      32.563  24.185  23.677  1.00  0.00     0.087 C 
ATOM      9  C   UNL A   1      32.158  22.791  23.816  1.00  0.00     0.027 C 
ATOM     10  C   UNL A   1      34.247  24.901  24.255  1.00  0.00     0.316 C 
ATOM     11  C   UNL A   1      33.274  21.465  24.276  1.00  0.00     0.021 A 
ATOM     12  O   UNL A   1      35.528  23.464  24.602  1.00  0.00    -0.475 OA
ATOM     13  C   UNL A   1      32.813  20.183  24.284  1.00  0.00     0.058 A 
ATOM     14  C   UNL A   1      34.944  21.729  24.604  1.00  0.00     0.128 A 
ATOM     15  C   UNL A   1      33.752  19.185  24.619  1.00  0.00     0.130 A 
ATOM     16  C   UNL A   1      35.802  20.721  24.940  1.00  0.00     0.051 A 
ATOM     17  C   UNL A   1      35.157  19.445  24.941  1.00  0.00     0.050 A 
BRANCH  10  18
ATOM     18  C   UNL A   1      33.501  26.024  25.258  1.00  0.00     0.430 C 
ATOM     19  F   UNL A   1      32.754  27.012  24.775  1.00  0.00    -0.167 F 
ATOM     20  F   UNL A   1      32.693  25.342  26.116  1.00  0.00    -0.167 F 
ATOM     21  F   UNL A   1      34.398  26.661  26.075  1.00  0.00    -0.167 F 
ENDBRANCH  10  18
BRANCH  15  22
ATOM     22  O   UNL A   1      33.141  17.952  24.589  1.00  0.00    -0.406 OA
BRANCH  22  23
ATOM     23  C   UNL A   1      33.378  17.066  23.518  1.00  0.00     0.573 C 
ATOM     24  F   UNL A   1      33.210  15.787  23.905  1.00  0.00    -0.132 F 
ATOM     25  F   UNL A   1      32.567  17.342  22.478  1.00  0.00    -0.132 F 
ATOM     26  F   UNL A   1      34.658  17.223  23.113  1.00  0.00    -0.132 F 
ENDBRANCH  22  23
ENDBRANCH  15  22
ENDBRANCH   6   8
ENDBRANCH   5   6
ENDBRANCH   4   5
ENDBRANCH   3   4
ENDBRANCH   2   3
ENDBRANCH   1   2
BRANCH   1  27
ATOM     27  C   UNL A   1      30.299  31.057  24.708  1.00  0.00     0.188 C 
BRANCH  27  28
ATOM     28  O   UNL A   1      31.310  30.345  25.372  1.00  0.00    -0.376 OA
BRANCH  28  29
ATOM     29  C   UNL A   1      31.836  30.979  26.531  1.00  0.00     0.202 C 
BRANCH  29  30
ATOM     30  C   UNL A   1      33.034  30.318  27.234  1.00  0.00     0.261 C 
BRANCH  30  31
ATOM     31  O   UNL A   1      34.230  31.133  27.244  1.00  0.00    -0.460 OA
BRANCH  31  32
ATOM     32  C   UNL A   1      34.822  31.366  28.443  1.00  0.00     0.338 C 
ATOM     33  O   UNL A   1      34.411  32.074  29.346  1.00  0.00    -0.246 OA
BRANCH  32  34
ATOM     34  C   UNL A   1      36.018  30.509  28.580  1.00  0.00     0.060 A 
ATOM     35  C   UNL A   1      36.279  29.867  29.801  1.00  0.00     0.016 A 
ATOM     36  C   UNL A   1      36.913  30.390  27.518  1.00  0.00     0.016 A 
ATOM     37  C   UNL A   1      37.419  29.073  29.951  1.00  0.00     0.010 A 
ATOM     38  C   UNL A   1      38.082  29.644  27.685  1.00  0.00     0.010 A 
ATOM     39  C   UNL A   1      38.350  28.998  28.907  1.00  0.00    -0.014 A 
BRANCH  39  40
ATOM     40  C   UNL A   1      39.722  28.505  29.177  1.00  0.00     0.031 A 
ATOM     41  C   UNL A   1      40.672  29.455  29.851  1.00  0.00     0.074 A 
ATOM     42  C   UNL A   1      40.131  27.277  28.817  1.00  0.00     0.049 A 
ATOM     43  N   UNL A   1      41.941  29.312  30.127  1.00  0.00    -0.248 NA
ATOM     44  C   UNL A   1      40.107  30.754  30.261  1.00  0.00     0.031 C 
ATOM     45  C   UNL A   1      39.297  26.247  28.202  1.00  0.00     0.029 A 
ATOM     46  N   UNL A   1      41.373  26.695  28.912  1.00  0.00    -0.354 N 
ATOM     47  C   UNL A   1      42.326  30.502  30.732  1.00  0.00     0.074 A 
ATOM     48  C   UNL A   1      41.169  31.367  30.754  1.00  0.00     0.031 C 
ATOM     49  C   UNL A   1      40.056  25.161  27.962  1.00  0.00     0.029 A 
ATOM     50  C   UNL A   1      41.434  25.434  28.370  1.00  0.00     0.049 A 
ATOM     51  H   UNL A   1      42.146  27.141  29.328  1.00  0.00     0.167 HD
ATOM     52  C   UNL A   1      43.538  30.848  31.227  1.00  0.00     0.031 A 
ATOM     53  C   UNL A   1      42.489  24.611  28.204  1.00  0.00     0.031 A 
ATOM     54  C   UNL A   1      44.699  30.004  31.162  1.00  0.00     0.049 A 
ATOM     55  C   UNL A   1      43.854  25.056  28.673  1.00  0.00     0.074 A 
ATOM     56  C   UNL A   1      45.974  30.256  31.634  1.00  0.00     0.029 A 
ATOM     57  N   UNL A   1      44.728  28.750  30.570  1.00  0.00    -0.354 N 
ATOM     58  N   UNL A   1      44.205  26.169  29.273  1.00  0.00    -0.248 NA
ATOM     59  C   UNL A   1      44.970  24.125  28.446  1.00  0.00     0.031 C 
ATOM     60  C   UNL A   1      46.794  29.188  31.258  1.00  0.00     0.029 A 
ATOM     61  C   UNL A   1      46.009  28.231  30.633  1.00  0.00     0.049 A 
ATOM     62  H   UNL A   1      43.954  28.298  30.164  1.00  0.00     0.167 HD
ATOM     63  C   UNL A   1      45.567  26.054  29.530  1.00  0.00     0.074 A 
ATOM     64  C   UNL A   1      45.977  24.758  29.032  1.00  0.00     0.031 C 
ATOM     65  C   UNL A   1      46.402  26.939  30.131  1.00  0.00     0.031 A 
BRANCH  52  66
ATOM     66  C   UNL A   1      43.670  32.222  31.823  1.00  0.00    -0.014 A 
ATOM     67  C   UNL A   1      44.234  33.286  31.100  1.00  0.00     0.009 A 
ATOM     68  C   UNL A   1      43.220  32.456  33.132  1.00  0.00     0.009 A 
ATOM     69  C   UNL A   1      44.387  34.541  31.692  1.00  0.00     0.001 A 
ATOM     70  C   UNL A   1      43.339  33.721  33.708  1.00  0.00     0.001 A 
ATOM     71  C   UNL A   1      43.934  34.759  32.993  1.00  0.00     0.000 A 
ENDBRANCH  52  66
BRANCH  53  72
ATOM     72  C   UNL A   1      42.315  23.286  27.545  1.00  0.00    -0.014 A 
ATOM     73  C   UNL A   1      41.891  22.167  28.281  1.00  0.00     0.009 A 
ATOM     74  C   UNL A   1      42.605  23.123  26.182  1.00  0.00     0.009 A 
ATOM     75  C   UNL A   1      41.788  20.913  27.672  1.00  0.00     0.001 A 
ATOM     76  C   UNL A   1      42.468  21.876  25.567  1.00  0.00     0.001 A 
ATOM     77  C   UNL A   1      42.070  20.769  26.315  1.00  0.00     0.000 A 
ENDBRANCH  53  72
BRANCH  65  78
ATOM     78  C   UNL A   1      47.834  26.519  30.336  1.00  0.00    -0.014 A 
ATOM     79  C   UNL A   1      48.249  25.835  31.488  1.00  0.00     0.009 A 
ATOM     80  C   UNL A   1      48.775  26.768  29.322  1.00  0.00     0.009 A 
ATOM     81  C   UNL A   1      49.582  25.443  31.637  1.00  0.00     0.001 A 
ATOM     82  C   UNL A   1      50.097  26.340  29.455  1.00  0.00     0.001 A 
ATOM     83  C   UNL A   1      50.502  25.689  30.618  1.00  0.00     0.000 A 
ENDBRANCH  65  78
ENDBRANCH  39  40
ENDBRANCH  32  34
ENDBRANCH  31  32
ENDBRANCH  30  31
ENDBRANCH  29  30
ENDBRANCH  28  29
ENDBRANCH  27  28
ENDBRANCH   1  27
TORSDOF 20
ENDMDL
MODEL 3
REMARK VINA RESULT:     -10.7      4.858      8.173
REMARK SMILES O=C(OCCOCCOCCOC(=O)c1ccc(-c2c3nc(c(-c4ccccc4)c4ccc([nH]4)c(-c4ccccc4)c4nc(c(-c5ccccc5)c5ccc2[nH]5)C=C4)C=C3)cc1)C1=Cc2cc(OC(F)(F)F)ccc2O[C@@H]1C(F)(F)F
REMARK SMILES IDX 7 1 6 2 5 3 4 4 3 5 2 6 1 7 63 8 64 9 77 10 65 11 76 12
REMARK SMILES IDX 66 13 75 14 67 15 74 16 73 17 78 18 79 19 80 20 81 21 68 22
REMARK SMILES IDX 69 23 70 24 71 25 72 26 8 27 9 28 10 29 11 30 12 31 13 32
REMARK SMILES IDX 14 33 15 34 16 35 62 36 17 37 61 38 18 39 19 40 20 41 55 42
REMARK SMILES IDX 21 43 60 44 54 45 56 46 22 47 59 48 53 49 52 50 23 52 45 53
REMARK SMILES IDX 30 54 44 55 31 56 34 57 43 58 57 59 32 60 33 61 42 63 58 64
REMARK SMILES IDX 35 65 24 66 25 67 29 68 26 69 28 70 27 71 46 72 47 73 51 74
REMARK SMILES IDX 48 75 50 76 49 77 36 78 37 79 41 80 38 81 40 82 39 83
REMARK H PARENT 56 51 34 62
REMARK Flexibility Score: inf
ROOT
ATOM      1  C   UNL A   1      35.342  32.533  28.055  1.00  0.00     0.188 C 
ENDROOT
BRANCH   1   2
ATOM      2  O   UNL A   1      35.288  31.048  28.188  1.00  0.00    -0.376 OA
BRANCH   2   3
ATOM      3  C   UNL A   1      34.484  29.908  27.172  1.00  0.00     0.202 C 
BRANCH   3   4
ATOM      4  C   UNL A   1      32.410  30.062  26.530  1.00  0.00     0.261 C 
BRANCH   4   5
ATOM      5  O   UNL A   1      31.618  28.996  25.779  1.00  0.00    -0.460 OA
BRANCH   5   6
ATOM      6  C   UNL A   1      31.434  27.894  26.519  1.00  0.00     0.338 C 
ATOM      7  O   UNL A   1      31.522  27.769  27.715  1.00  0.00    -0.246 OA
BRANCH   6   8
ATOM      8  C   UNL A   1      31.633  26.937  25.444  1.00  0.00     0.087 C 
ATOM      9  C   UNL A   1      32.988  26.415  25.308  1.00  0.00     0.027 C 
ATOM     10  C   UNL A   1      30.098  25.892  25.928  1.00  0.00     0.316 C 
ATOM     11  C   UNL A   1      33.492  24.783  25.856  1.00  0.00     0.021 A 
ATOM     12  O   UNL A   1      30.642  24.172  26.683  1.00  0.00    -0.475 OA
ATOM     13  C   UNL A   1      34.805  24.431  25.768  1.00  0.00     0.058 A 
ATOM     14  C   UNL A   1      32.401  23.675  26.595  1.00  0.00     0.128 A 
ATOM     15  C   UNL A   1      35.140  23.148  26.250  1.00  0.00     0.130 A 
ATOM     16  C   UNL A   1      32.783  22.436  27.028  1.00  0.00     0.051 A 
ATOM     17  C   UNL A   1      34.180  22.205  26.830  1.00  0.00     0.050 A 
BRANCH  10  18
ATOM     18  C   UNL A   1      29.287  26.308  24.517  1.00  0.00     0.430 C 
ATOM     19  F   UNL A   1      29.448  27.493  23.936  1.00  0.00    -0.167 F 
ATOM     20  F   UNL A   1      29.611  25.390  23.566  1.00  0.00    -0.167 F 
ATOM     21  F   UNL A   1      27.928  26.189  24.649  1.00  0.00    -0.167 F 
ENDBRANCH  10  18
BRANCH  15  22
ATOM     22  O   UNL A   1      36.490  22.936  26.091  1.00  0.00    -0.406 OA
BRANCH  22  23
ATOM     23  C   UNL A   1      36.992  22.430  24.874  1.00  0.00     0.573 C 
ATOM     24  F   UNL A   1      38.126  21.731  25.074  1.00  0.00    -0.132 F 
ATOM     25  F   UNL A   1      36.075  21.653  24.264  1.00  0.00    -0.132 F 
ATOM     26  F   UNL A   1      37.272  23.473  24.063  1.00  0.00    -0.132 F 
ENDBRANCH  22  23
ENDBRANCH  15  22
ENDBRANCH   6   8
ENDBRANCH   5   6
ENDBRANCH   4   5
ENDBRANCH   3   4
ENDBRANCH   2   3
ENDBRANCH   1   2
BRANCH   1  27
ATOM     27  C   UNL A   1      34.201  33.472  28.473  1.00  0.00     0.188 C 
BRANCH  27  28
ATOM     28  O   UNL A   1      34.057  33.806  29.829  1.00  0.00    -0.376 OA
BRANCH  28  29
ATOM     29  C   UNL A   1      35.208  33.584  30.632  1.00  0.00     0.202 C 
BRANCH  29  30
ATOM     30  C   UNL A   1      35.073  32.644  31.843  1.00  0.00     0.261 C 
BRANCH  30  31
ATOM     31  O   UNL A   1      36.338  32.164  32.355  1.00  0.00    -0.460 OA
BRANCH  31  32
ATOM     32  C   UNL A   1      36.686  30.884  32.069  1.00  0.00     0.338 C 
ATOM     33  O   UNL A   1      35.995  29.887  32.178  1.00  0.00    -0.246 OA
BRANCH  32  34
ATOM     34  C   UNL A   1      38.029  30.862  31.451  1.00  0.00     0.060 A 
ATOM     35  C   UNL A   1      38.169  31.124  30.079  1.00  0.00     0.016 A 
ATOM     36  C   UNL A   1      39.141  30.522  32.220  1.00  0.00     0.016 A 
ATOM     37  C   UNL A   1      39.430  31.082  29.478  1.00  0.00     0.010 A 
ATOM     38  C   UNL A   1      40.394  30.423  31.608  1.00  0.00     0.010 A 
ATOM     39  C   UNL A   1      40.541  30.684  30.233  1.00  0.00    -0.014 A 
BRANCH  39  40
ATOM     40  C   UNL A   1      41.783  30.254  29.546  1.00  0.00     0.031 A 
ATOM     41  C   UNL A   1      41.850  28.826  29.082  1.00  0.00     0.074 A 
ATOM     42  C   UNL A   1      42.828  31.078  29.361  1.00  0.00     0.049 A 
ATOM     43  N   UNL A   1      42.839  28.171  28.533  1.00  0.00    -0.248 NA
ATOM     44  C   UNL A   1      40.629  28.023  29.276  1.00  0.00     0.031 C 
ATOM     45  C   UNL A   1      42.871  32.494  29.720  1.00  0.00     0.029 A 
ATOM     46  N   UNL A   1      44.069  30.826  28.828  1.00  0.00    -0.354 N 
ATOM     47  C   UNL A   1      42.363  26.883  28.327  1.00  0.00     0.074 A 
ATOM     48  C   UNL A   1      41.012  26.837  28.837  1.00  0.00     0.031 C 
ATOM     49  C   UNL A   1      44.085  32.983  29.408  1.00  0.00     0.029 A 
ATOM     50  C   UNL A   1      44.915  31.908  28.865  1.00  0.00     0.049 A 
ATOM     51  H   UNL A   1      44.328  29.953  28.455  1.00  0.00     0.167 HD
ATOM     52  C   UNL A   1      42.994  25.827  27.762  1.00  0.00     0.031 A 
ATOM     53  C   UNL A   1      46.216  32.006  28.522  1.00  0.00     0.031 A 
ATOM     54  C   UNL A   1      44.353  25.862  27.298  1.00  0.00     0.049 A 
ATOM     55  C   UNL A   1      46.931  30.788  27.986  1.00  0.00     0.074 A 
ATOM     56  C   UNL A   1      45.088  24.849  26.708  1.00  0.00     0.029 A 
ATOM     57  N   UNL A   1      45.188  26.965  27.390  1.00  0.00    -0.354 N 
ATOM     58  N   UNL A   1      46.466  29.582  27.763  1.00  0.00    -0.248 NA
ATOM     59  C   UNL A   1      48.354  30.950  27.648  1.00  0.00     0.031 C 
ATOM     60  C   UNL A   1      46.392  25.316  26.516  1.00  0.00     0.029 A 
ATOM     61  C   UNL A   1      46.443  26.647  26.900  1.00  0.00     0.049 A 
ATOM     62  H   UNL A   1      44.928  27.843  27.751  1.00  0.00     0.167 HD
ATOM     63  C   UNL A   1      47.522  28.856  27.224  1.00  0.00     0.074 A 
ATOM     64  C   UNL A   1      48.650  29.761  27.142  1.00  0.00     0.031 C 
ATOM     65  C   UNL A   1      47.556  27.559  26.826  1.00  0.00     0.031 A 
BRANCH  52  66
ATOM     66  C   UNL A   1      42.230  24.535  27.678  1.00  0.00    -0.014 A 
ATOM     67  C   UNL A   1      41.309  24.291  26.645  1.00  0.00     0.009 A 
ATOM     68  C   UNL A   1      42.435  23.542  28.648  1.00  0.00     0.009 A 
ATOM     69  C   UNL A   1      40.578  23.102  26.614  1.00  0.00     0.001 A 
ATOM     70  C   UNL A   1      41.732  22.339  28.594  1.00  0.00     0.001 A 
ATOM     71  C   UNL A   1      40.795  22.124  27.584  1.00  0.00     0.000 A 
ENDBRANCH  52  66
BRANCH  53  72
ATOM     72  C   UNL A   1      46.945  33.294  28.689  1.00  0.00    -0.014 A 
ATOM     73  C   UNL A   1      47.001  34.230  27.643  1.00  0.00     0.009 A 
ATOM     74  C   UNL A   1      47.620  33.583  29.885  1.00  0.00     0.009 A 
ATOM     75  C   UNL A   1      47.737  35.410  27.782  1.00  0.00     0.001 A 
ATOM     76  C   UNL A   1      48.327  34.778  30.035  1.00  0.00     0.001 A 
ATOM     77  C   UNL A   1      48.394  35.686  28.980  1.00  0.00     0.000 A 
ENDBRANCH  53  72
BRANCH  65  78
ATOM     78  C   UNL A   1      48.833  27.049  26.213  1.00  0.00    -0.014 A 
ATOM     79  C   UNL A   1      49.120  27.216  24.850  1.00  0.00     0.009 A 
ATOM     80  C   UNL A   1      49.794  26.436  27.036  1.00  0.00     0.009 A 
ATOM     81  C   UNL A   1      50.324  26.747  24.318  1.00  0.00     0.001 A 
ATOM     82  C   UNL A   1      51.012  26.004  26.510  1.00  0.00     0.001 A 
ATOM     83  C   UNL A   1      51.272  26.149  25.149  1.00  0.00     0.000 A 
ENDBRANCH  65  78
ENDBRANCH  39  40
ENDBRANCH  32  34
ENDBRANCH  31  32
ENDBRANCH  30  31
ENDBRANCH  29  30
ENDBRANCH  28  29
ENDBRANCH  27  28
ENDBRANCH   1  27
TORSDOF 20
ENDMDL
