MODEL 1
REMARK VINA RESULT:      -8.9      0.000      0.000
REMARK SMILES C[C@@H](O)[C@@H](NC(=O)CN(C)C(=O)c1cccs1)C(=O)OCCOCCOCCOC(=O)c1ccc(-c2c3nc(c(-c4ccccc4)c4ccc([nH]4)c(-c4ccccc4)c4nc(c(-c5ccccc5)c5ccc2[nH]5)C=C4)C=C3)cc1
REMARK SMILES IDX 23 1 22 2 21 3 20 4 18 5 19 6 4 7 2 8 1 9 3 10 5 12 6 13
REMARK SMILES IDX 7 15 8 16 9 17 10 18 11 19 12 20 13 21 14 22 17 23 15 24
REMARK SMILES IDX 16 25 24 26 25 27 26 28 27 29 28 30 29 31 30 32 31 33 32 34
REMARK SMILES IDX 33 35 79 36 34 37 78 38 35 39 36 40 37 41 72 42 38 43 77 44
REMARK SMILES IDX 71 45 73 46 39 47 76 48 70 49 69 50 40 52 62 53 47 54 61 55
REMARK SMILES IDX 48 56 51 57 60 58 74 59 49 60 50 61 59 63 75 64 52 65 41 66
REMARK SMILES IDX 42 67 46 68 43 69 45 70 44 71 63 72 64 73 68 74 65 75 67 76
REMARK SMILES IDX 66 77 53 78 54 79 58 80 55 81 57 82 56 83
REMARK H PARENT 3 11 5 14 73 51 51 62
REMARK Flexibility Score: inf
ROOT
ATOM      1  O   UNL A   1      33.749  29.973  26.965  1.00  0.00    -0.376 OA
ENDROOT
BRANCH   1   2
ATOM      2  C   UNL A   1      32.322  29.938  26.842  1.00  0.00     0.202 C 
BRANCH   2   3
ATOM      3  C   UNL A   1      31.856  29.889  25.382  1.00  0.00     0.261 C 
BRANCH   3   4
ATOM      4  O   UNL A   1      32.645  28.907  24.670  1.00  0.00    -0.462 OA
BRANCH   4   5
ATOM      5  C   UNL A   1      32.325  28.668  23.375  1.00  0.00     0.331 C 
ATOM      6  O   UNL A   1      33.063  28.939  22.432  1.00  0.00    -0.250 OA
BRANCH   5   7
ATOM      7  C   UNL A   1      30.865  28.216  23.197  1.00  0.00     0.221 C 
BRANCH   7   8
ATOM      8  C   UNL A   1      29.904  29.078  22.348  1.00  0.00     0.145 C 
ATOM      9  C   UNL A   1      28.627  29.418  23.128  1.00  0.00     0.041 C 
BRANCH   8  10
ATOM     10  O   UNL A   1      30.509  30.304  21.943  1.00  0.00    -0.391 OA
ATOM     11  H   UNL A   1      30.873  30.758  22.719  1.00  0.00     0.211 HD
ENDBRANCH   8  10
ENDBRANCH   7   8
BRANCH   7  12
ATOM     12  N   UNL A   1      30.720  26.776  22.923  1.00  0.00    -0.339 N 
ATOM     13  C   UNL A   1      31.095  25.663  23.616  1.00  0.00     0.240 C 
ATOM     14  H   UNL A   1      30.264  26.579  22.073  1.00  0.00     0.164 HD
ATOM     15  O   UNL A   1      31.276  24.651  22.933  1.00  0.00    -0.273 OA
BRANCH  13  16
ATOM     16  C   UNL A   1      31.254  25.634  25.147  1.00  0.00     0.219 C 
BRANCH  16  17
ATOM     17  N   UNL A   1      32.334  24.830  25.728  1.00  0.00    -0.332 N 
ATOM     18  C   UNL A   1      33.679  25.385  25.774  1.00  0.00     0.147 C 
BRANCH  17  19
ATOM     19  C   UNL A   1      31.994  23.664  26.437  1.00  0.00     0.264 C 
ATOM     20  O   UNL A   1      31.403  23.704  27.509  1.00  0.00    -0.268 OA
BRANCH  19  21
ATOM     21  C   UNL A   1      32.443  22.413  25.845  1.00  0.00     0.092 A 
ATOM     22  C   UNL A   1      31.972  21.783  24.706  1.00  0.00     0.025 A 
ATOM     23  S   UNL A   1      33.662  21.501  26.617  1.00  0.00    -0.139 S 
ATOM     24  C   UNL A   1      32.541  20.488  24.537  1.00  0.00     0.012 A 
ATOM     25  C   UNL A   1      33.468  20.205  25.514  1.00  0.00     0.065 A 
ENDBRANCH  19  21
ENDBRANCH  17  19
ENDBRANCH  16  17
ENDBRANCH  13  16
ENDBRANCH   7  12
ENDBRANCH   5   7
ENDBRANCH   4   5
ENDBRANCH   3   4
ENDBRANCH   2   3
ENDBRANCH   1   2
BRANCH   1  26
ATOM     26  C   UNL A   1      34.255  31.168  27.546  1.00  0.00     0.188 C 
BRANCH  26  27
ATOM     27  C   UNL A   1      33.223  32.277  27.665  1.00  0.00     0.188 C 
BRANCH  27  28
ATOM     28  O   UNL A   1      33.649  33.462  28.338  1.00  0.00    -0.376 OA
BRANCH  28  29
ATOM     29  C   UNL A   1      34.979  33.338  28.873  1.00  0.00     0.202 C 
BRANCH  29  30
ATOM     30  C   UNL A   1      35.039  33.181  30.405  1.00  0.00     0.261 C 
BRANCH  30  31
ATOM     31  O   UNL A   1      35.148  31.789  30.766  1.00  0.00    -0.460 OA
BRANCH  31  32
ATOM     32  C   UNL A   1      36.124  31.489  31.660  1.00  0.00     0.338 C 
ATOM     33  O   UNL A   1      36.054  31.598  32.873  1.00  0.00    -0.246 OA
BRANCH  32  34
ATOM     34  C   UNL A   1      37.235  30.771  30.974  1.00  0.00     0.060 A 
ATOM     35  C   UNL A   1      38.213  30.185  31.791  1.00  0.00     0.016 A 
ATOM     36  C   UNL A   1      37.285  30.576  29.588  1.00  0.00     0.016 A 
ATOM     37  C   UNL A   1      39.257  29.451  31.228  1.00  0.00     0.010 A 
ATOM     38  C   UNL A   1      38.333  29.837  29.022  1.00  0.00     0.010 A 
ATOM     39  C   UNL A   1      39.346  29.306  29.838  1.00  0.00    -0.014 A 
BRANCH  39  40
ATOM     40  C   UNL A   1      40.620  28.817  29.257  1.00  0.00     0.031 A 
ATOM     41  C   UNL A   1      41.786  29.770  29.221  1.00  0.00     0.074 A 
ATOM     42  C   UNL A   1      40.784  27.546  28.847  1.00  0.00     0.049 A 
ATOM     43  N   UNL A   1      43.031  29.549  28.884  1.00  0.00    -0.248 NA
ATOM     44  C   UNL A   1      41.508  31.157  29.630  1.00  0.00     0.031 C 
ATOM     45  C   UNL A   1      39.757  26.507  28.847  1.00  0.00     0.029 A 
ATOM     46  N   UNL A   1      41.903  26.914  28.361  1.00  0.00    -0.354 N 
ATOM     47  C   UNL A   1      43.684  30.760  29.061  1.00  0.00     0.074 A 
ATOM     48  C   UNL A   1      42.694  31.724  29.490  1.00  0.00     0.031 C 
ATOM     49  C   UNL A   1      40.296  25.362  28.389  1.00  0.00     0.029 A 
ATOM     50  C   UNL A   1      41.704  25.588  28.064  1.00  0.00     0.049 A 
ATOM     51  H   UNL A   1      42.768  27.368  28.237  1.00  0.00     0.167 HD
ATOM     52  C   UNL A   1      44.995  31.053  28.900  1.00  0.00     0.031 A 
ATOM     53  C   UNL A   1      42.563  24.663  27.593  1.00  0.00     0.031 A 
ATOM     54  C   UNL A   1      45.989  30.122  28.449  1.00  0.00     0.049 A 
ATOM     55  C   UNL A   1      44.005  25.029  27.357  1.00  0.00     0.074 A 
ATOM     56  C   UNL A   1      47.342  30.333  28.250  1.00  0.00     0.029 A 
ATOM     57  N   UNL A   1      45.732  28.803  28.119  1.00  0.00    -0.354 N 
ATOM     58  N   UNL A   1      44.619  26.166  27.573  1.00  0.00    -0.248 NA
ATOM     59  C   UNL A   1      44.878  23.967  26.827  1.00  0.00     0.031 C 
ATOM     60  C   UNL A   1      47.900  29.145  27.763  1.00  0.00     0.029 A 
ATOM     61  C   UNL A   1      46.899  28.189  27.699  1.00  0.00     0.049 A 
ATOM     62  H   UNL A   1      44.851  28.367  28.173  1.00  0.00     0.167 HD
ATOM     63  C   UNL A   1      45.951  25.950  27.237  1.00  0.00     0.074 A 
ATOM     64  C   UNL A   1      46.060  24.572  26.809  1.00  0.00     0.031 C 
ATOM     65  C   UNL A   1      46.993  26.815  27.283  1.00  0.00     0.031 A 
BRANCH  52  66
ATOM     66  C   UNL A   1      45.411  32.461  29.203  1.00  0.00    -0.014 A 
ATOM     67  C   UNL A   1      45.400  33.445  28.202  1.00  0.00     0.009 A 
ATOM     68  C   UNL A   1      45.833  32.803  30.496  1.00  0.00     0.009 A 
ATOM     69  C   UNL A   1      45.835  34.741  28.484  1.00  0.00     0.001 A 
ATOM     70  C   UNL A   1      46.249  34.105  30.779  1.00  0.00     0.001 A 
ATOM     71  C   UNL A   1      46.257  35.070  29.772  1.00  0.00     0.000 A 
ENDBRANCH  52  66
BRANCH  53  72
ATOM     72  C   UNL A   1      42.099  23.279  27.318  1.00  0.00    -0.014 A 
ATOM     73  C   UNL A   1      42.233  22.274  28.289  1.00  0.00     0.009 A 
ATOM     74  C   UNL A   1      41.568  22.947  26.063  1.00  0.00     0.009 A 
ATOM     75  C   UNL A   1      41.868  20.958  27.998  1.00  0.00     0.001 A 
ATOM     76  C   UNL A   1      41.186  21.632  25.783  1.00  0.00     0.001 A 
ATOM     77  C   UNL A   1      41.345  20.637  26.747  1.00  0.00     0.000 A 
ENDBRANCH  53  72
BRANCH  65  78
ATOM     78  C   UNL A   1      48.345  26.289  26.900  1.00  0.00    -0.014 A 
ATOM     79  C   UNL A   1      48.842  26.440  25.596  1.00  0.00     0.009 A 
ATOM     80  C   UNL A   1      49.152  25.674  27.870  1.00  0.00     0.009 A 
ATOM     81  C   UNL A   1      50.110  25.958  25.264  1.00  0.00     0.001 A 
ATOM     82  C   UNL A   1      50.427  25.211  27.540  1.00  0.00     0.001 A 
ATOM     83  C   UNL A   1      50.902  25.347  26.237  1.00  0.00     0.000 A 
ENDBRANCH  65  78
ENDBRANCH  39  40
ENDBRANCH  32  34
ENDBRANCH  31  32
ENDBRANCH  30  31
ENDBRANCH  29  30
ENDBRANCH  28  29
ENDBRANCH  27  28
ENDBRANCH  26  27
ENDBRANCH   1  26
TORSDOF 24
ENDMDL
MODEL 2
REMARK VINA RESULT:      -8.2      1.560      6.014
REMARK SMILES C[C@@H](O)[C@@H](NC(=O)CN(C)C(=O)c1cccs1)C(=O)OCCOCCOCCOC(=O)c1ccc(-c2c3nc(c(-c4ccccc4)c4ccc([nH]4)c(-c4ccccc4)c4nc(c(-c5ccccc5)c5ccc2[nH]5)C=C4)C=C3)cc1
REMARK SMILES IDX 23 1 22 2 21 3 20 4 18 5 19 6 4 7 2 8 1 9 3 10 5 12 6 13
REMARK SMILES IDX 7 15 8 16 9 17 10 18 11 19 12 20 13 21 14 22 17 23 15 24
REMARK SMILES IDX 16 25 24 26 25 27 26 28 27 29 28 30 29 31 30 32 31 33 32 34
REMARK SMILES IDX 33 35 79 36 34 37 78 38 35 39 36 40 37 41 72 42 38 43 77 44
REMARK SMILES IDX 71 45 73 46 39 47 76 48 70 49 69 50 40 52 62 53 47 54 61 55
REMARK SMILES IDX 48 56 51 57 60 58 74 59 49 60 50 61 59 63 75 64 52 65 41 66
REMARK SMILES IDX 42 67 46 68 43 69 45 70 44 71 63 72 64 73 68 74 65 75 67 76
REMARK SMILES IDX 66 77 53 78 54 79 58 80 55 81 57 82 56 83
REMARK H PARENT 3 11 5 14 73 51 51 62
REMARK Flexibility Score: inf
ROOT
ATOM      1  O   UNL A   1      34.830  29.434  26.871  1.00  0.00    -0.376 OA
ENDROOT
BRANCH   1   2
ATOM      2  C   UNL A   1      33.464  29.075  26.634  1.00  0.00     0.202 C 
BRANCH   2   3
ATOM      3  C   UNL A   1      32.913  29.675  25.334  1.00  0.00     0.261 C 
BRANCH   3   4
ATOM      4  O   UNL A   1      33.384  28.884  24.217  1.00  0.00    -0.462 OA
BRANCH   4   5
ATOM      5  C   UNL A   1      32.752  27.711  23.972  1.00  0.00     0.331 C 
ATOM      6  O   UNL A   1      33.300  26.738  23.463  1.00  0.00    -0.250 OA
BRANCH   5   7
ATOM      7  C   UNL A   1      31.233  27.793  24.206  1.00  0.00     0.221 C 
BRANCH   7   8
ATOM      8  C   UNL A   1      30.275  27.722  22.995  1.00  0.00     0.145 C 
ATOM      9  C   UNL A   1      29.593  29.073  22.747  1.00  0.00     0.041 C 
BRANCH   8  10
ATOM     10  O   UNL A   1      30.960  27.350  21.800  1.00  0.00    -0.391 OA
ATOM     11  H   UNL A   1      30.402  26.751  21.280  1.00  0.00     0.211 HD
ENDBRANCH   8  10
ENDBRANCH   7   8
BRANCH   7  12
ATOM     12  N   UNL A   1      30.764  26.982  25.343  1.00  0.00    -0.339 N 
ATOM     13  C   UNL A   1      30.315  25.699  25.438  1.00  0.00     0.240 C 
ATOM     14  H   UNL A   1      30.778  27.462  26.203  1.00  0.00     0.164 HD
ATOM     15  O   UNL A   1      29.560  25.471  26.388  1.00  0.00    -0.273 OA
BRANCH  13  16
ATOM     16  C   UNL A   1      30.732  24.583  24.461  1.00  0.00     0.219 C 
BRANCH  16  17
ATOM     17  N   UNL A   1      31.712  23.588  24.906  1.00  0.00    -0.332 N 
ATOM     18  C   UNL A   1      31.456  22.846  26.133  1.00  0.00     0.147 C 
BRANCH  17  19
ATOM     19  C   UNL A   1      32.732  23.208  24.016  1.00  0.00     0.264 C 
ATOM     20  O   UNL A   1      32.648  23.401  22.810  1.00  0.00    -0.268 OA
BRANCH  19  21
ATOM     21  C   UNL A   1      33.866  22.518  24.615  1.00  0.00     0.092 A 
ATOM     22  C   UNL A   1      34.998  23.065  25.193  1.00  0.00     0.025 A 
ATOM     23  S   UNL A   1      33.925  20.812  24.593  1.00  0.00    -0.139 S 
ATOM     24  C   UNL A   1      35.967  22.073  25.514  1.00  0.00     0.012 A 
ATOM     25  C   UNL A   1      35.516  20.804  25.228  1.00  0.00     0.065 A 
ENDBRANCH  19  21
ENDBRANCH  17  19
ENDBRANCH  16  17
ENDBRANCH  13  16
ENDBRANCH   7  12
ENDBRANCH   5   7
ENDBRANCH   4   5
ENDBRANCH   3   4
ENDBRANCH   2   3
ENDBRANCH   1   2
BRANCH   1  26
ATOM     26  C   UNL A   1      35.000  30.683  27.530  1.00  0.00     0.188 C 
BRANCH  26  27
ATOM     27  C   UNL A   1      33.692  31.365  27.896  1.00  0.00     0.188 C 
BRANCH  27  28
ATOM     28  O   UNL A   1      33.762  32.773  28.128  1.00  0.00    -0.376 OA
BRANCH  28  29
ATOM     29  C   UNL A   1      34.899  33.139  28.928  1.00  0.00     0.202 C 
BRANCH  29  30
ATOM     30  C   UNL A   1      34.644  33.117  30.448  1.00  0.00     0.261 C 
BRANCH  30  31
ATOM     31  O   UNL A   1      35.138  31.892  31.026  1.00  0.00    -0.460 OA
BRANCH  31  32
ATOM     32  C   UNL A   1      36.014  32.038  32.052  1.00  0.00     0.338 C 
ATOM     33  O   UNL A   1      35.734  32.270  33.217  1.00  0.00    -0.246 OA
BRANCH  32  34
ATOM     34  C   UNL A   1      37.380  31.638  31.613  1.00  0.00     0.060 A 
ATOM     35  C   UNL A   1      37.882  32.252  30.456  1.00  0.00     0.016 A 
ATOM     36  C   UNL A   1      38.201  30.771  32.346  1.00  0.00     0.016 A 
ATOM     37  C   UNL A   1      39.172  31.970  30.008  1.00  0.00     0.010 A 
ATOM     38  C   UNL A   1      39.499  30.489  31.897  1.00  0.00     0.010 A 
ATOM     39  C   UNL A   1      39.974  31.056  30.703  1.00  0.00    -0.014 A 
BRANCH  39  40
ATOM     40  C   UNL A   1      41.190  30.530  30.037  1.00  0.00     0.031 A 
ATOM     41  C   UNL A   1      41.104  29.171  29.394  1.00  0.00     0.074 A 
ATOM     42  C   UNL A   1      42.318  31.253  29.920  1.00  0.00     0.049 A 
ATOM     43  N   UNL A   1      41.979  28.547  28.646  1.00  0.00    -0.248 NA
ATOM     44  C   UNL A   1      39.858  28.419  29.620  1.00  0.00     0.031 C 
ATOM     45  C   UNL A   1      42.538  32.590  30.466  1.00  0.00     0.029 A 
ATOM     46  N   UNL A   1      43.495  30.954  29.277  1.00  0.00    -0.354 N 
ATOM     47  C   UNL A   1      41.380  27.345  28.298  1.00  0.00     0.074 A 
ATOM     48  C   UNL A   1      40.089  27.303  28.949  1.00  0.00     0.031 C 
ATOM     49  C   UNL A   1      43.775  33.001  30.127  1.00  0.00     0.029 A 
ATOM     50  C   UNL A   1      44.432  31.955  29.344  1.00  0.00     0.049 A 
ATOM     51  H   UNL A   1      43.652  30.101  28.810  1.00  0.00     0.167 HD
ATOM     52  C   UNL A   1      41.846  26.361  27.493  1.00  0.00     0.031 A 
ATOM     53  C   UNL A   1      45.673  32.022  28.823  1.00  0.00     0.031 A 
ATOM     54  C   UNL A   1      43.133  26.369  26.859  1.00  0.00     0.049 A 
ATOM     55  C   UNL A   1      46.199  30.886  27.985  1.00  0.00     0.074 A 
ATOM     56  C   UNL A   1      43.693  25.412  26.031  1.00  0.00     0.029 A 
ATOM     57  N   UNL A   1      44.064  27.384  26.991  1.00  0.00    -0.354 N 
ATOM     58  N   UNL A   1      45.602  29.776  27.625  1.00  0.00    -0.248 NA
ATOM     59  C   UNL A   1      47.569  31.028  27.464  1.00  0.00     0.031 C 
ATOM     60  C   UNL A   1      44.983  25.833  25.690  1.00  0.00     0.029 A 
ATOM     61  C   UNL A   1      45.205  27.070  26.274  1.00  0.00     0.049 A 
ATOM     62  H   UNL A   1      43.935  28.206  27.517  1.00  0.00     0.167 HD
ATOM     63  C   UNL A   1      46.510  29.103  26.814  1.00  0.00     0.074 A 
ATOM     64  C   UNL A   1      47.693  29.931  26.727  1.00  0.00     0.031 C 
ATOM     65  C   UNL A   1      46.372  27.907  26.192  1.00  0.00     0.031 A 
BRANCH  52  66
ATOM     66  C   UNL A   1      40.943  25.184  27.279  1.00  0.00    -0.014 A 
ATOM     67  C   UNL A   1      39.746  25.319  26.559  1.00  0.00     0.009 A 
ATOM     68  C   UNL A   1      41.285  23.934  27.815  1.00  0.00     0.009 A 
ATOM     69  C   UNL A   1      38.891  24.226  26.407  1.00  0.00     0.001 A 
ATOM     70  C   UNL A   1      40.436  22.840  27.644  1.00  0.00     0.001 A 
ATOM     71  C   UNL A   1      39.237  22.988  26.948  1.00  0.00     0.000 A 
ENDBRANCH  52  66
BRANCH  53  72
ATOM     72  C   UNL A   1      46.522  33.218  29.060  1.00  0.00    -0.014 A 
ATOM     73  C   UNL A   1      47.352  33.294  30.189  1.00  0.00     0.009 A 
ATOM     74  C   UNL A   1      46.465  34.311  28.183  1.00  0.00     0.009 A 
ATOM     75  C   UNL A   1      48.088  34.452  30.449  1.00  0.00     0.001 A 
ATOM     76  C   UNL A   1      47.217  35.461  28.436  1.00  0.00     0.001 A 
ATOM     77  C   UNL A   1      48.021  35.534  29.573  1.00  0.00     0.000 A 
ENDBRANCH  53  72
BRANCH  65  78
ATOM     78  C   UNL A   1      47.511  27.440  25.332  1.00  0.00    -0.014 A 
ATOM     79  C   UNL A   1      48.553  26.666  25.864  1.00  0.00     0.009 A 
ATOM     80  C   UNL A   1      47.516  27.742  23.962  1.00  0.00     0.009 A 
ATOM     81  C   UNL A   1      49.595  26.228  25.043  1.00  0.00     0.001 A 
ATOM     82  C   UNL A   1      48.547  27.286  23.140  1.00  0.00     0.001 A 
ATOM     83  C   UNL A   1      49.589  26.535  23.682  1.00  0.00     0.000 A 
ENDBRANCH  65  78
ENDBRANCH  39  40
ENDBRANCH  32  34
ENDBRANCH  31  32
ENDBRANCH  30  31
ENDBRANCH  29  30
ENDBRANCH  28  29
ENDBRANCH  27  28
ENDBRANCH  26  27
ENDBRANCH   1  26
TORSDOF 24
ENDMDL
MODEL 3
REMARK VINA RESULT:      -8.2      4.007      5.770
REMARK SMILES C[C@@H](O)[C@@H](NC(=O)CN(C)C(=O)c1cccs1)C(=O)OCCOCCOCCOC(=O)c1ccc(-c2c3nc(c(-c4ccccc4)c4ccc([nH]4)c(-c4ccccc4)c4nc(c(-c5ccccc5)c5ccc2[nH]5)C=C4)C=C3)cc1
REMARK SMILES IDX 23 1 22 2 21 3 20 4 18 5 19 6 4 7 2 8 1 9 3 10 5 12 6 13
REMARK SMILES IDX 7 15 8 16 9 17 10 18 11 19 12 20 13 21 14 22 17 23 15 24
REMARK SMILES IDX 16 25 24 26 25 27 26 28 27 29 28 30 29 31 30 32 31 33 32 34
REMARK SMILES IDX 33 35 79 36 34 37 78 38 35 39 36 40 37 41 72 42 38 43 77 44
REMARK SMILES IDX 71 45 73 46 39 47 76 48 70 49 69 50 40 52 62 53 47 54 61 55
REMARK SMILES IDX 48 56 51 57 60 58 74 59 49 60 50 61 59 63 75 64 52 65 41 66
REMARK SMILES IDX 42 67 46 68 43 69 45 70 44 71 63 72 64 73 68 74 65 75 67 76
REMARK SMILES IDX 66 77 53 78 54 79 58 80 55 81 57 82 56 83
REMARK H PARENT 3 11 5 14 73 51 51 62
REMARK Flexibility Score: inf
ROOT
ATOM      1  O   UNL A   1      33.424  28.763  27.115  1.00  0.00    -0.376 OA
ENDROOT
BRANCH   1   2
ATOM      2  C   UNL A   1      32.872  27.531  26.638  1.00  0.00     0.202 C 
BRANCH   2   3
ATOM      3  C   UNL A   1      31.409  27.671  26.197  1.00  0.00     0.261 C 
BRANCH   3   4
ATOM      4  O   UNL A   1      31.373  27.970  24.781  1.00  0.00    -0.462 OA
BRANCH   4   5
ATOM      5  C   UNL A   1      30.356  27.442  24.057  1.00  0.00     0.331 C 
ATOM      6  O   UNL A   1      29.587  26.589  24.490  1.00  0.00    -0.250 OA
BRANCH   5   7
ATOM      7  C   UNL A   1      30.393  27.870  22.580  1.00  0.00     0.221 C 
BRANCH   7   8
ATOM      8  C   UNL A   1      29.942  29.297  22.193  1.00  0.00     0.145 C 
ATOM      9  C   UNL A   1      29.413  30.062  23.413  1.00  0.00     0.041 C 
BRANCH   8  10
ATOM     10  O   UNL A   1      31.009  30.056  21.629  1.00  0.00    -0.391 OA
ATOM     11  H   UNL A   1      31.818  29.520  21.619  1.00  0.00     0.211 HD
ENDBRANCH   8  10
ENDBRANCH   7   8
BRANCH   7  12
ATOM     12  N   UNL A   1      31.618  27.457  21.874  1.00  0.00    -0.339 N 
ATOM     13  C   UNL A   1      32.423  26.363  21.987  1.00  0.00     0.240 C 
ATOM     14  H   UNL A   1      31.914  28.097  21.186  1.00  0.00     0.164 HD
ATOM     15  O   UNL A   1      33.592  26.527  21.629  1.00  0.00    -0.273 OA
BRANCH  13  16
ATOM     16  C   UNL A   1      31.925  24.995  22.492  1.00  0.00     0.219 C 
BRANCH  16  17
ATOM     17  N   UNL A   1      32.753  24.254  23.448  1.00  0.00    -0.332 N 
ATOM     18  C   UNL A   1      32.704  24.620  24.857  1.00  0.00     0.147 C 
BRANCH  17  19
ATOM     19  C   UNL A   1      33.372  23.066  23.018  1.00  0.00     0.264 C 
ATOM     20  O   UNL A   1      34.011  23.007  21.976  1.00  0.00    -0.268 OA
BRANCH  19  21
ATOM     21  C   UNL A   1      33.152  21.900  23.862  1.00  0.00     0.092 A 
ATOM     22  C   UNL A   1      33.591  21.680  25.155  1.00  0.00     0.025 A 
ATOM     23  S   UNL A   1      32.307  20.554  23.240  1.00  0.00    -0.139 S 
ATOM     24  C   UNL A   1      33.326  20.350  25.591  1.00  0.00     0.012 A 
ATOM     25  C   UNL A   1      32.642  19.627  24.640  1.00  0.00     0.065 A 
ENDBRANCH  19  21
ENDBRANCH  17  19
ENDBRANCH  16  17
ENDBRANCH  13  16
ENDBRANCH   7  12
ENDBRANCH   5   7
ENDBRANCH   4   5
ENDBRANCH   3   4
ENDBRANCH   2   3
ENDBRANCH   1   2
BRANCH   1  26
ATOM     26  C   UNL A   1      32.475  29.811  27.262  1.00  0.00     0.188 C 
BRANCH  26  27
ATOM     27  C   UNL A   1      32.966  31.158  26.756  1.00  0.00     0.188 C 
BRANCH  27  28
ATOM     28  O   UNL A   1      33.679  31.960  27.698  1.00  0.00    -0.376 OA
BRANCH  28  29
ATOM     29  C   UNL A   1      33.643  33.359  27.362  1.00  0.00     0.202 C 
BRANCH  29  30
ATOM     30  C   UNL A   1      32.503  34.147  28.035  1.00  0.00     0.261 C 
BRANCH  30  31
ATOM     31  O   UNL A   1      33.031  35.270  28.770  1.00  0.00    -0.460 OA
BRANCH  31  32
ATOM     32  C   UNL A   1      33.286  35.045  30.083  1.00  0.00     0.338 C 
ATOM     33  O   UNL A   1      32.534  35.270  31.017  1.00  0.00    -0.246 OA
BRANCH  32  34
ATOM     34  C   UNL A   1      34.540  34.252  30.226  1.00  0.00     0.060 A 
ATOM     35  C   UNL A   1      34.452  33.047  30.938  1.00  0.00     0.016 A 
ATOM     36  C   UNL A   1      35.747  34.602  29.608  1.00  0.00     0.016 A 
ATOM     37  C   UNL A   1      35.568  32.221  31.073  1.00  0.00     0.010 A 
ATOM     38  C   UNL A   1      36.868  33.772  29.741  1.00  0.00     0.010 A 
ATOM     39  C   UNL A   1      36.793  32.598  30.508  1.00  0.00    -0.014 A 
BRANCH  39  40
ATOM     40  C   UNL A   1      38.021  31.885  30.939  1.00  0.00     0.031 A 
ATOM     41  C   UNL A   1      38.558  32.183  32.314  1.00  0.00     0.074 A 
ATOM     42  C   UNL A   1      38.606  30.937  30.185  1.00  0.00     0.049 A 
ATOM     43  N   UNL A   1      39.533  31.606  32.969  1.00  0.00    -0.248 NA
ATOM     44  C   UNL A   1      37.900  33.275  33.050  1.00  0.00     0.031 C 
ATOM     45  C   UNL A   1      38.182  30.524  28.849  1.00  0.00     0.029 A 
ATOM     46  N   UNL A   1      39.687  30.136  30.458  1.00  0.00    -0.354 N 
ATOM     47  C   UNL A   1      39.588  32.251  34.197  1.00  0.00     0.074 A 
ATOM     48  C   UNL A   1      38.582  33.290  34.183  1.00  0.00     0.031 C 
ATOM     49  C   UNL A   1      38.992  29.537  28.421  1.00  0.00     0.029 A 
ATOM     50  C   UNL A   1      39.990  29.253  29.452  1.00  0.00     0.049 A 
ATOM     51  H   UNL A   1      40.198  30.189  31.299  1.00  0.00     0.167 HD
ATOM     52  C   UNL A   1      40.389  31.997  35.258  1.00  0.00     0.031 A 
ATOM     53  C   UNL A   1      40.956  28.316  29.376  1.00  0.00     0.031 A 
ATOM     54  C   UNL A   1      41.411  30.990  35.285  1.00  0.00     0.049 A 
ATOM     55  C   UNL A   1      41.882  28.096  30.545  1.00  0.00     0.074 A 
ATOM     56  C   UNL A   1      42.276  30.666  36.315  1.00  0.00     0.029 A 
ATOM     57  N   UNL A   1      41.710  30.150  34.227  1.00  0.00    -0.354 N 
ATOM     58  N   UNL A   1      41.891  28.681  31.717  1.00  0.00    -0.248 NA
ATOM     59  C   UNL A   1      42.920  27.065  30.380  1.00  0.00     0.031 C 
ATOM     60  C   UNL A   1      43.126  29.650  35.865  1.00  0.00     0.029 A 
ATOM     61  C   UNL A   1      42.760  29.317  34.571  1.00  0.00     0.049 A 
ATOM     62  H   UNL A   1      41.246  30.146  33.358  1.00  0.00     0.167 HD
ATOM     63  C   UNL A   1      42.911  28.070  32.439  1.00  0.00     0.074 A 
ATOM     64  C   UNL A   1      43.494  27.065  31.576  1.00  0.00     0.031 C 
ATOM     65  C   UNL A   1      43.325  28.317  33.705  1.00  0.00     0.031 A 
BRANCH  52  66
ATOM     66  C   UNL A   1      40.187  32.853  36.472  1.00  0.00    -0.014 A 
ATOM     67  C   UNL A   1      39.177  32.556  37.399  1.00  0.00     0.009 A 
ATOM     68  C   UNL A   1      41.004  33.973  36.681  1.00  0.00     0.009 A 
ATOM     69  C   UNL A   1      38.967  33.388  38.501  1.00  0.00     0.001 A 
ATOM     70  C   UNL A   1      40.804  34.791  37.794  1.00  0.00     0.001 A 
ATOM     71  C   UNL A   1      39.782  34.503  38.698  1.00  0.00     0.000 A 
ENDBRANCH  52  66
BRANCH  53  72
ATOM     72  C   UNL A   1      41.106  27.489  28.151  1.00  0.00    -0.014 A 
ATOM     73  C   UNL A   1      41.521  28.070  26.943  1.00  0.00     0.009 A 
ATOM     74  C   UNL A   1      40.782  26.125  28.175  1.00  0.00     0.009 A 
ATOM     75  C   UNL A   1      41.583  27.305  25.776  1.00  0.00     0.001 A 
ATOM     76  C   UNL A   1      40.864  25.359  27.010  1.00  0.00     0.001 A 
ATOM     77  C   UNL A   1      41.256  25.950  25.810  1.00  0.00     0.000 A 
ENDBRANCH  53  72
BRANCH  65  78
ATOM     78  C   UNL A   1      44.434  27.464  34.249  1.00  0.00    -0.014 A 
ATOM     79  C   UNL A   1      44.208  26.131  34.626  1.00  0.00     0.009 A 
ATOM     80  C   UNL A   1      45.732  27.989  34.342  1.00  0.00     0.009 A 
ATOM     81  C   UNL A   1      45.257  25.349  35.114  1.00  0.00     0.001 A 
ATOM     82  C   UNL A   1      46.783  27.199  34.811  1.00  0.00     0.001 A 
ATOM     83  C   UNL A   1      46.544  25.883  35.203  1.00  0.00     0.000 A 
ENDBRANCH  65  78
ENDBRANCH  39  40
ENDBRANCH  32  34
ENDBRANCH  31  32
ENDBRANCH  30  31
ENDBRANCH  29  30
ENDBRANCH  28  29
ENDBRANCH  27  28
ENDBRANCH  26  27
ENDBRANCH   1  26
TORSDOF 24
ENDMDL
