MODEL 1
REMARK VINA RESULT:     -10.5      0.000      0.000
REMARK SMILES O=C(OCCOCCOCCOC(=O)[C@H]1CCCN(c2cc(-c3ccccn3)nc(-c3ccccc3F)n2)C1)c1ccc(-c2c3nc(c(-c4ccccc4)c4ccc([nH]4)c(-c4ccccc4)c4nc(c(-c5ccccc5)c5ccc2[nH]5)C=C4)C=C3)cc1
REMARK SMILES IDX 7 1 6 2 5 3 4 4 3 5 2 6 1 7 40 8 41 9 87 10 42 11 86 12
REMARK SMILES IDX 43 13 44 14 45 15 80 16 46 17 85 18 79 19 81 20 47 21 84 22
REMARK SMILES IDX 78 23 77 24 48 26 70 27 55 28 69 29 56 30 59 31 68 32 82 33
REMARK SMILES IDX 57 34 58 35 67 37 83 38 60 39 49 40 50 41 54 42 51 43 53 44
REMARK SMILES IDX 52 45 71 46 72 47 76 48 73 49 75 50 74 51 61 52 62 53 66 54
REMARK SMILES IDX 63 55 65 56 64 57 8 58 9 59 10 60 11 61 12 62 13 63 14 64
REMARK SMILES IDX 15 65 16 66 39 67 17 68 19 69 18 70 20 71 21 72 38 73 22 74
REMARK SMILES IDX 30 75 29 76 23 77 24 78 28 79 25 80 27 81 26 82 31 83 32 84
REMARK SMILES IDX 36 85 33 86 35 87 37 88 34 89
REMARK H PARENT 81 25 59 36
REMARK Flexibility Score: inf
ROOT
ATOM      1  C   UNL A   1      33.500  28.681  24.811  1.00  0.00     0.188 C 
ENDROOT
BRANCH   1   2
ATOM      2  O   UNL A   1      32.294  29.444  24.906  1.00  0.00    -0.376 OA
BRANCH   2   3
ATOM      3  C   UNL A   1      32.102  30.084  26.173  1.00  0.00     0.202 C 
BRANCH   3   4
ATOM      4  C   UNL A   1      33.234  29.911  27.205  1.00  0.00     0.261 C 
BRANCH   4   5
ATOM      5  O   UNL A   1      34.074  31.067  27.367  1.00  0.00    -0.460 OA
BRANCH   5   6
ATOM      6  C   UNL A   1      34.765  31.465  28.465  1.00  0.00     0.338 C 
ATOM      7  O   UNL A   1      34.335  32.413  29.119  1.00  0.00    -0.246 OA
BRANCH   6   8
ATOM      8  C   UNL A   1      36.039  30.823  28.913  1.00  0.00     0.060 A 
ATOM      9  C   UNL A   1      36.110  29.701  29.735  1.00  0.00     0.016 A 
ATOM     10  C   UNL A   1      37.246  31.334  28.407  1.00  0.00     0.016 A 
ATOM     11  C   UNL A   1      37.319  29.144  30.120  1.00  0.00     0.010 A 
ATOM     12  C   UNL A   1      38.473  30.745  28.743  1.00  0.00     0.010 A 
ATOM     13  C   UNL A   1      38.509  29.650  29.617  1.00  0.00    -0.014 A 
BRANCH  13  14
ATOM     14  C   UNL A   1      39.771  29.058  30.095  1.00  0.00     0.031 A 
ATOM     15  C   UNL A   1      40.411  29.621  31.318  1.00  0.00     0.074 A 
ATOM     16  C   UNL A   1      40.254  27.932  29.538  1.00  0.00     0.049 A 
ATOM     17  N   UNL A   1      41.551  29.300  31.865  1.00  0.00    -0.248 NA
ATOM     18  C   UNL A   1      39.649  30.645  32.052  1.00  0.00     0.031 C 
ATOM     19  C   UNL A   1      39.585  27.156  28.494  1.00  0.00     0.029 A 
ATOM     20  N   UNL A   1      41.403  27.225  29.790  1.00  0.00    -0.354 N 
ATOM     21  C   UNL A   1      41.653  30.091  32.997  1.00  0.00     0.074 A 
ATOM     22  C   UNL A   1      40.464  30.910  33.062  1.00  0.00     0.031 C 
ATOM     23  C   UNL A   1      40.342  26.088  28.203  1.00  0.00     0.029 A 
ATOM     24  C   UNL A   1      41.595  26.185  28.915  1.00  0.00     0.049 A 
ATOM     25  H   UNL A   1      42.025  27.441  30.523  1.00  0.00     0.167 HD
ATOM     26  C   UNL A   1      42.664  30.124  33.892  1.00  0.00     0.031 A 
ATOM     27  C   UNL A   1      42.681  25.444  28.640  1.00  0.00     0.031 A 
ATOM     28  C   UNL A   1      43.838  29.303  33.793  1.00  0.00     0.049 A 
ATOM     29  C   UNL A   1      43.887  25.663  29.491  1.00  0.00     0.074 A 
ATOM     30  C   UNL A   1      44.943  29.274  34.623  1.00  0.00     0.029 A 
ATOM     31  N   UNL A   1      44.065  28.372  32.788  1.00  0.00    -0.354 N 
ATOM     32  N   UNL A   1      44.010  26.450  30.532  1.00  0.00    -0.248 NA
ATOM     33  C   UNL A   1      45.091  24.899  29.155  1.00  0.00     0.031 C 
ATOM     34  C   UNL A   1      45.870  28.383  34.076  1.00  0.00     0.029 A 
ATOM     35  C   UNL A   1      45.317  27.807  32.942  1.00  0.00     0.049 A 
ATOM     36  H   UNL A   1      43.428  28.149  32.071  1.00  0.00     0.167 HD
ATOM     37  C   UNL A   1      45.295  26.252  31.000  1.00  0.00     0.074 A 
ATOM     38  C   UNL A   1      45.908  25.262  30.133  1.00  0.00     0.031 C 
ATOM     39  C   UNL A   1      45.905  26.832  32.059  1.00  0.00     0.031 A 
BRANCH  26  40
ATOM     40  C   UNL A   1      42.578  31.151  34.979  1.00  0.00    -0.014 A 
ATOM     41  C   UNL A   1      42.012  30.865  36.231  1.00  0.00     0.009 A 
ATOM     42  C   UNL A   1      43.076  32.439  34.732  1.00  0.00     0.009 A 
ATOM     43  C   UNL A   1      41.927  31.862  37.206  1.00  0.00     0.001 A 
ATOM     44  C   UNL A   1      43.010  33.425  35.715  1.00  0.00     0.001 A 
ATOM     45  C   UNL A   1      42.430  33.138  36.949  1.00  0.00     0.000 A 
ENDBRANCH  26  40
BRANCH  27  46
ATOM     46  C   UNL A   1      42.719  24.554  27.445  1.00  0.00    -0.014 A 
ATOM     47  C   UNL A   1      42.505  23.173  27.545  1.00  0.00     0.009 A 
ATOM     48  C   UNL A   1      43.021  25.098  26.182  1.00  0.00     0.009 A 
ATOM     49  C   UNL A   1      42.626  22.355  26.417  1.00  0.00     0.001 A 
ATOM     50  C   UNL A   1      43.116  24.282  25.052  1.00  0.00     0.001 A 
ATOM     51  C   UNL A   1      42.930  22.908  25.173  1.00  0.00     0.000 A 
ENDBRANCH  27  46
BRANCH  39  52
ATOM     52  C   UNL A   1      47.301  26.383  32.347  1.00  0.00    -0.014 A 
ATOM     53  C   UNL A   1      48.399  26.982  31.711  1.00  0.00     0.009 A 
ATOM     54  C   UNL A   1      47.518  25.371  33.293  1.00  0.00     0.009 A 
ATOM     55  C   UNL A   1      49.693  26.555  32.004  1.00  0.00     0.001 A 
ATOM     56  C   UNL A   1      48.815  24.970  33.607  1.00  0.00     0.001 A 
ATOM     57  C   UNL A   1      49.899  25.558  32.957  1.00  0.00     0.000 A 
ENDBRANCH  39  52
ENDBRANCH  13  14
ENDBRANCH   6   8
ENDBRANCH   5   6
ENDBRANCH   4   5
ENDBRANCH   3   4
ENDBRANCH   2   3
ENDBRANCH   1   2
BRANCH   1  58
ATOM     58  C   UNL A   1      34.070  28.653  23.393  1.00  0.00     0.188 C 
BRANCH  58  59
ATOM     59  O   UNL A   1      33.916  27.444  22.654  1.00  0.00    -0.376 OA
BRANCH  59  60
ATOM     60  C   UNL A   1      32.667  27.217  22.014  1.00  0.00     0.202 C 
BRANCH  60  61
ATOM     61  C   UNL A   1      32.080  25.799  22.064  1.00  0.00     0.261 C 
BRANCH  61  62
ATOM     62  O   UNL A   1      30.740  25.701  22.570  1.00  0.00    -0.463 OA
BRANCH  62  63
ATOM     63  C   UNL A   1      30.540  26.255  23.798  1.00  0.00     0.310 C 
ATOM     64  O   UNL A   1      29.980  27.329  24.001  1.00  0.00    -0.252 OA
BRANCH  63  65
ATOM     65  C   UNL A   1      31.148  25.411  24.899  1.00  0.00     0.118 C 
ATOM     66  C   UNL A   1      30.015  25.112  25.892  1.00  0.00     0.019 C 
ATOM     67  C   UNL A   1      31.806  24.166  24.275  1.00  0.00     0.133 C 
ATOM     68  C   UNL A   1      30.277  23.893  26.763  1.00  0.00     0.022 C 
ATOM     69  N   UNL A   1      31.880  23.059  25.226  1.00  0.00    -0.356 N 
ATOM     70  C   UNL A   1      30.664  22.694  25.929  1.00  0.00     0.118 C 
BRANCH  69  71
ATOM     71  C   UNL A   1      32.941  22.177  25.181  1.00  0.00     0.133 A 
ATOM     72  C   UNL A   1      32.712  20.823  25.042  1.00  0.00     0.077 A 
ATOM     73  N   UNL A   1      34.186  22.655  25.334  1.00  0.00    -0.211 NA
ATOM     74  C   UNL A   1      33.796  19.971  25.075  1.00  0.00     0.095 A 
ATOM     75  C   UNL A   1      35.190  21.753  25.376  1.00  0.00     0.165 A 
ATOM     76  N   UNL A   1      35.049  20.423  25.253  1.00  0.00    -0.226 NA
BRANCH  74  77
ATOM     77  C   UNL A   1      33.610  18.525  24.899  1.00  0.00     0.089 A 
ATOM     78  C   UNL A   1      32.558  17.855  25.527  1.00  0.00     0.030 A 
ATOM     79  N   UNL A   1      34.547  17.868  24.168  1.00  0.00    -0.255 NA
ATOM     80  C   UNL A   1      32.460  16.473  25.399  1.00  0.00     0.004 A 
ATOM     81  C   UNL A   1      34.418  16.529  24.048  1.00  0.00     0.112 A 
ATOM     82  C   UNL A   1      33.406  15.793  24.643  1.00  0.00     0.020 A 
ENDBRANCH  74  77
BRANCH  75  83
ATOM     83  C   UNL A   1      36.535  22.234  25.676  1.00  0.00     0.055 A 
ATOM     84  C   UNL A   1      37.636  21.357  25.714  1.00  0.00     0.015 A 
ATOM     85  C   UNL A   1      36.782  23.598  25.868  1.00  0.00     0.134 A 
ATOM     86  C   UNL A   1      38.934  21.840  25.919  1.00  0.00     0.001 A 
ATOM     87  C   UNL A   1      38.072  24.084  26.084  1.00  0.00     0.040 A 
ATOM     88  F   UNL A   1      35.770  24.479  25.854  1.00  0.00    -0.206 F 
ATOM     89  C   UNL A   1      39.152  23.204  26.103  1.00  0.00     0.003 A 
ENDBRANCH  75  83
ENDBRANCH  69  71
ENDBRANCH  63  65
ENDBRANCH  62  63
ENDBRANCH  61  62
ENDBRANCH  60  61
ENDBRANCH  59  60
ENDBRANCH  58  59
ENDBRANCH   1  58
TORSDOF 20
ENDMDL
MODEL 2
REMARK VINA RESULT:     -10.4      3.814      9.258
REMARK SMILES O=C(OCCOCCOCCOC(=O)[C@H]1CCCN(c2cc(-c3ccccn3)nc(-c3ccccc3F)n2)C1)c1ccc(-c2c3nc(c(-c4ccccc4)c4ccc([nH]4)c(-c4ccccc4)c4nc(c(-c5ccccc5)c5ccc2[nH]5)C=C4)C=C3)cc1
REMARK SMILES IDX 7 1 6 2 5 3 4 4 3 5 2 6 1 7 40 8 41 9 87 10 42 11 86 12
REMARK SMILES IDX 43 13 44 14 45 15 80 16 46 17 85 18 79 19 81 20 47 21 84 22
REMARK SMILES IDX 78 23 77 24 48 26 70 27 55 28 69 29 56 30 59 31 68 32 82 33
REMARK SMILES IDX 57 34 58 35 67 37 83 38 60 39 49 40 50 41 54 42 51 43 53 44
REMARK SMILES IDX 52 45 71 46 72 47 76 48 73 49 75 50 74 51 61 52 62 53 66 54
REMARK SMILES IDX 63 55 65 56 64 57 8 58 9 59 10 60 11 61 12 62 13 63 14 64
REMARK SMILES IDX 15 65 16 66 39 67 17 68 19 69 18 70 20 71 21 72 38 73 22 74
REMARK SMILES IDX 30 75 29 76 23 77 24 78 28 79 25 80 27 81 26 82 31 83 32 84
REMARK SMILES IDX 36 85 33 86 35 87 37 88 34 89
REMARK H PARENT 81 25 59 36
REMARK Flexibility Score: inf
ROOT
ATOM      1  C   UNL A   1      46.858  24.243  24.985  1.00  0.00     0.188 C 
ENDROOT
BRANCH   1   2
ATOM      2  O   UNL A   1      46.676  24.904  26.241  1.00  0.00    -0.376 OA
BRANCH   2   3
ATOM      3  C   UNL A   1      45.604  25.854  26.254  1.00  0.00     0.202 C 
BRANCH   3   4
ATOM      4  C   UNL A   1      45.457  26.737  25.000  1.00  0.00     0.261 C 
BRANCH   4   5
ATOM      5  O   UNL A   1      44.200  27.429  24.903  1.00  0.00    -0.460 OA
BRANCH   5   6
ATOM      6  C   UNL A   1      43.016  27.122  25.491  1.00  0.00     0.338 C 
ATOM      7  O   UNL A   1      42.262  26.337  24.919  1.00  0.00    -0.246 OA
BRANCH   6   8
ATOM      8  C   UNL A   1      42.568  27.703  26.794  1.00  0.00     0.060 A 
ATOM      9  C   UNL A   1      41.584  27.149  27.608  1.00  0.00     0.016 A 
ATOM     10  C   UNL A   1      43.241  28.841  27.272  1.00  0.00     0.016 A 
ATOM     11  C   UNL A   1      41.208  27.729  28.809  1.00  0.00     0.010 A 
ATOM     12  C   UNL A   1      42.909  29.404  28.511  1.00  0.00     0.010 A 
ATOM     13  C   UNL A   1      41.875  28.851  29.278  1.00  0.00    -0.014 A 
BRANCH  13  14
ATOM     14  C   UNL A   1      41.405  29.463  30.535  1.00  0.00     0.031 A 
ATOM     15  C   UNL A   1      40.148  30.263  30.518  1.00  0.00     0.074 A 
ATOM     16  C   UNL A   1      42.005  29.173  31.704  1.00  0.00     0.049 A 
ATOM     17  N   UNL A   1      39.599  30.942  31.488  1.00  0.00    -0.248 NA
ATOM     18  C   UNL A   1      39.380  30.263  29.262  1.00  0.00     0.031 C 
ATOM     19  C   UNL A   1      43.094  28.211  31.875  1.00  0.00     0.029 A 
ATOM     20  N   UNL A   1      41.768  29.633  32.975  1.00  0.00    -0.354 N 
ATOM     21  C   UNL A   1      38.430  31.463  30.957  1.00  0.00     0.074 A 
ATOM     22  C   UNL A   1      38.347  31.028  29.582  1.00  0.00     0.031 C 
ATOM     23  C   UNL A   1      43.422  28.162  33.174  1.00  0.00     0.029 A 
ATOM     24  C   UNL A   1      42.687  29.180  33.889  1.00  0.00     0.049 A 
ATOM     25  H   UNL A   1      41.017  30.226  33.208  1.00  0.00     0.167 HD
ATOM     26  C   UNL A   1      37.519  32.244  31.578  1.00  0.00     0.031 A 
ATOM     27  C   UNL A   1      42.979  29.591  35.134  1.00  0.00     0.031 A 
ATOM     28  C   UNL A   1      37.638  32.668  32.945  1.00  0.00     0.049 A 
ATOM     29  C   UNL A   1      42.101  30.642  35.727  1.00  0.00     0.074 A 
ATOM     30  C   UNL A   1      36.794  33.488  33.670  1.00  0.00     0.029 A 
ATOM     31  N   UNL A   1      38.681  32.315  33.790  1.00  0.00    -0.354 N 
ATOM     32  N   UNL A   1      41.023  31.180  35.210  1.00  0.00    -0.248 NA
ATOM     33  C   UNL A   1      42.453  31.133  37.061  1.00  0.00     0.031 C 
ATOM     34  C   UNL A   1      37.367  33.692  34.928  1.00  0.00     0.029 A 
ATOM     35  C   UNL A   1      38.534  32.948  35.011  1.00  0.00     0.049 A 
ATOM     36  H   UNL A   1      39.417  31.704  33.555  1.00  0.00     0.167 HD
ATOM     37  C   UNL A   1      40.545  32.052  36.170  1.00  0.00     0.074 A 
ATOM     38  C   UNL A   1      41.446  31.961  37.304  1.00  0.00     0.031 C 
ATOM     39  C   UNL A   1      39.451  32.846  36.117  1.00  0.00     0.031 A 
BRANCH  26  40
ATOM     40  C   UNL A   1      36.389  32.764  30.745  1.00  0.00    -0.014 A 
ATOM     41  C   UNL A   1      36.225  34.133  30.484  1.00  0.00     0.009 A 
ATOM     42  C   UNL A   1      35.465  31.851  30.214  1.00  0.00     0.009 A 
ATOM     43  C   UNL A   1      35.139  34.577  29.725  1.00  0.00     0.001 A 
ATOM     44  C   UNL A   1      34.395  32.295  29.438  1.00  0.00     0.001 A 
ATOM     45  C   UNL A   1      34.229  33.658  29.199  1.00  0.00     0.000 A 
ENDBRANCH  26  40
BRANCH  27  46
ATOM     46  C   UNL A   1      44.212  29.122  35.826  1.00  0.00    -0.014 A 
ATOM     47  C   UNL A   1      44.194  28.040  36.716  1.00  0.00     0.009 A 
ATOM     48  C   UNL A   1      45.427  29.805  35.623  1.00  0.00     0.009 A 
ATOM     49  C   UNL A   1      45.353  27.674  37.409  1.00  0.00     0.001 A 
ATOM     50  C   UNL A   1      46.589  29.422  36.298  1.00  0.00     0.001 A 
ATOM     51  C   UNL A   1      46.547  28.364  37.200  1.00  0.00     0.000 A 
ENDBRANCH  27  46
BRANCH  39  52
ATOM     52  C   UNL A   1      39.163  33.659  37.339  1.00  0.00    -0.014 A 
ATOM     53  C   UNL A   1      39.572  34.997  37.430  1.00  0.00     0.009 A 
ATOM     54  C   UNL A   1      38.441  33.083  38.394  1.00  0.00     0.009 A 
ATOM     55  C   UNL A   1      39.282  35.739  38.574  1.00  0.00     0.001 A 
ATOM     56  C   UNL A   1      38.125  33.838  39.521  1.00  0.00     0.001 A 
ATOM     57  C   UNL A   1      38.551  35.162  39.612  1.00  0.00     0.000 A 
ENDBRANCH  39  52
ENDBRANCH  13  14
ENDBRANCH   6   8
ENDBRANCH   5   6
ENDBRANCH   4   5
ENDBRANCH   3   4
ENDBRANCH   2   3
ENDBRANCH   1   2
BRANCH   1  58
ATOM     58  C   UNL A   1      45.953  23.023  24.824  1.00  0.00     0.188 C 
BRANCH  58  59
ATOM     59  O   UNL A   1      44.756  23.196  24.070  1.00  0.00    -0.376 OA
BRANCH  59  60
ATOM     60  C   UNL A   1      43.521  23.139  24.772  1.00  0.00     0.202 C 
BRANCH  60  61
ATOM     61  C   UNL A   1      43.139  21.815  25.451  1.00  0.00     0.261 C 
BRANCH  61  62
ATOM     62  O   UNL A   1      41.750  21.460  25.376  1.00  0.00    -0.463 OA
BRANCH  62  63
ATOM     63  C   UNL A   1      41.234  20.887  26.499  1.00  0.00     0.310 C 
ATOM     64  O   UNL A   1      41.656  19.858  27.019  1.00  0.00    -0.252 OA
BRANCH  63  65
ATOM     65  C   UNL A   1      40.026  21.644  27.009  1.00  0.00     0.118 C 
ATOM     66  C   UNL A   1      40.522  23.046  27.391  1.00  0.00     0.019 C 
ATOM     67  C   UNL A   1      38.924  21.620  25.933  1.00  0.00     0.133 C 
ATOM     68  C   UNL A   1      39.417  24.091  27.434  1.00  0.00     0.022 C 
ATOM     69  N   UNL A   1      38.014  22.756  26.064  1.00  0.00    -0.356 N 
ATOM     70  C   UNL A   1      38.601  24.080  26.162  1.00  0.00     0.118 C 
BRANCH  69  71
ATOM     71  C   UNL A   1      36.680  22.615  25.738  1.00  0.00     0.133 A 
ATOM     72  C   UNL A   1      35.808  23.669  25.920  1.00  0.00     0.077 A 
ATOM     73  N   UNL A   1      36.243  21.423  25.301  1.00  0.00    -0.211 NA
ATOM     74  C   UNL A   1      34.470  23.463  25.651  1.00  0.00     0.095 A 
ATOM     75  C   UNL A   1      34.917  21.299  25.080  1.00  0.00     0.165 A 
ATOM     76  N   UNL A   1      34.004  22.272  25.237  1.00  0.00    -0.226 NA
BRANCH  74  77
ATOM     77  C   UNL A   1      33.505  24.561  25.796  1.00  0.00     0.089 A 
ATOM     78  C   UNL A   1      33.866  25.877  25.497  1.00  0.00     0.030 A 
ATOM     79  N   UNL A   1      32.287  24.247  26.306  1.00  0.00    -0.255 NA
ATOM     80  C   UNL A   1      32.949  26.899  25.721  1.00  0.00     0.004 A 
ATOM     81  C   UNL A   1      31.412  25.258  26.499  1.00  0.00     0.112 A 
ATOM     82  C   UNL A   1      31.696  26.587  26.230  1.00  0.00     0.020 A 
ENDBRANCH  74  77
BRANCH  75  83
ATOM     83  C   UNL A   1      34.398  19.979  24.734  1.00  0.00     0.055 A 
ATOM     84  C   UNL A   1      33.042  19.786  24.410  1.00  0.00     0.015 A 
ATOM     85  C   UNL A   1      35.251  18.873  24.648  1.00  0.00     0.134 A 
ATOM     86  C   UNL A   1      32.570  18.533  23.998  1.00  0.00     0.001 A 
ATOM     87  C   UNL A   1      34.787  17.620  24.250  1.00  0.00     0.040 A 
ATOM     88  F   UNL A   1      36.552  18.995  24.958  1.00  0.00    -0.206 F 
ATOM     89  C   UNL A   1      33.444  17.450  23.917  1.00  0.00     0.003 A 
ENDBRANCH  75  83
ENDBRANCH  69  71
ENDBRANCH  63  65
ENDBRANCH  62  63
ENDBRANCH  61  62
ENDBRANCH  60  61
ENDBRANCH  59  60
ENDBRANCH  58  59
ENDBRANCH   1  58
TORSDOF 20
ENDMDL
MODEL 3
REMARK VINA RESULT:     -10.3      5.974     10.522
REMARK SMILES O=C(OCCOCCOCCOC(=O)[C@H]1CCCN(c2cc(-c3ccccn3)nc(-c3ccccc3F)n2)C1)c1ccc(-c2c3nc(c(-c4ccccc4)c4ccc([nH]4)c(-c4ccccc4)c4nc(c(-c5ccccc5)c5ccc2[nH]5)C=C4)C=C3)cc1
REMARK SMILES IDX 7 1 6 2 5 3 4 4 3 5 2 6 1 7 40 8 41 9 87 10 42 11 86 12
REMARK SMILES IDX 43 13 44 14 45 15 80 16 46 17 85 18 79 19 81 20 47 21 84 22
REMARK SMILES IDX 78 23 77 24 48 26 70 27 55 28 69 29 56 30 59 31 68 32 82 33
REMARK SMILES IDX 57 34 58 35 67 37 83 38 60 39 49 40 50 41 54 42 51 43 53 44
REMARK SMILES IDX 52 45 71 46 72 47 76 48 73 49 75 50 74 51 61 52 62 53 66 54
REMARK SMILES IDX 63 55 65 56 64 57 8 58 9 59 10 60 11 61 12 62 13 63 14 64
REMARK SMILES IDX 15 65 16 66 39 67 17 68 19 69 18 70 20 71 21 72 38 73 22 74
REMARK SMILES IDX 30 75 29 76 23 77 24 78 28 79 25 80 27 81 26 82 31 83 32 84
REMARK SMILES IDX 36 85 33 86 35 87 37 88 34 89
REMARK H PARENT 81 25 59 36
REMARK Flexibility Score: inf
ROOT
ATOM      1  C   UNL A   1      36.929  22.213  25.199  1.00  0.00     0.188 C 
ENDROOT
BRANCH   1   2
ATOM      2  O   UNL A   1      38.019  22.026  26.107  1.00  0.00    -0.376 OA
BRANCH   2   3
ATOM      3  C   UNL A   1      38.711  23.232  26.449  1.00  0.00     0.202 C 
BRANCH   3   4
ATOM      4  C   UNL A   1      40.224  23.102  26.712  1.00  0.00     0.261 C 
BRANCH   4   5
ATOM      5  O   UNL A   1      40.684  23.783  27.892  1.00  0.00    -0.460 OA
BRANCH   5   6
ATOM      6  C   UNL A   1      41.935  23.817  28.418  1.00  0.00     0.338 C 
ATOM      7  O   UNL A   1      42.275  22.917  29.184  1.00  0.00    -0.246 OA
BRANCH   6   8
ATOM      8  C   UNL A   1      42.920  24.904  28.130  1.00  0.00     0.060 A 
ATOM      9  C   UNL A   1      43.574  25.653  29.103  1.00  0.00     0.016 A 
ATOM     10  C   UNL A   1      43.274  25.131  26.789  1.00  0.00     0.016 A 
ATOM     11  C   UNL A   1      44.481  26.650  28.781  1.00  0.00     0.010 A 
ATOM     12  C   UNL A   1      44.233  26.097  26.453  1.00  0.00     0.010 A 
ATOM     13  C   UNL A   1      44.829  26.871  27.456  1.00  0.00    -0.014 A 
BRANCH  13  14
ATOM     14  C   UNL A   1      45.759  27.976  27.158  1.00  0.00     0.031 A 
ATOM     15  C   UNL A   1      47.198  27.661  26.926  1.00  0.00     0.074 A 
ATOM     16  C   UNL A   1      45.297  29.220  26.939  1.00  0.00     0.049 A 
ATOM     17  N   UNL A   1      48.191  28.483  26.722  1.00  0.00    -0.248 NA
ATOM     18  C   UNL A   1      47.562  26.236  26.865  1.00  0.00     0.031 C 
ATOM     19  C   UNL A   1      43.884  29.599  26.900  1.00  0.00     0.029 A 
ATOM     20  N   UNL A   1      45.960  30.394  26.679  1.00  0.00    -0.354 N 
ATOM     21  C   UNL A   1      49.301  27.677  26.526  1.00  0.00     0.074 A 
ATOM     22  C   UNL A   1      48.865  26.304  26.636  1.00  0.00     0.031 C 
ATOM     23  C   UNL A   1      43.799  30.910  26.633  1.00  0.00     0.029 A 
ATOM     24  C   UNL A   1      45.125  31.482  26.634  1.00  0.00     0.049 A 
ATOM     25  H   UNL A   1      46.933  30.449  26.538  1.00  0.00     0.167 HD
ATOM     26  C   UNL A   1      50.570  28.068  26.282  1.00  0.00     0.031 A 
ATOM     27  C   UNL A   1      45.381  32.801  26.683  1.00  0.00     0.031 A 
ATOM     28  C   UNL A   1      50.973  29.444  26.190  1.00  0.00     0.049 A 
ATOM     29  C   UNL A   1      46.813  33.217  26.658  1.00  0.00     0.074 A 
ATOM     30  C   UNL A   1      52.238  29.960  25.980  1.00  0.00     0.029 A 
ATOM     31  N   UNL A   1      50.112  30.525  26.316  1.00  0.00    -0.354 N 
ATOM     32  N   UNL A   1      47.874  32.457  26.527  1.00  0.00    -0.248 NA
ATOM     33  C   UNL A   1      47.095  34.650  26.771  1.00  0.00     0.031 C 
ATOM     34  C   UNL A   1      52.153  31.353  26.058  1.00  0.00     0.029 A 
ATOM     35  C   UNL A   1      50.827  31.707  26.250  1.00  0.00     0.049 A 
ATOM     36  H   UNL A   1      49.137  30.460  26.437  1.00  0.00     0.167 HD
ATOM     37  C   UNL A   1      48.951  33.322  26.505  1.00  0.00     0.074 A 
ATOM     38  C   UNL A   1      48.413  34.665  26.628  1.00  0.00     0.031 C 
ATOM     39  C   UNL A   1      50.266  33.027  26.385  1.00  0.00     0.031 A 
BRANCH  26  40
ATOM     40  C   UNL A   1      51.612  26.994  26.212  1.00  0.00    -0.014 A 
ATOM     41  C   UNL A   1      52.338  26.585  27.341  1.00  0.00     0.009 A 
ATOM     42  C   UNL A   1      51.869  26.382  24.976  1.00  0.00     0.009 A 
ATOM     43  C   UNL A   1      53.320  25.598  27.224  1.00  0.00     0.001 A 
ATOM     44  C   UNL A   1      52.833  25.382  24.866  1.00  0.00     0.001 A 
ATOM     45  C   UNL A   1      53.562  24.995  25.989  1.00  0.00     0.000 A 
ENDBRANCH  26  40
BRANCH  27  46
ATOM     46  C   UNL A   1      44.284  33.786  26.902  1.00  0.00    -0.014 A 
ATOM     47  C   UNL A   1      43.694  34.482  25.840  1.00  0.00     0.009 A 
ATOM     48  C   UNL A   1      43.852  34.066  28.213  1.00  0.00     0.009 A 
ATOM     49  C   UNL A   1      42.721  35.457  26.086  1.00  0.00     0.001 A 
ATOM     50  C   UNL A   1      42.863  35.023  28.455  1.00  0.00     0.001 A 
ATOM     51  C   UNL A   1      42.307  35.727  27.390  1.00  0.00     0.000 A 
ENDBRANCH  27  46
BRANCH  39  52
ATOM     52  C   UNL A   1      51.206  34.190  26.353  1.00  0.00    -0.014 A 
ATOM     53  C   UNL A   1      51.785  34.683  27.532  1.00  0.00     0.009 A 
ATOM     54  C   UNL A   1      51.538  34.774  25.123  1.00  0.00     0.009 A 
ATOM     55  C   UNL A   1      52.668  35.761  27.478  1.00  0.00     0.001 A 
ATOM     56  C   UNL A   1      52.446  35.829  25.070  1.00  0.00     0.001 A 
ATOM     57  C   UNL A   1      53.004  36.325  26.247  1.00  0.00     0.000 A 
ENDBRANCH  39  52
ENDBRANCH  13  14
ENDBRANCH   6   8
ENDBRANCH   5   6
ENDBRANCH   4   5
ENDBRANCH   3   4
ENDBRANCH   2   3
ENDBRANCH   1   2
BRANCH   1  58
ATOM     58  C   UNL A   1      35.567  22.017  25.865  1.00  0.00     0.188 C 
BRANCH  58  59
ATOM     59  O   UNL A   1      34.416  22.412  25.122  1.00  0.00    -0.376 OA
BRANCH  59  60
ATOM     60  C   UNL A   1      34.540  23.540  24.267  1.00  0.00     0.202 C 
BRANCH  60  61
ATOM     61  C   UNL A   1      33.679  24.774  24.574  1.00  0.00     0.261 C 
BRANCH  61  62
ATOM     62  O   UNL A   1      33.494  25.068  25.968  1.00  0.00    -0.463 OA
BRANCH  62  63
ATOM     63  C   UNL A   1      32.491  25.945  26.249  1.00  0.00     0.310 C 
ATOM     64  O   UNL A   1      31.397  25.635  26.713  1.00  0.00    -0.252 OA
BRANCH  63  65
ATOM     65  C   UNL A   1      32.861  27.362  25.863  1.00  0.00     0.118 C 
ATOM     66  C   UNL A   1      31.595  27.992  25.262  1.00  0.00     0.019 C 
ATOM     67  C   UNL A   1      33.421  28.092  27.099  1.00  0.00     0.133 C 
ATOM     68  C   UNL A   1      31.602  29.513  25.289  1.00  0.00     0.022 C 
ATOM     69  N   UNL A   1      33.247  29.539  26.998  1.00  0.00    -0.356 N 
ATOM     70  C   UNL A   1      31.924  30.037  26.669  1.00  0.00     0.118 C 
BRANCH  69  71
ATOM     71  C   UNL A   1      34.187  30.388  27.547  1.00  0.00     0.133 A 
ATOM     72  C   UNL A   1      35.482  29.954  27.746  1.00  0.00     0.077 A 
ATOM     73  N   UNL A   1      33.802  31.615  27.935  1.00  0.00    -0.211 NA
ATOM     74  C   UNL A   1      36.369  30.810  28.364  1.00  0.00     0.095 A 
ATOM     75  C   UNL A   1      34.726  32.383  28.551  1.00  0.00     0.165 A 
ATOM     76  N   UNL A   1      36.002  32.032  28.785  1.00  0.00    -0.226 NA
BRANCH  74  77
ATOM     77  C   UNL A   1      37.768  30.409  28.570  1.00  0.00     0.089 A 
ATOM     78  C   UNL A   1      38.446  29.654  27.609  1.00  0.00     0.030 A 
ATOM     79  N   UNL A   1      38.334  30.736  29.759  1.00  0.00    -0.255 NA
ATOM     80  C   UNL A   1      39.743  29.228  27.873  1.00  0.00     0.004 A 
ATOM     81  C   UNL A   1      39.600  30.322  29.982  1.00  0.00     0.112 A 
ATOM     82  C   UNL A   1      40.336  29.568  29.082  1.00  0.00     0.020 A 
ENDBRANCH  74  77
BRANCH  75  83
ATOM     83  C   UNL A   1      34.298  33.666  29.101  1.00  0.00     0.055 A 
ATOM     84  C   UNL A   1      33.817  34.695  28.271  1.00  0.00     0.015 A 
ATOM     85  C   UNL A   1      34.292  33.886  30.482  1.00  0.00     0.134 A 
ATOM     86  C   UNL A   1      33.331  35.891  28.814  1.00  0.00     0.001 A 
ATOM     87  C   UNL A   1      33.820  35.079  31.030  1.00  0.00     0.040 A 
ATOM     88  F   UNL A   1      34.751  32.945  31.322  1.00  0.00    -0.206 F 
ATOM     89  C   UNL A   1      33.332  36.082  30.194  1.00  0.00     0.003 A 
ENDBRANCH  75  83
ENDBRANCH  69  71
ENDBRANCH  63  65
ENDBRANCH  62  63
ENDBRANCH  61  62
ENDBRANCH  60  61
ENDBRANCH  59  60
ENDBRANCH  58  59
ENDBRANCH   1  58
TORSDOF 20
ENDMDL
