MODEL 1
REMARK VINA RESULT:      -9.2      0.000      0.000
REMARK SMILES O=C(CNC(=O)OCc1ccccc1)NCC(=O)OCCOCCOCCOC(=O)c1ccc(-c2c3nc(c(-c4ccccc4)c4ccc([nH]4)c(-c4ccccc4)c4nc(c(-c5ccccc5)c5ccc2[nH]5)C=C4)C=C3)cc1
REMARK SMILES IDX 21 1 20 2 19 3 17 4 18 5 16 6 15 7 1 8 2 9 3 11 4 12 5 13
REMARK SMILES IDX 6 15 7 16 8 17 9 18 10 19 14 20 11 21 13 22 12 23 22 24
REMARK SMILES IDX 23 25 24 26 25 27 26 28 27 29 28 30 29 31 30 32 31 33 32 34
REMARK SMILES IDX 78 35 33 36 77 37 34 38 35 39 36 40 71 41 37 42 76 43 70 44
REMARK SMILES IDX 72 45 38 46 75 47 69 48 68 49 39 51 61 52 46 53 60 54 47 55
REMARK SMILES IDX 50 56 59 57 73 58 48 59 49 60 58 62 74 63 51 64 40 65 41 66
REMARK SMILES IDX 45 67 42 68 44 69 43 70 62 71 63 72 67 73 64 74 66 75 65 76
REMARK SMILES IDX 52 77 53 78 57 79 54 80 56 81 55 82
REMARK H PARENT 15 10 4 14 72 50 50 61
REMARK Flexibility Score: inf
ROOT
ATOM      1  C   UNL A   1      33.394  31.353  27.628  1.00  0.00     0.202 C 
ENDROOT
BRANCH   1   2
ATOM      2  C   UNL A   1      33.932  30.048  27.011  1.00  0.00     0.261 C 
BRANCH   2   3
ATOM      3  O   UNL A   1      33.619  29.871  25.609  1.00  0.00    -0.462 OA
BRANCH   3   4
ATOM      4  C   UNL A   1      33.203  28.630  25.241  1.00  0.00     0.325 C 
ATOM      5  O   UNL A   1      33.949  27.658  25.143  1.00  0.00    -0.250 OA
BRANCH   4   6
ATOM      6  C   UNL A   1      31.677  28.471  25.121  1.00  0.00     0.238 C 
BRANCH   6   7
ATOM      7  N   UNL A   1      31.006  27.179  25.081  1.00  0.00    -0.344 N 
ATOM      8  O   UNL A   1      31.369  26.605  27.263  1.00  0.00    -0.273 OA
ATOM      9  C   UNL A   1      30.831  26.377  26.185  1.00  0.00     0.240 C 
ATOM     10  H   UNL A   1      30.659  26.862  24.216  1.00  0.00     0.164 HD
BRANCH   9  11
ATOM     11  C   UNL A   1      30.005  25.104  25.911  1.00  0.00     0.219 C 
BRANCH  11  12
ATOM     12  N   UNL A   1      30.329  24.553  24.598  1.00  0.00    -0.312 N 
ATOM     13  C   UNL A   1      31.060  23.441  24.316  1.00  0.00     0.407 C 
ATOM     14  H   UNL A   1      29.976  25.046  23.823  1.00  0.00     0.167 HD
ATOM     15  O   UNL A   1      31.351  23.181  23.153  1.00  0.00    -0.225 OA
BRANCH  13  16
ATOM     16  O   UNL A   1      31.405  22.717  25.403  1.00  0.00    -0.445 OA
BRANCH  16  17
ATOM     17  C   UNL A   1      31.927  21.403  25.138  1.00  0.00     0.270 C 
BRANCH  17  18
ATOM     18  C   UNL A   1      33.435  21.391  25.250  1.00  0.00    -0.011 A 
ATOM     19  C   UNL A   1      34.123  22.532  25.691  1.00  0.00     0.007 A 
ATOM     20  C   UNL A   1      34.177  20.254  24.902  1.00  0.00     0.007 A 
ATOM     21  C   UNL A   1      35.517  22.541  25.770  1.00  0.00     0.000 A 
ATOM     22  C   UNL A   1      35.572  20.261  24.989  1.00  0.00     0.000 A 
ATOM     23  C   UNL A   1      36.242  21.407  25.416  1.00  0.00     0.000 A 
ENDBRANCH  17  18
ENDBRANCH  16  17
ENDBRANCH  13  16
ENDBRANCH  11  12
ENDBRANCH   9  11
ENDBRANCH   6   7
ENDBRANCH   4   6
ENDBRANCH   3   4
ENDBRANCH   2   3
ENDBRANCH   1   2
BRANCH   1  24
ATOM     24  O   UNL A   1      34.223  32.083  28.533  1.00  0.00    -0.376 OA
BRANCH  24  25
ATOM     25  C   UNL A   1      34.792  33.307  28.091  1.00  0.00     0.188 C 
BRANCH  25  26
ATOM     26  C   UNL A   1      34.166  34.625  28.575  1.00  0.00     0.188 C 
BRANCH  26  27
ATOM     27  O   UNL A   1      33.367  34.530  29.724  1.00  0.00    -0.376 OA
BRANCH  27  28
ATOM     28  C   UNL A   1      33.895  34.863  30.994  1.00  0.00     0.202 C 
BRANCH  28  29
ATOM     29  C   UNL A   1      34.047  33.861  32.156  1.00  0.00     0.261 C 
BRANCH  29  30
ATOM     30  O   UNL A   1      34.887  32.717  31.961  1.00  0.00    -0.460 OA
BRANCH  30  31
ATOM     31  C   UNL A   1      35.869  32.506  32.871  1.00  0.00     0.338 C 
ATOM     32  O   UNL A   1      35.799  32.646  34.078  1.00  0.00    -0.246 OA
BRANCH  31  33
ATOM     33  C   UNL A   1      36.979  31.836  32.154  1.00  0.00     0.060 A 
ATOM     34  C   UNL A   1      37.918  31.093  32.883  1.00  0.00     0.016 A 
ATOM     35  C   UNL A   1      37.056  31.900  30.761  1.00  0.00     0.016 A 
ATOM     36  C   UNL A   1      38.931  30.396  32.218  1.00  0.00     0.010 A 
ATOM     37  C   UNL A   1      38.090  31.233  30.102  1.00  0.00     0.010 A 
ATOM     38  C   UNL A   1      39.038  30.486  30.825  1.00  0.00    -0.014 A 
BRANCH  38  39
ATOM     39  C   UNL A   1      40.223  29.943  30.120  1.00  0.00     0.031 A 
ATOM     40  C   UNL A   1      41.399  30.849  29.896  1.00  0.00     0.074 A 
ATOM     41  C   UNL A   1      40.248  28.681  29.656  1.00  0.00     0.049 A 
ATOM     42  N   UNL A   1      42.482  30.648  29.190  1.00  0.00    -0.248 NA
ATOM     43  C   UNL A   1      41.341  32.164  30.555  1.00  0.00     0.031 C 
ATOM     44  C   UNL A   1      39.203  27.679  29.857  1.00  0.00     0.029 A 
ATOM     45  N   UNL A   1      41.193  28.035  28.896  1.00  0.00    -0.354 N 
ATOM     46  C   UNL A   1      43.226  31.814  29.306  1.00  0.00     0.074 A 
ATOM     47  C   UNL A   1      42.463  32.726  30.132  1.00  0.00     0.031 C 
ATOM     48  C   UNL A   1      39.556  26.549  29.219  1.00  0.00     0.029 A 
ATOM     49  C   UNL A   1      40.826  26.764  28.526  1.00  0.00     0.049 A 
ATOM     50  H   UNL A   1      42.051  28.444  28.640  1.00  0.00     0.167 HD
ATOM     51  C   UNL A   1      44.436  32.102  28.772  1.00  0.00     0.031 A 
ATOM     52  C   UNL A   1      41.427  25.891  27.694  1.00  0.00     0.031 A 
ATOM     53  C   UNL A   1      45.183  31.207  27.931  1.00  0.00     0.049 A 
ATOM     54  C   UNL A   1      42.716  26.279  27.015  1.00  0.00     0.074 A 
ATOM     55  C   UNL A   1      46.421  31.407  27.345  1.00  0.00     0.029 A 
ATOM     56  N   UNL A   1      44.755  29.947  27.543  1.00  0.00    -0.354 N 
ATOM     57  N   UNL A   1      43.422  27.377  27.142  1.00  0.00    -0.248 NA
ATOM     58  C   UNL A   1      43.292  25.304  26.076  1.00  0.00     0.031 C 
ATOM     59  C   UNL A   1      46.712  30.295  26.550  1.00  0.00     0.029 A 
ATOM     60  C   UNL A   1      45.688  29.372  26.697  1.00  0.00     0.049 A 
ATOM     61  H   UNL A   1      43.912  29.524  27.827  1.00  0.00     0.167 HD
ATOM     62  C   UNL A   1      44.536  27.211  26.326  1.00  0.00     0.074 A 
ATOM     63  C   UNL A   1      44.419  25.902  25.719  1.00  0.00     0.031 C 
ATOM     64  C   UNL A   1      45.564  28.067  26.101  1.00  0.00     0.031 A 
BRANCH  51  65
ATOM     65  C   UNL A   1      45.002  33.468  29.047  1.00  0.00    -0.014 A 
ATOM     66  C   UNL A   1      44.716  34.561  28.213  1.00  0.00     0.009 A 
ATOM     67  C   UNL A   1      45.817  33.667  30.172  1.00  0.00     0.009 A 
ATOM     68  C   UNL A   1      45.264  35.817  28.482  1.00  0.00     0.001 A 
ATOM     69  C   UNL A   1      46.338  34.930  30.456  1.00  0.00     0.001 A 
ATOM     70  C   UNL A   1      46.070  36.001  29.606  1.00  0.00     0.000 A 
ENDBRANCH  51  65
BRANCH  52  71
ATOM     71  C   UNL A   1      40.802  24.569  27.415  1.00  0.00    -0.014 A 
ATOM     72  C   UNL A   1      41.332  23.397  27.975  1.00  0.00     0.009 A 
ATOM     73  C   UNL A   1      39.693  24.469  26.560  1.00  0.00     0.009 A 
ATOM     74  C   UNL A   1      40.780  22.151  27.665  1.00  0.00     0.001 A 
ATOM     75  C   UNL A   1      39.123  23.225  26.277  1.00  0.00     0.001 A 
ATOM     76  C   UNL A   1      39.673  22.067  26.823  1.00  0.00     0.000 A 
ENDBRANCH  52  71
BRANCH  64  77
ATOM     77  C   UNL A   1      46.672  27.604  25.194  1.00  0.00    -0.014 A 
ATOM     78  C   UNL A   1      46.779  28.066  23.873  1.00  0.00     0.009 A 
ATOM     79  C   UNL A   1      47.660  26.740  25.693  1.00  0.00     0.009 A 
ATOM     80  C   UNL A   1      47.838  27.648  23.064  1.00  0.00     0.001 A 
ATOM     81  C   UNL A   1      48.735  26.350  24.893  1.00  0.00     0.001 A 
ATOM     82  C   UNL A   1      48.819  26.798  23.576  1.00  0.00     0.000 A 
ENDBRANCH  64  77
ENDBRANCH  38  39
ENDBRANCH  31  33
ENDBRANCH  30  31
ENDBRANCH  29  30
ENDBRANCH  28  29
ENDBRANCH  27  28
ENDBRANCH  26  27
ENDBRANCH  25  26
ENDBRANCH  24  25
ENDBRANCH   1  24
TORSDOF 23
ENDMDL
MODEL 2
REMARK VINA RESULT:      -8.3      4.314      7.276
REMARK SMILES O=C(CNC(=O)OCc1ccccc1)NCC(=O)OCCOCCOCCOC(=O)c1ccc(-c2c3nc(c(-c4ccccc4)c4ccc([nH]4)c(-c4ccccc4)c4nc(c(-c5ccccc5)c5ccc2[nH]5)C=C4)C=C3)cc1
REMARK SMILES IDX 21 1 20 2 19 3 17 4 18 5 16 6 15 7 1 8 2 9 3 11 4 12 5 13
REMARK SMILES IDX 6 15 7 16 8 17 9 18 10 19 14 20 11 21 13 22 12 23 22 24
REMARK SMILES IDX 23 25 24 26 25 27 26 28 27 29 28 30 29 31 30 32 31 33 32 34
REMARK SMILES IDX 78 35 33 36 77 37 34 38 35 39 36 40 71 41 37 42 76 43 70 44
REMARK SMILES IDX 72 45 38 46 75 47 69 48 68 49 39 51 61 52 46 53 60 54 47 55
REMARK SMILES IDX 50 56 59 57 73 58 48 59 49 60 58 62 74 63 51 64 40 65 41 66
REMARK SMILES IDX 45 67 42 68 44 69 43 70 62 71 63 72 67 73 64 74 66 75 65 76
REMARK SMILES IDX 52 77 53 78 57 79 54 80 56 81 55 82
REMARK H PARENT 15 10 4 14 72 50 50 61
REMARK Flexibility Score: inf
ROOT
ATOM      1  C   UNL A   1      34.722  35.059  33.464  1.00  0.00     0.202 C 
ENDROOT
BRANCH   1   2
ATOM      2  C   UNL A   1      36.059  34.377  33.810  1.00  0.00     0.261 C 
BRANCH   2   3
ATOM      3  O   UNL A   1      37.229  35.036  33.270  1.00  0.00    -0.462 OA
BRANCH   3   4
ATOM      4  C   UNL A   1      38.273  34.228  32.944  1.00  0.00     0.325 C 
ATOM      5  O   UNL A   1      38.625  33.994  31.790  1.00  0.00    -0.250 OA
BRANCH   4   6
ATOM      6  C   UNL A   1      39.115  33.749  34.140  1.00  0.00     0.238 C 
BRANCH   6   7
ATOM      7  N   UNL A   1      39.849  32.491  34.151  1.00  0.00    -0.344 N 
ATOM      8  O   UNL A   1      41.944  33.384  33.962  1.00  0.00    -0.273 OA
ATOM      9  C   UNL A   1      41.222  32.409  34.144  1.00  0.00     0.240 C 
ATOM     10  H   UNL A   1      39.334  31.652  34.164  1.00  0.00     0.164 HD
BRANCH   9  11
ATOM     11  C   UNL A   1      41.766  30.971  34.258  1.00  0.00     0.219 C 
BRANCH  11  12
ATOM     12  N   UNL A   1      43.141  30.900  33.772  1.00  0.00    -0.312 N 
ATOM     13  C   UNL A   1      43.721  29.903  33.052  1.00  0.00     0.407 C 
ATOM     14  H   UNL A   1      43.718  31.666  33.993  1.00  0.00     0.167 HD
ATOM     15  O   UNL A   1      44.927  29.934  32.828  1.00  0.00    -0.225 OA
BRANCH  13  16
ATOM     16  O   UNL A   1      42.863  28.940  32.651  1.00  0.00    -0.445 OA
BRANCH  16  17
ATOM     17  C   UNL A   1      42.669  27.854  33.574  1.00  0.00     0.270 C 
BRANCH  17  18
ATOM     18  C   UNL A   1      43.541  26.675  33.208  1.00  0.00    -0.011 A 
ATOM     19  C   UNL A   1      43.886  26.436  31.868  1.00  0.00     0.007 A 
ATOM     20  C   UNL A   1      44.010  25.789  34.188  1.00  0.00     0.007 A 
ATOM     21  C   UNL A   1      44.667  25.333  31.516  1.00  0.00     0.000 A 
ATOM     22  C   UNL A   1      44.798  24.690  33.835  1.00  0.00     0.000 A 
ATOM     23  C   UNL A   1      45.121  24.459  32.499  1.00  0.00     0.000 A 
ENDBRANCH  17  18
ENDBRANCH  16  17
ENDBRANCH  13  16
ENDBRANCH  11  12
ENDBRANCH   9  11
ENDBRANCH   6   7
ENDBRANCH   4   6
ENDBRANCH   3   4
ENDBRANCH   2   3
ENDBRANCH   1   2
BRANCH   1  24
ATOM     24  O   UNL A   1      34.730  36.422  33.039  1.00  0.00    -0.376 OA
BRANCH  24  25
ATOM     25  C   UNL A   1      33.609  36.911  32.316  1.00  0.00     0.188 C 
BRANCH  25  26
ATOM     26  C   UNL A   1      32.475  35.932  31.968  1.00  0.00     0.188 C 
BRANCH  26  27
ATOM     27  O   UNL A   1      32.434  35.503  30.633  1.00  0.00    -0.376 OA
BRANCH  27  28
ATOM     28  C   UNL A   1      33.623  35.130  29.963  1.00  0.00     0.202 C 
BRANCH  28  29
ATOM     29  C   UNL A   1      33.760  33.868  29.088  1.00  0.00     0.261 C 
BRANCH  29  30
ATOM     30  O   UNL A   1      34.976  33.114  29.168  1.00  0.00    -0.460 OA
BRANCH  30  31
ATOM     31  C   UNL A   1      35.219  32.450  30.324  1.00  0.00     0.338 C 
ATOM     32  O   UNL A   1      34.468  32.322  31.274  1.00  0.00    -0.246 OA
BRANCH  31  33
ATOM     33  C   UNL A   1      36.480  31.697  30.127  1.00  0.00     0.060 A 
ATOM     34  C   UNL A   1      37.023  30.976  31.199  1.00  0.00     0.016 A 
ATOM     35  C   UNL A   1      37.089  31.663  28.871  1.00  0.00     0.016 A 
ATOM     36  C   UNL A   1      38.173  30.202  31.014  1.00  0.00     0.010 A 
ATOM     37  C   UNL A   1      38.258  30.919  28.697  1.00  0.00     0.010 A 
ATOM     38  C   UNL A   1      38.811  30.193  29.768  1.00  0.00    -0.014 A 
BRANCH  38  39
ATOM     39  C   UNL A   1      40.144  29.565  29.604  1.00  0.00     0.031 A 
ATOM     40  C   UNL A   1      41.365  30.423  29.770  1.00  0.00     0.074 A 
ATOM     41  C   UNL A   1      40.274  28.266  29.281  1.00  0.00     0.049 A 
ATOM     42  N   UNL A   1      42.620  30.137  29.541  1.00  0.00    -0.248 NA
ATOM     43  C   UNL A   1      41.134  31.794  30.256  1.00  0.00     0.031 C 
ATOM     44  C   UNL A   1      39.177  27.307  29.151  1.00  0.00     0.029 A 
ATOM     45  N   UNL A   1      41.398  27.535  28.984  1.00  0.00    -0.354 N 
ATOM     46  C   UNL A   1      43.327  31.294  29.839  1.00  0.00     0.074 A 
ATOM     47  C   UNL A   1      42.360  32.292  30.244  1.00  0.00     0.031 C 
ATOM     48  C   UNL A   1      39.684  26.117  28.782  1.00  0.00     0.029 A 
ATOM     49  C   UNL A   1      41.129  26.243  28.603  1.00  0.00     0.049 A 
ATOM     50  H   UNL A   1      42.310  27.902  29.040  1.00  0.00     0.167 HD
ATOM     51  C   UNL A   1      44.662  31.509  29.779  1.00  0.00     0.031 A 
ATOM     52  C   UNL A   1      41.951  25.286  28.127  1.00  0.00     0.031 A 
ATOM     53  C   UNL A   1      45.621  30.526  29.351  1.00  0.00     0.049 A 
ATOM     54  C   UNL A   1      43.419  25.586  27.956  1.00  0.00     0.074 A 
ATOM     55  C   UNL A   1      46.997  30.647  29.261  1.00  0.00     0.029 A 
ATOM     56  N   UNL A   1      45.303  29.245  28.929  1.00  0.00    -0.354 N 
ATOM     57  N   UNL A   1      44.083  26.677  28.254  1.00  0.00    -0.248 NA
ATOM     58  C   UNL A   1      44.251  24.518  27.380  1.00  0.00     0.031 C 
ATOM     59  C   UNL A   1      47.504  29.462  28.721  1.00  0.00     0.029 A 
ATOM     60  C   UNL A   1      46.453  28.577  28.543  1.00  0.00     0.049 A 
ATOM     61  H   UNL A   1      44.394  28.867  28.906  1.00  0.00     0.167 HD
ATOM     62  C   UNL A   1      45.411  26.415  27.932  1.00  0.00     0.074 A 
ATOM     63  C   UNL A   1      45.460  25.059  27.428  1.00  0.00     0.031 C 
ATOM     64  C   UNL A   1      46.491  27.226  28.046  1.00  0.00     0.031 A 
BRANCH  51  65
ATOM     65  C   UNL A   1      45.156  32.882  30.141  1.00  0.00    -0.014 A 
ATOM     66  C   UNL A   1      45.486  33.216  31.464  1.00  0.00     0.009 A 
ATOM     67  C   UNL A   1      45.317  33.848  29.136  1.00  0.00     0.009 A 
ATOM     68  C   UNL A   1      45.931  34.503  31.777  1.00  0.00     0.001 A 
ATOM     69  C   UNL A   1      45.792  35.122  29.446  1.00  0.00     0.001 A 
ATOM     70  C   UNL A   1      46.089  35.453  30.767  1.00  0.00     0.000 A 
ENDBRANCH  51  65
BRANCH  52  71
ATOM     71  C   UNL A   1      41.407  23.957  27.736  1.00  0.00    -0.014 A 
ATOM     72  C   UNL A   1      40.684  23.804  26.543  1.00  0.00     0.009 A 
ATOM     73  C   UNL A   1      41.580  22.841  28.570  1.00  0.00     0.009 A 
ATOM     74  C   UNL A   1      40.125  22.569  26.207  1.00  0.00     0.001 A 
ATOM     75  C   UNL A   1      41.048  21.599  28.216  1.00  0.00     0.001 A 
ATOM     76  C   UNL A   1      40.312  21.466  27.039  1.00  0.00     0.000 A 
ENDBRANCH  52  71
BRANCH  64  77
ATOM     77  C   UNL A   1      47.832  26.661  27.661  1.00  0.00    -0.014 A 
ATOM     78  C   UNL A   1      48.618  25.948  28.579  1.00  0.00     0.009 A 
ATOM     79  C   UNL A   1      48.285  26.793  26.338  1.00  0.00     0.009 A 
ATOM     80  C   UNL A   1      49.843  25.403  28.186  1.00  0.00     0.001 A 
ATOM     81  C   UNL A   1      49.494  26.220  25.939  1.00  0.00     0.001 A 
ATOM     82  C   UNL A   1      50.276  25.532  26.866  1.00  0.00     0.000 A 
ENDBRANCH  64  77
ENDBRANCH  38  39
ENDBRANCH  31  33
ENDBRANCH  30  31
ENDBRANCH  29  30
ENDBRANCH  28  29
ENDBRANCH  27  28
ENDBRANCH  26  27
ENDBRANCH  25  26
ENDBRANCH  24  25
ENDBRANCH   1  24
TORSDOF 23
ENDMDL
MODEL 3
REMARK VINA RESULT:      -8.1      5.128     10.198
REMARK SMILES O=C(CNC(=O)OCc1ccccc1)NCC(=O)OCCOCCOCCOC(=O)c1ccc(-c2c3nc(c(-c4ccccc4)c4ccc([nH]4)c(-c4ccccc4)c4nc(c(-c5ccccc5)c5ccc2[nH]5)C=C4)C=C3)cc1
REMARK SMILES IDX 21 1 20 2 19 3 17 4 18 5 16 6 15 7 1 8 2 9 3 11 4 12 5 13
REMARK SMILES IDX 6 15 7 16 8 17 9 18 10 19 14 20 11 21 13 22 12 23 22 24
REMARK SMILES IDX 23 25 24 26 25 27 26 28 27 29 28 30 29 31 30 32 31 33 32 34
REMARK SMILES IDX 78 35 33 36 77 37 34 38 35 39 36 40 71 41 37 42 76 43 70 44
REMARK SMILES IDX 72 45 38 46 75 47 69 48 68 49 39 51 61 52 46 53 60 54 47 55
REMARK SMILES IDX 50 56 59 57 73 58 48 59 49 60 58 62 74 63 51 64 40 65 41 66
REMARK SMILES IDX 45 67 42 68 44 69 43 70 62 71 63 72 67 73 64 74 66 75 65 76
REMARK SMILES IDX 52 77 53 78 57 79 54 80 56 81 55 82
REMARK H PARENT 15 10 4 14 72 50 50 61
REMARK Flexibility Score: inf
ROOT
ATOM      1  C   UNL A   1      35.912  33.897  33.951  1.00  0.00     0.202 C 
ENDROOT
BRANCH   1   2
ATOM      2  C   UNL A   1      36.393  33.604  35.384  1.00  0.00     0.261 C 
BRANCH   2   3
ATOM      3  O   UNL A   1      37.753  34.018  35.659  1.00  0.00    -0.462 OA
BRANCH   3   4
ATOM      4  C   UNL A   1      38.540  33.104  36.287  1.00  0.00     0.325 C 
ATOM      5  O   UNL A   1      39.486  33.397  37.015  1.00  0.00    -0.250 OA
BRANCH   4   6
ATOM      6  C   UNL A   1      38.058  31.648  36.166  1.00  0.00     0.238 C 
BRANCH   6   7
ATOM      7  N   UNL A   1      38.951  30.526  35.906  1.00  0.00    -0.344 N 
ATOM      8  O   UNL A   1      39.243  30.909  33.672  1.00  0.00    -0.273 OA
ATOM      9  C   UNL A   1      39.544  30.290  34.687  1.00  0.00     0.240 C 
ATOM     10  H   UNL A   1      39.139  29.902  36.643  1.00  0.00     0.164 HD
BRANCH   9  11
ATOM     11  C   UNL A   1      40.523  29.099  34.686  1.00  0.00     0.219 C 
BRANCH  11  12
ATOM     12  N   UNL A   1      41.736  29.430  35.429  1.00  0.00    -0.312 N 
ATOM     13  C   UNL A   1      42.483  28.608  36.215  1.00  0.00     0.407 C 
ATOM     14  H   UNL A   1      42.050  30.359  35.353  1.00  0.00     0.167 HD
ATOM     15  O   UNL A   1      43.407  29.072  36.877  1.00  0.00    -0.225 OA
BRANCH  13  16
ATOM     16  O   UNL A   1      42.100  27.313  36.181  1.00  0.00    -0.445 OA
BRANCH  16  17
ATOM     17  C   UNL A   1      42.477  26.582  35.000  1.00  0.00     0.270 C 
BRANCH  17  18
ATOM     18  C   UNL A   1      43.231  25.324  35.366  1.00  0.00    -0.011 A 
ATOM     19  C   UNL A   1      44.070  25.301  36.491  1.00  0.00     0.007 A 
ATOM     20  C   UNL A   1      43.124  24.165  34.585  1.00  0.00     0.007 A 
ATOM     21  C   UNL A   1      44.793  24.153  36.820  1.00  0.00     0.000 A 
ATOM     22  C   UNL A   1      43.843  23.013  34.920  1.00  0.00     0.000 A 
ATOM     23  C   UNL A   1      44.682  23.010  36.033  1.00  0.00     0.000 A 
ENDBRANCH  17  18
ENDBRANCH  16  17
ENDBRANCH  13  16
ENDBRANCH  11  12
ENDBRANCH   9  11
ENDBRANCH   6   7
ENDBRANCH   4   6
ENDBRANCH   3   4
ENDBRANCH   2   3
ENDBRANCH   1   2
BRANCH   1  24
ATOM     24  O   UNL A   1      35.938  35.243  33.473  1.00  0.00    -0.376 OA
BRANCH  24  25
ATOM     25  C   UNL A   1      34.764  35.769  32.871  1.00  0.00     0.188 C 
BRANCH  25  26
ATOM     26  C   UNL A   1      33.518  34.872  32.784  1.00  0.00     0.188 C 
BRANCH  26  27
ATOM     27  O   UNL A   1      32.833  34.904  31.560  1.00  0.00    -0.376 OA
BRANCH  27  28
ATOM     28  C   UNL A   1      33.225  35.807  30.543  1.00  0.00     0.202 C 
BRANCH  28  29
ATOM     29  C   UNL A   1      32.885  35.626  29.050  1.00  0.00     0.261 C 
BRANCH  29  30
ATOM     30  O   UNL A   1      33.816  34.919  28.222  1.00  0.00    -0.460 OA
BRANCH  30  31
ATOM     31  C   UNL A   1      33.831  33.568  28.318  1.00  0.00     0.338 C 
ATOM     32  O   UNL A   1      33.003  32.788  27.882  1.00  0.00    -0.246 OA
BRANCH  31  33
ATOM     33  C   UNL A   1      35.165  33.191  28.840  1.00  0.00     0.060 A 
ATOM     34  C   UNL A   1      36.313  33.607  28.152  1.00  0.00     0.016 A 
ATOM     35  C   UNL A   1      35.276  32.476  30.034  1.00  0.00     0.016 A 
ATOM     36  C   UNL A   1      37.582  33.322  28.666  1.00  0.00     0.010 A 
ATOM     37  C   UNL A   1      36.545  32.162  30.527  1.00  0.00     0.010 A 
ATOM     38  C   UNL A   1      37.703  32.574  29.843  1.00  0.00    -0.014 A 
BRANCH  38  39
ATOM     39  C   UNL A   1      39.024  32.072  30.289  1.00  0.00     0.031 A 
ATOM     40  C   UNL A   1      39.464  30.711  29.829  1.00  0.00     0.074 A 
ATOM     41  C   UNL A   1      39.808  32.790  31.112  1.00  0.00     0.049 A 
ATOM     42  N   UNL A   1      40.503  30.006  30.194  1.00  0.00    -0.248 NA
ATOM     43  C   UNL A   1      38.609  30.056  28.825  1.00  0.00     0.031 C 
ATOM     44  C   UNL A   1      39.531  34.146  31.582  1.00  0.00     0.029 A 
ATOM     45  N   UNL A   1      40.998  32.459  31.714  1.00  0.00    -0.354 N 
ATOM     46  C   UNL A   1      40.420  28.820  29.478  1.00  0.00     0.074 A 
ATOM     47  C   UNL A   1      39.219  28.891  28.674  1.00  0.00     0.031 C 
ATOM     48  C   UNL A   1      40.516  34.525  32.417  1.00  0.00     0.029 A 
ATOM     49  C   UNL A   1      41.464  33.423  32.575  1.00  0.00     0.049 A 
ATOM     50  H   UNL A   1      41.471  31.613  31.544  1.00  0.00     0.167 HD
ATOM     51  C   UNL A   1      41.266  27.763  29.489  1.00  0.00     0.031 A 
ATOM     52  C   UNL A   1      42.512  33.400  33.423  1.00  0.00     0.031 A 
ATOM     53  C   UNL A   1      42.446  27.680  30.307  1.00  0.00     0.049 A 
ATOM     54  C   UNL A   1      43.374  32.166  33.505  1.00  0.00     0.074 A 
ATOM     55  C   UNL A   1      43.371  26.653  30.385  1.00  0.00     0.029 A 
ATOM     56  N   UNL A   1      42.857  28.658  31.200  1.00  0.00    -0.354 N 
ATOM     57  N   UNL A   1      43.298  31.054  32.814  1.00  0.00    -0.248 NA
ATOM     58  C   UNL A   1      44.468  32.185  34.489  1.00  0.00     0.031 C 
ATOM     59  C   UNL A   1      44.304  26.980  31.373  1.00  0.00     0.029 A 
ATOM     60  C   UNL A   1      44.002  28.243  31.859  1.00  0.00     0.049 A 
ATOM     61  H   UNL A   1      42.402  29.519  31.344  1.00  0.00     0.167 HD
ATOM     62  C   UNL A   1      44.349  30.257  33.256  1.00  0.00     0.074 A 
ATOM     63  C   UNL A   1      45.055  31.018  34.266  1.00  0.00     0.031 C 
ATOM     64  C   UNL A   1      44.698  29.009  32.860  1.00  0.00     0.031 A 
BRANCH  51  65
ATOM     65  C   UNL A   1      40.913  26.588  28.620  1.00  0.00    -0.014 A 
ATOM     66  C   UNL A   1      39.644  25.991  28.677  1.00  0.00     0.009 A 
ATOM     67  C   UNL A   1      41.860  26.087  27.714  1.00  0.00     0.009 A 
ATOM     68  C   UNL A   1      39.344  24.892  27.869  1.00  0.00     0.001 A 
ATOM     69  C   UNL A   1      41.547  25.010  26.884  1.00  0.00     0.001 A 
ATOM     70  C   UNL A   1      40.294  24.406  26.969  1.00  0.00     0.000 A 
ENDBRANCH  51  65
BRANCH  52  71
ATOM     71  C   UNL A   1      42.793  34.570  34.299  1.00  0.00    -0.014 A 
ATOM     72  C   UNL A   1      43.596  35.627  33.844  1.00  0.00     0.009 A 
ATOM     73  C   UNL A   1      42.287  34.620  35.608  1.00  0.00     0.009 A 
ATOM     74  C   UNL A   1      43.906  36.696  34.688  1.00  0.00     0.001 A 
ATOM     75  C   UNL A   1      42.572  35.706  36.440  1.00  0.00     0.001 A 
ATOM     76  C   UNL A   1      43.390  36.738  35.982  1.00  0.00     0.000 A 
ENDBRANCH  52  71
BRANCH  64  77
ATOM     77  C   UNL A   1      45.924  28.395  33.483  1.00  0.00    -0.014 A 
ATOM     78  C   UNL A   1      47.193  28.544  32.903  1.00  0.00     0.009 A 
ATOM     79  C   UNL A   1      45.810  27.709  34.703  1.00  0.00     0.009 A 
ATOM     80  C   UNL A   1      48.319  27.995  33.521  1.00  0.00     0.001 A 
ATOM     81  C   UNL A   1      46.941  27.190  35.335  1.00  0.00     0.001 A 
ATOM     82  C   UNL A   1      48.194  27.326  34.740  1.00  0.00     0.000 A 
ENDBRANCH  64  77
ENDBRANCH  38  39
ENDBRANCH  31  33
ENDBRANCH  30  31
ENDBRANCH  29  30
ENDBRANCH  28  29
ENDBRANCH  27  28
ENDBRANCH  26  27
ENDBRANCH  25  26
ENDBRANCH  24  25
ENDBRANCH   1  24
TORSDOF 23
ENDMDL
