MODEL 1
REMARK VINA RESULT:     -10.4      0.000      0.000
REMARK SMILES C[C@@H](C(=O)OCCOCCOCCOC(=O)c1ccc(-c2c3nc(c(-c4ccccc4)c4ccc([nH]4)c(-c4ccccc4)c4nc(c(-c5ccccc5)c5ccc2[nH]5)C=C4)C=C3)cc1)c1ccc2c3cc(Cl)ccc3n(C(=O)c3cocn3)c2c1
REMARK SMILES IDX 9 1 8 2 7 3 6 4 5 5 3 6 4 7 2 8 1 9 65 10 66 11 85 12 67 13
REMARK SMILES IDX 84 14 68 15 76 16 69 17 75 18 70 19 74 20 71 21 73 22 72 23
REMARK SMILES IDX 77 24 78 25 79 26 80 27 83 28 81 29 82 30 10 31 11 32 12 33
REMARK SMILES IDX 13 34 14 35 15 36 16 37 17 38 18 39 64 40 19 41 63 42 20 43
REMARK SMILES IDX 21 44 22 45 57 46 23 47 62 48 56 49 58 50 24 51 61 52 55 53
REMARK SMILES IDX 54 54 25 56 47 57 32 58 46 59 33 60 36 61 45 62 59 63 34 64
REMARK SMILES IDX 35 65 44 67 60 68 37 69 26 70 27 71 31 72 28 73 30 74 29 75
REMARK SMILES IDX 48 76 49 77 53 78 50 79 52 80 51 81 38 82 39 83 43 84 40 85
REMARK SMILES IDX 42 86 41 87
REMARK H PARENT 58 55 36 66
REMARK Flexibility Score: inf
ROOT
ATOM      1  C   UNL A   1      34.780  21.655  26.433  1.00  0.00     0.188 C 
ENDROOT
BRANCH   1   2
ATOM      2  O   UNL A   1      33.856  20.583  26.348  1.00  0.00    -0.376 OA
BRANCH   2   3
ATOM      3  C   UNL A   1      33.364  20.216  25.062  1.00  0.00     0.202 C 
BRANCH   3   4
ATOM      4  C   UNL A   1      32.131  20.954  24.524  1.00  0.00     0.261 C 
BRANCH   4   5
ATOM      5  O   UNL A   1      32.267  22.382  24.702  1.00  0.00    -0.463 OA
BRANCH   5   6
ATOM      6  C   UNL A   1      31.269  22.975  25.408  1.00  0.00     0.313 C 
ATOM      7  O   UNL A   1      30.891  22.576  26.505  1.00  0.00    -0.252 OA
BRANCH   6   8
ATOM      8  C   UNL A   1      30.657  24.214  24.718  1.00  0.00     0.126 C 
ATOM      9  C   UNL A   1      30.604  24.229  23.186  1.00  0.00     0.025 C 
BRANCH   8  10
ATOM     10  C   UNL A   1      31.327  25.466  25.261  1.00  0.00    -0.032 A 
ATOM     11  C   UNL A   1      32.571  25.413  25.895  1.00  0.00     0.005 A 
ATOM     12  C   UNL A   1      30.756  26.707  24.981  1.00  0.00     0.032 A 
ATOM     13  C   UNL A   1      33.289  26.581  26.185  1.00  0.00     0.011 A 
ATOM     14  C   UNL A   1      31.502  27.860  25.223  1.00  0.00     0.058 A 
ATOM     15  C   UNL A   1      32.754  27.826  25.813  1.00  0.00     0.008 A 
ATOM     16  N   UNL A   1      31.265  29.176  24.799  1.00  0.00    -0.274 N 
ATOM     17  C   UNL A   1      33.129  29.172  26.042  1.00  0.00     0.009 A 
ATOM     18  C   UNL A   1      31.961  29.923  25.789  1.00  0.00     0.057 A 
ATOM     19  C   UNL A   1      34.232  29.749  26.712  1.00  0.00     0.031 A 
ATOM     20  C   UNL A   1      31.752  31.007  26.664  1.00  0.00     0.029 A 
ATOM     21  C   UNL A   1      34.068  30.967  27.361  1.00  0.00     0.041 A 
ATOM     22  C   UNL A   1      32.815  31.545  27.413  1.00  0.00     0.023 A 
ATOM     23  Cl  UNL A   1      35.378  31.664  28.228  1.00  0.00    -0.084 Cl
BRANCH  16  24
ATOM     24  C   UNL A   1      30.630  29.366  23.482  1.00  0.00     0.284 C 
ATOM     25  O   UNL A   1      31.170  28.695  22.602  1.00  0.00    -0.266 OA
BRANCH  24  26
ATOM     26  C   UNL A   1      29.500  30.151  22.952  1.00  0.00     0.167 A 
ATOM     27  C   UNL A   1      28.715  29.908  21.835  1.00  0.00     0.231 A 
ATOM     28  N   UNL A   1      28.790  31.044  23.752  1.00  0.00    -0.211 NA
ATOM     29  O   UNL A   1      27.643  30.752  21.843  1.00  0.00    -0.451 OA
ATOM     30  C   UNL A   1      27.736  31.379  23.041  1.00  0.00     0.308 A 
ENDBRANCH  24  26
ENDBRANCH  16  24
ENDBRANCH   8  10
ENDBRANCH   6   8
ENDBRANCH   5   6
ENDBRANCH   4   5
ENDBRANCH   3   4
ENDBRANCH   2   3
ENDBRANCH   1   2
BRANCH   1  31
ATOM     31  C   UNL A   1      35.968  21.687  25.468  1.00  0.00     0.188 C 
BRANCH  31  32
ATOM     32  O   UNL A   1      36.817  20.571  25.289  1.00  0.00    -0.376 OA
BRANCH  32  33
ATOM     33  C   UNL A   1      38.209  20.786  25.318  1.00  0.00     0.202 C 
BRANCH  33  34
ATOM     34  C   UNL A   1      39.126  19.627  25.730  1.00  0.00     0.261 C 
BRANCH  34  35
ATOM     35  O   UNL A   1      40.468  19.621  25.222  1.00  0.00    -0.460 OA
BRANCH  35  36
ATOM     36  C   UNL A   1      41.467  19.446  26.125  1.00  0.00     0.338 C 
ATOM     37  O   UNL A   1      41.844  18.397  26.621  1.00  0.00    -0.246 OA
BRANCH  36  38
ATOM     38  C   UNL A   1      42.083  20.769  26.401  1.00  0.00     0.060 A 
ATOM     39  C   UNL A   1      42.560  21.083  27.672  1.00  0.00     0.016 A 
ATOM     40  C   UNL A   1      42.192  21.721  25.384  1.00  0.00     0.016 A 
ATOM     41  C   UNL A   1      43.200  22.322  27.902  1.00  0.00     0.010 A 
ATOM     42  C   UNL A   1      42.877  22.934  25.610  1.00  0.00     0.010 A 
ATOM     43  C   UNL A   1      43.430  23.255  26.864  1.00  0.00    -0.014 A 
BRANCH  43  44
ATOM     44  C   UNL A   1      44.008  24.652  27.067  1.00  0.00     0.031 A 
ATOM     45  C   UNL A   1      43.111  25.659  27.693  1.00  0.00     0.074 A 
ATOM     46  C   UNL A   1      45.234  25.113  26.701  1.00  0.00     0.049 A 
ATOM     47  N   UNL A   1      43.354  26.917  27.934  1.00  0.00    -0.248 NA
ATOM     48  C   UNL A   1      41.762  25.202  28.043  1.00  0.00     0.031 C 
ATOM     49  C   UNL A   1      46.242  24.273  26.130  1.00  0.00     0.029 A 
ATOM     50  N   UNL A   1      45.922  26.307  26.824  1.00  0.00    -0.354 N 
ATOM     51  C   UNL A   1      42.158  27.427  28.390  1.00  0.00     0.074 A 
ATOM     52  C   UNL A   1      41.192  26.348  28.370  1.00  0.00     0.031 C 
ATOM     53  C   UNL A   1      47.422  24.879  25.986  1.00  0.00     0.029 A 
ATOM     54  C   UNL A   1      47.263  26.233  26.455  1.00  0.00     0.049 A 
ATOM     55  H   UNL A   1      45.500  27.136  27.145  1.00  0.00     0.167 HD
ATOM     56  C   UNL A   1      41.889  28.687  28.789  1.00  0.00     0.031 A 
ATOM     57  C   UNL A   1      48.296  27.096  26.535  1.00  0.00     0.031 A 
ATOM     58  C   UNL A   1      42.850  29.754  28.831  1.00  0.00     0.049 A 
ATOM     59  C   UNL A   1      48.008  28.446  27.091  1.00  0.00     0.074 A 
ATOM     60  C   UNL A   1      42.657  31.057  29.249  1.00  0.00     0.029 A 
ATOM     61  N   UNL A   1      44.183  29.645  28.460  1.00  0.00    -0.354 N 
ATOM     62  N   UNL A   1      46.865  28.896  27.543  1.00  0.00    -0.248 NA
ATOM     63  C   UNL A   1      49.116  29.404  27.150  1.00  0.00     0.031 C 
ATOM     64  C   UNL A   1      43.868  31.746  29.108  1.00  0.00     0.029 A 
ATOM     65  C   UNL A   1      44.825  30.860  28.641  1.00  0.00     0.049 A 
ATOM     66  H   UNL A   1      44.609  28.826  28.118  1.00  0.00     0.167 HD
ATOM     67  C   UNL A   1      47.106  30.199  27.927  1.00  0.00     0.074 A 
ATOM     68  C   UNL A   1      48.520  30.450  27.707  1.00  0.00     0.031 C 
ATOM     69  C   UNL A   1      46.222  31.108  28.396  1.00  0.00     0.031 A 
BRANCH  56  70
ATOM     70  C   UNL A   1      40.466  28.947  29.164  1.00  0.00    -0.014 A 
ATOM     71  C   UNL A   1      39.525  29.352  28.202  1.00  0.00     0.009 A 
ATOM     72  C   UNL A   1      40.089  28.878  30.511  1.00  0.00     0.009 A 
ATOM     73  C   UNL A   1      38.246  29.740  28.596  1.00  0.00     0.001 A 
ATOM     74  C   UNL A   1      38.797  29.229  30.895  1.00  0.00     0.001 A 
ATOM     75  C   UNL A   1      37.882  29.673  29.940  1.00  0.00     0.000 A 
ENDBRANCH  56  70
BRANCH  57  76
ATOM     76  C   UNL A   1      49.681  26.699  26.129  1.00  0.00    -0.014 A 
ATOM     77  C   UNL A   1      50.463  25.863  26.945  1.00  0.00     0.009 A 
ATOM     78  C   UNL A   1      50.227  27.125  24.905  1.00  0.00     0.009 A 
ATOM     79  C   UNL A   1      51.748  25.469  26.552  1.00  0.00     0.001 A 
ATOM     80  C   UNL A   1      51.501  26.707  24.500  1.00  0.00     0.001 A 
ATOM     81  C   UNL A   1      52.262  25.883  25.325  1.00  0.00     0.000 A 
ENDBRANCH  57  76
BRANCH  69  82
ATOM     82  C   UNL A   1      46.775  32.465  28.692  1.00  0.00    -0.014 A 
ATOM     83  C   UNL A   1      46.709  33.492  27.738  1.00  0.00     0.009 A 
ATOM     84  C   UNL A   1      47.377  32.713  29.933  1.00  0.00     0.009 A 
ATOM     85  C   UNL A   1      47.273  34.738  28.010  1.00  0.00     0.001 A 
ATOM     86  C   UNL A   1      47.916  33.967  30.211  1.00  0.00     0.001 A 
ATOM     87  C   UNL A   1      47.873  34.974  29.247  1.00  0.00     0.000 A 
ENDBRANCH  69  82
ENDBRANCH  43  44
ENDBRANCH  36  38
ENDBRANCH  35  36
ENDBRANCH  34  35
ENDBRANCH  33  34
ENDBRANCH  32  33
ENDBRANCH  31  32
ENDBRANCH   1  31
TORSDOF 20
ENDMDL
MODEL 2
REMARK VINA RESULT:      -9.6      4.474      9.643
REMARK SMILES C[C@@H](C(=O)OCCOCCOCCOC(=O)c1ccc(-c2c3nc(c(-c4ccccc4)c4ccc([nH]4)c(-c4ccccc4)c4nc(c(-c5ccccc5)c5ccc2[nH]5)C=C4)C=C3)cc1)c1ccc2c3cc(Cl)ccc3n(C(=O)c3cocn3)c2c1
REMARK SMILES IDX 9 1 8 2 7 3 6 4 5 5 3 6 4 7 2 8 1 9 65 10 66 11 85 12 67 13
REMARK SMILES IDX 84 14 68 15 76 16 69 17 75 18 70 19 74 20 71 21 73 22 72 23
REMARK SMILES IDX 77 24 78 25 79 26 80 27 83 28 81 29 82 30 10 31 11 32 12 33
REMARK SMILES IDX 13 34 14 35 15 36 16 37 17 38 18 39 64 40 19 41 63 42 20 43
REMARK SMILES IDX 21 44 22 45 57 46 23 47 62 48 56 49 58 50 24 51 61 52 55 53
REMARK SMILES IDX 54 54 25 56 47 57 32 58 46 59 33 60 36 61 45 62 59 63 34 64
REMARK SMILES IDX 35 65 44 67 60 68 37 69 26 70 27 71 31 72 28 73 30 74 29 75
REMARK SMILES IDX 48 76 49 77 53 78 50 79 52 80 51 81 38 82 39 83 43 84 40 85
REMARK SMILES IDX 42 86 41 87
REMARK H PARENT 58 55 36 66
REMARK Flexibility Score: inf
ROOT
ATOM      1  C   UNL A   1      41.933  25.677  28.283  1.00  0.00     0.188 C 
ENDROOT
BRANCH   1   2
ATOM      2  O   UNL A   1      40.979  24.668  28.567  1.00  0.00    -0.376 OA
BRANCH   2   3
ATOM      3  C   UNL A   1      39.746  24.683  27.853  1.00  0.00     0.202 C 
BRANCH   3   4
ATOM      4  C   UNL A   1      39.660  23.881  26.547  1.00  0.00     0.261 C 
BRANCH   4   5
ATOM      5  O   UNL A   1      38.750  22.767  26.686  1.00  0.00    -0.463 OA
BRANCH   5   6
ATOM      6  C   UNL A   1      39.095  21.648  25.995  1.00  0.00     0.313 C 
ATOM      7  O   UNL A   1      40.253  21.375  25.692  1.00  0.00    -0.252 OA
BRANCH   6   8
ATOM      8  C   UNL A   1      37.903  20.735  25.636  1.00  0.00     0.126 C 
ATOM      9  C   UNL A   1      38.188  19.474  24.814  1.00  0.00     0.025 C 
BRANCH   8  10
ATOM     10  C   UNL A   1      36.807  21.575  25.000  1.00  0.00    -0.032 A 
ATOM     11  C   UNL A   1      37.091  22.511  24.002  1.00  0.00     0.005 A 
ATOM     12  C   UNL A   1      35.478  21.292  25.314  1.00  0.00     0.032 A 
ATOM     13  C   UNL A   1      36.066  23.114  23.259  1.00  0.00     0.011 A 
ATOM     14  C   UNL A   1      34.470  21.855  24.532  1.00  0.00     0.058 A 
ATOM     15  C   UNL A   1      34.732  22.753  23.512  1.00  0.00     0.008 A 
ATOM     16  N   UNL A   1      33.105  21.532  24.478  1.00  0.00    -0.274 N 
ATOM     17  C   UNL A   1      33.477  23.224  23.056  1.00  0.00     0.009 A 
ATOM     18  C   UNL A   1      32.545  22.751  24.004  1.00  0.00     0.057 A 
ATOM     19  C   UNL A   1      33.121  24.227  22.126  1.00  0.00     0.031 A 
ATOM     20  C   UNL A   1      31.509  23.652  24.318  1.00  0.00     0.029 A 
ATOM     21  C   UNL A   1      31.943  24.940  22.317  1.00  0.00     0.041 A 
ATOM     22  C   UNL A   1      31.191  24.717  23.453  1.00  0.00     0.023 A 
ATOM     23  Cl  UNL A   1      31.514  26.201  21.231  1.00  0.00    -0.084 Cl
BRANCH  16  24
ATOM     24  C   UNL A   1      32.727  20.123  24.686  1.00  0.00     0.284 C 
ATOM     25  O   UNL A   1      32.063  19.963  25.711  1.00  0.00    -0.266 OA
BRANCH  24  26
ATOM     26  C   UNL A   1      32.934  18.851  23.968  1.00  0.00     0.167 A 
ATOM     27  C   UNL A   1      32.357  18.412  22.787  1.00  0.00     0.231 A 
ATOM     28  N   UNL A   1      34.072  18.073  24.171  1.00  0.00    -0.211 NA
ATOM     29  O   UNL A   1      32.999  17.285  22.361  1.00  0.00    -0.451 OA
ATOM     30  C   UNL A   1      34.039  17.164  23.221  1.00  0.00     0.308 A 
ENDBRANCH  24  26
ENDBRANCH  16  24
ENDBRANCH   8  10
ENDBRANCH   6   8
ENDBRANCH   5   6
ENDBRANCH   4   5
ENDBRANCH   3   4
ENDBRANCH   2   3
ENDBRANCH   1   2
BRANCH   1  31
ATOM     31  C   UNL A   1      41.868  26.997  29.057  1.00  0.00     0.188 C 
BRANCH  31  32
ATOM     32  O   UNL A   1      41.424  28.196  28.454  1.00  0.00    -0.376 OA
BRANCH  32  33
ATOM     33  C   UNL A   1      40.511  28.102  27.387  1.00  0.00     0.202 C 
BRANCH  33  34
ATOM     34  C   UNL A   1      40.850  28.797  26.062  1.00  0.00     0.261 C 
BRANCH  34  35
ATOM     35  O   UNL A   1      42.183  28.653  25.551  1.00  0.00    -0.460 OA
BRANCH  35  36
ATOM     36  C   UNL A   1      42.601  27.393  25.265  1.00  0.00     0.338 C 
ATOM     37  O   UNL A   1      41.926  26.462  24.858  1.00  0.00    -0.246 OA
BRANCH  36  38
ATOM     38  C   UNL A   1      44.066  27.324  25.494  1.00  0.00     0.060 A 
ATOM     39  C   UNL A   1      44.762  28.422  25.996  1.00  0.00     0.016 A 
ATOM     40  C   UNL A   1      44.770  26.152  25.207  1.00  0.00     0.016 A 
ATOM     41  C   UNL A   1      46.146  28.319  26.267  1.00  0.00     0.010 A 
ATOM     42  C   UNL A   1      46.140  26.043  25.527  1.00  0.00     0.010 A 
ATOM     43  C   UNL A   1      46.859  27.110  26.099  1.00  0.00    -0.014 A 
BRANCH  43  44
ATOM     44  C   UNL A   1      48.369  26.963  26.262  1.00  0.00     0.031 A 
ATOM     45  C   UNL A   1      49.194  27.193  25.047  1.00  0.00     0.074 A 
ATOM     46  C   UNL A   1      49.060  26.600  27.375  1.00  0.00     0.049 A 
ATOM     47  N   UNL A   1      50.488  27.090  24.919  1.00  0.00    -0.248 NA
ATOM     48  C   UNL A   1      48.467  27.528  23.818  1.00  0.00     0.031 C 
ATOM     49  C   UNL A   1      48.434  26.387  28.644  1.00  0.00     0.029 A 
ATOM     50  N   UNL A   1      50.393  26.445  27.707  1.00  0.00    -0.354 N 
ATOM     51  C   UNL A   1      50.726  27.268  23.574  1.00  0.00     0.074 A 
ATOM     52  C   UNL A   1      49.444  27.462  22.930  1.00  0.00     0.031 C 
ATOM     53  C   UNL A   1      49.301  26.190  29.639  1.00  0.00     0.029 A 
ATOM     54  C   UNL A   1      50.623  26.241  29.066  1.00  0.00     0.049 A 
ATOM     55  H   UNL A   1      51.118  26.478  27.041  1.00  0.00     0.167 HD
ATOM     56  C   UNL A   1      51.912  27.268  22.931  1.00  0.00     0.031 A 
ATOM     57  C   UNL A   1      51.740  26.171  29.818  1.00  0.00     0.031 A 
ATOM     58  C   UNL A   1      53.188  27.098  23.570  1.00  0.00     0.049 A 
ATOM     59  C   UNL A   1      53.042  26.293  29.108  1.00  0.00     0.074 A 
ATOM     60  C   UNL A   1      54.440  27.110  22.986  1.00  0.00     0.029 A 
ATOM     61  N   UNL A   1      53.381  26.900  24.930  1.00  0.00    -0.354 N 
ATOM     62  N   UNL A   1      53.238  26.490  27.830  1.00  0.00    -0.248 NA
ATOM     63  C   UNL A   1      54.264  26.184  29.912  1.00  0.00     0.031 C 
ATOM     64  C   UNL A   1      55.393  26.896  23.989  1.00  0.00     0.029 A 
ATOM     65  C   UNL A   1      54.735  26.791  25.204  1.00  0.00     0.049 A 
ATOM     66  H   UNL A   1      52.663  26.845  25.601  1.00  0.00     0.167 HD
ATOM     67  C   UNL A   1      54.608  26.511  27.665  1.00  0.00     0.074 A 
ATOM     68  C   UNL A   1      55.195  26.363  28.985  1.00  0.00     0.031 C 
ATOM     69  C   UNL A   1      55.308  26.618  26.513  1.00  0.00     0.031 A 
BRANCH  56  70
ATOM     70  C   UNL A   1      51.832  27.418  21.447  1.00  0.00    -0.014 A 
ATOM     71  C   UNL A   1      51.759  28.686  20.849  1.00  0.00     0.009 A 
ATOM     72  C   UNL A   1      51.731  26.271  20.648  1.00  0.00     0.009 A 
ATOM     73  C   UNL A   1      51.528  28.802  19.479  1.00  0.00     0.001 A 
ATOM     74  C   UNL A   1      51.539  26.391  19.273  1.00  0.00     0.001 A 
ATOM     75  C   UNL A   1      51.423  27.655  18.693  1.00  0.00     0.000 A 
ENDBRANCH  56  70
BRANCH  57  76
ATOM     76  C   UNL A   1      51.674  26.026  31.307  1.00  0.00    -0.014 A 
ATOM     77  C   UNL A   1      51.608  24.757  31.908  1.00  0.00     0.009 A 
ATOM     78  C   UNL A   1      51.707  27.152  32.147  1.00  0.00     0.009 A 
ATOM     79  C   UNL A   1      51.575  24.619  33.301  1.00  0.00     0.001 A 
ATOM     80  C   UNL A   1      51.703  27.013  33.540  1.00  0.00     0.001 A 
ATOM     81  C   UNL A   1      51.632  25.747  34.116  1.00  0.00     0.000 A 
ENDBRANCH  57  76
BRANCH  69  82
ATOM     82  C   UNL A   1      56.797  26.570  26.647  1.00  0.00    -0.014 A 
ATOM     83  C   UNL A   1      57.485  25.348  26.591  1.00  0.00     0.009 A 
ATOM     84  C   UNL A   1      57.515  27.758  26.842  1.00  0.00     0.009 A 
ATOM     85  C   UNL A   1      58.868  25.314  26.767  1.00  0.00     0.001 A 
ATOM     86  C   UNL A   1      58.899  27.722  26.990  1.00  0.00     0.001 A 
ATOM     87  C   UNL A   1      59.573  26.501  26.963  1.00  0.00     0.000 A 
ENDBRANCH  69  82
ENDBRANCH  43  44
ENDBRANCH  36  38
ENDBRANCH  35  36
ENDBRANCH  34  35
ENDBRANCH  33  34
ENDBRANCH  32  33
ENDBRANCH  31  32
ENDBRANCH   1  31
TORSDOF 20
ENDMDL
MODEL 3
REMARK VINA RESULT:      -9.6      5.104      7.574
REMARK SMILES C[C@@H](C(=O)OCCOCCOCCOC(=O)c1ccc(-c2c3nc(c(-c4ccccc4)c4ccc([nH]4)c(-c4ccccc4)c4nc(c(-c5ccccc5)c5ccc2[nH]5)C=C4)C=C3)cc1)c1ccc2c3cc(Cl)ccc3n(C(=O)c3cocn3)c2c1
REMARK SMILES IDX 9 1 8 2 7 3 6 4 5 5 3 6 4 7 2 8 1 9 65 10 66 11 85 12 67 13
REMARK SMILES IDX 84 14 68 15 76 16 69 17 75 18 70 19 74 20 71 21 73 22 72 23
REMARK SMILES IDX 77 24 78 25 79 26 80 27 83 28 81 29 82 30 10 31 11 32 12 33
REMARK SMILES IDX 13 34 14 35 15 36 16 37 17 38 18 39 64 40 19 41 63 42 20 43
REMARK SMILES IDX 21 44 22 45 57 46 23 47 62 48 56 49 58 50 24 51 61 52 55 53
REMARK SMILES IDX 54 54 25 56 47 57 32 58 46 59 33 60 36 61 45 62 59 63 34 64
REMARK SMILES IDX 35 65 44 67 60 68 37 69 26 70 27 71 31 72 28 73 30 74 29 75
REMARK SMILES IDX 48 76 49 77 53 78 50 79 52 80 51 81 38 82 39 83 43 84 40 85
REMARK SMILES IDX 42 86 41 87
REMARK H PARENT 58 55 36 66
REMARK Flexibility Score: inf
ROOT
ATOM      1  C   UNL A   1      34.340  21.385  27.057  1.00  0.00     0.188 C 
ENDROOT
BRANCH   1   2
ATOM      2  O   UNL A   1      33.255  20.592  26.608  1.00  0.00    -0.376 OA
BRANCH   2   3
ATOM      3  C   UNL A   1      33.363  19.956  25.337  1.00  0.00     0.202 C 
BRANCH   3   4
ATOM      4  C   UNL A   1      32.545  20.531  24.172  1.00  0.00     0.261 C 
BRANCH   4   5
ATOM      5  O   UNL A   1      32.791  21.946  24.019  1.00  0.00    -0.463 OA
BRANCH   5   6
ATOM      6  C   UNL A   1      32.963  22.369  22.739  1.00  0.00     0.313 C 
ATOM      7  O   UNL A   1      32.413  21.840  21.776  1.00  0.00    -0.252 OA
BRANCH   6   8
ATOM      8  C   UNL A   1      33.898  23.590  22.597  1.00  0.00     0.126 C 
ATOM      9  C   UNL A   1      35.077  23.706  23.568  1.00  0.00     0.025 C 
BRANCH   8  10
ATOM     10  C   UNL A   1      33.059  24.858  22.588  1.00  0.00    -0.032 A 
ATOM     11  C   UNL A   1      32.401  25.292  21.435  1.00  0.00     0.005 A 
ATOM     12  C   UNL A   1      32.823  25.513  23.797  1.00  0.00     0.032 A 
ATOM     13  C   UNL A   1      31.451  26.321  21.484  1.00  0.00     0.011 A 
ATOM     14  C   UNL A   1      31.836  26.497  23.845  1.00  0.00     0.058 A 
ATOM     15  C   UNL A   1      31.143  26.912  22.721  1.00  0.00     0.008 A 
ATOM     16  N   UNL A   1      31.242  27.104  24.962  1.00  0.00    -0.274 N 
ATOM     17  C   UNL A   1      30.352  28.017  23.119  1.00  0.00     0.009 A 
ATOM     18  C   UNL A   1      30.808  28.343  24.414  1.00  0.00     0.057 A 
ATOM     19  C   UNL A   1      29.537  28.912  22.390  1.00  0.00     0.031 A 
ATOM     20  C   UNL A   1      30.875  29.723  24.690  1.00  0.00     0.029 A 
ATOM     21  C   UNL A   1      29.408  30.223  22.833  1.00  0.00     0.041 A 
ATOM     22  C   UNL A   1      30.144  30.648  23.921  1.00  0.00     0.023 A 
ATOM     23  Cl  UNL A   1      28.466  31.347  21.935  1.00  0.00    -0.084 Cl
BRANCH  16  24
ATOM     24  C   UNL A   1      31.063  26.281  26.172  1.00  0.00     0.284 C 
ATOM     25  O   UNL A   1      31.141  26.947  27.206  1.00  0.00    -0.266 OA
BRANCH  24  26
ATOM     26  C   UNL A   1      30.801  24.859  26.459  1.00  0.00     0.167 A 
ATOM     27  C   UNL A   1      31.686  23.875  26.871  1.00  0.00     0.231 A 
ATOM     28  N   UNL A   1      29.521  24.395  26.756  1.00  0.00    -0.211 NA
ATOM     29  O   UNL A   1      30.987  22.762  27.240  1.00  0.00    -0.451 OA
ATOM     30  C   UNL A   1      29.693  23.162  27.179  1.00  0.00     0.308 A 
ENDBRANCH  24  26
ENDBRANCH  16  24
ENDBRANCH   8  10
ENDBRANCH   6   8
ENDBRANCH   5   6
ENDBRANCH   4   5
ENDBRANCH   3   4
ENDBRANCH   2   3
ENDBRANCH   1   2
BRANCH   1  31
ATOM     31  C   UNL A   1      35.533  21.607  26.122  1.00  0.00     0.188 C 
BRANCH  31  32
ATOM     32  O   UNL A   1      36.625  22.427  26.485  1.00  0.00    -0.376 OA
BRANCH  32  33
ATOM     33  C   UNL A   1      37.858  22.213  25.840  1.00  0.00     0.202 C 
BRANCH  33  34
ATOM     34  C   UNL A   1      38.689  23.430  25.413  1.00  0.00     0.261 C 
BRANCH  34  35
ATOM     35  O   UNL A   1      38.906  24.466  26.382  1.00  0.00    -0.460 OA
BRANCH  35  36
ATOM     36  C   UNL A   1      40.191  24.849  26.595  1.00  0.00     0.338 C 
ATOM     37  O   UNL A   1      41.184  24.490  25.985  1.00  0.00    -0.246 OA
BRANCH  36  38
ATOM     38  C   UNL A   1      40.204  25.841  27.701  1.00  0.00     0.060 A 
ATOM     39  C   UNL A   1      39.204  25.840  28.672  1.00  0.00     0.016 A 
ATOM     40  C   UNL A   1      41.224  26.792  27.783  1.00  0.00     0.016 A 
ATOM     41  C   UNL A   1      39.266  26.750  29.752  1.00  0.00     0.010 A 
ATOM     42  C   UNL A   1      41.305  27.662  28.891  1.00  0.00     0.010 A 
ATOM     43  C   UNL A   1      40.349  27.643  29.924  1.00  0.00    -0.014 A 
BRANCH  43  44
ATOM     44  C   UNL A   1      40.419  28.724  30.998  1.00  0.00     0.031 A 
ATOM     45  C   UNL A   1      39.371  29.777  30.952  1.00  0.00     0.074 A 
ATOM     46  C   UNL A   1      41.354  28.877  31.973  1.00  0.00     0.049 A 
ATOM     47  N   UNL A   1      39.239  30.819  31.724  1.00  0.00    -0.248 NA
ATOM     48  C   UNL A   1      38.384  29.668  29.871  1.00  0.00     0.031 C 
ATOM     49  C   UNL A   1      42.407  27.933  32.196  1.00  0.00     0.029 A 
ATOM     50  N   UNL A   1      41.559  29.755  33.022  1.00  0.00    -0.354 N 
ATOM     51  C   UNL A   1      38.200  31.538  31.175  1.00  0.00     0.074 A 
ATOM     52  C   UNL A   1      37.756  30.824  29.996  1.00  0.00     0.031 C 
ATOM     53  C   UNL A   1      43.123  28.183  33.294  1.00  0.00     0.029 A 
ATOM     54  C   UNL A   1      42.581  29.378  33.890  1.00  0.00     0.049 A 
ATOM     55  H   UNL A   1      41.028  30.575  33.144  1.00  0.00     0.167 HD
ATOM     56  C   UNL A   1      37.663  32.694  31.616  1.00  0.00     0.031 A 
ATOM     57  C   UNL A   1      43.018  29.859  35.072  1.00  0.00     0.031 A 
ATOM     58  C   UNL A   1      38.086  33.394  32.797  1.00  0.00     0.049 A 
ATOM     59  C   UNL A   1      42.335  31.069  35.605  1.00  0.00     0.074 A 
ATOM     60  C   UNL A   1      37.573  34.564  33.324  1.00  0.00     0.029 A 
ATOM     61  N   UNL A   1      39.108  32.987  33.645  1.00  0.00    -0.354 N 
ATOM     62  N   UNL A   1      41.330  31.717  35.073  1.00  0.00    -0.248 NA
ATOM     63  C   UNL A   1      42.825  31.620  36.872  1.00  0.00     0.031 C 
ATOM     64  C   UNL A   1      38.299  34.880  34.477  1.00  0.00     0.029 A 
ATOM     65  C   UNL A   1      39.237  33.885  34.692  1.00  0.00     0.049 A 
ATOM     66  H   UNL A   1      39.658  32.181  33.519  1.00  0.00     0.167 HD
ATOM     67  C   UNL A   1      41.074  32.767  35.930  1.00  0.00     0.074 A 
ATOM     68  C   UNL A   1      41.993  32.637  37.047  1.00  0.00     0.031 C 
ATOM     69  C   UNL A   1      40.170  33.763  35.783  1.00  0.00     0.031 A 
BRANCH  56  70
ATOM     70  C   UNL A   1      36.586  33.266  30.753  1.00  0.00    -0.014 A 
ATOM     71  C   UNL A   1      35.396  33.761  31.312  1.00  0.00     0.009 A 
ATOM     72  C   UNL A   1      36.725  33.217  29.360  1.00  0.00     0.009 A 
ATOM     73  C   UNL A   1      34.341  34.145  30.485  1.00  0.00     0.001 A 
ATOM     74  C   UNL A   1      35.683  33.637  28.537  1.00  0.00     0.001 A 
ATOM     75  C   UNL A   1      34.488  34.086  29.100  1.00  0.00     0.000 A 
ENDBRANCH  56  70
BRANCH  57  76
ATOM     76  C   UNL A   1      44.110  29.178  35.839  1.00  0.00    -0.014 A 
ATOM     77  C   UNL A   1      45.453  29.559  35.677  1.00  0.00     0.009 A 
ATOM     78  C   UNL A   1      43.819  28.161  36.764  1.00  0.00     0.009 A 
ATOM     79  C   UNL A   1      46.471  28.943  36.414  1.00  0.00     0.001 A 
ATOM     80  C   UNL A   1      44.835  27.565  37.522  1.00  0.00     0.001 A 
ATOM     81  C   UNL A   1      46.160  27.952  37.343  1.00  0.00     0.000 A 
ENDBRANCH  57  76
BRANCH  69  82
ATOM     82  C   UNL A   1      40.150  34.792  36.867  1.00  0.00    -0.014 A 
ATOM     83  C   UNL A   1      41.128  35.796  36.923  1.00  0.00     0.009 A 
ATOM     84  C   UNL A   1      39.147  34.750  37.845  1.00  0.00     0.009 A 
ATOM     85  C   UNL A   1      41.125  36.720  37.968  1.00  0.00     0.001 A 
ATOM     86  C   UNL A   1      39.132  35.690  38.873  1.00  0.00     0.001 A 
ATOM     87  C   UNL A   1      40.125  36.667  38.939  1.00  0.00     0.000 A 
ENDBRANCH  69  82
ENDBRANCH  43  44
ENDBRANCH  36  38
ENDBRANCH  35  36
ENDBRANCH  34  35
ENDBRANCH  33  34
ENDBRANCH  32  33
ENDBRANCH  31  32
ENDBRANCH   1  31
TORSDOF 20
ENDMDL
