MODEL 1
REMARK VINA RESULT:     -11.9      0.000      0.000
REMARK SMILES Cc1ccc(C)c(S(=O)(=O)N[C@H](CC2=c3ccccc3=NC2)C(=O)OCCOCCOCCOC(=O)c2ccc(-c3c4nc(c(-c5ccccc5)c5ccc([nH]5)c(-c5ccccc5)c5nc(c(-c6ccccc6)c6ccc3[nH]6)C=C5)C=C4)cc2)c1
REMARK SMILES IDX 29 1 28 2 27 3 26 4 25 5 23 6 24 7 12 8 11 9 8 11 9 12 10 13
REMARK SMILES IDX 7 14 1 15 2 16 3 17 85 18 4 19 5 20 6 21 13 22 14 23 15 24
REMARK SMILES IDX 22 25 16 26 20 27 21 28 17 29 19 30 18 31 30 32 31 33 32 34
REMARK SMILES IDX 33 35 34 36 35 37 36 38 37 39 38 40 84 41 39 42 83 43 40 44
REMARK SMILES IDX 41 45 42 46 77 47 43 48 82 49 76 50 78 51 44 52 81 53 75 54
REMARK SMILES IDX 74 55 45 57 67 58 52 59 66 60 53 61 56 62 65 63 79 64 54 65
REMARK SMILES IDX 55 66 64 68 80 69 57 70 46 71 47 72 51 73 48 74 50 75 49 76
REMARK SMILES IDX 68 77 69 78 73 79 70 80 72 81 71 82 58 83 59 84 63 85 60 86
REMARK SMILES IDX 62 87 61 88
REMARK H PARENT 11 10 78 56 56 67
REMARK Flexibility Score: inf
ROOT
ATOM      1  C   UNL A   1      41.206  21.419  27.282  1.00  0.00     0.188 C 
ENDROOT
BRANCH   1   2
ATOM      2  O   UNL A   1      39.806  21.652  27.322  1.00  0.00    -0.376 OA
BRANCH   2   3
ATOM      3  C   UNL A   1      39.226  22.237  26.163  1.00  0.00     0.202 C 
BRANCH   3   4
ATOM      4  C   UNL A   1      37.822  21.760  25.664  1.00  0.00     0.261 C 
BRANCH   4   5
ATOM      5  O   UNL A   1      37.492  22.027  24.245  1.00  0.00    -0.462 OA
BRANCH   5   6
ATOM      6  C   UNL A   1      36.500  22.883  23.787  1.00  0.00     0.324 C 
ATOM      7  O   UNL A   1      36.395  23.062  22.574  1.00  0.00    -0.250 OA
BRANCH   6   8
ATOM      8  C   UNL A   1      35.250  23.282  24.811  1.00  0.00     0.183 C 
BRANCH   8   9
ATOM      9  N   UNL A   1      33.897  22.689  24.429  1.00  0.00    -0.197 NA
ATOM     10  H   UNL A   1      33.302  23.497  24.248  1.00  0.00     0.142 HD
BRANCH   9  11
ATOM     11  S   UNL A   1      32.943  21.648  25.332  1.00  0.00     0.241 S 
ATOM     12  O   UNL A   1      31.629  22.237  25.398  1.00  0.00    -0.207 OA
ATOM     13  O   UNL A   1      33.707  21.394  26.538  1.00  0.00    -0.207 OA
BRANCH  11  14
ATOM     14  C   UNL A   1      32.771  20.022  24.563  1.00  0.00     0.085 A 
ATOM     15  C   UNL A   1      33.215  16.275  25.328  1.00  0.00     0.044 C 
ATOM     16  C   UNL A   1      32.939  17.578  24.629  1.00  0.00    -0.050 A 
ATOM     17  C   UNL A   1      32.620  17.520  23.269  1.00  0.00     0.004 A 
ATOM     18  C   UNL A   1      32.995  18.833  25.280  1.00  0.00     0.025 A 
ATOM     19  C   UNL A   1      32.326  18.683  22.571  1.00  0.00     0.005 A 
ATOM     20  C   UNL A   1      32.372  19.940  23.203  1.00  0.00    -0.031 A 
ATOM     21  C   UNL A   1      31.955  21.106  22.345  1.00  0.00     0.046 C 
ENDBRANCH  11  14
ENDBRANCH   9  11
ENDBRANCH   8   9
BRANCH   8  22
ATOM     22  C   UNL A   1      34.700  24.848  25.657  1.00  0.00     0.065 C 
BRANCH  22  23
ATOM     23  C   UNL A   1      33.472  26.650  25.363  1.00  0.00    -0.037 C 
ATOM     24  C   UNL A   1      32.476  27.116  24.374  1.00  0.00     0.001 A 
ATOM     25  C   UNL A   1      33.896  28.299  25.769  1.00  0.00     0.174 C 
ATOM     26  C   UNL A   1      31.738  26.558  23.180  1.00  0.00     0.010 A 
ATOM     27  C   UNL A   1      32.151  28.547  24.551  1.00  0.00     0.065 A 
ATOM     28  N   UNL A   1      32.932  29.270  25.258  1.00  0.00    -0.280 NA
ATOM     29  C   UNL A   1      30.566  27.060  22.763  1.00  0.00     0.001 A 
ATOM     30  C   UNL A   1      30.875  29.083  24.019  1.00  0.00     0.028 A 
ATOM     31  C   UNL A   1      30.082  28.303  23.276  1.00  0.00     0.002 A 
ENDBRANCH  22  23
ENDBRANCH   8  22
ENDBRANCH   6   8
ENDBRANCH   5   6
ENDBRANCH   4   5
ENDBRANCH   3   4
ENDBRANCH   2   3
ENDBRANCH   1   2
BRANCH   1  32
ATOM     32  C   UNL A   1      41.643  20.322  26.321  1.00  0.00     0.188 C 
BRANCH  32  33
ATOM     33  O   UNL A   1      42.860  19.722  26.671  1.00  0.00    -0.376 OA
BRANCH  33  34
ATOM     34  C   UNL A   1      43.595  19.538  25.456  1.00  0.00     0.202 C 
BRANCH  34  35
ATOM     35  C   UNL A   1      44.300  20.862  24.952  1.00  0.00     0.261 C 
BRANCH  35  36
ATOM     36  O   UNL A   1      44.199  22.376  25.592  1.00  0.00    -0.460 OA
BRANCH  36  37
ATOM     37  C   UNL A   1      44.320  23.627  26.209  1.00  0.00     0.338 C 
ATOM     38  O   UNL A   1      45.089  24.453  25.725  1.00  0.00    -0.246 OA
BRANCH  37  39
ATOM     39  C   UNL A   1      43.599  24.051  27.603  1.00  0.00     0.060 A 
ATOM     40  C   UNL A   1      44.130  24.697  29.291  1.00  0.00     0.016 A 
ATOM     41  C   UNL A   1      42.315  24.864  26.824  1.00  0.00     0.016 A 
ATOM     42  C   UNL A   1      43.381  26.295  29.911  1.00  0.00     0.010 A 
ATOM     43  C   UNL A   1      41.638  26.381  27.434  1.00  0.00     0.010 A 
ATOM     44  C   UNL A   1      42.097  27.140  28.865  1.00  0.00    -0.014 A 
BRANCH  44  45
ATOM     45  C   UNL A   1      41.183  28.511  28.815  1.00  0.00     0.031 A 
ATOM     46  C   UNL A   1      42.198  29.397  28.334  1.00  0.00     0.074 A 
ATOM     47  C   UNL A   1      39.931  29.036  29.275  1.00  0.00     0.049 A 
ATOM     48  N   UNL A   1      43.115  29.810  29.143  1.00  0.00    -0.248 NA
ATOM     49  C   UNL A   1      42.542  29.389  26.911  1.00  0.00     0.031 C 
ATOM     50  C   UNL A   1      38.687  28.341  29.727  1.00  0.00     0.029 A 
ATOM     51  N   UNL A   1      39.460  30.397  29.484  1.00  0.00    -0.354 N 
ATOM     52  C   UNL A   1      43.909  30.543  28.306  1.00  0.00     0.074 A 
ATOM     53  C   UNL A   1      43.755  29.947  26.996  1.00  0.00     0.031 C 
ATOM     54  C   UNL A   1      37.638  29.187  29.958  1.00  0.00     0.029 A 
ATOM     55  C   UNL A   1      38.039  30.567  29.776  1.00  0.00     0.049 A 
ATOM     56  H   UNL A   1      40.072  31.167  29.431  1.00  0.00     0.167 HD
ATOM     57  C   UNL A   1      44.069  31.846  28.639  1.00  0.00     0.031 A 
ATOM     58  C   UNL A   1      37.242  31.693  30.010  1.00  0.00     0.031 A 
ATOM     59  C   UNL A   1      43.783  32.088  30.034  1.00  0.00     0.049 A 
ATOM     60  C   UNL A   1      38.105  32.776  30.487  1.00  0.00     0.074 A 
ATOM     61  C   UNL A   1      44.346  31.679  31.228  1.00  0.00     0.029 A 
ATOM     62  N   UNL A   1      42.477  32.407  30.311  1.00  0.00    -0.354 N 
ATOM     63  N   UNL A   1      38.595  32.818  31.687  1.00  0.00    -0.248 NA
ATOM     64  C   UNL A   1      38.757  33.580  29.473  1.00  0.00     0.031 C 
ATOM     65  C   UNL A   1      43.330  31.749  32.217  1.00  0.00     0.029 A 
ATOM     66  C   UNL A   1      42.204  32.332  31.652  1.00  0.00     0.049 A 
ATOM     67  H   UNL A   1      41.816  32.661  29.628  1.00  0.00     0.167 HD
ATOM     68  C   UNL A   1      39.903  33.170  31.443  1.00  0.00     0.074 A 
ATOM     69  C   UNL A   1      39.926  33.734  30.092  1.00  0.00     0.031 C 
ATOM     70  C   UNL A   1      40.894  32.615  32.187  1.00  0.00     0.031 A 
BRANCH  57  71
ATOM     71  C   UNL A   1      43.986  32.881  27.570  1.00  0.00    -0.014 A 
ATOM     72  C   UNL A   1      43.399  34.151  27.774  1.00  0.00     0.009 A 
ATOM     73  C   UNL A   1      44.588  32.640  26.341  1.00  0.00     0.009 A 
ATOM     74  C   UNL A   1      43.244  35.068  26.744  1.00  0.00     0.001 A 
ATOM     75  C   UNL A   1      44.490  33.585  25.317  1.00  0.00     0.001 A 
ATOM     76  C   UNL A   1      43.785  34.776  25.504  1.00  0.00     0.000 A 
ENDBRANCH  57  71
BRANCH  58  77
ATOM     77  C   UNL A   1      35.811  32.128  29.660  1.00  0.00    -0.014 A 
ATOM     78  C   UNL A   1      35.233  31.657  28.477  1.00  0.00     0.009 A 
ATOM     79  C   UNL A   1      35.174  33.280  30.232  1.00  0.00     0.009 A 
ATOM     80  C   UNL A   1      34.190  32.351  27.826  1.00  0.00     0.001 A 
ATOM     81  C   UNL A   1      34.116  33.968  29.585  1.00  0.00     0.001 A 
ATOM     82  C   UNL A   1      33.652  33.522  28.355  1.00  0.00     0.000 A 
ENDBRANCH  58  77
BRANCH  70  83
ATOM     83  C   UNL A   1      40.610  32.227  33.614  1.00  0.00    -0.014 A 
ATOM     84  C   UNL A   1      41.120  33.098  34.592  1.00  0.00     0.009 A 
ATOM     85  C   UNL A   1      40.012  31.030  34.035  1.00  0.00     0.009 A 
ATOM     86  C   UNL A   1      41.110  32.757  35.943  1.00  0.00     0.001 A 
ATOM     87  C   UNL A   1      39.982  30.697  35.399  1.00  0.00     0.001 A 
ATOM     88  C   UNL A   1      40.551  31.550  36.346  1.00  0.00     0.000 A 
ENDBRANCH  70  83
ENDBRANCH  44  45
ENDBRANCH  37  39
ENDBRANCH  36  37
ENDBRANCH  35  36
ENDBRANCH  34  35
ENDBRANCH  33  34
ENDBRANCH  32  33
ENDBRANCH   1  32
TORSDOF 22
ENDMDL
MODEL 2
REMARK VINA RESULT:     -11.8      1.626      2.258
REMARK SMILES Cc1ccc(C)c(S(=O)(=O)N[C@H](CC2=c3ccccc3=NC2)C(=O)OCCOCCOCCOC(=O)c2ccc(-c3c4nc(c(-c5ccccc5)c5ccc([nH]5)c(-c5ccccc5)c5nc(c(-c6ccccc6)c6ccc3[nH]6)C=C5)C=C4)cc2)c1
REMARK SMILES IDX 29 1 28 2 27 3 26 4 25 5 23 6 24 7 12 8 11 9 8 11 9 12 10 13
REMARK SMILES IDX 7 14 1 15 2 16 3 17 85 18 4 19 5 20 6 21 13 22 14 23 15 24
REMARK SMILES IDX 22 25 16 26 20 27 21 28 17 29 19 30 18 31 30 32 31 33 32 34
REMARK SMILES IDX 33 35 34 36 35 37 36 38 37 39 38 40 84 41 39 42 83 43 40 44
REMARK SMILES IDX 41 45 42 46 77 47 43 48 82 49 76 50 78 51 44 52 81 53 75 54
REMARK SMILES IDX 74 55 45 57 67 58 52 59 66 60 53 61 56 62 65 63 79 64 54 65
REMARK SMILES IDX 55 66 64 68 80 69 57 70 46 71 47 72 51 73 48 74 50 75 49 76
REMARK SMILES IDX 68 77 69 78 73 79 70 80 72 81 71 82 58 83 59 84 63 85 60 86
REMARK SMILES IDX 62 87 61 88
REMARK H PARENT 11 10 78 56 56 67
REMARK Flexibility Score: inf
ROOT
ATOM      1  C   UNL A   1      41.288  20.820  27.145  1.00  0.00     0.188 C 
ENDROOT
BRANCH   1   2
ATOM      2  O   UNL A   1      39.945  21.279  27.147  1.00  0.00    -0.376 OA
BRANCH   2   3
ATOM      3  C   UNL A   1      39.486  21.908  25.957  1.00  0.00     0.202 C 
BRANCH   3   4
ATOM      4  C   UNL A   1      37.961  22.202  25.765  1.00  0.00     0.261 C 
BRANCH   4   5
ATOM      5  O   UNL A   1      37.445  22.173  24.377  1.00  0.00    -0.462 OA
BRANCH   5   6
ATOM      6  C   UNL A   1      36.434  22.975  23.867  1.00  0.00     0.324 C 
ATOM      7  O   UNL A   1      36.400  23.175  22.653  1.00  0.00    -0.250 OA
BRANCH   6   8
ATOM      8  C   UNL A   1      35.093  23.270  24.809  1.00  0.00     0.183 C 
BRANCH   8   9
ATOM      9  N   UNL A   1      33.859  22.455  24.436  1.00  0.00    -0.197 NA
ATOM     10  H   UNL A   1      33.155  23.150  24.189  1.00  0.00     0.142 HD
BRANCH   9  11
ATOM     11  S   UNL A   1      33.043  21.338  25.384  1.00  0.00     0.241 S 
ATOM     12  O   UNL A   1      31.709  21.849  25.577  1.00  0.00    -0.207 OA
ATOM     13  O   UNL A   1      33.920  21.098  26.514  1.00  0.00    -0.207 OA
BRANCH  11  14
ATOM     14  C   UNL A   1      32.896  19.725  24.583  1.00  0.00     0.085 A 
ATOM     15  C   UNL A   1      33.500  15.979  25.240  1.00  0.00     0.044 C 
ATOM     16  C   UNL A   1      33.152  17.287  24.584  1.00  0.00    -0.050 A 
ATOM     17  C   UNL A   1      32.780  17.248  23.237  1.00  0.00     0.004 A 
ATOM     18  C   UNL A   1      33.190  18.528  25.262  1.00  0.00     0.025 A 
ATOM     19  C   UNL A   1      32.419  18.417  22.579  1.00  0.00     0.005 A 
ATOM     20  C   UNL A   1      32.446  19.659  23.239  1.00  0.00    -0.031 A 
ATOM     21  C   UNL A   1      31.956  20.829  22.426  1.00  0.00     0.046 C 
ENDBRANCH  11  14
ENDBRANCH   9  11
ENDBRANCH   8   9
BRANCH   8  22
ATOM     22  C   UNL A   1      34.286  24.803  25.493  1.00  0.00     0.065 C 
BRANCH  22  23
ATOM     23  C   UNL A   1      33.148  26.588  24.897  1.00  0.00    -0.037 C 
ATOM     24  C   UNL A   1      32.538  27.748  25.585  1.00  0.00     0.001 A 
ATOM     25  C   UNL A   1      32.009  26.727  23.575  1.00  0.00     0.174 C 
ATOM     26  C   UNL A   1      32.499  28.328  26.979  1.00  0.00     0.010 A 
ATOM     27  C   UNL A   1      31.666  28.529  24.682  1.00  0.00     0.065 A 
ATOM     28  N   UNL A   1      31.286  27.996  23.585  1.00  0.00    -0.280 NA
ATOM     29  C   UNL A   1      32.249  29.626  27.208  1.00  0.00     0.001 A 
ATOM     30  C   UNL A   1      31.357  29.943  25.000  1.00  0.00     0.028 A 
ATOM     31  C   UNL A   1      31.763  30.470  26.161  1.00  0.00     0.002 A 
ENDBRANCH  22  23
ENDBRANCH   8  22
ENDBRANCH   6   8
ENDBRANCH   5   6
ENDBRANCH   4   5
ENDBRANCH   3   4
ENDBRANCH   2   3
ENDBRANCH   1   2
BRANCH   1  32
ATOM     32  C   UNL A   1      41.521  19.534  26.364  1.00  0.00     0.188 C 
BRANCH  32  33
ATOM     33  O   UNL A   1      42.630  18.801  26.810  1.00  0.00    -0.376 OA
BRANCH  33  34
ATOM     34  C   UNL A   1      43.156  18.113  25.670  1.00  0.00     0.202 C 
BRANCH  34  35
ATOM     35  C   UNL A   1      43.975  19.056  24.700  1.00  0.00     0.261 C 
BRANCH  35  36
ATOM     36  O   UNL A   1      44.239  20.676  24.839  1.00  0.00    -0.460 OA
BRANCH  36  37
ATOM     37  C   UNL A   1      44.668  22.007  24.885  1.00  0.00     0.338 C 
ATOM     38  O   UNL A   1      44.915  22.586  23.830  1.00  0.00    -0.246 OA
BRANCH  37  39
ATOM     39  C   UNL A   1      44.981  22.837  26.247  1.00  0.00     0.060 A 
ATOM     40  C   UNL A   1      46.301  24.031  26.864  1.00  0.00     0.016 A 
ATOM     41  C   UNL A   1      43.350  23.287  26.483  1.00  0.00     0.016 A 
ATOM     42  C   UNL A   1      45.764  25.709  27.493  1.00  0.00     0.010 A 
ATOM     43  C   UNL A   1      42.879  24.888  27.071  1.00  0.00     0.010 A 
ATOM     44  C   UNL A   1      43.948  26.100  27.545  1.00  0.00    -0.014 A 
BRANCH  44  45
ATOM     45  C   UNL A   1      42.910  27.333  27.891  1.00  0.00     0.031 A 
ATOM     46  C   UNL A   1      43.847  28.408  27.767  1.00  0.00     0.074 A 
ATOM     47  C   UNL A   1      41.606  27.577  28.433  1.00  0.00     0.049 A 
ATOM     48  N   UNL A   1      44.707  28.612  28.708  1.00  0.00    -0.248 NA
ATOM     49  C   UNL A   1      44.218  28.886  26.434  1.00  0.00     0.031 C 
ATOM     50  C   UNL A   1      40.424  26.674  28.581  1.00  0.00     0.029 A 
ATOM     51  N   UNL A   1      41.007  28.755  29.043  1.00  0.00    -0.354 N 
ATOM     52  C   UNL A   1      45.444  29.638  28.187  1.00  0.00     0.074 A 
ATOM     53  C   UNL A   1      45.371  29.486  26.750  1.00  0.00     0.031 C 
ATOM     54  C   UNL A   1      39.297  27.311  29.018  1.00  0.00     0.029 A 
ATOM     55  C   UNL A   1      39.571  28.705  29.306  1.00  0.00     0.049 A 
ATOM     56  H   UNL A   1      41.545  29.549  29.268  1.00  0.00     0.167 HD
ATOM     57  C   UNL A   1      45.476  30.773  28.926  1.00  0.00     0.031 A 
ATOM     58  C   UNL A   1      38.668  29.625  29.848  1.00  0.00     0.031 A 
ATOM     59  C   UNL A   1      45.142  30.529  30.310  1.00  0.00     0.049 A 
ATOM     60  C   UNL A   1      39.417  30.564  30.686  1.00  0.00     0.074 A 
ATOM     61  C   UNL A   1      45.718  29.805  31.336  1.00  0.00     0.029 A 
ATOM     62  N   UNL A   1      43.807  30.633  30.612  1.00  0.00    -0.354 N 
ATOM     63  N   UNL A   1      39.878  30.259  31.859  1.00  0.00    -0.248 NA
ATOM     64  C   UNL A   1      40.010  31.703  30.014  1.00  0.00     0.031 C 
ATOM     65  C   UNL A   1      44.682  29.470  32.246  1.00  0.00     0.029 A 
ATOM     66  C   UNL A   1      43.516  30.108  31.844  1.00  0.00     0.049 A 
ATOM     67  H   UNL A   1      43.138  31.038  30.014  1.00  0.00     0.167 HD
ATOM     68  C   UNL A   1      41.152  30.776  31.803  1.00  0.00     0.074 A 
ATOM     69  C   UNL A   1      41.148  31.745  30.705  1.00  0.00     0.031 C 
ATOM     70  C   UNL A   1      42.176  30.095  32.377  1.00  0.00     0.031 A 
BRANCH  57  71
ATOM     71  C   UNL A   1      45.316  32.087  28.240  1.00  0.00    -0.014 A 
ATOM     72  C   UNL A   1      44.277  32.351  27.318  1.00  0.00     0.009 A 
ATOM     73  C   UNL A   1      46.159  33.138  28.578  1.00  0.00     0.009 A 
ATOM     74  C   UNL A   1      44.196  33.547  26.617  1.00  0.00     0.001 A 
ATOM     75  C   UNL A   1      46.045  34.366  27.921  1.00  0.00     0.001 A 
ATOM     76  C   UNL A   1      45.095  34.556  26.914  1.00  0.00     0.000 A 
ENDBRANCH  57  71
BRANCH  58  77
ATOM     77  C   UNL A   1      37.209  30.031  29.587  1.00  0.00    -0.014 A 
ATOM     78  C   UNL A   1      36.703  29.928  28.288  1.00  0.00     0.009 A 
ATOM     79  C   UNL A   1      36.455  30.874  30.469  1.00  0.00     0.009 A 
ATOM     80  C   UNL A   1      35.611  30.707  27.846  1.00  0.00     0.001 A 
ATOM     81  C   UNL A   1      35.349  31.646  30.028  1.00  0.00     0.001 A 
ATOM     82  C   UNL A   1      34.955  31.591  28.699  1.00  0.00     0.000 A 
ENDBRANCH  58  77
BRANCH  70  83
ATOM     83  C   UNL A   1      41.903  29.246  33.591  1.00  0.00    -0.014 A 
ATOM     84  C   UNL A   1      41.969  29.914  34.826  1.00  0.00     0.009 A 
ATOM     85  C   UNL A   1      41.726  27.854  33.596  1.00  0.00     0.009 A 
ATOM     86  C   UNL A   1      41.943  29.215  36.031  1.00  0.00     0.001 A 
ATOM     87  C   UNL A   1      41.676  27.153  34.811  1.00  0.00     0.001 A 
ATOM     88  C   UNL A   1      41.807  27.831  36.023  1.00  0.00     0.000 A 
ENDBRANCH  70  83
ENDBRANCH  44  45
ENDBRANCH  37  39
ENDBRANCH  36  37
ENDBRANCH  35  36
ENDBRANCH  34  35
ENDBRANCH  33  34
ENDBRANCH  32  33
ENDBRANCH   1  32
TORSDOF 22
ENDMDL
MODEL 3
REMARK VINA RESULT:     -11.8      4.202      9.571
REMARK SMILES Cc1ccc(C)c(S(=O)(=O)N[C@H](CC2=c3ccccc3=NC2)C(=O)OCCOCCOCCOC(=O)c2ccc(-c3c4nc(c(-c5ccccc5)c5ccc([nH]5)c(-c5ccccc5)c5nc(c(-c6ccccc6)c6ccc3[nH]6)C=C5)C=C4)cc2)c1
REMARK SMILES IDX 29 1 28 2 27 3 26 4 25 5 23 6 24 7 12 8 11 9 8 11 9 12 10 13
REMARK SMILES IDX 7 14 1 15 2 16 3 17 85 18 4 19 5 20 6 21 13 22 14 23 15 24
REMARK SMILES IDX 22 25 16 26 20 27 21 28 17 29 19 30 18 31 30 32 31 33 32 34
REMARK SMILES IDX 33 35 34 36 35 37 36 38 37 39 38 40 84 41 39 42 83 43 40 44
REMARK SMILES IDX 41 45 42 46 77 47 43 48 82 49 76 50 78 51 44 52 81 53 75 54
REMARK SMILES IDX 74 55 45 57 67 58 52 59 66 60 53 61 56 62 65 63 79 64 54 65
REMARK SMILES IDX 55 66 64 68 80 69 57 70 46 71 47 72 51 73 48 74 50 75 49 76
REMARK SMILES IDX 68 77 69 78 73 79 70 80 72 81 71 82 58 83 59 84 63 85 60 86
REMARK SMILES IDX 62 87 61 88
REMARK H PARENT 11 10 78 56 56 67
REMARK Flexibility Score: inf
ROOT
ATOM      1  C   UNL A   1      33.839  34.647  30.261  1.00  0.00     0.188 C 
ENDROOT
BRANCH   1   2
ATOM      2  O   UNL A   1      33.661  33.347  29.718  1.00  0.00    -0.376 OA
BRANCH   2   3
ATOM      3  C   UNL A   1      34.007  33.177  28.350  1.00  0.00     0.202 C 
BRANCH   3   4
ATOM      4  C   UNL A   1      34.620  31.823  27.860  1.00  0.00     0.261 C 
BRANCH   4   5
ATOM      5  O   UNL A   1      33.691  30.859  27.226  1.00  0.00    -0.462 OA
BRANCH   5   6
ATOM      6  C   UNL A   1      33.978  29.539  26.909  1.00  0.00     0.324 C 
ATOM      7  O   UNL A   1      35.057  29.070  27.273  1.00  0.00    -0.250 OA
BRANCH   6   8
ATOM      8  C   UNL A   1      32.731  28.535  26.455  1.00  0.00     0.183 C 
BRANCH   8   9
ATOM      9  N   UNL A   1      33.163  27.282  25.699  1.00  0.00    -0.197 NA
ATOM     10  H   UNL A   1      33.303  27.593  24.739  1.00  0.00     0.142 HD
BRANCH   9  11
ATOM     11  S   UNL A   1      32.333  25.831  25.562  1.00  0.00     0.241 S 
ATOM     12  O   UNL A   1      31.486  25.943  24.401  1.00  0.00    -0.207 OA
ATOM     13  O   UNL A   1      31.768  25.600  26.877  1.00  0.00    -0.207 OA
BRANCH  11  14
ATOM     14  C   UNL A   1      33.436  24.424  25.297  1.00  0.00     0.085 A 
ATOM     15  C   UNL A   1      37.174  23.551  25.000  1.00  0.00     0.044 C 
ATOM     16  C   UNL A   1      35.673  23.459  25.030  1.00  0.00    -0.050 A 
ATOM     17  C   UNL A   1      35.101  22.217  24.739  1.00  0.00     0.004 A 
ATOM     18  C   UNL A   1      34.836  24.560  25.329  1.00  0.00     0.025 A 
ATOM     19  C   UNL A   1      33.723  22.057  24.777  1.00  0.00     0.005 A 
ATOM     20  C   UNL A   1      32.875  23.139  25.077  1.00  0.00    -0.031 A 
ATOM     21  C   UNL A   1      31.409  22.803  25.158  1.00  0.00     0.046 C 
ENDBRANCH  11  14
ENDBRANCH   9  11
ENDBRANCH   8   9
BRANCH   8  22
ATOM     22  C   UNL A   1      31.039  28.798  25.723  1.00  0.00     0.065 C 
BRANCH  22  23
ATOM     23  C   UNL A   1      30.014  29.393  23.870  1.00  0.00    -0.037 C 
ATOM     24  C   UNL A   1      29.285  30.587  23.386  1.00  0.00     0.001 A 
ATOM     25  C   UNL A   1      29.126  28.360  22.770  1.00  0.00     0.174 C 
ATOM     26  C   UNL A   1      28.996  31.991  23.862  1.00  0.00     0.010 A 
ATOM     27  C   UNL A   1      28.582  30.325  22.112  1.00  0.00     0.065 A 
ATOM     28  N   UNL A   1      28.406  29.114  21.747  1.00  0.00    -0.280 NA
ATOM     29  C   UNL A   1      28.702  32.989  23.015  1.00  0.00     0.001 A 
ATOM     30  C   UNL A   1      28.214  31.458  21.229  1.00  0.00     0.028 A 
ATOM     31  C   UNL A   1      28.405  32.715  21.643  1.00  0.00     0.002 A 
ENDBRANCH  22  23
ENDBRANCH   8  22
ENDBRANCH   6   8
ENDBRANCH   5   6
ENDBRANCH   4   5
ENDBRANCH   3   4
ENDBRANCH   2   3
ENDBRANCH   1   2
BRANCH   1  32
ATOM     32  C   UNL A   1      34.197  34.676  31.741  1.00  0.00     0.188 C 
BRANCH  32  33
ATOM     33  O   UNL A   1      34.137  33.418  32.357  1.00  0.00    -0.376 OA
BRANCH  33  34
ATOM     34  C   UNL A   1      35.008  33.472  33.492  1.00  0.00     0.202 C 
BRANCH  34  35
ATOM     35  C   UNL A   1      36.526  33.227  33.120  1.00  0.00     0.261 C 
BRANCH  35  36
ATOM     36  O   UNL A   1      37.256  33.404  31.655  1.00  0.00    -0.460 OA
BRANCH  36  37
ATOM     37  C   UNL A   1      37.673  33.583  30.331  1.00  0.00     0.338 C 
ATOM     38  O   UNL A   1      36.881  34.056  29.521  1.00  0.00    -0.246 OA
BRANCH  37  39
ATOM     39  C   UNL A   1      39.108  33.105  29.734  1.00  0.00     0.060 A 
ATOM     40  C   UNL A   1      40.908  33.122  30.289  1.00  0.00     0.016 A 
ATOM     41  C   UNL A   1      38.493  31.632  29.125  1.00  0.00     0.016 A 
ATOM     42  C   UNL A   1      41.842  31.502  30.342  1.00  0.00     0.010 A 
ATOM     43  C   UNL A   1      39.401  30.116  29.202  1.00  0.00     0.010 A 
ATOM     44  C   UNL A   1      40.973  29.957  29.783  1.00  0.00    -0.014 A 
BRANCH  44  45
ATOM     45  C   UNL A   1      41.200  28.328  29.670  1.00  0.00     0.031 A 
ATOM     46  C   UNL A   1      41.505  28.083  31.046  1.00  0.00     0.074 A 
ATOM     47  C   UNL A   1      41.389  27.291  28.698  1.00  0.00     0.049 A 
ATOM     48  N   UNL A   1      42.668  28.406  31.505  1.00  0.00    -0.248 NA
ATOM     49  C   UNL A   1      40.416  28.021  32.023  1.00  0.00     0.031 C 
ATOM     50  C   UNL A   1      41.063  27.248  27.240  1.00  0.00     0.029 A 
ATOM     51  N   UNL A   1      41.979  25.964  28.788  1.00  0.00    -0.354 N 
ATOM     52  C   UNL A   1      42.534  28.098  32.830  1.00  0.00     0.074 A 
ATOM     53  C   UNL A   1      41.128  28.256  33.130  1.00  0.00     0.031 C 
ATOM     54  C   UNL A   1      41.261  26.021  26.669  1.00  0.00     0.029 A 
ATOM     55  C   UNL A   1      41.821  25.090  27.628  1.00  0.00     0.049 A 
ATOM     56  H   UNL A   1      42.462  25.669  29.595  1.00  0.00     0.167 HD
ATOM     57  C   UNL A   1      43.416  27.191  33.314  1.00  0.00     0.031 A 
ATOM     58  C   UNL A   1      42.224  23.778  27.361  1.00  0.00     0.031 A 
ATOM     59  C   UNL A   1      44.598  27.090  32.492  1.00  0.00     0.049 A 
ATOM     60  C   UNL A   1      43.369  23.465  28.220  1.00  0.00     0.074 A 
ATOM     61  C   UNL A   1      45.623  27.954  32.152  1.00  0.00     0.029 A 
ATOM     62  N   UNL A   1      44.529  26.158  31.488  1.00  0.00    -0.354 N 
ATOM     63  N   UNL A   1      44.563  23.921  28.005  1.00  0.00    -0.248 NA
ATOM     64  C   UNL A   1      43.069  22.988  29.554  1.00  0.00     0.031 C 
ATOM     65  C   UNL A   1      46.147  27.514  30.909  1.00  0.00     0.029 A 
ATOM     66  C   UNL A   1      45.538  26.313  30.572  1.00  0.00     0.049 A 
ATOM     67  H   UNL A   1      43.837  25.460  31.432  1.00  0.00     0.167 HD
ATOM     68  C   UNL A   1      44.942  24.318  29.267  1.00  0.00     0.074 A 
ATOM     69  C   UNL A   1      44.047  23.626  30.195  1.00  0.00     0.031 C 
ATOM     70  C   UNL A   1      45.669  25.454  29.420  1.00  0.00     0.031 A 
BRANCH  57  71
ATOM     71  C   UNL A   1      42.919  26.109  34.211  1.00  0.00    -0.014 A 
ATOM     72  C   UNL A   1      43.486  24.814  34.240  1.00  0.00     0.009 A 
ATOM     73  C   UNL A   1      41.918  26.394  35.132  1.00  0.00     0.009 A 
ATOM     74  C   UNL A   1      42.953  23.790  35.012  1.00  0.00     0.001 A 
ATOM     75  C   UNL A   1      41.417  25.383  35.957  1.00  0.00     0.001 A 
ATOM     76  C   UNL A   1      41.904  24.077  35.867  1.00  0.00     0.000 A 
ENDBRANCH  57  71
BRANCH  58  77
ATOM     77  C   UNL A   1      41.631  22.566  26.625  1.00  0.00    -0.014 A 
ATOM     78  C   UNL A   1      40.244  22.404  26.601  1.00  0.00     0.009 A 
ATOM     79  C   UNL A   1      42.387  21.388  26.310  1.00  0.00     0.009 A 
ATOM     80  C   UNL A   1      39.641  21.140  26.417  1.00  0.00     0.001 A 
ATOM     81  C   UNL A   1      41.781  20.121  26.110  1.00  0.00     0.001 A 
ATOM     82  C   UNL A   1      40.403  19.993  26.207  1.00  0.00     0.000 A 
ENDBRANCH  58  77
BRANCH  70  83
ATOM     83  C   UNL A   1      46.616  25.873  28.327  1.00  0.00    -0.014 A 
ATOM     84  C   UNL A   1      46.109  26.808  27.409  1.00  0.00     0.009 A 
ATOM     85  C   UNL A   1      47.882  25.317  28.081  1.00  0.00     0.009 A 
ATOM     86  C   UNL A   1      46.798  27.124  26.240  1.00  0.00     0.001 A 
ATOM     87  C   UNL A   1      48.585  25.654  26.914  1.00  0.00     0.001 A 
ATOM     88  C   UNL A   1      48.033  26.538  25.986  1.00  0.00     0.000 A 
ENDBRANCH  70  83
ENDBRANCH  44  45
ENDBRANCH  37  39
ENDBRANCH  36  37
ENDBRANCH  35  36
ENDBRANCH  34  35
ENDBRANCH  33  34
ENDBRANCH  32  33
ENDBRANCH   1  32
TORSDOF 22
ENDMDL
