MODEL 1
REMARK VINA RESULT:     -10.4      0.000      0.000
REMARK SMILES O=C(OCCOCCOCCOC(=O)c1ccc(-c2c3nc(c(-c4ccccc4)c4ccc([nH]4)c(-c4ccccc4)c4nc(c(-c5ccccc5)c5ccc2[nH]5)C=C4)C=C3)cc1)C1=Cc2c(ccc(Cl)c2Sc2ccccc2)O[C@H]1C(F)(F)F
REMARK SMILES IDX 7 1 6 2 5 3 4 4 3 5 2 6 1 7 63 8 64 9 80 10 65 11 79 12
REMARK SMILES IDX 66 13 71 14 67 15 69 16 68 17 70 18 81 19 82 20 83 21 84 22
REMARK SMILES IDX 72 23 73 24 74 25 78 26 75 27 77 28 76 29 8 30 9 31 10 32
REMARK SMILES IDX 11 33 12 34 13 35 14 36 15 37 16 38 62 39 17 40 61 41 18 42
REMARK SMILES IDX 19 43 20 44 55 45 21 46 60 47 54 48 56 49 22 50 59 51 53 52
REMARK SMILES IDX 52 53 23 55 45 56 30 57 44 58 31 59 34 60 43 61 57 62 32 63
REMARK SMILES IDX 33 64 42 66 58 67 35 68 24 69 25 70 29 71 26 72 28 73 27 74
REMARK SMILES IDX 46 75 47 76 51 77 48 78 50 79 49 80 36 81 37 82 41 83 38 84
REMARK SMILES IDX 40 85 39 86
REMARK H PARENT 56 54 34 65
REMARK Flexibility Score: inf
ROOT
ATOM      1  C   UNL A   1      32.785  28.555  26.312  1.00  0.00     0.188 C 
ENDROOT
BRANCH   1   2
ATOM      2  O   UNL A   1      32.254  27.314  26.722  1.00  0.00    -0.376 OA
BRANCH   2   3
ATOM      3  C   UNL A   1      30.887  27.246  26.454  1.00  0.00     0.202 C 
BRANCH   3   4
ATOM      4  C   UNL A   1      30.498  27.073  24.945  1.00  0.00     0.261 C 
BRANCH   4   5
ATOM      5  O   UNL A   1      30.072  25.728  24.566  1.00  0.00    -0.460 OA
BRANCH   5   6
ATOM      6  C   UNL A   1      30.932  24.929  23.833  1.00  0.00     0.338 C 
ATOM      7  O   UNL A   1      30.576  24.140  22.996  1.00  0.00    -0.246 OA
BRANCH   6   8
ATOM      8  C   UNL A   1      32.353  24.944  24.336  1.00  0.00     0.087 C 
ATOM      9  C   UNL A   1      32.743  23.699  24.605  1.00  0.00     0.028 C 
ATOM     10  C   UNL A   1      33.357  25.849  23.652  1.00  0.00     0.316 C 
ATOM     11  C   UNL A   1      34.070  23.153  24.727  1.00  0.00     0.033 A 
ATOM     12  O   UNL A   1      34.731  25.295  23.649  1.00  0.00    -0.475 OA
ATOM     13  C   UNL A   1      35.021  24.030  24.134  1.00  0.00     0.129 A 
ATOM     14  C   UNL A   1      34.309  21.762  24.998  1.00  0.00     0.042 A 
ATOM     15  C   UNL A   1      36.308  23.575  23.904  1.00  0.00     0.049 A 
ATOM     16  C   UNL A   1      35.644  21.357  24.716  1.00  0.00     0.055 A 
ATOM     17  C   UNL A   1      36.616  22.247  24.198  1.00  0.00     0.025 A 
ATOM     18  Cl  UNL A   1      36.212  19.724  24.929  1.00  0.00    -0.083 Cl
BRANCH  10  19
ATOM     19  C   UNL A   1      32.953  26.258  22.204  1.00  0.00     0.430 C 
ATOM     20  F   UNL A   1      33.850  27.110  21.655  1.00  0.00    -0.167 F 
ATOM     21  F   UNL A   1      32.851  25.189  21.381  1.00  0.00    -0.167 F 
ATOM     22  F   UNL A   1      31.746  26.872  22.175  1.00  0.00    -0.167 F 
ENDBRANCH  10  19
BRANCH  14  23
ATOM     23  S   UNL A   1      33.207  20.439  25.698  1.00  0.00    -0.088 SA
BRANCH  23  24
ATOM     24  C   UNL A   1      33.187  18.723  25.163  1.00  0.00     0.012 A 
ATOM     25  C   UNL A   1      33.115  18.417  23.801  1.00  0.00     0.015 A 
ATOM     26  C   UNL A   1      32.930  17.619  26.005  1.00  0.00     0.015 A 
ATOM     27  C   UNL A   1      33.095  17.085  23.333  1.00  0.00     0.001 A 
ATOM     28  C   UNL A   1      33.035  16.280  25.569  1.00  0.00     0.001 A 
ATOM     29  C   UNL A   1      33.161  16.014  24.218  1.00  0.00     0.000 A 
ENDBRANCH  23  24
ENDBRANCH  14  23
ENDBRANCH   6   8
ENDBRANCH   5   6
ENDBRANCH   4   5
ENDBRANCH   3   4
ENDBRANCH   2   3
ENDBRANCH   1   2
BRANCH   1  30
ATOM     30  C   UNL A   1      32.145  29.848  26.866  1.00  0.00     0.188 C 
BRANCH  30  31
ATOM     31  O   UNL A   1      31.535  30.715  25.919  1.00  0.00    -0.376 OA
BRANCH  31  32
ATOM     32  C   UNL A   1      31.154  31.992  26.410  1.00  0.00     0.202 C 
BRANCH  32  33
ATOM     33  C   UNL A   1      32.399  32.665  27.003  1.00  0.00     0.261 C 
BRANCH  33  34
ATOM     34  O   UNL A   1      32.061  33.578  28.078  1.00  0.00    -0.460 OA
BRANCH  34  35
ATOM     35  C   UNL A   1      32.993  34.506  28.438  1.00  0.00     0.338 C 
ATOM     36  O   UNL A   1      32.803  35.692  28.651  1.00  0.00    -0.246 OA
BRANCH  35  37
ATOM     37  C   UNL A   1      34.284  33.816  28.772  1.00  0.00     0.060 A 
ATOM     38  C   UNL A   1      34.265  32.740  29.682  1.00  0.00     0.016 A 
ATOM     39  C   UNL A   1      35.467  34.100  28.080  1.00  0.00     0.016 A 
ATOM     40  C   UNL A   1      35.430  31.998  29.939  1.00  0.00     0.010 A 
ATOM     41  C   UNL A   1      36.640  33.388  28.365  1.00  0.00     0.010 A 
ATOM     42  C   UNL A   1      36.641  32.371  29.335  1.00  0.00    -0.014 A 
BRANCH  42  43
ATOM     43  C   UNL A   1      37.935  32.022  29.987  1.00  0.00     0.031 A 
ATOM     44  C   UNL A   1      38.589  30.742  29.519  1.00  0.00     0.074 A 
ATOM     45  C   UNL A   1      38.500  32.729  30.984  1.00  0.00     0.049 A 
ATOM     46  N   UNL A   1      39.673  30.149  29.948  1.00  0.00    -0.248 NA
ATOM     47  C   UNL A   1      37.914  30.034  28.416  1.00  0.00     0.031 C 
ATOM     48  C   UNL A   1      38.015  33.992  31.531  1.00  0.00     0.029 A 
ATOM     49  N   UNL A   1      39.624  32.450  31.731  1.00  0.00    -0.354 N 
ATOM     50  C   UNL A   1      39.811  29.015  29.158  1.00  0.00     0.074 A 
ATOM     51  C   UNL A   1      38.694  28.983  28.245  1.00  0.00     0.031 C 
ATOM     52  C   UNL A   1      38.827  34.371  32.538  1.00  0.00     0.029 A 
ATOM     53  C   UNL A   1      39.869  33.363  32.729  1.00  0.00     0.049 A 
ATOM     54  H   UNL A   1      40.199  31.668  31.565  1.00  0.00     0.167 HD
ATOM     55  C   UNL A   1      40.775  28.065  29.182  1.00  0.00     0.031 A 
ATOM     56  C   UNL A   1      40.812  33.366  33.695  1.00  0.00     0.031 A 
ATOM     57  C   UNL A   1      41.849  28.027  30.129  1.00  0.00     0.049 A 
ATOM     58  C   UNL A   1      41.811  32.234  33.780  1.00  0.00     0.074 A 
ATOM     59  C   UNL A   1      42.860  27.090  30.246  1.00  0.00     0.029 A 
ATOM     60  N   UNL A   1      42.034  28.953  31.141  1.00  0.00    -0.354 N 
ATOM     61  N   UNL A   1      41.961  31.193  32.995  1.00  0.00    -0.248 NA
ATOM     62  C   UNL A   1      42.778  32.281  34.892  1.00  0.00     0.031 C 
ATOM     63  C   UNL A   1      43.626  27.419  31.368  1.00  0.00     0.029 A 
ATOM     64  C   UNL A   1      43.130  28.595  31.906  1.00  0.00     0.049 A 
ATOM     65  H   UNL A   1      41.471  29.746  31.294  1.00  0.00     0.167 HD
ATOM     66  C   UNL A   1      43.054  30.489  33.495  1.00  0.00     0.074 A 
ATOM     67  C   UNL A   1      43.537  31.224  34.643  1.00  0.00     0.031 C 
ATOM     68  C   UNL A   1      43.610  29.339  33.041  1.00  0.00     0.031 A 
BRANCH  55  69
ATOM     69  C   UNL A   1      40.660  26.964  28.169  1.00  0.00    -0.014 A 
ATOM     70  C   UNL A   1      41.257  27.081  26.904  1.00  0.00     0.009 A 
ATOM     71  C   UNL A   1      39.932  25.806  28.479  1.00  0.00     0.009 A 
ATOM     72  C   UNL A   1      41.096  26.071  25.954  1.00  0.00     0.001 A 
ATOM     73  C   UNL A   1      39.797  24.786  27.536  1.00  0.00     0.001 A 
ATOM     74  C   UNL A   1      40.370  24.924  26.272  1.00  0.00     0.000 A 
ENDBRANCH  55  69
BRANCH  56  75
ATOM     75  C   UNL A   1      40.866  34.463  34.703  1.00  0.00    -0.014 A 
ATOM     76  C   UNL A   1      41.664  35.599  34.482  1.00  0.00     0.009 A 
ATOM     77  C   UNL A   1      40.182  34.348  35.922  1.00  0.00     0.009 A 
ATOM     78  C   UNL A   1      41.800  36.576  35.473  1.00  0.00     0.001 A 
ATOM     79  C   UNL A   1      40.296  35.341  36.899  1.00  0.00     0.001 A 
ATOM     80  C   UNL A   1      41.114  36.448  36.678  1.00  0.00     0.000 A 
ENDBRANCH  56  75
BRANCH  68  81
ATOM     81  C   UNL A   1      44.834  28.822  33.745  1.00  0.00    -0.014 A 
ATOM     82  C   UNL A   1      44.746  27.866  34.769  1.00  0.00     0.009 A 
ATOM     83  C   UNL A   1      46.104  29.253  33.328  1.00  0.00     0.009 A 
ATOM     84  C   UNL A   1      45.903  27.378  35.381  1.00  0.00     0.001 A 
ATOM     85  C   UNL A   1      47.260  28.742  33.920  1.00  0.00     0.001 A 
ATOM     86  C   UNL A   1      47.158  27.812  34.952  1.00  0.00     0.000 A 
ENDBRANCH  68  81
ENDBRANCH  42  43
ENDBRANCH  35  37
ENDBRANCH  34  35
ENDBRANCH  33  34
ENDBRANCH  32  33
ENDBRANCH  31  32
ENDBRANCH  30  31
ENDBRANCH   1  30
TORSDOF 20
ENDMDL
MODEL 2
REMARK VINA RESULT:     -10.4      2.528      6.703
REMARK SMILES O=C(OCCOCCOCCOC(=O)c1ccc(-c2c3nc(c(-c4ccccc4)c4ccc([nH]4)c(-c4ccccc4)c4nc(c(-c5ccccc5)c5ccc2[nH]5)C=C4)C=C3)cc1)C1=Cc2c(ccc(Cl)c2Sc2ccccc2)O[C@H]1C(F)(F)F
REMARK SMILES IDX 7 1 6 2 5 3 4 4 3 5 2 6 1 7 63 8 64 9 80 10 65 11 79 12
REMARK SMILES IDX 66 13 71 14 67 15 69 16 68 17 70 18 81 19 82 20 83 21 84 22
REMARK SMILES IDX 72 23 73 24 74 25 78 26 75 27 77 28 76 29 8 30 9 31 10 32
REMARK SMILES IDX 11 33 12 34 13 35 14 36 15 37 16 38 62 39 17 40 61 41 18 42
REMARK SMILES IDX 19 43 20 44 55 45 21 46 60 47 54 48 56 49 22 50 59 51 53 52
REMARK SMILES IDX 52 53 23 55 45 56 30 57 44 58 31 59 34 60 43 61 57 62 32 63
REMARK SMILES IDX 33 64 42 66 58 67 35 68 24 69 25 70 29 71 26 72 28 73 27 74
REMARK SMILES IDX 46 75 47 76 51 77 48 78 50 79 49 80 36 81 37 82 41 83 38 84
REMARK SMILES IDX 40 85 39 86
REMARK H PARENT 56 54 34 65
REMARK Flexibility Score: inf
ROOT
ATOM      1  C   UNL A   1      35.292  32.128  28.175  1.00  0.00     0.188 C 
ENDROOT
BRANCH   1   2
ATOM      2  O   UNL A   1      35.258  30.721  28.265  1.00  0.00    -0.376 OA
BRANCH   2   3
ATOM      3  C   UNL A   1      34.261  30.196  27.443  1.00  0.00     0.202 C 
BRANCH   3   4
ATOM      4  C   UNL A   1      34.636  28.884  26.672  1.00  0.00     0.261 C 
BRANCH   4   5
ATOM      5  O   UNL A   1      33.541  28.271  25.924  1.00  0.00    -0.460 OA
BRANCH   5   6
ATOM      6  C   UNL A   1      33.473  28.456  24.554  1.00  0.00     0.338 C 
ATOM      7  O   UNL A   1      33.548  29.529  24.011  1.00  0.00    -0.246 OA
BRANCH   6   8
ATOM      8  C   UNL A   1      33.050  27.226  23.794  1.00  0.00     0.087 C 
ATOM      9  C   UNL A   1      33.457  26.138  24.447  1.00  0.00     0.028 C 
ATOM     10  C   UNL A   1      31.662  27.186  23.186  1.00  0.00     0.316 C 
ATOM     11  C   UNL A   1      32.990  24.779  24.359  1.00  0.00     0.033 A 
ATOM     12  O   UNL A   1      31.078  25.826  23.162  1.00  0.00    -0.475 OA
ATOM     13  C   UNL A   1      31.711  24.736  23.737  1.00  0.00     0.129 A 
ATOM     14  C   UNL A   1      33.532  23.723  25.170  1.00  0.00     0.042 A 
ATOM     15  C   UNL A   1      30.969  23.568  23.796  1.00  0.00     0.049 A 
ATOM     16  C   UNL A   1      32.708  22.563  25.205  1.00  0.00     0.055 A 
ATOM     17  C   UNL A   1      31.469  22.488  24.523  1.00  0.00     0.025 A 
ATOM     18  Cl  UNL A   1      33.105  21.138  26.125  1.00  0.00    -0.083 Cl
BRANCH  10  19
ATOM     19  C   UNL A   1      30.658  28.177  23.846  1.00  0.00     0.430 C 
ATOM     20  F   UNL A   1      29.374  27.808  23.629  1.00  0.00    -0.167 F 
ATOM     21  F   UNL A   1      30.834  28.268  25.184  1.00  0.00    -0.167 F 
ATOM     22  F   UNL A   1      30.802  29.434  23.360  1.00  0.00    -0.167 F 
ENDBRANCH  10  19
BRANCH  14  23
ATOM     23  S   UNL A   1      35.128  23.594  26.113  1.00  0.00    -0.088 SA
BRANCH  23  24
ATOM     24  C   UNL A   1      36.443  22.420  25.760  1.00  0.00     0.012 A 
ATOM     25  C   UNL A   1      37.765  22.735  26.083  1.00  0.00     0.015 A 
ATOM     26  C   UNL A   1      36.320  21.308  24.898  1.00  0.00     0.015 A 
ATOM     27  C   UNL A   1      38.832  21.845  25.824  1.00  0.00     0.001 A 
ATOM     28  C   UNL A   1      37.341  20.346  24.736  1.00  0.00     0.001 A 
ATOM     29  C   UNL A   1      38.602  20.603  25.243  1.00  0.00     0.000 A 
ENDBRANCH  23  24
ENDBRANCH  14  23
ENDBRANCH   6   8
ENDBRANCH   5   6
ENDBRANCH   4   5
ENDBRANCH   3   4
ENDBRANCH   2   3
ENDBRANCH   1   2
BRANCH   1  30
ATOM     30  C   UNL A   1      33.987  32.875  27.816  1.00  0.00     0.188 C 
BRANCH  30  31
ATOM     31  O   UNL A   1      33.521  33.834  28.755  1.00  0.00    -0.376 OA
BRANCH  31  32
ATOM     32  C   UNL A   1      33.647  35.193  28.360  1.00  0.00     0.202 C 
BRANCH  32  33
ATOM     33  C   UNL A   1      33.127  36.072  29.505  1.00  0.00     0.261 C 
BRANCH  33  34
ATOM     34  O   UNL A   1      32.453  35.290  30.523  1.00  0.00    -0.460 OA
BRANCH  34  35
ATOM     35  C   UNL A   1      32.620  35.664  31.825  1.00  0.00     0.338 C 
ATOM     36  O   UNL A   1      31.858  36.338  32.498  1.00  0.00    -0.246 OA
BRANCH  35  37
ATOM     37  C   UNL A   1      33.789  34.928  32.411  1.00  0.00     0.060 A 
ATOM     38  C   UNL A   1      35.051  35.556  32.428  1.00  0.00     0.016 A 
ATOM     39  C   UNL A   1      33.626  33.714  33.089  1.00  0.00     0.016 A 
ATOM     40  C   UNL A   1      36.146  34.946  33.063  1.00  0.00     0.010 A 
ATOM     41  C   UNL A   1      34.726  33.086  33.687  1.00  0.00     0.010 A 
ATOM     42  C   UNL A   1      36.002  33.671  33.631  1.00  0.00    -0.014 A 
BRANCH  42  43
ATOM     43  C   UNL A   1      37.190  32.783  33.776  1.00  0.00     0.031 A 
ATOM     44  C   UNL A   1      38.039  33.008  35.005  1.00  0.00     0.074 A 
ATOM     45  C   UNL A   1      37.571  31.866  32.866  1.00  0.00     0.049 A 
ATOM     46  N   UNL A   1      39.163  32.443  35.363  1.00  0.00    -0.248 NA
ATOM     47  C   UNL A   1      37.547  34.020  35.958  1.00  0.00     0.031 C 
ATOM     48  C   UNL A   1      36.854  31.509  31.646  1.00  0.00     0.029 A 
ATOM     49  N   UNL A   1      38.697  31.072  32.838  1.00  0.00    -0.354 N 
ATOM     50  C   UNL A   1      39.497  33.022  36.582  1.00  0.00     0.074 A 
ATOM     51  C   UNL A   1      38.480  33.997  36.892  1.00  0.00     0.031 C 
ATOM     52  C   UNL A   1      37.565  30.578  30.979  1.00  0.00     0.029 A 
ATOM     53  C   UNL A   1      38.803  30.298  31.707  1.00  0.00     0.049 A 
ATOM     54  H   UNL A   1      39.364  31.061  33.562  1.00  0.00     0.167 HD
ATOM     55  C   UNL A   1      40.559  32.780  37.383  1.00  0.00     0.031 A 
ATOM     56  C   UNL A   1      39.797  29.479  31.302  1.00  0.00     0.031 A 
ATOM     57  C   UNL A   1      41.626  31.878  37.063  1.00  0.00     0.049 A 
ATOM     58  C   UNL A   1      41.034  29.310  32.155  1.00  0.00     0.074 A 
ATOM     59  C   UNL A   1      42.757  31.587  37.803  1.00  0.00     0.029 A 
ATOM     60  N   UNL A   1      41.706  31.145  35.892  1.00  0.00    -0.354 N 
ATOM     61  N   UNL A   1      41.312  29.826  33.330  1.00  0.00    -0.248 NA
ATOM     62  C   UNL A   1      42.097  28.439  31.623  1.00  0.00     0.031 C 
ATOM     63  C   UNL A   1      43.552  30.716  37.051  1.00  0.00     0.029 A 
ATOM     64  C   UNL A   1      42.883  30.419  35.876  1.00  0.00     0.049 A 
ATOM     65  H   UNL A   1      41.028  31.141  35.178  1.00  0.00     0.167 HD
ATOM     66  C   UNL A   1      42.558  29.313  33.687  1.00  0.00     0.074 A 
ATOM     67  C   UNL A   1      42.977  28.440  32.613  1.00  0.00     0.031 C 
ATOM     68  C   UNL A   1      43.287  29.543  34.807  1.00  0.00     0.031 A 
BRANCH  55  69
ATOM     69  C   UNL A   1      40.626  33.557  38.665  1.00  0.00    -0.014 A 
ATOM     70  C   UNL A   1      40.023  33.072  39.836  1.00  0.00     0.009 A 
ATOM     71  C   UNL A   1      41.284  34.795  38.696  1.00  0.00     0.009 A 
ATOM     72  C   UNL A   1      40.047  33.831  41.007  1.00  0.00     0.001 A 
ATOM     73  C   UNL A   1      41.330  35.538  39.876  1.00  0.00     0.001 A 
ATOM     74  C   UNL A   1      40.704  35.060  41.027  1.00  0.00     0.000 A 
ENDBRANCH  55  69
BRANCH  56  75
ATOM     75  C   UNL A   1      39.704  28.755  30.002  1.00  0.00    -0.014 A 
ATOM     76  C   UNL A   1      39.272  27.418  29.957  1.00  0.00     0.009 A 
ATOM     77  C   UNL A   1      40.117  29.368  28.810  1.00  0.00     0.009 A 
ATOM     78  C   UNL A   1      39.287  26.705  28.755  1.00  0.00     0.001 A 
ATOM     79  C   UNL A   1      40.104  28.662  27.604  1.00  0.00     0.001 A 
ATOM     80  C   UNL A   1      39.701  27.328  27.579  1.00  0.00     0.000 A 
ENDBRANCH  56  75
BRANCH  68  81
ATOM     81  C   UNL A   1      44.588  28.807  34.964  1.00  0.00    -0.014 A 
ATOM     82  C   UNL A   1      45.809  29.376  34.570  1.00  0.00     0.009 A 
ATOM     83  C   UNL A   1      44.597  27.544  35.580  1.00  0.00     0.009 A 
ATOM     84  C   UNL A   1      47.006  28.682  34.761  1.00  0.00     0.001 A 
ATOM     85  C   UNL A   1      45.797  26.865  35.797  1.00  0.00     0.001 A 
ATOM     86  C   UNL A   1      47.000  27.431  35.379  1.00  0.00     0.000 A 
ENDBRANCH  68  81
ENDBRANCH  42  43
ENDBRANCH  35  37
ENDBRANCH  34  35
ENDBRANCH  33  34
ENDBRANCH  32  33
ENDBRANCH  31  32
ENDBRANCH  30  31
ENDBRANCH   1  30
TORSDOF 20
ENDMDL
MODEL 3
REMARK VINA RESULT:     -10.2      2.794      4.372
REMARK SMILES O=C(OCCOCCOCCOC(=O)c1ccc(-c2c3nc(c(-c4ccccc4)c4ccc([nH]4)c(-c4ccccc4)c4nc(c(-c5ccccc5)c5ccc2[nH]5)C=C4)C=C3)cc1)C1=Cc2c(ccc(Cl)c2Sc2ccccc2)O[C@H]1C(F)(F)F
REMARK SMILES IDX 7 1 6 2 5 3 4 4 3 5 2 6 1 7 63 8 64 9 80 10 65 11 79 12
REMARK SMILES IDX 66 13 71 14 67 15 69 16 68 17 70 18 81 19 82 20 83 21 84 22
REMARK SMILES IDX 72 23 73 24 74 25 78 26 75 27 77 28 76 29 8 30 9 31 10 32
REMARK SMILES IDX 11 33 12 34 13 35 14 36 15 37 16 38 62 39 17 40 61 41 18 42
REMARK SMILES IDX 19 43 20 44 55 45 21 46 60 47 54 48 56 49 22 50 59 51 53 52
REMARK SMILES IDX 52 53 23 55 45 56 30 57 44 58 31 59 34 60 43 61 57 62 32 63
REMARK SMILES IDX 33 64 42 66 58 67 35 68 24 69 25 70 29 71 26 72 28 73 27 74
REMARK SMILES IDX 46 75 47 76 51 77 48 78 50 79 49 80 36 81 37 82 41 83 38 84
REMARK SMILES IDX 40 85 39 86
REMARK H PARENT 56 54 34 65
REMARK Flexibility Score: inf
ROOT
ATOM      1  C   UNL A   1      35.305  32.596  29.247  1.00  0.00     0.188 C 
ENDROOT
BRANCH   1   2
ATOM      2  O   UNL A   1      35.438  31.234  28.906  1.00  0.00    -0.376 OA
BRANCH   2   3
ATOM      3  C   UNL A   1      34.752  30.948  27.726  1.00  0.00     0.202 C 
BRANCH   3   4
ATOM      4  C   UNL A   1      35.401  29.855  26.809  1.00  0.00     0.261 C 
BRANCH   4   5
ATOM      5  O   UNL A   1      34.560  28.689  26.547  1.00  0.00    -0.460 OA
BRANCH   5   6
ATOM      6  C   UNL A   1      33.687  28.713  25.473  1.00  0.00     0.338 C 
ATOM      7  O   UNL A   1      33.490  29.680  24.782  1.00  0.00    -0.246 OA
BRANCH   6   8
ATOM      8  C   UNL A   1      32.809  27.493  25.376  1.00  0.00     0.087 C 
ATOM      9  C   UNL A   1      33.569  26.400  25.328  1.00  0.00     0.028 C 
ATOM     10  C   UNL A   1      31.558  27.427  26.228  1.00  0.00     0.316 C 
ATOM     11  C   UNL A   1      33.235  25.029  25.617  1.00  0.00     0.033 A 
ATOM     12  O   UNL A   1      31.216  26.049  26.651  1.00  0.00    -0.475 OA
ATOM     13  C   UNL A   1      32.029  24.963  26.371  1.00  0.00     0.129 A 
ATOM     14  C   UNL A   1      34.201  23.968  25.540  1.00  0.00     0.042 A 
ATOM     15  C   UNL A   1      31.677  23.771  26.980  1.00  0.00     0.049 A 
ATOM     16  C   UNL A   1      33.785  22.781  26.206  1.00  0.00     0.055 A 
ATOM     17  C   UNL A   1      32.550  22.687  26.892  1.00  0.00     0.025 A 
ATOM     18  Cl  UNL A   1      34.763  21.342  26.294  1.00  0.00    -0.083 Cl
BRANCH  10  19
ATOM     19  C   UNL A   1      31.594  28.363  27.472  1.00  0.00     0.430 C 
ATOM     20  F   UNL A   1      31.597  29.669  27.118  1.00  0.00    -0.167 F 
ATOM     21  F   UNL A   1      30.533  28.167  28.290  1.00  0.00    -0.167 F 
ATOM     22  F   UNL A   1      32.697  28.149  28.229  1.00  0.00    -0.167 F 
ENDBRANCH  10  19
BRANCH  14  23
ATOM     23  S   UNL A   1      35.845  23.863  24.680  1.00  0.00    -0.088 SA
BRANCH  23  24
ATOM     24  C   UNL A   1      37.376  23.310  25.444  1.00  0.00     0.012 A 
ATOM     25  C   UNL A   1      37.768  21.974  25.333  1.00  0.00     0.015 A 
ATOM     26  C   UNL A   1      38.094  24.032  26.423  1.00  0.00     0.015 A 
ATOM     27  C   UNL A   1      38.961  21.492  25.917  1.00  0.00     0.001 A 
ATOM     28  C   UNL A   1      39.350  23.615  26.915  1.00  0.00     0.001 A 
ATOM     29  C   UNL A   1      39.806  22.343  26.622  1.00  0.00     0.000 A 
ENDBRANCH  23  24
ENDBRANCH  14  23
ENDBRANCH   6   8
ENDBRANCH   5   6
ENDBRANCH   4   5
ENDBRANCH   3   4
ENDBRANCH   2   3
ENDBRANCH   1   2
BRANCH   1  30
ATOM     30  C   UNL A   1      34.082  33.373  28.710  1.00  0.00     0.188 C 
BRANCH  30  31
ATOM     31  O   UNL A   1      33.345  34.136  29.656  1.00  0.00    -0.376 OA
BRANCH  31  32
ATOM     32  C   UNL A   1      33.364  35.543  29.459  1.00  0.00     0.202 C 
BRANCH  32  33
ATOM     33  C   UNL A   1      32.574  36.194  30.602  1.00  0.00     0.261 C 
BRANCH  33  34
ATOM     34  O   UNL A   1      32.680  35.436  31.833  1.00  0.00    -0.460 OA
BRANCH  34  35
ATOM     35  C   UNL A   1      33.509  35.917  32.804  1.00  0.00     0.338 C 
ATOM     36  O   UNL A   1      33.254  36.785  33.622  1.00  0.00    -0.246 OA
BRANCH  35  37
ATOM     37  C   UNL A   1      34.735  35.055  32.887  1.00  0.00     0.060 A 
ATOM     38  C   UNL A   1      34.670  33.848  33.612  1.00  0.00     0.016 A 
ATOM     39  C   UNL A   1      35.879  35.332  32.130  1.00  0.00     0.016 A 
ATOM     40  C   UNL A   1      35.760  32.961  33.625  1.00  0.00     0.010 A 
ATOM     41  C   UNL A   1      36.981  34.469  32.174  1.00  0.00     0.010 A 
ATOM     42  C   UNL A   1      36.949  33.308  32.964  1.00  0.00    -0.014 A 
BRANCH  42  43
ATOM     43  C   UNL A   1      38.245  32.726  33.414  1.00  0.00     0.031 A 
ATOM     44  C   UNL A   1      38.823  31.639  32.538  1.00  0.00     0.074 A 
ATOM     45  C   UNL A   1      38.875  33.060  34.556  1.00  0.00     0.049 A 
ATOM     46  N   UNL A   1      39.892  30.903  32.708  1.00  0.00    -0.248 NA
ATOM     47  C   UNL A   1      38.081  31.340  31.299  1.00  0.00     0.031 C 
ATOM     48  C   UNL A   1      38.467  34.102  35.495  1.00  0.00     0.029 A 
ATOM     49  N   UNL A   1      40.008  32.521  35.126  1.00  0.00    -0.354 N 
ATOM     50  C   UNL A   1      39.951  30.073  31.595  1.00  0.00     0.074 A 
ATOM     51  C   UNL A   1      38.805  30.370  30.771  1.00  0.00     0.031 C 
ATOM     52  C   UNL A   1      39.328  34.114  36.532  1.00  0.00     0.029 A 
ATOM     53  C   UNL A   1      40.328  33.062  36.348  1.00  0.00     0.049 A 
ATOM     54  H   UNL A   1      40.540  31.813  34.695  1.00  0.00     0.167 HD
ATOM     55  C   UNL A   1      40.869  29.133  31.275  1.00  0.00     0.031 A 
ATOM     56  C   UNL A   1      41.301  32.726  37.222  1.00  0.00     0.031 A 
ATOM     57  C   UNL A   1      41.970  28.759  32.112  1.00  0.00     0.049 A 
ATOM     58  C   UNL A   1      42.248  31.592  36.901  1.00  0.00     0.074 A 
ATOM     59  C   UNL A   1      42.939  27.799  31.882  1.00  0.00     0.029 A 
ATOM     60  N   UNL A   1      42.231  29.310  33.355  1.00  0.00    -0.354 N 
ATOM     61  N   UNL A   1      42.322  30.849  35.821  1.00  0.00    -0.248 NA
ATOM     62  C   UNL A   1      43.251  31.252  37.926  1.00  0.00     0.031 C 
ATOM     63  C   UNL A   1      43.756  27.730  33.015  1.00  0.00     0.029 A 
ATOM     64  C   UNL A   1      43.332  28.691  33.918  1.00  0.00     0.049 A 
ATOM     65  H   UNL A   1      41.711  30.032  33.775  1.00  0.00     0.167 HD
ATOM     66  C   UNL A   1      43.397  29.986  36.025  1.00  0.00     0.074 A 
ATOM     67  C   UNL A   1      43.951  30.302  37.322  1.00  0.00     0.031 C 
ATOM     68  C   UNL A   1      43.883  29.020  35.206  1.00  0.00     0.031 A 
BRANCH  55  69
ATOM     69  C   UNL A   1      40.669  28.413  29.973  1.00  0.00    -0.014 A 
ATOM     70  C   UNL A   1      41.388  28.784  28.826  1.00  0.00     0.009 A 
ATOM     71  C   UNL A   1      39.741  27.365  29.891  1.00  0.00     0.009 A 
ATOM     72  C   UNL A   1      41.153  28.141  27.609  1.00  0.00     0.001 A 
ATOM     73  C   UNL A   1      39.529  26.706  28.680  1.00  0.00     0.001 A 
ATOM     74  C   UNL A   1      40.228  27.101  27.539  1.00  0.00     0.000 A 
ENDBRANCH  55  69
BRANCH  56  75
ATOM     75  C   UNL A   1      41.438  33.445  38.520  1.00  0.00    -0.014 A 
ATOM     76  C   UNL A   1      42.338  34.517  38.653  1.00  0.00     0.009 A 
ATOM     77  C   UNL A   1      40.729  33.018  39.653  1.00  0.00     0.009 A 
ATOM     78  C   UNL A   1      42.547  35.120  39.897  1.00  0.00     0.001 A 
ATOM     79  C   UNL A   1      40.918  33.643  40.889  1.00  0.00     0.001 A 
ATOM     80  C   UNL A   1      41.835  34.685  41.012  1.00  0.00     0.000 A 
ENDBRANCH  56  75
BRANCH  68  81
ATOM     81  C   UNL A   1      45.104  28.265  35.655  1.00  0.00    -0.014 A 
ATOM     82  C   UNL A   1      45.004  27.075  36.393  1.00  0.00     0.009 A 
ATOM     83  C   UNL A   1      46.377  28.721  35.274  1.00  0.00     0.009 A 
ATOM     84  C   UNL A   1      46.154  26.377  36.766  1.00  0.00     0.001 A 
ATOM     85  C   UNL A   1      47.523  28.005  35.622  1.00  0.00     0.001 A 
ATOM     86  C   UNL A   1      47.412  26.839  36.375  1.00  0.00     0.000 A 
ENDBRANCH  68  81
ENDBRANCH  42  43
ENDBRANCH  35  37
ENDBRANCH  34  35
ENDBRANCH  33  34
ENDBRANCH  32  33
ENDBRANCH  31  32
ENDBRANCH  30  31
ENDBRANCH   1  30
TORSDOF 20
ENDMDL
