MODEL 1
REMARK VINA RESULT:      -7.3      0.000      0.000
REMARK SMILES COc1cccc([C@H]2[NH2+][C@@](CC(C)C)(C(=O)OCCOCCOCCOC(=O)c3ccc(-c4c5nc(c(-c6ccccc6)c6ccc([nH]6)c(-c6ccccc6)c6nc(c(-c7ccccc7)c7ccc4[nH]7)C=C6)C=C5)cc3)[C@H]3C(=O)N(C(C)C)C(=O)[C@H]23)c1O
REMARK SMILES IDX 21 1 20 2 19 3 18 4 17 5 15 6 16 7 10 8 8 9 9 10 86 11 77 14
REMARK SMILES IDX 84 15 78 16 80 17 85 18 79 19 7 20 3 21 4 22 87 23 5 24 6 25
REMARK SMILES IDX 2 26 1 27 88 28 11 30 12 31 13 32 14 33 81 34 82 35 83 36
REMARK SMILES IDX 22 37 23 38 24 39 25 40 26 41 27 42 28 43 29 44 30 45 76 46
REMARK SMILES IDX 31 47 75 48 32 49 33 50 34 51 69 52 35 53 74 54 68 55 70 56
REMARK SMILES IDX 36 57 73 58 67 59 66 60 37 62 59 63 44 64 58 65 45 66 48 67
REMARK SMILES IDX 57 68 71 69 46 70 47 71 56 73 72 74 49 75 38 76 39 77 43 78
REMARK SMILES IDX 40 79 42 80 41 81 60 82 61 83 65 84 62 85 64 86 63 87 50 88
REMARK SMILES IDX 51 89 55 90 52 91 54 92 53 93
REMARK H PARENT 9 12 9 13 88 29 70 61 48 72
REMARK Flexibility Score: inf
ROOT
ATOM      1  C   UNL A   1      39.030  32.334  40.801  1.00  0.00     0.188 C 
ENDROOT
BRANCH   1   2
ATOM      2  O   UNL A   1      38.951  33.581  40.120  1.00  0.00    -0.376 OA
BRANCH   2   3
ATOM      3  C   UNL A   1      38.015  33.694  39.053  1.00  0.00     0.202 C 
BRANCH   3   4
ATOM      4  C   UNL A   1      37.690  32.380  38.341  1.00  0.00     0.261 C 
BRANCH   4   5
ATOM      5  O   UNL A   1      38.151  32.358  36.970  1.00  0.00    -0.459 OA
BRANCH   5   6
ATOM      6  C   UNL A   1      37.487  33.111  36.047  1.00  0.00     0.369 C 
ATOM      7  O   UNL A   1      36.289  33.363  36.098  1.00  0.00    -0.245 OA
BRANCH   6   8
ATOM      8  C   UNL A   1      38.413  33.544  34.864  1.00  0.00     0.207 C 
ATOM      9  C   UNL A   1      37.225  33.874  32.701  1.00  0.00     0.232 C 
ATOM     10  N   UNL A   1      37.580  34.478  34.019  1.00  0.00    -0.324 N 
ATOM     11  C   UNL A   1      37.434  32.413  33.006  1.00  0.00     0.161 C 
ATOM     12  H   UNL A   1      36.720  34.700  34.522  1.00  0.00     0.347 HD
ATOM     13  H   UNL A   1      38.131  35.320  33.843  1.00  0.00     0.347 HD
ATOM     14  C   UNL A   1      38.732  32.508  33.817  1.00  0.00     0.171 C 
ATOM     15  C   UNL A   1      37.833  31.322  32.044  1.00  0.00     0.240 C 
ATOM     16  C   UNL A   1      39.073  31.062  33.954  1.00  0.00     0.240 C 
ATOM     17  N   UNL A   1      38.652  30.472  32.780  1.00  0.00    -0.279 N 
ATOM     18  O   UNL A   1      37.461  31.191  30.900  1.00  0.00    -0.274 OA
ATOM     19  O   UNL A   1      39.760  30.552  34.818  1.00  0.00    -0.274 OA
BRANCH   9  20
ATOM     20  C   UNL A   1      35.906  34.497  32.307  1.00  0.00     0.056 A 
ATOM     21  C   UNL A   1      33.904  34.792  30.955  1.00  0.00     0.161 A 
ATOM     22  C   UNL A   1      33.355  35.654  31.905  1.00  0.00     0.050 A 
ATOM     23  C   UNL A   1      35.182  34.234  31.144  1.00  0.00     0.166 A 
ATOM     24  C   UNL A   1      34.074  35.962  33.052  1.00  0.00     0.005 A 
ATOM     25  C   UNL A   1      35.333  35.397  33.241  1.00  0.00     0.014 A 
BRANCH  21  26
ATOM     26  O   UNL A   1      33.181  34.614  29.803  1.00  0.00    -0.493 OA
ATOM     27  C   UNL A   1      33.027  35.813  29.043  1.00  0.00     0.278 C 
ENDBRANCH  21  26
BRANCH  23  28
ATOM     28  O   UNL A   1      35.738  33.467  30.161  1.00  0.00    -0.504 OA
ATOM     29  H   UNL A   1      35.188  32.990  29.571  1.00  0.00     0.293 HD
ENDBRANCH  23  28
ENDBRANCH   9  20
BRANCH   8  30
ATOM     30  C   UNL A   1      39.594  34.445  35.325  1.00  0.00     0.085 C 
BRANCH  30  31
ATOM     31  C   UNL A   1      41.022  34.266  34.794  1.00  0.00    -0.011 C 
ATOM     32  C   UNL A   1      41.358  35.062  33.540  1.00  0.00     0.007 C 
ATOM     33  C   UNL A   1      42.009  34.693  35.896  1.00  0.00     0.007 C 
ENDBRANCH  30  31
ENDBRANCH   8  30
BRANCH  17  34
ATOM     34  C   UNL A   1      39.157  29.160  32.370  1.00  0.00     0.087 C 
ATOM     35  C   UNL A   1      38.048  28.120  32.276  1.00  0.00     0.031 C 
ATOM     36  C   UNL A   1      39.977  29.243  31.085  1.00  0.00     0.031 C 
ENDBRANCH  17  34
ENDBRANCH   6   8
ENDBRANCH   5   6
ENDBRANCH   4   5
ENDBRANCH   3   4
ENDBRANCH   2   3
ENDBRANCH   1   2
BRANCH   1  37
ATOM     37  C   UNL A   1      39.385  32.376  42.283  1.00  0.00     0.188 C 
BRANCH  37  38
ATOM     38  O   UNL A   1      40.625  31.735  42.555  1.00  0.00    -0.376 OA
BRANCH  38  39
ATOM     39  C   UNL A   1      41.739  32.589  42.289  1.00  0.00     0.202 C 
BRANCH  39  40
ATOM     40  C   UNL A   1      42.842  31.754  41.638  1.00  0.00     0.261 C 
BRANCH  40  41
ATOM     41  O   UNL A   1      43.786  32.579  40.917  1.00  0.00    -0.460 OA
BRANCH  41  42
ATOM     42  C   UNL A   1      43.345  33.103  39.754  1.00  0.00     0.338 C 
ATOM     43  O   UNL A   1      42.931  34.232  39.562  1.00  0.00    -0.246 OA
BRANCH  42  44
ATOM     44  C   UNL A   1      43.496  32.106  38.677  1.00  0.00     0.060 A 
ATOM     45  C   UNL A   1      44.775  31.707  38.293  1.00  0.00     0.016 A 
ATOM     46  C   UNL A   1      42.392  31.680  37.948  1.00  0.00     0.016 A 
ATOM     47  C   UNL A   1      44.972  30.935  37.148  1.00  0.00     0.010 A 
ATOM     48  C   UNL A   1      42.583  30.865  36.823  1.00  0.00     0.010 A 
ATOM     49  C   UNL A   1      43.878  30.515  36.387  1.00  0.00    -0.014 A 
BRANCH  49  50
ATOM     50  C   UNL A   1      44.071  29.832  35.076  1.00  0.00     0.031 A 
ATOM     51  C   UNL A   1      43.882  30.623  33.808  1.00  0.00     0.074 A 
ATOM     52  C   UNL A   1      44.432  28.537  34.985  1.00  0.00     0.049 A 
ATOM     53  N   UNL A   1      43.686  30.203  32.585  1.00  0.00    -0.248 NA
ATOM     54  C   UNL A   1      43.903  32.089  33.946  1.00  0.00     0.031 C 
ATOM     55  C   UNL A   1      44.781  27.663  36.105  1.00  0.00     0.029 A 
ATOM     56  N   UNL A   1      44.561  27.726  33.880  1.00  0.00    -0.354 N 
ATOM     57  C   UNL A   1      43.473  31.347  31.824  1.00  0.00     0.074 A 
ATOM     58  C   UNL A   1      43.586  32.479  32.719  1.00  0.00     0.031 C 
ATOM     59  C   UNL A   1      45.095  26.446  35.632  1.00  0.00     0.029 A 
ATOM     60  C   UNL A   1      44.869  26.424  34.190  1.00  0.00     0.049 A 
ATOM     61  H   UNL A   1      44.442  28.050  32.958  1.00  0.00     0.167 HD
ATOM     62  C   UNL A   1      43.189  31.441  30.503  1.00  0.00     0.031 A 
ATOM     63  C   UNL A   1      44.897  25.320  33.418  1.00  0.00     0.031 A 
ATOM     64  C   UNL A   1      43.130  30.313  29.611  1.00  0.00     0.049 A 
ATOM     65  C   UNL A   1      44.514  25.428  31.968  1.00  0.00     0.074 A 
ATOM     66  C   UNL A   1      42.831  30.292  28.260  1.00  0.00     0.029 A 
ATOM     67  N   UNL A   1      43.404  29.006  29.982  1.00  0.00    -0.354 N 
ATOM     68  N   UNL A   1      44.185  26.492  31.277  1.00  0.00    -0.248 NA
ATOM     69  C   UNL A   1      44.476  24.175  31.199  1.00  0.00     0.031 C 
ATOM     70  C   UNL A   1      42.887  28.965  27.820  1.00  0.00     0.029 A 
ATOM     71  C   UNL A   1      43.272  28.168  28.888  1.00  0.00     0.049 A 
ATOM     72  H   UNL A   1      43.655  28.716  30.888  1.00  0.00     0.167 HD
ATOM     73  C   UNL A   1      43.908  26.041  29.993  1.00  0.00     0.074 A 
ATOM     74  C   UNL A   1      44.132  24.609  29.994  1.00  0.00     0.031 C 
ATOM     75  C   UNL A   1      43.498  26.746  28.911  1.00  0.00     0.031 A 
BRANCH  62  76
ATOM     76  C   UNL A   1      42.847  32.801  29.963  1.00  0.00    -0.014 A 
ATOM     77  C   UNL A   1      41.585  33.382  30.153  1.00  0.00     0.009 A 
ATOM     78  C   UNL A   1      43.825  33.519  29.255  1.00  0.00     0.009 A 
ATOM     79  C   UNL A   1      41.298  34.639  29.614  1.00  0.00     0.001 A 
ATOM     80  C   UNL A   1      43.545  34.787  28.743  1.00  0.00     0.001 A 
ATOM     81  C   UNL A   1      42.279  35.342  28.913  1.00  0.00     0.000 A 
ENDBRANCH  62  76
BRANCH  63  82
ATOM     82  C   UNL A   1      45.208  23.997  34.024  1.00  0.00    -0.014 A 
ATOM     83  C   UNL A   1      46.537  23.581  34.198  1.00  0.00     0.009 A 
ATOM     84  C   UNL A   1      44.173  23.140  34.432  1.00  0.00     0.009 A 
ATOM     85  C   UNL A   1      46.820  22.332  34.760  1.00  0.00     0.001 A 
ATOM     86  C   UNL A   1      44.458  21.908  35.022  1.00  0.00     0.001 A 
ATOM     87  C   UNL A   1      45.781  21.502  35.179  1.00  0.00     0.000 A 
ENDBRANCH  63  82
BRANCH  75  88
ATOM     88  C   UNL A   1      43.301  25.984  27.633  1.00  0.00    -0.014 A 
ATOM     89  C   UNL A   1      44.343  25.841  26.703  1.00  0.00     0.009 A 
ATOM     90  C   UNL A   1      42.065  25.373  27.372  1.00  0.00     0.009 A 
ATOM     91  C   UNL A   1      44.140  25.124  25.522  1.00  0.00     0.001 A 
ATOM     92  C   UNL A   1      41.873  24.636  26.202  1.00  0.00     0.001 A 
ATOM     93  C   UNL A   1      42.907  24.520  25.275  1.00  0.00     0.000 A 
ENDBRANCH  75  88
ENDBRANCH  49  50
ENDBRANCH  42  44
ENDBRANCH  41  42
ENDBRANCH  40  41
ENDBRANCH  39  40
ENDBRANCH  38  39
ENDBRANCH  37  38
ENDBRANCH   1  37
TORSDOF 23
ENDMDL
MODEL 2
REMARK VINA RESULT:      -7.2      3.178      7.793
REMARK SMILES COc1cccc([C@H]2[NH2+][C@@](CC(C)C)(C(=O)OCCOCCOCCOC(=O)c3ccc(-c4c5nc(c(-c6ccccc6)c6ccc([nH]6)c(-c6ccccc6)c6nc(c(-c7ccccc7)c7ccc4[nH]7)C=C6)C=C5)cc3)[C@H]3C(=O)N(C(C)C)C(=O)[C@H]23)c1O
REMARK SMILES IDX 21 1 20 2 19 3 18 4 17 5 15 6 16 7 10 8 8 9 9 10 86 11 77 14
REMARK SMILES IDX 84 15 78 16 80 17 85 18 79 19 7 20 3 21 4 22 87 23 5 24 6 25
REMARK SMILES IDX 2 26 1 27 88 28 11 30 12 31 13 32 14 33 81 34 82 35 83 36
REMARK SMILES IDX 22 37 23 38 24 39 25 40 26 41 27 42 28 43 29 44 30 45 76 46
REMARK SMILES IDX 31 47 75 48 32 49 33 50 34 51 69 52 35 53 74 54 68 55 70 56
REMARK SMILES IDX 36 57 73 58 67 59 66 60 37 62 59 63 44 64 58 65 45 66 48 67
REMARK SMILES IDX 57 68 71 69 46 70 47 71 56 73 72 74 49 75 38 76 39 77 43 78
REMARK SMILES IDX 40 79 42 80 41 81 60 82 61 83 65 84 62 85 64 86 63 87 50 88
REMARK SMILES IDX 51 89 55 90 52 91 54 92 53 93
REMARK H PARENT 9 12 9 13 88 29 70 61 48 72
REMARK Flexibility Score: inf
ROOT
ATOM      1  C   UNL A   1      36.045  33.166  28.450  1.00  0.00     0.188 C 
ENDROOT
BRANCH   1   2
ATOM      2  O   UNL A   1      36.786  33.713  29.533  1.00  0.00    -0.376 OA
BRANCH   2   3
ATOM      3  C   UNL A   1      38.077  34.245  29.251  1.00  0.00     0.202 C 
BRANCH   3   4
ATOM      4  C   UNL A   1      38.866  34.705  30.478  1.00  0.00     0.261 C 
BRANCH   4   5
ATOM      5  O   UNL A   1      38.293  34.233  31.719  1.00  0.00    -0.459 OA
BRANCH   5   6
ATOM      6  C   UNL A   1      38.882  33.178  32.350  1.00  0.00     0.369 C 
ATOM      7  O   UNL A   1      40.092  32.987  32.385  1.00  0.00    -0.245 OA
BRANCH   6   8
ATOM      8  C   UNL A   1      37.832  32.187  32.947  1.00  0.00     0.207 C 
ATOM      9  C   UNL A   1      35.707  33.262  33.676  1.00  0.00     0.232 C 
ATOM     10  N   UNL A   1      36.484  32.721  32.521  1.00  0.00    -0.324 N 
ATOM     11  C   UNL A   1      36.817  33.490  34.669  1.00  0.00     0.161 C 
ATOM     12  H   UNL A   1      36.626  33.467  31.840  1.00  0.00     0.347 HD
ATOM     13  H   UNL A   1      35.952  31.948  32.117  1.00  0.00     0.347 HD
ATOM     14  C   UNL A   1      37.627  32.208  34.440  1.00  0.00     0.171 C 
ATOM     15  C   UNL A   1      36.725  33.450  36.173  1.00  0.00     0.240 C 
ATOM     16  C   UNL A   1      38.614  32.309  35.554  1.00  0.00     0.240 C 
ATOM     17  N   UNL A   1      37.935  32.906  36.595  1.00  0.00    -0.279 N 
ATOM     18  O   UNL A   1      35.817  33.864  36.856  1.00  0.00    -0.274 OA
ATOM     19  O   UNL A   1      39.711  31.789  35.607  1.00  0.00    -0.274 OA
BRANCH   9  20
ATOM     20  C   UNL A   1      34.822  34.344  33.101  1.00  0.00     0.056 A 
ATOM     21  C   UNL A   1      33.144  35.283  31.610  1.00  0.00     0.161 A 
ATOM     22  C   UNL A   1      33.104  36.464  32.352  1.00  0.00     0.050 A 
ATOM     23  C   UNL A   1      34.014  34.238  31.969  1.00  0.00     0.166 A 
ATOM     24  C   UNL A   1      33.928  36.609  33.460  1.00  0.00     0.005 A 
ATOM     25  C   UNL A   1      34.779  35.566  33.820  1.00  0.00     0.014 A 
BRANCH  21  26
ATOM     26  O   UNL A   1      32.377  35.252  30.473  1.00  0.00    -0.493 OA
ATOM     27  C   UNL A   1      33.119  35.528  29.284  1.00  0.00     0.278 C 
ENDBRANCH  21  26
BRANCH  23  28
ATOM     28  O   UNL A   1      34.104  33.129  31.177  1.00  0.00    -0.504 OA
ATOM     29  H   UNL A   1      33.335  32.634  30.975  1.00  0.00     0.293 HD
ENDBRANCH  23  28
ENDBRANCH   9  20
BRANCH   8  30
ATOM     30  C   UNL A   1      37.881  30.784  32.278  1.00  0.00     0.085 C 
BRANCH  30  31
ATOM     31  C   UNL A   1      38.436  29.547  32.997  1.00  0.00    -0.011 C 
ATOM     32  C   UNL A   1      37.979  28.207  32.438  1.00  0.00     0.007 C 
ATOM     33  C   UNL A   1      39.974  29.587  32.918  1.00  0.00     0.007 C 
ENDBRANCH  30  31
ENDBRANCH   8  30
BRANCH  17  34
ATOM     34  C   UNL A   1      38.430  32.821  37.970  1.00  0.00     0.087 C 
ATOM     35  C   UNL A   1      38.785  34.188  38.541  1.00  0.00     0.031 C 
ATOM     36  C   UNL A   1      37.469  32.052  38.874  1.00  0.00     0.031 C 
ENDBRANCH  17  34
ENDBRANCH   6   8
ENDBRANCH   5   6
ENDBRANCH   4   5
ENDBRANCH   3   4
ENDBRANCH   2   3
ENDBRANCH   1   2
BRANCH   1  37
ATOM     37  C   UNL A   1      35.635  31.702  28.561  1.00  0.00     0.188 C 
BRANCH  37  38
ATOM     38  O   UNL A   1      36.156  30.916  27.496  1.00  0.00    -0.376 OA
BRANCH  38  39
ATOM     39  C   UNL A   1      36.141  29.522  27.802  1.00  0.00     0.202 C 
BRANCH  39  40
ATOM     40  C   UNL A   1      36.926  29.303  29.096  1.00  0.00     0.261 C 
BRANCH  40  41
ATOM     41  O   UNL A   1      38.333  29.089  28.840  1.00  0.00    -0.460 OA
BRANCH  41  42
ATOM     42  C   UNL A   1      39.150  30.126  29.121  1.00  0.00     0.338 C 
ATOM     43  O   UNL A   1      38.840  31.297  29.252  1.00  0.00    -0.246 OA
BRANCH  42  44
ATOM     44  C   UNL A   1      40.524  29.629  29.323  1.00  0.00     0.060 A 
ATOM     45  C   UNL A   1      40.738  28.259  29.470  1.00  0.00     0.016 A 
ATOM     46  C   UNL A   1      41.576  30.517  29.519  1.00  0.00     0.016 A 
ATOM     47  C   UNL A   1      41.980  27.766  29.872  1.00  0.00     0.010 A 
ATOM     48  C   UNL A   1      42.837  30.020  29.877  1.00  0.00     0.010 A 
ATOM     49  C   UNL A   1      43.044  28.643  30.096  1.00  0.00    -0.014 A 
BRANCH  49  50
ATOM     50  C   UNL A   1      44.327  28.158  30.681  1.00  0.00     0.031 A 
ATOM     51  C   UNL A   1      45.512  27.958  29.771  1.00  0.00     0.074 A 
ATOM     52  C   UNL A   1      44.473  27.915  31.998  1.00  0.00     0.049 A 
ATOM     53  N   UNL A   1      46.606  27.269  29.967  1.00  0.00    -0.248 NA
ATOM     54  C   UNL A   1      45.441  28.616  28.455  1.00  0.00     0.031 C 
ATOM     55  C   UNL A   1      43.474  28.178  33.034  1.00  0.00     0.029 A 
ATOM     56  N   UNL A   1      45.535  27.381  32.690  1.00  0.00    -0.354 N 
ATOM     57  C   UNL A   1      47.312  27.337  28.771  1.00  0.00     0.074 A 
ATOM     58  C   UNL A   1      46.533  28.153  27.864  1.00  0.00     0.031 C 
ATOM     59  C   UNL A   1      43.973  27.817  34.227  1.00  0.00     0.029 A 
ATOM     60  C   UNL A   1      45.282  27.203  34.029  1.00  0.00     0.049 A 
ATOM     61  H   UNL A   1      46.393  27.149  32.266  1.00  0.00     0.167 HD
ATOM     62  C   UNL A   1      48.493  26.755  28.455  1.00  0.00     0.031 A 
ATOM     63  C   UNL A   1      45.987  26.555  34.978  1.00  0.00     0.031 A 
ATOM     64  C   UNL A   1      49.286  25.989  29.379  1.00  0.00     0.049 A 
ATOM     65  C   UNL A   1      47.262  25.857  34.597  1.00  0.00     0.074 A 
ATOM     66  C   UNL A   1      50.487  25.337  29.159  1.00  0.00     0.029 A 
ATOM     67  N   UNL A   1      48.964  25.796  30.714  1.00  0.00    -0.354 N 
ATOM     68  N   UNL A   1      47.864  25.811  33.433  1.00  0.00    -0.248 NA
ATOM     69  C   UNL A   1      47.939  25.092  35.655  1.00  0.00     0.031 C 
ATOM     70  C   UNL A   1      50.873  24.718  30.353  1.00  0.00     0.029 A 
ATOM     71  C   UNL A   1      49.938  25.028  31.327  1.00  0.00     0.049 A 
ATOM     72  H   UNL A   1      48.162  26.152  31.159  1.00  0.00     0.167 HD
ATOM     73  C   UNL A   1      48.992  25.022  33.620  1.00  0.00     0.074 A 
ATOM     74  C   UNL A   1      49.004  24.630  35.015  1.00  0.00     0.031 C 
ATOM     75  C   UNL A   1      49.930  24.648  32.716  1.00  0.00     0.031 A 
BRANCH  62  76
ATOM     76  C   UNL A   1      48.958  26.862  27.029  1.00  0.00    -0.014 A 
ATOM     77  C   UNL A   1      48.552  25.952  26.043  1.00  0.00     0.009 A 
ATOM     78  C   UNL A   1      49.818  27.913  26.670  1.00  0.00     0.009 A 
ATOM     79  C   UNL A   1      49.026  26.072  24.734  1.00  0.00     0.001 A 
ATOM     80  C   UNL A   1      50.267  28.048  25.355  1.00  0.00     0.001 A 
ATOM     81  C   UNL A   1      49.880  27.121  24.390  1.00  0.00     0.000 A 
ENDBRANCH  62  76
BRANCH  63  82
ATOM     82  C   UNL A   1      45.451  26.456  36.363  1.00  0.00    -0.014 A 
ATOM     83  C   UNL A   1      44.609  25.396  36.734  1.00  0.00     0.009 A 
ATOM     84  C   UNL A   1      45.782  27.424  37.325  1.00  0.00     0.009 A 
ATOM     85  C   UNL A   1      44.104  25.316  38.034  1.00  0.00     0.001 A 
ATOM     86  C   UNL A   1      45.303  27.325  38.631  1.00  0.00     0.001 A 
ATOM     87  C   UNL A   1      44.458  26.274  38.984  1.00  0.00     0.000 A 
ENDBRANCH  63  82
BRANCH  75  88
ATOM     88  C   UNL A   1      51.064  23.802  33.219  1.00  0.00    -0.014 A 
ATOM     89  C   UNL A   1      52.252  24.383  33.691  1.00  0.00     0.009 A 
ATOM     90  C   UNL A   1      50.928  22.406  33.251  1.00  0.00     0.009 A 
ATOM     91  C   UNL A   1      53.293  23.579  34.158  1.00  0.00     0.001 A 
ATOM     92  C   UNL A   1      51.961  21.606  33.741  1.00  0.00     0.001 A 
ATOM     93  C   UNL A   1      53.144  22.191  34.186  1.00  0.00     0.000 A 
ENDBRANCH  75  88
ENDBRANCH  49  50
ENDBRANCH  42  44
ENDBRANCH  41  42
ENDBRANCH  40  41
ENDBRANCH  39  40
ENDBRANCH  38  39
ENDBRANCH  37  38
ENDBRANCH   1  37
TORSDOF 23
ENDMDL
MODEL 3
REMARK VINA RESULT:      -7.0      5.032     12.222
REMARK SMILES COc1cccc([C@H]2[NH2+][C@@](CC(C)C)(C(=O)OCCOCCOCCOC(=O)c3ccc(-c4c5nc(c(-c6ccccc6)c6ccc([nH]6)c(-c6ccccc6)c6nc(c(-c7ccccc7)c7ccc4[nH]7)C=C6)C=C5)cc3)[C@H]3C(=O)N(C(C)C)C(=O)[C@H]23)c1O
REMARK SMILES IDX 21 1 20 2 19 3 18 4 17 5 15 6 16 7 10 8 8 9 9 10 86 11 77 14
REMARK SMILES IDX 84 15 78 16 80 17 85 18 79 19 7 20 3 21 4 22 87 23 5 24 6 25
REMARK SMILES IDX 2 26 1 27 88 28 11 30 12 31 13 32 14 33 81 34 82 35 83 36
REMARK SMILES IDX 22 37 23 38 24 39 25 40 26 41 27 42 28 43 29 44 30 45 76 46
REMARK SMILES IDX 31 47 75 48 32 49 33 50 34 51 69 52 35 53 74 54 68 55 70 56
REMARK SMILES IDX 36 57 73 58 67 59 66 60 37 62 59 63 44 64 58 65 45 66 48 67
REMARK SMILES IDX 57 68 71 69 46 70 47 71 56 73 72 74 49 75 38 76 39 77 43 78
REMARK SMILES IDX 40 79 42 80 41 81 60 82 61 83 65 84 62 85 64 86 63 87 50 88
REMARK SMILES IDX 51 89 55 90 52 91 54 92 53 93
REMARK H PARENT 9 12 9 13 88 29 70 61 48 72
REMARK Flexibility Score: inf
ROOT
ATOM      1  C   UNL A   1      36.642  29.688  28.879  1.00  0.00     0.188 C 
ENDROOT
BRANCH   1   2
ATOM      2  O   UNL A   1      37.555  29.206  27.900  1.00  0.00    -0.376 OA
BRANCH   2   3
ATOM      3  C   UNL A   1      38.826  28.746  28.349  1.00  0.00     0.202 C 
BRANCH   3   4
ATOM      4  C   UNL A   1      39.972  28.952  27.356  1.00  0.00     0.261 C 
BRANCH   4   5
ATOM      5  O   UNL A   1      41.092  28.073  27.607  1.00  0.00    -0.459 OA
BRANCH   5   6
ATOM      6  C   UNL A   1      41.315  27.039  26.746  1.00  0.00     0.369 C 
ATOM      7  O   UNL A   1      41.284  27.141  25.526  1.00  0.00    -0.245 OA
BRANCH   6   8
ATOM      8  C   UNL A   1      41.526  25.684  27.496  1.00  0.00     0.207 C 
ATOM      9  C   UNL A   1      43.330  25.731  29.211  1.00  0.00     0.232 C 
ATOM     10  N   UNL A   1      41.905  26.058  28.910  1.00  0.00    -0.324 N 
ATOM     11  C   UNL A   1      43.890  25.636  27.815  1.00  0.00     0.161 C 
ATOM     12  H   UNL A   1      41.763  27.060  29.034  1.00  0.00     0.347 HD
ATOM     13  H   UNL A   1      41.316  25.520  29.547  1.00  0.00     0.347 HD
ATOM     14  C   UNL A   1      42.745  24.874  27.137  1.00  0.00     0.171 C 
ATOM     15  C   UNL A   1      45.049  24.793  27.347  1.00  0.00     0.240 C 
ATOM     16  C   UNL A   1      43.362  24.583  25.810  1.00  0.00     0.240 C 
ATOM     17  N   UNL A   1      44.703  24.383  26.063  1.00  0.00    -0.279 N 
ATOM     18  O   UNL A   1      46.080  24.581  27.943  1.00  0.00    -0.274 OA
ATOM     19  O   UNL A   1      42.779  24.363  24.766  1.00  0.00    -0.274 OA
BRANCH   9  20
ATOM     20  C   UNL A   1      43.768  26.734  30.254  1.00  0.00     0.056 A 
ATOM     21  C   UNL A   1      44.886  27.490  32.278  1.00  0.00     0.161 A 
ATOM     22  C   UNL A   1      44.657  28.824  31.941  1.00  0.00     0.050 A 
ATOM     23  C   UNL A   1      44.425  26.450  31.451  1.00  0.00     0.166 A 
ATOM     24  C   UNL A   1      43.970  29.132  30.774  1.00  0.00     0.005 A 
ATOM     25  C   UNL A   1      43.527  28.099  29.951  1.00  0.00     0.014 A 
BRANCH  21  26
ATOM     26  O   UNL A   1      45.480  27.262  33.493  1.00  0.00    -0.493 OA
ATOM     27  C   UNL A   1      46.905  27.186  33.419  1.00  0.00     0.278 C 
ENDBRANCH  21  26
BRANCH  23  28
ATOM     28  O   UNL A   1      44.578  25.152  31.845  1.00  0.00    -0.504 OA
ATOM     29  H   UNL A   1      44.484  24.923  32.748  1.00  0.00     0.293 HD
ENDBRANCH  23  28
ENDBRANCH   9  20
BRANCH   8  30
ATOM     30  C   UNL A   1      40.202  24.890  27.686  1.00  0.00     0.085 C 
BRANCH  30  31
ATOM     31  C   UNL A   1      39.755  23.789  26.714  1.00  0.00    -0.011 C 
ATOM     32  C   UNL A   1      40.049  22.364  27.163  1.00  0.00     0.007 C 
ATOM     33  C   UNL A   1      38.234  23.909  26.508  1.00  0.00     0.007 C 
ENDBRANCH  30  31
ENDBRANCH   8  30
BRANCH  17  34
ATOM     34  C   UNL A   1      45.561  23.698  25.095  1.00  0.00     0.087 C 
ATOM     35  C   UNL A   1      46.865  24.447  24.849  1.00  0.00     0.031 C 
ATOM     36  C   UNL A   1      45.800  22.240  25.480  1.00  0.00     0.031 C 
ENDBRANCH  17  34
ENDBRANCH   6   8
ENDBRANCH   5   6
ENDBRANCH   4   5
ENDBRANCH   3   4
ENDBRANCH   2   3
ENDBRANCH   1   2
BRANCH   1  37
ATOM     37  C   UNL A   1      36.054  31.076  28.654  1.00  0.00     0.188 C 
BRANCH  37  38
ATOM     38  O   UNL A   1      35.887  31.792  29.871  1.00  0.00    -0.376 OA
BRANCH  38  39
ATOM     39  C   UNL A   1      36.021  30.945  31.013  1.00  0.00     0.202 C 
BRANCH  39  40
ATOM     40  C   UNL A   1      36.833  31.690  32.074  1.00  0.00     0.261 C 
BRANCH  40  41
ATOM     41  O   UNL A   1      37.969  32.375  31.498  1.00  0.00    -0.460 OA
BRANCH  41  42
ATOM     42  C   UNL A   1      38.192  33.629  31.945  1.00  0.00     0.338 C 
ATOM     43  O   UNL A   1      37.602  34.212  32.837  1.00  0.00    -0.246 OA
BRANCH  42  44
ATOM     44  C   UNL A   1      39.341  34.210  31.225  1.00  0.00     0.060 A 
ATOM     45  C   UNL A   1      39.183  34.606  29.898  1.00  0.00     0.016 A 
ATOM     46  C   UNL A   1      40.605  34.224  31.804  1.00  0.00     0.016 A 
ATOM     47  C   UNL A   1      40.285  34.960  29.119  1.00  0.00     0.010 A 
ATOM     48  C   UNL A   1      41.708  34.624  31.036  1.00  0.00     0.010 A 
ATOM     49  C   UNL A   1      41.567  34.959  29.674  1.00  0.00    -0.014 A 
BRANCH  49  50
ATOM     50  C   UNL A   1      42.772  35.173  28.823  1.00  0.00     0.031 A 
ATOM     51  C   UNL A   1      43.660  33.997  28.509  1.00  0.00     0.074 A 
ATOM     52  C   UNL A   1      43.083  36.378  28.304  1.00  0.00     0.049 A 
ATOM     53  N   UNL A   1      44.893  33.976  28.074  1.00  0.00    -0.248 NA
ATOM     54  C   UNL A   1      43.077  32.663  28.733  1.00  0.00     0.031 C 
ATOM     55  C   UNL A   1      42.268  37.588  28.400  1.00  0.00     0.029 A 
ATOM     56  N   UNL A   1      44.188  36.777  27.589  1.00  0.00    -0.354 N 
ATOM     57  C   UNL A   1      45.262  32.636  28.055  1.00  0.00     0.074 A 
ATOM     58  C   UNL A   1      44.116  31.874  28.502  1.00  0.00     0.031 C 
ATOM     59  C   UNL A   1      42.893  38.589  27.758  1.00  0.00     0.029 A 
ATOM     60  C   UNL A   1      44.196  38.120  27.299  1.00  0.00     0.049 A 
ATOM     61  H   UNL A   1      44.904  36.160  27.313  1.00  0.00     0.167 HD
ATOM     62  C   UNL A   1      46.457  32.096  27.716  1.00  0.00     0.031 A 
ATOM     63  C   UNL A   1      45.166  38.903  26.787  1.00  0.00     0.031 A 
ATOM     64  C   UNL A   1      47.574  32.857  27.223  1.00  0.00     0.049 A 
ATOM     65  C   UNL A   1      46.509  38.302  26.477  1.00  0.00     0.074 A 
ATOM     66  C   UNL A   1      48.837  32.413  26.869  1.00  0.00     0.029 A 
ATOM     67  N   UNL A   1      47.549  34.223  26.991  1.00  0.00    -0.354 N 
ATOM     68  N   UNL A   1      46.900  37.055  26.584  1.00  0.00    -0.248 NA
ATOM     69  C   UNL A   1      47.554  39.223  26.008  1.00  0.00     0.031 C 
ATOM     70  C   UNL A   1      49.589  33.520  26.457  1.00  0.00     0.029 A 
ATOM     71  C   UNL A   1      48.777  34.642  26.506  1.00  0.00     0.049 A 
ATOM     72  H   UNL A   1      46.774  34.809  27.146  1.00  0.00     0.167 HD
ATOM     73  C   UNL A   1      48.232  37.040  26.188  1.00  0.00     0.074 A 
ATOM     74  C   UNL A   1      48.574  38.398  25.816  1.00  0.00     0.031 C 
ATOM     75  C   UNL A   1      49.096  35.998  26.143  1.00  0.00     0.031 A 
BRANCH  62  76
ATOM     76  C   UNL A   1      46.638  30.620  27.938  1.00  0.00    -0.014 A 
ATOM     77  C   UNL A   1      47.162  30.106  29.132  1.00  0.00     0.009 A 
ATOM     78  C   UNL A   1      46.258  29.726  26.923  1.00  0.00     0.009 A 
ATOM     79  C   UNL A   1      47.337  28.728  29.291  1.00  0.00     0.001 A 
ATOM     80  C   UNL A   1      46.406  28.349  27.095  1.00  0.00     0.001 A 
ATOM     81  C   UNL A   1      46.956  27.851  28.274  1.00  0.00     0.000 A 
ENDBRANCH  62  76
BRANCH  63  82
ATOM     82  C   UNL A   1      44.934  40.364  26.626  1.00  0.00    -0.014 A 
ATOM     83  C   UNL A   1      45.231  41.259  27.666  1.00  0.00     0.009 A 
ATOM     84  C   UNL A   1      44.412  40.874  25.425  1.00  0.00     0.009 A 
ATOM     85  C   UNL A   1      45.001  42.628  27.508  1.00  0.00     0.001 A 
ATOM     86  C   UNL A   1      44.214  42.245  25.258  1.00  0.00     0.001 A 
ATOM     87  C   UNL A   1      44.502  43.121  26.303  1.00  0.00     0.000 A 
ENDBRANCH  63  82
BRANCH  75  88
ATOM     88  C   UNL A   1      50.483  36.281  25.642  1.00  0.00    -0.014 A 
ATOM     89  C   UNL A   1      50.797  36.180  24.277  1.00  0.00     0.009 A 
ATOM     90  C   UNL A   1      51.478  36.686  26.543  1.00  0.00     0.009 A 
ATOM     91  C   UNL A   1      52.092  36.453  23.831  1.00  0.00     0.001 A 
ATOM     92  C   UNL A   1      52.765  36.982  26.091  1.00  0.00     0.001 A 
ATOM     93  C   UNL A   1      53.073  36.856  24.738  1.00  0.00     0.000 A 
ENDBRANCH  75  88
ENDBRANCH  49  50
ENDBRANCH  42  44
ENDBRANCH  41  42
ENDBRANCH  40  41
ENDBRANCH  39  40
ENDBRANCH  38  39
ENDBRANCH  37  38
ENDBRANCH   1  37
TORSDOF 23
ENDMDL
