MODEL 1
REMARK VINA RESULT:      -9.2      0.000      0.000
REMARK SMILES C[C@H]1CC[C@@]1(C(=O)OCCOCCOCCOC(=O)c1ccc(-c2c3nc(c(-c4ccccc4)c4ccc([nH]4)c(-c4ccccc4)c4nc(c(-c5ccccc5)c5ccc2[nH]5)C=C4)C=C3)cc1)c1cc(F)cc(F)c1
REMARK SMILES IDX 13 1 12 2 11 3 10 4 9 5 8 6 6 7 7 8 5 9 1 10 2 11 3 12 4 13
REMARK SMILES IDX 68 14 69 15 75 16 70 17 73 18 71 19 72 20 74 21 14 22 15 23
REMARK SMILES IDX 16 24 17 25 18 26 19 27 20 28 21 29 67 30 22 31 66 32 23 33
REMARK SMILES IDX 24 34 25 35 60 36 26 37 65 38 59 39 61 40 27 41 64 42 58 43
REMARK SMILES IDX 57 44 28 46 50 47 35 48 49 49 36 50 39 51 48 52 62 53 37 54
REMARK SMILES IDX 38 55 47 57 63 58 40 59 29 60 30 61 34 62 31 63 33 64 32 65
REMARK SMILES IDX 51 66 52 67 56 68 53 69 55 70 54 71 41 72 42 73 46 74 43 75
REMARK SMILES IDX 45 76 44 77
REMARK H PARENT 61 45 39 56
REMARK Flexibility Score: inf
ROOT
ATOM      1  C   UNL A   1      33.375  34.933  29.841  1.00  0.00     0.188 C 
ENDROOT
BRANCH   1   2
ATOM      2  C   UNL A   1      32.746  36.127  30.563  1.00  0.00     0.188 C 
BRANCH   2   3
ATOM      3  O   UNL A   1      33.538  37.250  30.928  1.00  0.00    -0.376 OA
BRANCH   3   4
ATOM      4  C   UNL A   1      33.615  37.648  32.290  1.00  0.00     0.202 C 
BRANCH   4   5
ATOM      5  C   UNL A   1      33.910  36.565  33.339  1.00  0.00     0.261 C 
BRANCH   5   6
ATOM      6  O   UNL A   1      35.238  35.987  33.304  1.00  0.00    -0.463 OA
BRANCH   6   7
ATOM      7  C   UNL A   1      35.297  34.622  33.188  1.00  0.00     0.316 C 
ATOM      8  O   UNL A   1      34.255  33.963  33.100  1.00  0.00    -0.251 OA
BRANCH   7   9
ATOM      9  C   UNL A   1      36.795  33.923  33.119  1.00  0.00     0.096 C 
ATOM     10  C   UNL A   1      37.533  31.237  33.739  1.00  0.00     0.009 C 
ATOM     11  C   UNL A   1      36.696  32.497  33.909  1.00  0.00     0.008 C 
ATOM     12  C   UNL A   1      37.088  33.270  35.194  1.00  0.00     0.006 C 
ATOM     13  C   UNL A   1      37.700  34.382  34.321  1.00  0.00     0.024 C 
BRANCH   9  14
ATOM     14  C   UNL A   1      37.585  33.948  31.647  1.00  0.00    -0.025 A 
ATOM     15  C   UNL A   1      36.963  33.474  30.464  1.00  0.00     0.044 A 
ATOM     16  C   UNL A   1      38.906  34.394  31.428  1.00  0.00     0.044 A 
ATOM     17  C   UNL A   1      37.511  33.614  29.184  1.00  0.00     0.126 A 
ATOM     18  C   UNL A   1      39.454  34.535  30.139  1.00  0.00     0.126 A 
ATOM     19  F   UNL A   1      36.806  33.197  28.124  1.00  0.00    -0.207 F 
ATOM     20  C   UNL A   1      38.748  34.185  29.004  1.00  0.00     0.078 A 
ATOM     21  F   UNL A   1      40.679  35.060  30.004  1.00  0.00    -0.207 F 
ENDBRANCH   9  14
ENDBRANCH   7   9
ENDBRANCH   6   7
ENDBRANCH   5   6
ENDBRANCH   4   5
ENDBRANCH   3   4
ENDBRANCH   2   3
ENDBRANCH   1   2
BRANCH   1  22
ATOM     22  O   UNL A   1      32.662  34.515  28.699  1.00  0.00    -0.376 OA
BRANCH  22  23
ATOM     23  C   UNL A   1      33.357  33.749  27.731  1.00  0.00     0.202 C 
BRANCH  23  24
ATOM     24  C   UNL A   1      33.414  32.264  28.104  1.00  0.00     0.261 C 
BRANCH  24  25
ATOM     25  O   UNL A   1      34.427  31.510  27.411  1.00  0.00    -0.460 OA
BRANCH  25  26
ATOM     26  C   UNL A   1      34.529  30.198  27.722  1.00  0.00     0.338 C 
ATOM     27  O   UNL A   1      33.715  29.321  27.471  1.00  0.00    -0.246 OA
BRANCH  26  28
ATOM     28  C   UNL A   1      35.913  29.943  28.188  1.00  0.00     0.060 A 
ATOM     29  C   UNL A   1      36.974  30.111  27.284  1.00  0.00     0.016 A 
ATOM     30  C   UNL A   1      36.171  29.578  29.511  1.00  0.00     0.016 A 
ATOM     31  C   UNL A   1      38.289  29.864  27.687  1.00  0.00     0.010 A 
ATOM     32  C   UNL A   1      37.484  29.315  29.909  1.00  0.00     0.010 A 
ATOM     33  C   UNL A   1      38.544  29.415  28.989  1.00  0.00    -0.014 A 
BRANCH  33  34
ATOM     34  C   UNL A   1      39.869  28.840  29.334  1.00  0.00     0.031 A 
ATOM     35  C   UNL A   1      40.818  29.686  30.142  1.00  0.00     0.074 A 
ATOM     36  C   UNL A   1      40.235  27.605  28.949  1.00  0.00     0.049 A 
ATOM     37  N   UNL A   1      42.053  29.445  30.501  1.00  0.00    -0.248 NA
ATOM     38  C   UNL A   1      40.302  30.987  30.601  1.00  0.00     0.031 C 
ATOM     39  C   UNL A   1      39.400  26.664  28.206  1.00  0.00     0.029 A 
ATOM     40  N   UNL A   1      41.422  26.939  29.127  1.00  0.00    -0.354 N 
ATOM     41  C   UNL A   1      42.465  30.568  31.208  1.00  0.00     0.074 A 
ATOM     42  C   UNL A   1      41.362  31.502  31.201  1.00  0.00     0.031 C 
ATOM     43  C   UNL A   1      40.107  25.541  27.982  1.00  0.00     0.029 A 
ATOM     44  C   UNL A   1      41.454  25.702  28.530  1.00  0.00     0.049 A 
ATOM     45  H   UNL A   1      42.179  27.312  29.634  1.00  0.00     0.167 HD
ATOM     46  C   UNL A   1      43.653  30.801  31.815  1.00  0.00     0.031 A 
ATOM     47  C   UNL A   1      42.462  24.814  28.418  1.00  0.00     0.031 A 
ATOM     48  C   UNL A   1      44.756  29.880  31.812  1.00  0.00     0.049 A 
ATOM     49  C   UNL A   1      43.803  25.131  29.029  1.00  0.00     0.074 A 
ATOM     50  C   UNL A   1      45.996  30.018  32.412  1.00  0.00     0.029 A 
ATOM     51  N   UNL A   1      44.758  28.652  31.168  1.00  0.00    -0.354 N 
ATOM     52  N   UNL A   1      44.174  26.183  29.717  1.00  0.00    -0.248 NA
ATOM     53  C   UNL A   1      44.863  24.126  28.854  1.00  0.00     0.031 C 
ATOM     54  C   UNL A   1      46.770  28.903  32.076  1.00  0.00     0.029 A 
ATOM     55  C   UNL A   1      45.987  28.036  31.330  1.00  0.00     0.049 A 
ATOM     56  H   UNL A   1      43.997  28.275  30.669  1.00  0.00     0.167 HD
ATOM     57  C   UNL A   1      45.495  25.951  30.086  1.00  0.00     0.074 A 
ATOM     58  C   UNL A   1      45.855  24.652  29.559  1.00  0.00     0.031 C 
ATOM     59  C   UNL A   1      46.334  26.741  30.802  1.00  0.00     0.031 A 
BRANCH  46  60
ATOM     60  C   UNL A   1      43.829  32.129  32.498  1.00  0.00    -0.014 A 
ATOM     61  C   UNL A   1      43.523  32.303  33.858  1.00  0.00     0.009 A 
ATOM     62  C   UNL A   1      44.335  33.220  31.773  1.00  0.00     0.009 A 
ATOM     63  C   UNL A   1      43.681  33.552  34.465  1.00  0.00     0.001 A 
ATOM     64  C   UNL A   1      44.524  34.457  32.391  1.00  0.00     0.001 A 
ATOM     65  C   UNL A   1      44.187  34.625  33.732  1.00  0.00     0.000 A 
ENDBRANCH  46  60
BRANCH  47  66
ATOM     66  C   UNL A   1      42.258  23.539  27.677  1.00  0.00    -0.014 A 
ATOM     67  C   UNL A   1      42.588  23.440  26.316  1.00  0.00     0.009 A 
ATOM     68  C   UNL A   1      41.700  22.422  28.320  1.00  0.00     0.009 A 
ATOM     69  C   UNL A   1      42.337  22.261  25.610  1.00  0.00     0.001 A 
ATOM     70  C   UNL A   1      41.481  21.235  27.619  1.00  0.00     0.001 A 
ATOM     71  C   UNL A   1      41.789  21.158  26.262  1.00  0.00     0.000 A 
ENDBRANCH  47  66
BRANCH  59  72
ATOM     72  C   UNL A   1      47.707  26.203  31.104  1.00  0.00    -0.014 A 
ATOM     73  C   UNL A   1      48.762  26.313  30.185  1.00  0.00     0.009 A 
ATOM     74  C   UNL A   1      47.957  25.611  32.353  1.00  0.00     0.009 A 
ATOM     75  C   UNL A   1      50.025  25.802  30.494  1.00  0.00     0.001 A 
ATOM     76  C   UNL A   1      49.229  25.133  32.674  1.00  0.00     0.001 A 
ATOM     77  C   UNL A   1      50.259  25.219  31.739  1.00  0.00     0.000 A 
ENDBRANCH  59  72
ENDBRANCH  33  34
ENDBRANCH  26  28
ENDBRANCH  25  26
ENDBRANCH  24  25
ENDBRANCH  23  24
ENDBRANCH  22  23
ENDBRANCH   1  22
TORSDOF 18
ENDMDL
MODEL 2
REMARK VINA RESULT:      -9.0      1.612      2.132
REMARK SMILES C[C@H]1CC[C@@]1(C(=O)OCCOCCOCCOC(=O)c1ccc(-c2c3nc(c(-c4ccccc4)c4ccc([nH]4)c(-c4ccccc4)c4nc(c(-c5ccccc5)c5ccc2[nH]5)C=C4)C=C3)cc1)c1cc(F)cc(F)c1
REMARK SMILES IDX 13 1 12 2 11 3 10 4 9 5 8 6 6 7 7 8 5 9 1 10 2 11 3 12 4 13
REMARK SMILES IDX 68 14 69 15 75 16 70 17 73 18 71 19 72 20 74 21 14 22 15 23
REMARK SMILES IDX 16 24 17 25 18 26 19 27 20 28 21 29 67 30 22 31 66 32 23 33
REMARK SMILES IDX 24 34 25 35 60 36 26 37 65 38 59 39 61 40 27 41 64 42 58 43
REMARK SMILES IDX 57 44 28 46 50 47 35 48 49 49 36 50 39 51 48 52 62 53 37 54
REMARK SMILES IDX 38 55 47 57 63 58 40 59 29 60 30 61 34 62 31 63 33 64 32 65
REMARK SMILES IDX 51 66 52 67 56 68 53 69 55 70 54 71 41 72 42 73 46 74 43 75
REMARK SMILES IDX 45 76 44 77
REMARK H PARENT 61 45 39 56
REMARK Flexibility Score: inf
ROOT
ATOM      1  C   UNL A   1      32.810  35.726  30.069  1.00  0.00     0.188 C 
ENDROOT
BRANCH   1   2
ATOM      2  C   UNL A   1      33.268  37.022  30.744  1.00  0.00     0.188 C 
BRANCH   2   3
ATOM      3  O   UNL A   1      32.921  37.294  32.096  1.00  0.00    -0.376 OA
BRANCH   3   4
ATOM      4  C   UNL A   1      33.543  36.566  33.146  1.00  0.00     0.202 C 
BRANCH   4   5
ATOM      5  C   UNL A   1      34.806  35.759  32.809  1.00  0.00     0.261 C 
BRANCH   5   6
ATOM      6  O   UNL A   1      35.610  35.332  33.937  1.00  0.00    -0.463 OA
BRANCH   6   7
ATOM      7  C   UNL A   1      35.880  33.990  34.009  1.00  0.00     0.316 C 
ATOM      8  O   UNL A   1      34.952  33.174  34.052  1.00  0.00    -0.251 OA
BRANCH   7   9
ATOM      9  C   UNL A   1      37.467  33.525  33.982  1.00  0.00     0.096 C 
ATOM     10  C   UNL A   1      38.563  30.921  34.385  1.00  0.00     0.009 C 
ATOM     11  C   UNL A   1      37.537  32.021  34.617  1.00  0.00     0.008 C 
ATOM     12  C   UNL A   1      37.733  32.698  35.998  1.00  0.00     0.006 C 
ATOM     13  C   UNL A   1      38.221  33.974  35.288  1.00  0.00     0.024 C 
BRANCH   9  14
ATOM     14  C   UNL A   1      38.329  33.824  32.582  1.00  0.00    -0.025 A 
ATOM     15  C   UNL A   1      37.706  33.801  31.309  1.00  0.00     0.044 A 
ATOM     16  C   UNL A   1      39.713  34.090  32.507  1.00  0.00     0.044 A 
ATOM     17  C   UNL A   1      38.335  34.196  30.124  1.00  0.00     0.126 A 
ATOM     18  C   UNL A   1      40.344  34.487  31.314  1.00  0.00     0.126 A 
ATOM     19  F   UNL A   1      37.632  34.207  28.983  1.00  0.00    -0.207 F 
ATOM     20  C   UNL A   1      39.654  34.583  30.121  1.00  0.00     0.078 A 
ATOM     21  F   UNL A   1      41.642  34.821  31.340  1.00  0.00    -0.207 F 
ENDBRANCH   9  14
ENDBRANCH   7   9
ENDBRANCH   6   7
ENDBRANCH   5   6
ENDBRANCH   4   5
ENDBRANCH   3   4
ENDBRANCH   2   3
ENDBRANCH   1   2
BRANCH   1  22
ATOM     22  O   UNL A   1      33.852  35.005  29.450  1.00  0.00    -0.376 OA
BRANCH  22  23
ATOM     23  C   UNL A   1      33.509  34.133  28.387  1.00  0.00     0.202 C 
BRANCH  23  24
ATOM     24  C   UNL A   1      34.655  33.181  28.032  1.00  0.00     0.261 C 
BRANCH  24  25
ATOM     25  O   UNL A   1      34.573  31.884  28.652  1.00  0.00    -0.460 OA
BRANCH  25  26
ATOM     26  C   UNL A   1      35.182  31.742  29.851  1.00  0.00     0.338 C 
ATOM     27  O   UNL A   1      34.729  32.054  30.944  1.00  0.00    -0.246 OA
BRANCH  26  28
ATOM     28  C   UNL A   1      36.388  30.902  29.658  1.00  0.00     0.060 A 
ATOM     29  C   UNL A   1      36.955  30.264  30.773  1.00  0.00     0.016 A 
ATOM     30  C   UNL A   1      36.935  30.711  28.387  1.00  0.00     0.016 A 
ATOM     31  C   UNL A   1      38.100  29.478  30.627  1.00  0.00     0.010 A 
ATOM     32  C   UNL A   1      38.090  29.939  28.245  1.00  0.00     0.010 A 
ATOM     33  C   UNL A   1      38.702  29.354  29.369  1.00  0.00    -0.014 A 
BRANCH  33  34
ATOM     34  C   UNL A   1      40.077  28.807  29.250  1.00  0.00     0.031 A 
ATOM     35  C   UNL A   1      41.234  29.739  29.503  1.00  0.00     0.074 A 
ATOM     36  C   UNL A   1      40.311  27.522  28.927  1.00  0.00     0.049 A 
ATOM     37  N   UNL A   1      42.519  29.525  29.385  1.00  0.00    -0.248 NA
ATOM     38  C   UNL A   1      40.888  31.101  29.942  1.00  0.00     0.031 C 
ATOM     39  C   UNL A   1      39.289  26.503  28.702  1.00  0.00     0.029 A 
ATOM     40  N   UNL A   1      41.498  26.864  28.721  1.00  0.00    -0.354 N 
ATOM     41  C   UNL A   1      43.132  30.728  29.716  1.00  0.00     0.074 A 
ATOM     42  C   UNL A   1      42.079  31.675  30.009  1.00  0.00     0.031 C 
ATOM     43  C   UNL A   1      39.895  25.346  28.379  1.00  0.00     0.029 A 
ATOM     44  C   UNL A   1      41.341  25.555  28.335  1.00  0.00     0.049 A 
ATOM     45  H   UNL A   1      42.378  27.289  28.839  1.00  0.00     0.167 HD
ATOM     46  C   UNL A   1      44.452  31.020  29.778  1.00  0.00     0.031 A 
ATOM     47  C   UNL A   1      42.260  24.640  27.965  1.00  0.00     0.031 A 
ATOM     48  C   UNL A   1      45.502  30.085  29.475  1.00  0.00     0.049 A 
ATOM     49  C   UNL A   1      43.721  25.012  27.959  1.00  0.00     0.074 A 
ATOM     50  C   UNL A   1      46.871  30.282  29.523  1.00  0.00     0.029 A 
ATOM     51  N   UNL A   1      45.299  28.780  29.055  1.00  0.00    -0.354 N 
ATOM     52  N   UNL A   1      44.290  26.144  28.298  1.00  0.00    -0.248 NA
ATOM     53  C   UNL A   1      44.667  23.972  27.528  1.00  0.00     0.031 C 
ATOM     54  C   UNL A   1      47.495  29.115  29.070  1.00  0.00     0.029 A 
ATOM     55  C   UNL A   1      46.517  28.168  28.813  1.00  0.00     0.049 A 
ATOM     56  H   UNL A   1      44.419  28.351  28.947  1.00  0.00     0.167 HD
ATOM     57  C   UNL A   1      45.659  25.939  28.156  1.00  0.00     0.074 A 
ATOM     58  C   UNL A   1      45.833  24.572  27.714  1.00  0.00     0.031 C 
ATOM     59  C   UNL A   1      46.680  26.805  28.375  1.00  0.00     0.031 A 
BRANCH  46  60
ATOM     60  C   UNL A   1      44.831  32.427  30.150  1.00  0.00    -0.014 A 
ATOM     61  C   UNL A   1      44.859  33.458  29.195  1.00  0.00     0.009 A 
ATOM     62  C   UNL A   1      45.141  32.733  31.484  1.00  0.00     0.009 A 
ATOM     63  C   UNL A   1      45.228  34.754  29.564  1.00  0.00     0.001 A 
ATOM     64  C   UNL A   1      45.477  34.036  31.856  1.00  0.00     0.001 A 
ATOM     65  C   UNL A   1      45.532  35.042  30.894  1.00  0.00     0.000 A 
ENDBRANCH  46  60
BRANCH  47  66
ATOM     66  C   UNL A   1      41.831  23.278  27.543  1.00  0.00    -0.014 A 
ATOM     67  C   UNL A   1      41.535  23.003  26.199  1.00  0.00     0.009 A 
ATOM     68  C   UNL A   1      41.685  22.252  28.491  1.00  0.00     0.009 A 
ATOM     69  C   UNL A   1      41.074  21.740  25.818  1.00  0.00     0.001 A 
ATOM     70  C   UNL A   1      41.256  20.981  28.102  1.00  0.00     0.001 A 
ATOM     71  C   UNL A   1      40.940  20.729  26.768  1.00  0.00     0.000 A 
ENDBRANCH  47  66
BRANCH  59  72
ATOM     72  C   UNL A   1      48.082  26.287  28.193  1.00  0.00    -0.014 A 
ATOM     73  C   UNL A   1      48.806  25.728  29.257  1.00  0.00     0.009 A 
ATOM     74  C   UNL A   1      48.672  26.324  26.919  1.00  0.00     0.009 A 
ATOM     75  C   UNL A   1      50.106  25.257  29.058  1.00  0.00     0.001 A 
ATOM     76  C   UNL A   1      49.957  25.821  26.714  1.00  0.00     0.001 A 
ATOM     77  C   UNL A   1      50.678  25.298  27.786  1.00  0.00     0.000 A 
ENDBRANCH  59  72
ENDBRANCH  33  34
ENDBRANCH  26  28
ENDBRANCH  25  26
ENDBRANCH  24  25
ENDBRANCH  23  24
ENDBRANCH  22  23
ENDBRANCH   1  22
TORSDOF 18
ENDMDL
MODEL 3
REMARK VINA RESULT:      -8.8      5.804     11.752
REMARK SMILES C[C@H]1CC[C@@]1(C(=O)OCCOCCOCCOC(=O)c1ccc(-c2c3nc(c(-c4ccccc4)c4ccc([nH]4)c(-c4ccccc4)c4nc(c(-c5ccccc5)c5ccc2[nH]5)C=C4)C=C3)cc1)c1cc(F)cc(F)c1
REMARK SMILES IDX 13 1 12 2 11 3 10 4 9 5 8 6 6 7 7 8 5 9 1 10 2 11 3 12 4 13
REMARK SMILES IDX 68 14 69 15 75 16 70 17 73 18 71 19 72 20 74 21 14 22 15 23
REMARK SMILES IDX 16 24 17 25 18 26 19 27 20 28 21 29 67 30 22 31 66 32 23 33
REMARK SMILES IDX 24 34 25 35 60 36 26 37 65 38 59 39 61 40 27 41 64 42 58 43
REMARK SMILES IDX 57 44 28 46 50 47 35 48 49 49 36 50 39 51 48 52 62 53 37 54
REMARK SMILES IDX 38 55 47 57 63 58 40 59 29 60 30 61 34 62 31 63 33 64 32 65
REMARK SMILES IDX 51 66 52 67 56 68 53 69 55 70 54 71 41 72 42 73 46 74 43 75
REMARK SMILES IDX 45 76 44 77
REMARK H PARENT 61 45 39 56
REMARK Flexibility Score: inf
ROOT
ATOM      1  C   UNL A   1      40.917  20.845  27.575  1.00  0.00     0.188 C 
ENDROOT
BRANCH   1   2
ATOM      2  C   UNL A   1      40.100  21.286  26.357  1.00  0.00     0.188 C 
BRANCH   2   3
ATOM      3  O   UNL A   1      39.377  22.510  26.377  1.00  0.00    -0.376 OA
BRANCH   3   4
ATOM      4  C   UNL A   1      37.982  22.511  26.108  1.00  0.00     0.202 C 
BRANCH   4   5
ATOM      5  C   UNL A   1      37.496  21.794  24.839  1.00  0.00     0.261 C 
BRANCH   5   6
ATOM      6  O   UNL A   1      36.234  21.089  24.947  1.00  0.00    -0.463 OA
BRANCH   6   7
ATOM      7  C   UNL A   1      35.104  21.859  24.847  1.00  0.00     0.316 C 
ATOM      8  O   UNL A   1      35.135  22.925  24.221  1.00  0.00    -0.251 OA
BRANCH   7   9
ATOM      9  C   UNL A   1      33.719  21.281  25.542  1.00  0.00     0.096 C 
ATOM     10  C   UNL A   1      31.140  22.499  25.646  1.00  0.00     0.009 C 
ATOM     11  C   UNL A   1      32.662  22.524  25.612  1.00  0.00     0.008 C 
ATOM     12  C   UNL A   1      33.256  22.849  27.006  1.00  0.00     0.006 C 
ATOM     13  C   UNL A   1      33.769  21.400  27.110  1.00  0.00     0.024 C 
BRANCH   9  14
ATOM     14  C   UNL A   1      33.153  19.802  25.007  1.00  0.00    -0.025 A 
ATOM     15  C   UNL A   1      32.752  19.605  23.662  1.00  0.00     0.044 A 
ATOM     16  C   UNL A   1      32.990  18.646  25.801  1.00  0.00     0.044 A 
ATOM     17  C   UNL A   1      32.422  18.358  23.120  1.00  0.00     0.126 A 
ATOM     18  C   UNL A   1      32.658  17.393  25.253  1.00  0.00     0.126 A 
ATOM     19  F   UNL A   1      32.127  18.270  21.816  1.00  0.00    -0.207 F 
ATOM     20  C   UNL A   1      32.411  17.229  23.904  1.00  0.00     0.078 A 
ATOM     21  F   UNL A   1      32.619  16.320  26.054  1.00  0.00    -0.207 F 
ENDBRANCH   9  14
ENDBRANCH   7   9
ENDBRANCH   6   7
ENDBRANCH   5   6
ENDBRANCH   4   5
ENDBRANCH   3   4
ENDBRANCH   2   3
ENDBRANCH   1   2
BRANCH   1  22
ATOM     22  O   UNL A   1      42.216  20.394  27.259  1.00  0.00    -0.376 OA
BRANCH  22  23
ATOM     23  C   UNL A   1      42.639  20.498  25.911  1.00  0.00     0.202 C 
BRANCH  23  24
ATOM     24  C   UNL A   1      43.723  21.566  25.729  1.00  0.00     0.261 C 
BRANCH  24  25
ATOM     25  O   UNL A   1      43.370  22.631  24.825  1.00  0.00    -0.460 OA
BRANCH  25  26
ATOM     26  C   UNL A   1      44.114  23.759  24.893  1.00  0.00     0.338 C 
ATOM     27  O   UNL A   1      45.065  24.052  24.182  1.00  0.00    -0.246 OA
BRANCH  26  28
ATOM     28  C   UNL A   1      43.427  24.709  25.800  1.00  0.00     0.060 A 
ATOM     29  C   UNL A   1      43.868  26.041  25.847  1.00  0.00     0.016 A 
ATOM     30  C   UNL A   1      42.334  24.305  26.570  1.00  0.00     0.016 A 
ATOM     31  C   UNL A   1      43.252  26.957  26.702  1.00  0.00     0.010 A 
ATOM     32  C   UNL A   1      41.729  25.218  27.437  1.00  0.00     0.010 A 
ATOM     33  C   UNL A   1      42.212  26.536  27.539  1.00  0.00    -0.014 A 
BRANCH  33  34
ATOM     34  C   UNL A   1      41.771  27.390  28.671  1.00  0.00     0.031 A 
ATOM     35  C   UNL A   1      42.529  27.291  29.969  1.00  0.00     0.074 A 
ATOM     36  C   UNL A   1      40.729  28.234  28.566  1.00  0.00     0.049 A 
ATOM     37  N   UNL A   1      42.293  27.868  31.119  1.00  0.00    -0.248 NA
ATOM     38  C   UNL A   1      43.711  26.413  29.968  1.00  0.00     0.031 C 
ATOM     39  C   UNL A   1      39.939  28.464  27.359  1.00  0.00     0.029 A 
ATOM     40  N   UNL A   1      40.154  29.050  29.508  1.00  0.00    -0.354 N 
ATOM     41  C   UNL A   1      43.283  27.409  31.980  1.00  0.00     0.074 A 
ATOM     42  C   UNL A   1      44.102  26.483  31.230  1.00  0.00     0.031 C 
ATOM     43  C   UNL A   1      38.972  29.356  27.637  1.00  0.00     0.029 A 
ATOM     44  C   UNL A   1      39.051  29.728  29.050  1.00  0.00     0.049 A 
ATOM     45  H   UNL A   1      40.498  29.140  30.426  1.00  0.00     0.167 HD
ATOM     46  C   UNL A   1      43.497  27.732  33.277  1.00  0.00     0.031 A 
ATOM     47  C   UNL A   1      38.191  30.536  29.702  1.00  0.00     0.031 A 
ATOM     48  C   UNL A   1      42.677  28.642  34.030  1.00  0.00     0.049 A 
ATOM     49  C   UNL A   1      38.400  30.815  31.169  1.00  0.00     0.074 A 
ATOM     50  C   UNL A   1      42.822  29.045  35.346  1.00  0.00     0.029 A 
ATOM     51  N   UNL A   1      41.551  29.281  33.537  1.00  0.00    -0.354 N 
ATOM     52  N   UNL A   1      39.353  30.396  31.966  1.00  0.00    -0.248 NA
ATOM     53  C   UNL A   1      37.415  31.690  31.822  1.00  0.00     0.031 C 
ATOM     54  C   UNL A   1      41.746  29.878  35.668  1.00  0.00     0.029 A 
ATOM     55  C   UNL A   1      40.974  30.053  34.530  1.00  0.00     0.049 A 
ATOM     56  H   UNL A   1      41.212  29.199  32.616  1.00  0.00     0.167 HD
ATOM     57  C   UNL A   1      39.102  30.984  33.201  1.00  0.00     0.074 A 
ATOM     58  C   UNL A   1      37.917  31.800  33.044  1.00  0.00     0.031 C 
ATOM     59  C   UNL A   1      39.794  30.863  34.362  1.00  0.00     0.031 A 
BRANCH  46  60
ATOM     60  C   UNL A   1      44.647  27.058  33.975  1.00  0.00    -0.014 A 
ATOM     61  C   UNL A   1      45.929  27.630  34.001  1.00  0.00     0.009 A 
ATOM     62  C   UNL A   1      44.436  25.839  34.639  1.00  0.00     0.009 A 
ATOM     63  C   UNL A   1      46.983  26.975  34.643  1.00  0.00     0.001 A 
ATOM     64  C   UNL A   1      45.483  25.204  35.308  1.00  0.00     0.001 A 
ATOM     65  C   UNL A   1      46.758  25.767  35.300  1.00  0.00     0.000 A 
ENDBRANCH  46  60
BRANCH  47  66
ATOM     66  C   UNL A   1      37.030  31.130  28.983  1.00  0.00    -0.014 A 
ATOM     67  C   UNL A   1      37.026  32.489  28.630  1.00  0.00     0.009 A 
ATOM     68  C   UNL A   1      35.906  30.348  28.676  1.00  0.00     0.009 A 
ATOM     69  C   UNL A   1      35.909  33.056  28.011  1.00  0.00     0.001 A 
ATOM     70  C   UNL A   1      34.805  30.910  28.027  1.00  0.00     0.001 A 
ATOM     71  C   UNL A   1      34.802  32.267  27.705  1.00  0.00     0.000 A 
ENDBRANCH  47  66
BRANCH  59  72
ATOM     72  C   UNL A   1      39.321  31.671  35.541  1.00  0.00    -0.014 A 
ATOM     73  C   UNL A   1      39.808  32.962  35.795  1.00  0.00     0.009 A 
ATOM     74  C   UNL A   1      38.336  31.140  36.391  1.00  0.00     0.009 A 
ATOM     75  C   UNL A   1      39.351  33.687  36.899  1.00  0.00     0.001 A 
ATOM     76  C   UNL A   1      37.854  31.880  37.472  1.00  0.00     0.001 A 
ATOM     77  C   UNL A   1      38.371  33.148  37.732  1.00  0.00     0.000 A 
ENDBRANCH  59  72
ENDBRANCH  33  34
ENDBRANCH  26  28
ENDBRANCH  25  26
ENDBRANCH  24  25
ENDBRANCH  23  24
ENDBRANCH  22  23
ENDBRANCH   1  22
TORSDOF 18
ENDMDL
