MODEL 1
REMARK VINA RESULT:      -6.3      0.000      0.000
REMARK SMILES CC[C@]1(C(=O)OCCOCCOCCOC(=O)c2ccc(-c3c4nc(c(-c5ccccc5)c5ccc([nH]5)c(-c5ccccc5)c5nc(c(-c6ccccc6)c6ccc3[nH]6)C=C5)C=C4)cc2)CC[N@@H+](Cc2ccc(CC(C)C)cc2)C1
REMARK SMILES IDX 10 1 9 2 8 3 7 4 6 5 4 6 5 7 3 8 66 9 80 10 67 11 68 12 2 14
REMARK SMILES IDX 1 15 69 16 70 17 71 18 79 19 72 20 78 21 73 22 74 23 75 24
REMARK SMILES IDX 76 25 77 26 11 27 12 28 13 29 14 30 15 31 16 32 17 33 18 34
REMARK SMILES IDX 19 35 65 36 20 37 64 38 21 39 22 40 23 41 58 42 24 43 63 44
REMARK SMILES IDX 57 45 59 46 25 47 62 48 56 49 55 50 26 52 48 53 33 54 47 55
REMARK SMILES IDX 34 56 37 57 46 58 60 59 35 60 36 61 45 63 61 64 38 65 27 66
REMARK SMILES IDX 28 67 32 68 29 69 31 70 30 71 49 72 50 73 54 74 51 75 53 76
REMARK SMILES IDX 52 77 39 78 40 79 44 80 41 81 43 82 42 83
REMARK H PARENT 68 13 59 51 37 62
REMARK Flexibility Score: inf
ROOT
ATOM      1  C   UNL A   1      49.811  25.244  27.313  1.00  0.00     0.188 C 
ENDROOT
BRANCH   1   2
ATOM      2  O   UNL A   1      48.934  26.083  26.570  1.00  0.00    -0.376 OA
BRANCH   2   3
ATOM      3  C   UNL A   1      48.869  25.899  25.158  1.00  0.00     0.202 C 
BRANCH   3   4
ATOM      4  C   UNL A   1      47.501  25.526  24.576  1.00  0.00     0.261 C 
BRANCH   4   5
ATOM      5  O   UNL A   1      46.680  24.743  25.472  1.00  0.00    -0.463 OA
BRANCH   5   6
ATOM      6  C   UNL A   1      45.346  24.770  25.238  1.00  0.00     0.318 C 
ATOM      7  O   UNL A   1      44.735  25.805  24.982  1.00  0.00    -0.251 OA
BRANCH   6   8
ATOM      8  C   UNL A   1      44.622  23.417  25.348  1.00  0.00     0.122 C 
ATOM      9  C   UNL A   1      44.335  22.789  26.718  1.00  0.00     0.086 C 
ATOM     10  C   UNL A   1      43.179  23.731  24.851  1.00  0.00     0.281 C 
ATOM     11  C   UNL A   1      43.008  22.077  26.514  1.00  0.00     0.263 C 
ATOM     12  N   UNL A   1      42.222  23.013  25.715  1.00  0.00    -0.330 N 
ATOM     13  H   UNL A   1      41.548  22.509  25.139  1.00  0.00     0.348 HD
BRANCH   8  14
ATOM     14  C   UNL A   1      45.348  22.403  24.400  1.00  0.00     0.021 C 
ATOM     15  C   UNL A   1      45.669  21.029  24.992  1.00  0.00     0.005 C 
ENDBRANCH   8  14
BRANCH  12  16
ATOM     16  C   UNL A   1      41.323  23.882  26.507  1.00  0.00     0.299 C 
BRANCH  16  17
ATOM     17  C   UNL A   1      41.759  25.317  26.754  1.00  0.00     0.006 A 
ATOM     18  C   UNL A   1      41.397  26.337  25.858  1.00  0.00     0.010 A 
ATOM     19  C   UNL A   1      42.465  25.673  27.911  1.00  0.00     0.010 A 
ATOM     20  C   UNL A   1      41.655  27.678  26.154  1.00  0.00     0.004 A 
ATOM     21  C   UNL A   1      42.730  27.015  28.203  1.00  0.00     0.004 A 
ATOM     22  C   UNL A   1      42.299  28.032  27.344  1.00  0.00    -0.048 A 
BRANCH  22  23
ATOM     23  C   UNL A   1      42.479  29.483  27.723  1.00  0.00     0.038 C 
BRANCH  23  24
ATOM     24  C   UNL A   1      43.894  30.044  27.500  1.00  0.00    -0.013 C 
ATOM     25  C   UNL A   1      44.821  29.022  26.840  1.00  0.00     0.008 C 
ATOM     26  C   UNL A   1      43.812  31.299  26.624  1.00  0.00     0.008 C 
ENDBRANCH  23  24
ENDBRANCH  22  23
ENDBRANCH  16  17
ENDBRANCH  12  16
ENDBRANCH   6   8
ENDBRANCH   5   6
ENDBRANCH   4   5
ENDBRANCH   3   4
ENDBRANCH   2   3
ENDBRANCH   1   2
BRANCH   1  27
ATOM     27  C   UNL A   1      51.326  25.401  27.095  1.00  0.00     0.188 C 
BRANCH  27  28
ATOM     28  O   UNL A   1      51.732  26.728  26.822  1.00  0.00    -0.376 OA
BRANCH  28  29
ATOM     29  C   UNL A   1      53.108  26.999  27.018  1.00  0.00     0.202 C 
BRANCH  29  30
ATOM     30  C   UNL A   1      53.387  28.473  27.321  1.00  0.00     0.261 C 
BRANCH  30  31
ATOM     31  O   UNL A   1      52.513  29.411  26.665  1.00  0.00    -0.460 OA
BRANCH  31  32
ATOM     32  C   UNL A   1      52.385  30.640  27.213  1.00  0.00     0.338 C 
ATOM     33  O   UNL A   1      53.146  31.585  27.093  1.00  0.00    -0.246 OA
BRANCH  32  34
ATOM     34  C   UNL A   1      51.026  30.712  27.794  1.00  0.00     0.060 A 
ATOM     35  C   UNL A   1      49.934  30.243  27.049  1.00  0.00     0.016 A 
ATOM     36  C   UNL A   1      50.844  31.173  29.098  1.00  0.00     0.016 A 
ATOM     37  C   UNL A   1      48.658  30.220  27.616  1.00  0.00     0.010 A 
ATOM     38  C   UNL A   1      49.563  31.179  29.653  1.00  0.00     0.010 A 
ATOM     39  C   UNL A   1      48.462  30.710  28.913  1.00  0.00    -0.014 A 
BRANCH  39  40
ATOM     40  C   UNL A   1      47.094  30.898  29.453  1.00  0.00     0.031 A 
ATOM     41  C   UNL A   1      46.438  29.734  30.138  1.00  0.00     0.074 A 
ATOM     42  C   UNL A   1      46.436  32.064  29.320  1.00  0.00     0.049 A 
ATOM     43  N   UNL A   1      45.204  29.598  30.549  1.00  0.00    -0.248 NA
ATOM     44  C   UNL A   1      47.296  28.565  30.393  1.00  0.00     0.031 C 
ATOM     45  C   UNL A   1      46.988  33.291  28.749  1.00  0.00     0.029 A 
ATOM     46  N   UNL A   1      45.144  32.393  29.647  1.00  0.00    -0.354 N 
ATOM     47  C   UNL A   1      45.132  28.320  31.091  1.00  0.00     0.074 A 
ATOM     48  C   UNL A   1      46.440  27.720  30.946  1.00  0.00     0.031 C 
ATOM     49  C   UNL A   1      46.031  34.238  28.751  1.00  0.00     0.029 A 
ATOM     50  C   UNL A   1      44.789  33.667  29.269  1.00  0.00     0.049 A 
ATOM     51  H   UNL A   1      44.530  31.778  30.109  1.00  0.00     0.167 HD
ATOM     52  C   UNL A   1      44.067  27.701  31.652  1.00  0.00     0.031 A 
ATOM     53  C   UNL A   1      43.589  34.281  29.297  1.00  0.00     0.031 A 
ATOM     54  C   UNL A   1      42.763  28.292  31.769  1.00  0.00     0.049 A 
ATOM     55  C   UNL A   1      42.388  33.526  29.813  1.00  0.00     0.074 A 
ATOM     56  C   UNL A   1      41.614  27.744  32.311  1.00  0.00     0.029 A 
ATOM     57  N   UNL A   1      42.432  29.563  31.325  1.00  0.00    -0.354 N 
ATOM     58  N   UNL A   1      42.323  32.317  30.319  1.00  0.00    -0.248 NA
ATOM     59  C   UNL A   1      41.091  34.219  29.751  1.00  0.00     0.031 C 
ATOM     60  C   UNL A   1      40.572  28.660  32.135  1.00  0.00     0.029 A 
ATOM     61  C   UNL A   1      41.088  29.804  31.548  1.00  0.00     0.049 A 
ATOM     62  H   UNL A   1      43.060  30.199  30.912  1.00  0.00     0.167 HD
ATOM     63  C   UNL A   1      40.989  32.117  30.659  1.00  0.00     0.074 A 
ATOM     64  C   UNL A   1      40.283  33.334  30.316  1.00  0.00     0.031 C 
ATOM     65  C   UNL A   1      40.401  31.024  31.204  1.00  0.00     0.031 A 
BRANCH  52  66
ATOM     66  C   UNL A   1      44.263  26.286  32.119  1.00  0.00    -0.014 A 
ATOM     67  C   UNL A   1      44.283  25.210  31.218  1.00  0.00     0.009 A 
ATOM     68  C   UNL A   1      44.443  26.029  33.488  1.00  0.00     0.009 A 
ATOM     69  C   UNL A   1      44.439  23.903  31.683  1.00  0.00     0.001 A 
ATOM     70  C   UNL A   1      44.631  24.725  33.946  1.00  0.00     0.001 A 
ATOM     71  C   UNL A   1      44.617  23.662  33.045  1.00  0.00     0.000 A 
ENDBRANCH  52  66
BRANCH  53  72
ATOM     72  C   UNL A   1      43.437  35.665  28.770  1.00  0.00    -0.014 A 
ATOM     73  C   UNL A   1      43.635  36.777  29.604  1.00  0.00     0.009 A 
ATOM     74  C   UNL A   1      43.051  35.883  27.437  1.00  0.00     0.009 A 
ATOM     75  C   UNL A   1      43.427  38.072  29.121  1.00  0.00     0.001 A 
ATOM     76  C   UNL A   1      42.876  37.179  26.949  1.00  0.00     0.001 A 
ATOM     77  C   UNL A   1      43.053  38.273  27.793  1.00  0.00     0.000 A 
ENDBRANCH  53  72
BRANCH  65  78
ATOM     78  C   UNL A   1      38.929  31.099  31.503  1.00  0.00    -0.014 A 
ATOM     79  C   UNL A   1      37.971  30.664  30.573  1.00  0.00     0.009 A 
ATOM     80  C   UNL A   1      38.499  31.546  32.763  1.00  0.00     0.009 A 
ATOM     81  C   UNL A   1      36.613  30.698  30.893  1.00  0.00     0.001 A 
ATOM     82  C   UNL A   1      37.143  31.550  33.090  1.00  0.00     0.001 A 
ATOM     83  C   UNL A   1      36.201  31.132  32.153  1.00  0.00     0.000 A 
ENDBRANCH  65  78
ENDBRANCH  39  40
ENDBRANCH  32  34
ENDBRANCH  31  32
ENDBRANCH  30  31
ENDBRANCH  29  30
ENDBRANCH  28  29
ENDBRANCH  27  28
ENDBRANCH   1  27
TORSDOF 22
ENDMDL
MODEL 2
REMARK VINA RESULT:      -6.2      2.702      7.739
REMARK SMILES CC[C@]1(C(=O)OCCOCCOCCOC(=O)c2ccc(-c3c4nc(c(-c5ccccc5)c5ccc([nH]5)c(-c5ccccc5)c5nc(c(-c6ccccc6)c6ccc3[nH]6)C=C5)C=C4)cc2)CC[N@@H+](Cc2ccc(CC(C)C)cc2)C1
REMARK SMILES IDX 10 1 9 2 8 3 7 4 6 5 4 6 5 7 3 8 66 9 80 10 67 11 68 12 2 14
REMARK SMILES IDX 1 15 69 16 70 17 71 18 79 19 72 20 78 21 73 22 74 23 75 24
REMARK SMILES IDX 76 25 77 26 11 27 12 28 13 29 14 30 15 31 16 32 17 33 18 34
REMARK SMILES IDX 19 35 65 36 20 37 64 38 21 39 22 40 23 41 58 42 24 43 63 44
REMARK SMILES IDX 57 45 59 46 25 47 62 48 56 49 55 50 26 52 48 53 33 54 47 55
REMARK SMILES IDX 34 56 37 57 46 58 60 59 35 60 36 61 45 63 61 64 38 65 27 66
REMARK SMILES IDX 28 67 32 68 29 69 31 70 30 71 49 72 50 73 54 74 51 75 53 76
REMARK SMILES IDX 52 77 39 78 40 79 44 80 41 81 43 82 42 83
REMARK H PARENT 68 13 59 51 37 62
REMARK Flexibility Score: inf
ROOT
ATOM      1  C   UNL A   1      47.396  25.876  27.332  1.00  0.00     0.188 C 
ENDROOT
BRANCH   1   2
ATOM      2  O   UNL A   1      46.512  26.983  27.469  1.00  0.00    -0.376 OA
BRANCH   2   3
ATOM      3  C   UNL A   1      47.074  28.292  27.462  1.00  0.00     0.202 C 
BRANCH   3   4
ATOM      4  C   UNL A   1      46.870  29.134  28.727  1.00  0.00     0.261 C 
BRANCH   4   5
ATOM      5  O   UNL A   1      45.488  29.471  28.986  1.00  0.00    -0.463 OA
BRANCH   5   6
ATOM      6  C   UNL A   1      45.222  30.782  29.196  1.00  0.00     0.318 C 
ATOM      7  O   UNL A   1      46.101  31.616  29.401  1.00  0.00    -0.251 OA
BRANCH   6   8
ATOM      8  C   UNL A   1      43.733  31.169  29.199  1.00  0.00     0.122 C 
ATOM      9  C   UNL A   1      42.982  31.389  30.519  1.00  0.00     0.086 C 
ATOM     10  C   UNL A   1      43.725  32.608  28.603  1.00  0.00     0.281 C 
ATOM     11  C   UNL A   1      41.990  32.491  30.185  1.00  0.00     0.263 C 
ATOM     12  N   UNL A   1      42.756  33.422  29.363  1.00  0.00    -0.330 N 
ATOM     13  H   UNL A   1      42.141  33.916  28.718  1.00  0.00     0.348 HD
BRANCH   8  14
ATOM     14  C   UNL A   1      42.971  30.160  28.274  1.00  0.00     0.021 C 
ATOM     15  C   UNL A   1      43.293  30.229  26.781  1.00  0.00     0.005 C 
ENDBRANCH   8  14
BRANCH  12  16
ATOM     16  C   UNL A   1      43.346  34.554  30.113  1.00  0.00     0.299 C 
BRANCH  16  17
ATOM     17  C   UNL A   1      43.328  35.925  29.458  1.00  0.00     0.006 A 
ATOM     18  C   UNL A   1      42.284  36.287  28.591  1.00  0.00     0.010 A 
ATOM     19  C   UNL A   1      44.304  36.886  29.756  1.00  0.00     0.010 A 
ATOM     20  C   UNL A   1      42.171  37.594  28.108  1.00  0.00     0.004 A 
ATOM     21  C   UNL A   1      44.195  38.192  29.266  1.00  0.00     0.004 A 
ATOM     22  C   UNL A   1      43.110  38.567  28.466  1.00  0.00    -0.048 A 
BRANCH  22  23
ATOM     23  C   UNL A   1      42.932  40.005  28.040  1.00  0.00     0.038 C 
BRANCH  23  24
ATOM     24  C   UNL A   1      44.204  40.692  27.514  1.00  0.00    -0.013 C 
ATOM     25  C   UNL A   1      44.062  41.122  26.052  1.00  0.00     0.008 C 
ATOM     26  C   UNL A   1      44.515  41.919  28.378  1.00  0.00     0.008 C 
ENDBRANCH  23  24
ENDBRANCH  22  23
ENDBRANCH  16  17
ENDBRANCH  12  16
ENDBRANCH   6   8
ENDBRANCH   5   6
ENDBRANCH   4   5
ENDBRANCH   3   4
ENDBRANCH   2   3
ENDBRANCH   1   2
BRANCH   1  27
ATOM     27  C   UNL A   1      47.799  25.438  25.914  1.00  0.00     0.188 C 
BRANCH  27  28
ATOM     28  O   UNL A   1      47.211  24.219  25.500  1.00  0.00    -0.376 OA
BRANCH  28  29
ATOM     29  C   UNL A   1      46.384  23.584  26.458  1.00  0.00     0.202 C 
BRANCH  29  30
ATOM     30  C   UNL A   1      45.729  22.308  25.925  1.00  0.00     0.261 C 
BRANCH  30  31
ATOM     31  O   UNL A   1      44.306  22.218  26.129  1.00  0.00    -0.460 OA
BRANCH  31  32
ATOM     32  C   UNL A   1      43.515  23.054  25.419  1.00  0.00     0.338 C 
ATOM     33  O   UNL A   1      43.088  22.885  24.290  1.00  0.00    -0.246 OA
BRANCH  32  34
ATOM     34  C   UNL A   1      43.060  24.108  26.352  1.00  0.00     0.060 A 
ATOM     35  C   UNL A   1      43.432  25.441  26.118  1.00  0.00     0.016 A 
ATOM     36  C   UNL A   1      42.209  23.789  27.410  1.00  0.00     0.016 A 
ATOM     37  C   UNL A   1      42.938  26.459  26.937  1.00  0.00     0.010 A 
ATOM     38  C   UNL A   1      41.741  24.805  28.246  1.00  0.00     0.010 A 
ATOM     39  C   UNL A   1      42.108  26.144  28.019  1.00  0.00    -0.014 A 
BRANCH  39  40
ATOM     40  C   UNL A   1      41.750  27.173  29.024  1.00  0.00     0.031 A 
ATOM     41  C   UNL A   1      42.583  27.262  30.271  1.00  0.00     0.074 A 
ATOM     42  C   UNL A   1      40.700  27.995  28.851  1.00  0.00     0.049 A 
ATOM     43  N   UNL A   1      42.382  27.961  31.357  1.00  0.00    -0.248 NA
ATOM     44  C   UNL A   1      43.810  26.448  30.290  1.00  0.00     0.031 C 
ATOM     45  C   UNL A   1      39.863  28.066  27.655  1.00  0.00     0.029 A 
ATOM     46  N   UNL A   1      40.151  28.921  29.704  1.00  0.00    -0.354 N 
ATOM     47  C   UNL A   1      43.445  27.655  32.198  1.00  0.00     0.074 A 
ATOM     48  C   UNL A   1      44.280  26.701  31.502  1.00  0.00     0.031 C 
ATOM     49  C   UNL A   1      38.893  28.977  27.858  1.00  0.00     0.029 A 
ATOM     50  C   UNL A   1      39.009  29.509  29.214  1.00  0.00     0.049 A 
ATOM     51  H   UNL A   1      40.538  29.144  30.581  1.00  0.00     0.167 HD
ATOM     52  C   UNL A   1      43.697  28.122  33.443  1.00  0.00     0.031 A 
ATOM     53  C   UNL A   1      38.135  30.344  29.812  1.00  0.00     0.031 A 
ATOM     54  C   UNL A   1      42.851  29.050  34.141  1.00  0.00     0.049 A 
ATOM     55  C   UNL A   1      38.371  30.755  31.245  1.00  0.00     0.074 A 
ATOM     56  C   UNL A   1      43.012  29.577  35.410  1.00  0.00     0.029 A 
ATOM     57  N   UNL A   1      41.676  29.579  33.631  1.00  0.00    -0.354 N 
ATOM     58  N   UNL A   1      39.374  30.459  32.038  1.00  0.00    -0.248 NA
ATOM     59  C   UNL A   1      37.347  31.607  31.869  1.00  0.00     0.031 C 
ATOM     60  C   UNL A   1      41.898  30.374  35.693  1.00  0.00     0.029 A 
ATOM     61  C   UNL A   1      41.081  30.400  34.574  1.00  0.00     0.049 A 
ATOM     62  H   UNL A   1      41.317  29.398  32.732  1.00  0.00     0.167 HD
ATOM     63  C   UNL A   1      39.115  31.109  33.240  1.00  0.00     0.074 A 
ATOM     64  C   UNL A   1      37.869  31.827  33.067  1.00  0.00     0.031 C 
ATOM     65  C   UNL A   1      39.842  31.110  34.384  1.00  0.00     0.031 A 
BRANCH  52  66
ATOM     66  C   UNL A   1      44.909  27.580  34.147  1.00  0.00    -0.014 A 
ATOM     67  C   UNL A   1      44.852  26.401  34.908  1.00  0.00     0.009 A 
ATOM     68  C   UNL A   1      46.134  28.258  34.037  1.00  0.00     0.009 A 
ATOM     69  C   UNL A   1      45.987  25.936  35.575  1.00  0.00     0.001 A 
ATOM     70  C   UNL A   1      47.274  27.772  34.678  1.00  0.00     0.001 A 
ATOM     71  C   UNL A   1      47.197  26.619  35.457  1.00  0.00     0.000 A 
ENDBRANCH  52  66
BRANCH  53  72
ATOM     72  C   UNL A   1      36.920  30.809  29.088  1.00  0.00    -0.014 A 
ATOM     73  C   UNL A   1      35.876  29.919  28.790  1.00  0.00     0.009 A 
ATOM     74  C   UNL A   1      36.814  32.140  28.652  1.00  0.00     0.009 A 
ATOM     75  C   UNL A   1      34.768  30.345  28.053  1.00  0.00     0.001 A 
ATOM     76  C   UNL A   1      35.691  32.572  27.945  1.00  0.00     0.001 A 
ATOM     77  C   UNL A   1      34.673  31.672  27.635  1.00  0.00     0.000 A 
ENDBRANCH  53  72
BRANCH  65  78
ATOM     78  C   UNL A   1      39.336  31.941  35.531  1.00  0.00    -0.014 A 
ATOM     79  C   UNL A   1      39.810  33.243  35.756  1.00  0.00     0.009 A 
ATOM     80  C   UNL A   1      38.316  31.438  36.355  1.00  0.00     0.009 A 
ATOM     81  C   UNL A   1      39.290  34.013  36.798  1.00  0.00     0.001 A 
ATOM     82  C   UNL A   1      37.776  32.221  37.376  1.00  0.00     0.001 A 
ATOM     83  C   UNL A   1      38.268  33.505  37.600  1.00  0.00     0.000 A 
ENDBRANCH  65  78
ENDBRANCH  39  40
ENDBRANCH  32  34
ENDBRANCH  31  32
ENDBRANCH  30  31
ENDBRANCH  29  30
ENDBRANCH  28  29
ENDBRANCH  27  28
ENDBRANCH   1  27
TORSDOF 22
ENDMDL
MODEL 3
REMARK VINA RESULT:      -6.1      4.101      8.395
REMARK SMILES CC[C@]1(C(=O)OCCOCCOCCOC(=O)c2ccc(-c3c4nc(c(-c5ccccc5)c5ccc([nH]5)c(-c5ccccc5)c5nc(c(-c6ccccc6)c6ccc3[nH]6)C=C5)C=C4)cc2)CC[N@@H+](Cc2ccc(CC(C)C)cc2)C1
REMARK SMILES IDX 10 1 9 2 8 3 7 4 6 5 4 6 5 7 3 8 66 9 80 10 67 11 68 12 2 14
REMARK SMILES IDX 1 15 69 16 70 17 71 18 79 19 72 20 78 21 73 22 74 23 75 24
REMARK SMILES IDX 76 25 77 26 11 27 12 28 13 29 14 30 15 31 16 32 17 33 18 34
REMARK SMILES IDX 19 35 65 36 20 37 64 38 21 39 22 40 23 41 58 42 24 43 63 44
REMARK SMILES IDX 57 45 59 46 25 47 62 48 56 49 55 50 26 52 48 53 33 54 47 55
REMARK SMILES IDX 34 56 37 57 46 58 60 59 35 60 36 61 45 63 61 64 38 65 27 66
REMARK SMILES IDX 28 67 32 68 29 69 31 70 30 71 49 72 50 73 54 74 51 75 53 76
REMARK SMILES IDX 52 77 39 78 40 79 44 80 41 81 43 82 42 83
REMARK H PARENT 68 13 59 51 37 62
REMARK Flexibility Score: inf
ROOT
ATOM      1  C   UNL A   1      49.647  25.568  31.594  1.00  0.00     0.188 C 
ENDROOT
BRANCH   1   2
ATOM      2  O   UNL A   1      50.725  25.641  30.667  1.00  0.00    -0.376 OA
BRANCH   2   3
ATOM      3  C   UNL A   1      50.449  26.133  29.359  1.00  0.00     0.202 C 
BRANCH   3   4
ATOM      4  C   UNL A   1      49.013  25.963  28.849  1.00  0.00     0.261 C 
BRANCH   4   5
ATOM      5  O   UNL A   1      48.902  25.975  27.407  1.00  0.00    -0.463 OA
BRANCH   5   6
ATOM      6  C   UNL A   1      47.892  25.241  26.881  1.00  0.00     0.318 C 
ATOM      7  O   UNL A   1      47.675  24.075  27.206  1.00  0.00    -0.251 OA
BRANCH   6   8
ATOM      8  C   UNL A   1      47.042  25.947  25.811  1.00  0.00     0.122 C 
ATOM      9  C   UNL A   1      46.871  27.471  25.822  1.00  0.00     0.086 C 
ATOM     10  C   UNL A   1      47.857  25.743  24.499  1.00  0.00     0.281 C 
ATOM     11  C   UNL A   1      46.790  27.832  24.348  1.00  0.00     0.263 C 
ATOM     12  N   UNL A   1      47.807  26.995  23.721  1.00  0.00    -0.330 N 
ATOM     13  H   UNL A   1      47.553  26.790  22.754  1.00  0.00     0.348 HD
BRANCH   8  14
ATOM     14  C   UNL A   1      45.654  25.222  25.743  1.00  0.00     0.021 C 
ATOM     15  C   UNL A   1      44.642  25.586  26.831  1.00  0.00     0.005 C 
ENDBRANCH   8  14
BRANCH  12  16
ATOM     16  C   UNL A   1      49.114  27.664  23.532  1.00  0.00     0.299 C 
BRANCH  16  17
ATOM     17  C   UNL A   1      49.759  27.587  22.158  1.00  0.00     0.006 A 
ATOM     18  C   UNL A   1      49.583  26.450  21.350  1.00  0.00     0.010 A 
ATOM     19  C   UNL A   1      50.479  28.667  21.631  1.00  0.00     0.010 A 
ATOM     20  C   UNL A   1      50.035  26.431  20.028  1.00  0.00     0.004 A 
ATOM     21  C   UNL A   1      50.939  28.644  20.309  1.00  0.00     0.004 A 
ATOM     22  C   UNL A   1      50.692  27.541  19.486  1.00  0.00    -0.048 A 
BRANCH  22  23
ATOM     23  C   UNL A   1      51.082  27.570  18.027  1.00  0.00     0.038 C 
BRANCH  23  24
ATOM     24  C   UNL A   1      52.582  27.779  17.757  1.00  0.00    -0.013 C 
ATOM     25  C   UNL A   1      53.196  26.608  16.986  1.00  0.00     0.008 C 
ATOM     26  C   UNL A   1      52.780  29.074  16.961  1.00  0.00     0.008 C 
ENDBRANCH  23  24
ENDBRANCH  22  23
ENDBRANCH  16  17
ENDBRANCH  12  16
ENDBRANCH   6   8
ENDBRANCH   5   6
ENDBRANCH   4   5
ENDBRANCH   3   4
ENDBRANCH   2   3
ENDBRANCH   1   2
BRANCH   1  27
ATOM     27  C   UNL A   1      49.822  24.691  32.845  1.00  0.00     0.188 C 
BRANCH  27  28
ATOM     28  O   UNL A   1      48.610  24.398  33.514  1.00  0.00    -0.376 OA
BRANCH  28  29
ATOM     29  C   UNL A   1      48.681  23.370  34.484  1.00  0.00     0.202 C 
BRANCH  29  30
ATOM     30  C   UNL A   1      47.610  23.501  35.570  1.00  0.00     0.261 C 
BRANCH  30  31
ATOM     31  O   UNL A   1      47.038  24.815  35.712  1.00  0.00    -0.460 OA
BRANCH  31  32
ATOM     32  C   UNL A   1      45.928  24.938  36.474  1.00  0.00     0.338 C 
ATOM     33  O   UNL A   1      45.777  24.563  37.624  1.00  0.00    -0.246 OA
BRANCH  32  34
ATOM     34  C   UNL A   1      45.001  25.827  35.740  1.00  0.00     0.060 A 
ATOM     35  C   UNL A   1      43.655  25.456  35.602  1.00  0.00     0.016 A 
ATOM     36  C   UNL A   1      45.445  27.058  35.255  1.00  0.00     0.016 A 
ATOM     37  C   UNL A   1      42.748  26.324  34.991  1.00  0.00     0.010 A 
ATOM     38  C   UNL A   1      44.544  27.912  34.617  1.00  0.00     0.010 A 
ATOM     39  C   UNL A   1      43.193  27.548  34.475  1.00  0.00    -0.014 A 
BRANCH  39  40
ATOM     40  C   UNL A   1      42.303  28.384  33.635  1.00  0.00     0.031 A 
ATOM     41  C   UNL A   1      41.487  29.448  34.311  1.00  0.00     0.074 A 
ATOM     42  C   UNL A   1      42.198  28.192  32.308  1.00  0.00     0.049 A 
ATOM     43  N   UNL A   1      40.529  30.195  33.828  1.00  0.00    -0.248 NA
ATOM     44  C   UNL A   1      41.800  29.701  35.728  1.00  0.00     0.031 C 
ATOM     45  C   UNL A   1      42.990  27.251  31.519  1.00  0.00     0.029 A 
ATOM     46  N   UNL A   1      41.359  28.779  31.392  1.00  0.00    -0.354 N 
ATOM     47  C   UNL A   1      40.109  30.991  34.887  1.00  0.00     0.074 A 
ATOM     48  C   UNL A   1      40.907  30.628  36.038  1.00  0.00     0.031 C 
ATOM     49  C   UNL A   1      42.587  27.312  30.236  1.00  0.00     0.029 A 
ATOM     50  C   UNL A   1      41.474  28.253  30.127  1.00  0.00     0.049 A 
ATOM     51  H   UNL A   1      40.737  29.507  31.618  1.00  0.00     0.167 HD
ATOM     52  C   UNL A   1      39.138  31.934  34.899  1.00  0.00     0.031 A 
ATOM     53  C   UNL A   1      40.732  28.474  29.022  1.00  0.00     0.031 A 
ATOM     54  C   UNL A   1      38.330  32.272  33.761  1.00  0.00     0.049 A 
ATOM     55  C   UNL A   1      39.574  29.440  29.093  1.00  0.00     0.074 A 
ATOM     56  C   UNL A   1      37.313  33.206  33.672  1.00  0.00     0.029 A 
ATOM     57  N   UNL A   1      38.441  31.678  32.513  1.00  0.00    -0.354 N 
ATOM     58  N   UNL A   1      39.178  30.186  30.097  1.00  0.00    -0.248 NA
ATOM     59  C   UNL A   1      38.756  29.586  27.879  1.00  0.00     0.031 C 
ATOM     60  C   UNL A   1      36.764  33.129  32.388  1.00  0.00     0.029 A 
ATOM     61  C   UNL A   1      37.487  32.199  31.657  1.00  0.00     0.049 A 
ATOM     62  H   UNL A   1      39.101  30.988  32.273  1.00  0.00     0.167 HD
ATOM     63  C   UNL A   1      38.085  30.906  29.628  1.00  0.00     0.074 A 
ATOM     64  C   UNL A   1      37.890  30.519  28.246  1.00  0.00     0.031 C 
ATOM     65  C   UNL A   1      37.310  31.805  30.283  1.00  0.00     0.031 A 
BRANCH  52  66
ATOM     66  C   UNL A   1      38.861  32.617  36.209  1.00  0.00    -0.014 A 
ATOM     67  C   UNL A   1      39.563  33.768  36.602  1.00  0.00     0.009 A 
ATOM     68  C   UNL A   1      37.870  32.102  37.061  1.00  0.00     0.009 A 
ATOM     69  C   UNL A   1      39.305  34.365  37.838  1.00  0.00     0.001 A 
ATOM     70  C   UNL A   1      37.592  32.720  38.280  1.00  0.00     0.001 A 
ATOM     71  C   UNL A   1      38.317  33.843  38.673  1.00  0.00     0.000 A 
ENDBRANCH  52  66
BRANCH  53  72
ATOM     72  C   UNL A   1      41.014  27.730  27.763  1.00  0.00    -0.014 A 
ATOM     73  C   UNL A   1      41.805  28.300  26.753  1.00  0.00     0.009 A 
ATOM     74  C   UNL A   1      40.458  26.458  27.546  1.00  0.00     0.009 A 
ATOM     75  C   UNL A   1      42.011  27.625  25.547  1.00  0.00     0.001 A 
ATOM     76  C   UNL A   1      40.694  25.771  26.353  1.00  0.00     0.001 A 
ATOM     77  C   UNL A   1      41.460  26.359  25.350  1.00  0.00     0.000 A 
ENDBRANCH  53  72
BRANCH  65  78
ATOM     78  C   UNL A   1      36.203  32.467  29.509  1.00  0.00    -0.014 A 
ATOM     79  C   UNL A   1      36.374  33.732  28.925  1.00  0.00     0.009 A 
ATOM     80  C   UNL A   1      34.996  31.780  29.300  1.00  0.00     0.009 A 
ATOM     81  C   UNL A   1      35.349  34.305  28.170  1.00  0.00     0.001 A 
ATOM     82  C   UNL A   1      33.985  32.341  28.519  1.00  0.00     0.001 A 
ATOM     83  C   UNL A   1      34.160  33.606  27.960  1.00  0.00     0.000 A 
ENDBRANCH  65  78
ENDBRANCH  39  40
ENDBRANCH  32  34
ENDBRANCH  31  32
ENDBRANCH  30  31
ENDBRANCH  29  30
ENDBRANCH  28  29
ENDBRANCH  27  28
ENDBRANCH   1  27
TORSDOF 22
ENDMDL
