MODEL 1
REMARK VINA RESULT:      -8.7      0.000      0.000
REMARK SMILES O=C(CS(=O)(=O)N1CCC1)OCCOCCOCCOC(=O)c1ccc(-c2c3nc(c(-c4ccccc4)c4ccc([nH]4)c(-c4ccccc4)c4nc(c(-c5ccccc5)c5ccc2[nH]5)C=C4)C=C3)cc1
REMARK SMILES IDX 15 1 14 2 13 3 12 4 11 5 2 6 1 7 3 8 4 9 5 10 6 11 7 12 8 13
REMARK SMILES IDX 10 14 9 15 16 16 17 17 18 18 19 19 20 20 21 21 22 22 23 23
REMARK SMILES IDX 24 24 70 25 25 26 69 27 26 28 27 29 28 30 63 31 29 32 68 33
REMARK SMILES IDX 62 34 64 35 30 36 67 37 61 38 60 39 31 41 53 42 38 43 52 44
REMARK SMILES IDX 39 45 42 46 51 47 65 48 40 49 41 50 50 52 66 53 43 54 32 55
REMARK SMILES IDX 33 56 37 57 34 58 36 59 35 60 54 61 55 62 59 63 56 64 58 65
REMARK SMILES IDX 57 66 44 67 45 68 49 69 46 70 48 71 47 72
REMARK H PARENT 64 40 42 51
REMARK Flexibility Score: inf
ROOT
ATOM      1  C   UNL A   1      35.072  31.527  27.789  1.00  0.00     0.188 C 
ENDROOT
BRANCH   1   2
ATOM      2  O   UNL A   1      34.356  30.318  27.977  1.00  0.00    -0.376 OA
BRANCH   2   3
ATOM      3  C   UNL A   1      33.448  29.884  26.958  1.00  0.00     0.202 C 
BRANCH   3   4
ATOM      4  C   UNL A   1      33.176  28.382  26.845  1.00  0.00     0.261 C 
BRANCH   4   5
ATOM      5  O   UNL A   1      32.502  27.850  25.668  1.00  0.00    -0.462 OA
BRANCH   5   6
ATOM      6  C   UNL A   1      32.522  28.351  24.420  1.00  0.00     0.322 C 
ATOM      7  O   UNL A   1      33.517  28.191  23.711  1.00  0.00    -0.251 OA
BRANCH   6   8
ATOM      8  C   UNL A   1      31.326  29.045  23.890  1.00  0.00     0.276 C 
BRANCH   8   9
ATOM      9  S   UNL A   1      30.303  27.921  23.010  1.00  0.00     0.224 S 
ATOM     10  O   UNL A   1      31.106  27.281  21.991  1.00  0.00    -0.212 OA
ATOM     11  O   UNL A   1      29.612  27.123  24.006  1.00  0.00    -0.212 OA
BRANCH   9  12
ATOM     12  N   UNL A   1      29.174  28.899  22.270  1.00  0.00    -0.201 NA
ATOM     13  C   UNL A   1      27.829  29.326  22.737  1.00  0.00     0.103 C 
ATOM     14  C   UNL A   1      29.384  30.219  21.625  1.00  0.00     0.103 C 
ATOM     15  C   UNL A   1      27.893  30.544  21.802  1.00  0.00     0.033 C 
ENDBRANCH   9  12
ENDBRANCH   8   9
ENDBRANCH   6   8
ENDBRANCH   5   6
ENDBRANCH   4   5
ENDBRANCH   3   4
ENDBRANCH   2   3
ENDBRANCH   1   2
BRANCH   1  16
ATOM     16  C   UNL A   1      34.798  32.648  28.793  1.00  0.00     0.188 C 
BRANCH  16  17
ATOM     17  O   UNL A   1      33.707  33.506  28.500  1.00  0.00    -0.376 OA
BRANCH  17  18
ATOM     18  C   UNL A   1      33.983  34.904  28.446  1.00  0.00     0.202 C 
BRANCH  18  19
ATOM     19  C   UNL A   1      33.218  35.835  29.407  1.00  0.00     0.261 C 
BRANCH  19  20
ATOM     20  O   UNL A   1      32.586  35.189  30.535  1.00  0.00    -0.460 OA
BRANCH  20  21
ATOM     21  C   UNL A   1      32.783  35.769  31.745  1.00  0.00     0.338 C 
ATOM     22  O   UNL A   1      32.134  36.670  32.251  1.00  0.00    -0.246 OA
BRANCH  21  23
ATOM     23  C   UNL A   1      33.871  35.089  32.473  1.00  0.00     0.060 A 
ATOM     24  C   UNL A   1      35.170  35.623  32.468  1.00  0.00     0.016 A 
ATOM     25  C   UNL A   1      33.633  33.825  33.009  1.00  0.00     0.016 A 
ATOM     26  C   UNL A   1      36.241  34.877  32.978  1.00  0.00     0.010 A 
ATOM     27  C   UNL A   1      34.703  33.079  33.505  1.00  0.00     0.010 A 
ATOM     28  C   UNL A   1      36.017  33.583  33.463  1.00  0.00    -0.014 A 
BRANCH  28  29
ATOM     29  C   UNL A   1      37.135  32.658  33.782  1.00  0.00     0.031 A 
ATOM     30  C   UNL A   1      37.919  32.882  35.046  1.00  0.00     0.074 A 
ATOM     31  C   UNL A   1      37.521  31.701  32.920  1.00  0.00     0.049 A 
ATOM     32  N   UNL A   1      39.063  32.367  35.419  1.00  0.00    -0.248 NA
ATOM     33  C   UNL A   1      37.338  33.833  36.005  1.00  0.00     0.031 C 
ATOM     34  C   UNL A   1      36.830  31.347  31.685  1.00  0.00     0.029 A 
ATOM     35  N   UNL A   1      38.626  30.885  32.942  1.00  0.00    -0.354 N 
ATOM     36  C   UNL A   1      39.359  32.961  36.640  1.00  0.00     0.074 A 
ATOM     37  C   UNL A   1      38.281  33.881  36.935  1.00  0.00     0.031 C 
ATOM     38  C   UNL A   1      37.549  30.412  31.041  1.00  0.00     0.029 A 
ATOM     39  C   UNL A   1      38.775  30.143  31.794  1.00  0.00     0.049 A 
ATOM     40  H   UNL A   1      39.249  30.836  33.703  1.00  0.00     0.167 HD
ATOM     41  C   UNL A   1      40.437  32.768  37.438  1.00  0.00     0.031 A 
ATOM     42  C   UNL A   1      39.802  29.380  31.373  1.00  0.00     0.031 A 
ATOM     43  C   UNL A   1      41.522  31.873  37.131  1.00  0.00     0.049 A 
ATOM     44  C   UNL A   1      41.030  29.231  32.233  1.00  0.00     0.074 A 
ATOM     45  C   UNL A   1      42.644  31.584  37.888  1.00  0.00     0.029 A 
ATOM     46  N   UNL A   1      41.629  31.135  35.961  1.00  0.00    -0.354 N 
ATOM     47  N   UNL A   1      41.293  29.774  33.398  1.00  0.00    -0.248 NA
ATOM     48  C   UNL A   1      42.100  28.362  31.722  1.00  0.00     0.031 C 
ATOM     49  C   UNL A   1      43.465  30.730  37.144  1.00  0.00     0.029 A 
ATOM     50  C   UNL A   1      42.816  30.421  35.960  1.00  0.00     0.049 A 
ATOM     51  H   UNL A   1      40.960  31.121  35.239  1.00  0.00     0.167 HD
ATOM     52  C   UNL A   1      42.540  29.286  33.773  1.00  0.00     0.074 A 
ATOM     53  C   UNL A   1      42.980  28.403  32.715  1.00  0.00     0.031 C 
ATOM     54  C   UNL A   1      43.249  29.542  34.902  1.00  0.00     0.031 A 
BRANCH  41  55
ATOM     55  C   UNL A   1      40.525  33.602  38.689  1.00  0.00    -0.014 A 
ATOM     56  C   UNL A   1      41.156  34.856  38.700  1.00  0.00     0.009 A 
ATOM     57  C   UNL A   1      39.967  33.116  39.884  1.00  0.00     0.009 A 
ATOM     58  C   UNL A   1      41.281  35.576  39.891  1.00  0.00     0.001 A 
ATOM     59  C   UNL A   1      40.058  33.855  41.063  1.00  0.00     0.001 A 
ATOM     60  C   UNL A   1      40.730  35.076  41.070  1.00  0.00     0.000 A 
ENDBRANCH  41  55
BRANCH  42  61
ATOM     61  C   UNL A   1      39.721  28.722  30.042  1.00  0.00    -0.014 A 
ATOM     62  C   UNL A   1      40.110  29.405  28.880  1.00  0.00     0.009 A 
ATOM     63  C   UNL A   1      39.283  27.393  29.932  1.00  0.00     0.009 A 
ATOM     64  C   UNL A   1      40.053  28.773  27.635  1.00  0.00     0.001 A 
ATOM     65  C   UNL A   1      39.256  26.753  28.691  1.00  0.00     0.001 A 
ATOM     66  C   UNL A   1      39.636  27.445  27.543  1.00  0.00     0.000 A 
ENDBRANCH  42  61
BRANCH  54  67
ATOM     67  C   UNL A   1      44.557  28.819  35.091  1.00  0.00    -0.014 A 
ATOM     68  C   UNL A   1      44.634  27.592  35.767  1.00  0.00     0.009 A 
ATOM     69  C   UNL A   1      45.723  29.347  34.508  1.00  0.00     0.009 A 
ATOM     70  C   UNL A   1      45.855  26.920  35.873  1.00  0.00     0.001 A 
ATOM     71  C   UNL A   1      46.934  28.657  34.589  1.00  0.00     0.001 A 
ATOM     72  C   UNL A   1      47.001  27.448  35.278  1.00  0.00     0.000 A 
ENDBRANCH  54  67
ENDBRANCH  28  29
ENDBRANCH  21  23
ENDBRANCH  20  21
ENDBRANCH  19  20
ENDBRANCH  18  19
ENDBRANCH  17  18
ENDBRANCH  16  17
ENDBRANCH   1  16
TORSDOF 19
ENDMDL
MODEL 2
REMARK VINA RESULT:      -8.4      3.213      8.358
REMARK SMILES O=C(CS(=O)(=O)N1CCC1)OCCOCCOCCOC(=O)c1ccc(-c2c3nc(c(-c4ccccc4)c4ccc([nH]4)c(-c4ccccc4)c4nc(c(-c5ccccc5)c5ccc2[nH]5)C=C4)C=C3)cc1
REMARK SMILES IDX 15 1 14 2 13 3 12 4 11 5 2 6 1 7 3 8 4 9 5 10 6 11 7 12 8 13
REMARK SMILES IDX 10 14 9 15 16 16 17 17 18 18 19 19 20 20 21 21 22 22 23 23
REMARK SMILES IDX 24 24 70 25 25 26 69 27 26 28 27 29 28 30 63 31 29 32 68 33
REMARK SMILES IDX 62 34 64 35 30 36 67 37 61 38 60 39 31 41 53 42 38 43 52 44
REMARK SMILES IDX 39 45 42 46 51 47 65 48 40 49 41 50 50 52 66 53 43 54 32 55
REMARK SMILES IDX 33 56 37 57 34 58 36 59 35 60 54 61 55 62 59 63 56 64 58 65
REMARK SMILES IDX 57 66 44 67 45 68 49 69 46 70 48 71 47 72
REMARK H PARENT 64 40 42 51
REMARK Flexibility Score: inf
ROOT
ATOM      1  C   UNL A   1      35.162  21.491  26.110  1.00  0.00     0.188 C 
ENDROOT
BRANCH   1   2
ATOM      2  O   UNL A   1      34.997  22.784  26.666  1.00  0.00    -0.376 OA
BRANCH   2   3
ATOM      3  C   UNL A   1      33.744  23.457  26.501  1.00  0.00     0.202 C 
BRANCH   3   4
ATOM      4  C   UNL A   1      33.705  24.659  25.554  1.00  0.00     0.261 C 
BRANCH   4   5
ATOM      5  O   UNL A   1      33.378  25.982  26.069  1.00  0.00    -0.462 OA
BRANCH   5   6
ATOM      6  C   UNL A   1      32.363  26.778  25.688  1.00  0.00     0.322 C 
ATOM      7  O   UNL A   1      31.204  26.362  25.741  1.00  0.00    -0.251 OA
BRANCH   6   8
ATOM      8  C   UNL A   1      32.642  28.167  25.258  1.00  0.00     0.276 C 
BRANCH   8   9
ATOM      9  S   UNL A   1      32.688  28.270  23.505  1.00  0.00     0.224 S 
ATOM     10  O   UNL A   1      33.661  29.275  23.137  1.00  0.00    -0.212 OA
ATOM     11  O   UNL A   1      32.817  26.911  23.014  1.00  0.00    -0.212 OA
BRANCH   9  12
ATOM     12  N   UNL A   1      31.168  28.816  23.095  1.00  0.00    -0.201 NA
ATOM     13  C   UNL A   1      29.991  28.067  22.582  1.00  0.00     0.103 C 
ATOM     14  C   UNL A   1      30.275  29.716  23.867  1.00  0.00     0.103 C 
ATOM     15  C   UNL A   1      29.062  29.180  23.092  1.00  0.00     0.033 C 
ENDBRANCH   9  12
ENDBRANCH   8   9
ENDBRANCH   6   8
ENDBRANCH   5   6
ENDBRANCH   4   5
ENDBRANCH   3   4
ENDBRANCH   2   3
ENDBRANCH   1   2
BRANCH   1  16
ATOM     16  C   UNL A   1      35.619  21.426  24.652  1.00  0.00     0.188 C 
BRANCH  16  17
ATOM     17  O   UNL A   1      37.016  21.513  24.423  1.00  0.00    -0.376 OA
BRANCH  17  18
ATOM     18  C   UNL A   1      37.848  20.617  25.156  1.00  0.00     0.202 C 
BRANCH  18  19
ATOM     19  C   UNL A   1      39.162  21.163  25.749  1.00  0.00     0.261 C 
BRANCH  19  20
ATOM     20  O   UNL A   1      39.112  22.522  26.239  1.00  0.00    -0.460 OA
BRANCH  20  21
ATOM     21  C   UNL A   1      40.308  23.125  26.449  1.00  0.00     0.338 C 
ATOM     22  O   UNL A   1      41.417  22.681  26.202  1.00  0.00    -0.246 OA
BRANCH  21  23
ATOM     23  C   UNL A   1      40.113  24.501  26.946  1.00  0.00     0.060 A 
ATOM     24  C   UNL A   1      40.894  25.554  26.443  1.00  0.00     0.016 A 
ATOM     25  C   UNL A   1      39.278  24.707  28.042  1.00  0.00     0.016 A 
ATOM     26  C   UNL A   1      40.858  26.814  27.056  1.00  0.00     0.010 A 
ATOM     27  C   UNL A   1      39.253  25.959  28.658  1.00  0.00     0.010 A 
ATOM     28  C   UNL A   1      40.067  27.010  28.193  1.00  0.00    -0.014 A 
BRANCH  28  29
ATOM     29  C   UNL A   1      40.177  28.235  29.026  1.00  0.00     0.031 A 
ATOM     30  C   UNL A   1      41.213  28.276  30.116  1.00  0.00     0.074 A 
ATOM     31  C   UNL A   1      39.309  29.253  28.895  1.00  0.00     0.049 A 
ATOM     32  N   UNL A   1      41.345  29.118  31.109  1.00  0.00    -0.248 NA
ATOM     33  C   UNL A   1      42.221  27.205  30.088  1.00  0.00     0.031 C 
ATOM     34  C   UNL A   1      38.288  29.365  27.859  1.00  0.00     0.029 A 
ATOM     35  N   UNL A   1      39.127  30.367  29.679  1.00  0.00    -0.354 N 
ATOM     36  C   UNL A   1      42.429  28.658  31.847  1.00  0.00     0.074 A 
ATOM     37  C   UNL A   1      42.906  27.458  31.194  1.00  0.00     0.031 C 
ATOM     38  C   UNL A   1      37.554  30.467  28.094  1.00  0.00     0.029 A 
ATOM     39  C   UNL A   1      38.023  31.104  29.325  1.00  0.00     0.049 A 
ATOM     40  H   UNL A   1      39.727  30.612  30.420  1.00  0.00     0.167 HD
ATOM     41  C   UNL A   1      42.970  29.179  32.975  1.00  0.00     0.031 A 
ATOM     42  C   UNL A   1      37.424  32.138  29.949  1.00  0.00     0.031 A 
ATOM     43  C   UNL A   1      42.478  30.357  33.640  1.00  0.00     0.049 A 
ATOM     44  C   UNL A   1      37.989  32.663  31.243  1.00  0.00     0.074 A 
ATOM     45  C   UNL A   1      42.975  30.983  34.770  1.00  0.00     0.029 A 
ATOM     46  N   UNL A   1      41.360  31.078  33.243  1.00  0.00    -0.354 N 
ATOM     47  N   UNL A   1      39.029  32.241  31.923  1.00  0.00    -0.248 NA
ATOM     48  C   UNL A   1      37.301  33.810  31.854  1.00  0.00     0.031 C 
ATOM     49  C   UNL A   1      42.116  32.036  35.100  1.00  0.00     0.029 A 
ATOM     50  C   UNL A   1      41.132  32.118  34.128  1.00  0.00     0.049 A 
ATOM     51  H   UNL A   1      40.813  30.879  32.450  1.00  0.00     0.167 HD
ATOM     52  C   UNL A   1      39.138  33.089  33.020  1.00  0.00     0.074 A 
ATOM     53  C   UNL A   1      38.062  34.051  32.914  1.00  0.00     0.031 C 
ATOM     54  C   UNL A   1      40.058  33.075  34.017  1.00  0.00     0.031 A 
BRANCH  41  55
ATOM     55  C   UNL A   1      44.116  28.427  33.599  1.00  0.00    -0.014 A 
ATOM     56  C   UNL A   1      45.452  28.697  33.259  1.00  0.00     0.009 A 
ATOM     57  C   UNL A   1      43.850  27.422  34.544  1.00  0.00     0.009 A 
ATOM     58  C   UNL A   1      46.489  27.936  33.805  1.00  0.00     0.001 A 
ATOM     59  C   UNL A   1      44.890  26.691  35.117  1.00  0.00     0.001 A 
ATOM     60  C   UNL A   1      46.208  26.936  34.734  1.00  0.00     0.000 A 
ENDBRANCH  41  55
BRANCH  42  61
ATOM     61  C   UNL A   1      36.189  32.724  29.365  1.00  0.00    -0.014 A 
ATOM     62  C   UNL A   1      34.929  32.186  29.665  1.00  0.00     0.009 A 
ATOM     63  C   UNL A   1      36.264  33.847  28.525  1.00  0.00     0.009 A 
ATOM     64  C   UNL A   1      33.771  32.755  29.131  1.00  0.00     0.001 A 
ATOM     65  C   UNL A   1      35.103  34.433  28.016  1.00  0.00     0.001 A 
ATOM     66  C   UNL A   1      33.857  33.884  28.316  1.00  0.00     0.000 A 
ENDBRANCH  42  61
BRANCH  54  67
ATOM     67  C   UNL A   1      39.986  34.163  35.056  1.00  0.00    -0.014 A 
ATOM     68  C   UNL A   1      39.297  33.987  36.266  1.00  0.00     0.009 A 
ATOM     69  C   UNL A   1      40.691  35.360  34.846  1.00  0.00     0.009 A 
ATOM     70  C   UNL A   1      39.300  34.996  37.233  1.00  0.00     0.001 A 
ATOM     71  C   UNL A   1      40.718  36.353  35.827  1.00  0.00     0.001 A 
ATOM     72  C   UNL A   1      40.016  36.174  37.016  1.00  0.00     0.000 A 
ENDBRANCH  54  67
ENDBRANCH  28  29
ENDBRANCH  21  23
ENDBRANCH  20  21
ENDBRANCH  19  20
ENDBRANCH  18  19
ENDBRANCH  17  18
ENDBRANCH  16  17
ENDBRANCH   1  16
TORSDOF 19
ENDMDL
MODEL 3
REMARK VINA RESULT:      -8.4      5.675     10.307
REMARK SMILES O=C(CS(=O)(=O)N1CCC1)OCCOCCOCCOC(=O)c1ccc(-c2c3nc(c(-c4ccccc4)c4ccc([nH]4)c(-c4ccccc4)c4nc(c(-c5ccccc5)c5ccc2[nH]5)C=C4)C=C3)cc1
REMARK SMILES IDX 15 1 14 2 13 3 12 4 11 5 2 6 1 7 3 8 4 9 5 10 6 11 7 12 8 13
REMARK SMILES IDX 10 14 9 15 16 16 17 17 18 18 19 19 20 20 21 21 22 22 23 23
REMARK SMILES IDX 24 24 70 25 25 26 69 27 26 28 27 29 28 30 63 31 29 32 68 33
REMARK SMILES IDX 62 34 64 35 30 36 67 37 61 38 60 39 31 41 53 42 38 43 52 44
REMARK SMILES IDX 39 45 42 46 51 47 65 48 40 49 41 50 50 52 66 53 43 54 32 55
REMARK SMILES IDX 33 56 37 57 34 58 36 59 35 60 54 61 55 62 59 63 56 64 58 65
REMARK SMILES IDX 57 66 44 67 45 68 49 69 46 70 48 71 47 72
REMARK H PARENT 64 40 42 51
REMARK Flexibility Score: inf
ROOT
ATOM      1  C   UNL A   1      36.413  22.270  24.102  1.00  0.00     0.188 C 
ENDROOT
BRANCH   1   2
ATOM      2  O   UNL A   1      36.352  23.678  24.248  1.00  0.00    -0.376 OA
BRANCH   2   3
ATOM      3  C   UNL A   1      35.077  24.301  24.444  1.00  0.00     0.202 C 
BRANCH   3   4
ATOM      4  C   UNL A   1      33.981  24.010  23.416  1.00  0.00     0.261 C 
BRANCH   4   5
ATOM      5  O   UNL A   1      33.738  24.946  22.326  1.00  0.00    -0.462 OA
BRANCH   5   6
ATOM      6  C   UNL A   1      33.556  26.275  22.417  1.00  0.00     0.322 C 
ATOM      7  O   UNL A   1      34.129  27.028  21.628  1.00  0.00    -0.251 OA
BRANCH   6   8
ATOM      8  C   UNL A   1      32.626  26.819  23.432  1.00  0.00     0.276 C 
BRANCH   8   9
ATOM      9  S   UNL A   1      30.961  26.640  22.899  1.00  0.00     0.224 S 
ATOM     10  O   UNL A   1      30.955  26.566  21.455  1.00  0.00    -0.212 OA
ATOM     11  O   UNL A   1      30.387  25.568  23.690  1.00  0.00    -0.212 OA
BRANCH   9  12
ATOM     12  N   UNL A   1      30.233  28.064  23.369  1.00  0.00    -0.201 NA
ATOM     13  C   UNL A   1      30.755  29.168  24.216  1.00  0.00     0.103 C 
ATOM     14  C   UNL A   1      29.495  29.039  22.529  1.00  0.00     0.103 C 
ATOM     15  C   UNL A   1      29.743  30.133  23.578  1.00  0.00     0.033 C 
ENDBRANCH   9  12
ENDBRANCH   8   9
ENDBRANCH   6   8
ENDBRANCH   5   6
ENDBRANCH   4   5
ENDBRANCH   3   4
ENDBRANCH   2   3
ENDBRANCH   1   2
BRANCH   1  16
ATOM     16  C   UNL A   1      36.575  21.455  25.387  1.00  0.00     0.188 C 
BRANCH  16  17
ATOM     17  O   UNL A   1      36.711  20.051  25.233  1.00  0.00    -0.376 OA
BRANCH  17  18
ATOM     18  C   UNL A   1      37.979  19.571  24.789  1.00  0.00     0.202 C 
BRANCH  18  19
ATOM     19  C   UNL A   1      39.242  20.066  25.521  1.00  0.00     0.261 C 
BRANCH  19  20
ATOM     20  O   UNL A   1      40.233  19.056  25.816  1.00  0.00    -0.460 OA
BRANCH  20  21
ATOM     21  C   UNL A   1      41.512  19.490  25.934  1.00  0.00     0.338 C 
ATOM     22  O   UNL A   1      42.528  18.905  25.600  1.00  0.00    -0.246 OA
BRANCH  21  23
ATOM     23  C   UNL A   1      41.542  20.872  26.451  1.00  0.00     0.060 A 
ATOM     24  C   UNL A   1      42.013  21.921  25.644  1.00  0.00     0.016 A 
ATOM     25  C   UNL A   1      41.273  21.091  27.800  1.00  0.00     0.016 A 
ATOM     26  C   UNL A   1      42.240  23.189  26.195  1.00  0.00     0.010 A 
ATOM     27  C   UNL A   1      41.511  22.351  28.350  1.00  0.00     0.010 A 
ATOM     28  C   UNL A   1      42.027  23.399  27.562  1.00  0.00    -0.014 A 
BRANCH  28  29
ATOM     29  C   UNL A   1      42.482  24.636  28.248  1.00  0.00     0.031 A 
ATOM     30  C   UNL A   1      41.483  25.733  28.495  1.00  0.00     0.074 A 
ATOM     31  C   UNL A   1      43.776  24.833  28.554  1.00  0.00     0.049 A 
ATOM     32  N   UNL A   1      41.681  26.975  28.854  1.00  0.00    -0.248 NA
ATOM     33  C   UNL A   1      40.071  25.379  28.286  1.00  0.00     0.031 C 
ATOM     34  C   UNL A   1      44.839  23.844  28.411  1.00  0.00     0.029 A 
ATOM     35  N   UNL A   1      44.415  25.962  29.007  1.00  0.00    -0.354 N 
ATOM     36  C   UNL A   1      40.423  27.564  28.877  1.00  0.00     0.074 A 
ATOM     37  C   UNL A   1      39.473  26.544  28.483  1.00  0.00     0.031 C 
ATOM     38  C   UNL A   1      46.011  24.421  28.728  1.00  0.00     0.029 A 
ATOM     39  C   UNL A   1      45.783  25.832  29.045  1.00  0.00     0.049 A 
ATOM     40  H   UNL A   1      43.942  26.781  29.277  1.00  0.00     0.167 HD
ATOM     41  C   UNL A   1      40.088  28.840  29.185  1.00  0.00     0.031 A 
ATOM     42  C   UNL A   1      46.744  26.752  29.256  1.00  0.00     0.031 A 
ATOM     43  C   UNL A   1      41.036  29.860  29.549  1.00  0.00     0.049 A 
ATOM     44  C   UNL A   1      46.365  28.186  29.523  1.00  0.00     0.074 A 
ATOM     45  C   UNL A   1      40.794  31.175  29.909  1.00  0.00     0.029 A 
ATOM     46  N   UNL A   1      42.412  29.683  29.583  1.00  0.00    -0.354 N 
ATOM     47  N   UNL A   1      45.172  28.731  29.569  1.00  0.00    -0.248 NA
ATOM     48  C   UNL A   1      47.465  29.130  29.771  1.00  0.00     0.031 C 
ATOM     49  C   UNL A   1      42.026  31.813  30.086  1.00  0.00     0.029 A 
ATOM     50  C   UNL A   1      43.032  30.874  29.920  1.00  0.00     0.049 A 
ATOM     51  H   UNL A   1      42.876  28.836  29.395  1.00  0.00     0.167 HD
ATOM     52  C   UNL A   1      45.377  30.070  29.883  1.00  0.00     0.074 A 
ATOM     53  C   UNL A   1      46.806  30.255  30.019  1.00  0.00     0.031 C 
ATOM     54  C   UNL A   1      44.457  31.053  30.054  1.00  0.00     0.031 A 
BRANCH  41  55
ATOM     55  C   UNL A   1      38.635  29.218  29.066  1.00  0.00    -0.014 A 
ATOM     56  C   UNL A   1      38.086  29.677  27.857  1.00  0.00     0.009 A 
ATOM     57  C   UNL A   1      37.800  29.117  30.191  1.00  0.00     0.009 A 
ATOM     58  C   UNL A   1      36.751  30.084  27.795  1.00  0.00     0.001 A 
ATOM     59  C   UNL A   1      36.457  29.486  30.116  1.00  0.00     0.001 A 
ATOM     60  C   UNL A   1      35.937  29.986  28.923  1.00  0.00     0.000 A 
ENDBRANCH  41  55
BRANCH  42  61
ATOM     61  C   UNL A   1      48.171  26.343  29.186  1.00  0.00    -0.014 A 
ATOM     62  C   UNL A   1      48.906  26.505  28.003  1.00  0.00     0.009 A 
ATOM     63  C   UNL A   1      48.815  25.814  30.317  1.00  0.00     0.009 A 
ATOM     64  C   UNL A   1      50.254  26.139  27.951  1.00  0.00     0.001 A 
ATOM     65  C   UNL A   1      50.170  25.478  30.272  1.00  0.00     0.001 A 
ATOM     66  C   UNL A   1      50.887  25.636  29.087  1.00  0.00     0.000 A 
ENDBRANCH  42  61
BRANCH  54  67
ATOM     67  C   UNL A   1      44.951  32.416  30.464  1.00  0.00    -0.014 A 
ATOM     68  C   UNL A   1      45.352  33.372  29.518  1.00  0.00     0.009 A 
ATOM     69  C   UNL A   1      44.939  32.770  31.824  1.00  0.00     0.009 A 
ATOM     70  C   UNL A   1      45.750  34.647  29.930  1.00  0.00     0.001 A 
ATOM     71  C   UNL A   1      45.307  34.055  32.228  1.00  0.00     0.001 A 
ATOM     72  C   UNL A   1      45.720  34.990  31.282  1.00  0.00     0.000 A 
ENDBRANCH  54  67
ENDBRANCH  28  29
ENDBRANCH  21  23
ENDBRANCH  20  21
ENDBRANCH  19  20
ENDBRANCH  18  19
ENDBRANCH  17  18
ENDBRANCH  16  17
ENDBRANCH   1  16
TORSDOF 19
ENDMDL
