MODEL 1
REMARK VINA RESULT:      -9.6      0.000      0.000
REMARK SMILES CC[C@@](C)([NH2+]CC(=O)N[C@@H](C)c1ccc(F)cc1)C(=O)OCCOCCOCCOC(=O)c1ccc(-c2c3nc(c(-c4ccccc4)c4ccc([nH]4)c(-c4ccccc4)c4nc(c(-c5ccccc5)c5ccc2[nH]5)C=C4)C=C3)cc1
REMARK SMILES IDX 24 1 23 2 22 3 21 4 19 5 20 6 3 7 4 8 2 9 1 10 5 11 6 14
REMARK SMILES IDX 7 15 8 16 9 17 10 19 11 20 12 21 13 22 18 23 14 24 17 25
REMARK SMILES IDX 15 26 16 27 25 28 26 29 27 30 28 31 29 32 30 33 31 34 32 35
REMARK SMILES IDX 33 36 34 37 80 38 35 39 79 40 36 41 37 42 38 43 73 44 39 45
REMARK SMILES IDX 78 46 72 47 74 48 40 49 77 50 71 51 70 52 41 54 63 55 48 56
REMARK SMILES IDX 62 57 49 58 52 59 61 60 75 61 50 62 51 63 60 65 76 66 53 67
REMARK SMILES IDX 42 68 43 69 47 70 44 71 46 72 45 73 64 74 65 75 69 76 66 77
REMARK SMILES IDX 68 78 67 79 54 80 55 81 59 82 56 83 58 84 57 85
REMARK H PARENT 5 12 5 13 9 18 74 53 52 64
REMARK Flexibility Score: inf
ROOT
ATOM      1  O   UNL A   1      33.489  31.357  27.690  1.00  0.00    -0.376 OA
ENDROOT
BRANCH   1   2
ATOM      2  C   UNL A   1      33.267  30.401  26.666  1.00  0.00     0.202 C 
BRANCH   2   3
ATOM      3  C   UNL A   1      31.822  30.165  26.214  1.00  0.00     0.261 C 
BRANCH   3   4
ATOM      4  O   UNL A   1      31.600  28.800  25.823  1.00  0.00    -0.459 OA
BRANCH   4   5
ATOM      5  C   UNL A   1      31.001  28.509  24.634  1.00  0.00     0.367 C 
ATOM      6  O   UNL A   1      30.809  29.339  23.753  1.00  0.00    -0.245 OA
BRANCH   5   7
ATOM      7  C   UNL A   1      30.553  26.999  24.544  1.00  0.00     0.191 C 
ATOM      8  C   UNL A   1      29.196  26.707  23.884  1.00  0.00     0.092 C 
BRANCH   7   9
ATOM      9  C   UNL A   1      31.627  26.331  23.623  1.00  0.00     0.077 C 
ATOM     10  C   UNL A   1      31.100  25.123  22.825  1.00  0.00     0.011 C 
ENDBRANCH   7   9
BRANCH   7  11
ATOM     11  N   UNL A   1      30.485  26.324  25.878  1.00  0.00    -0.325 N 
ATOM     12  H   UNL A   1      29.619  25.786  25.894  1.00  0.00     0.347 HD
ATOM     13  H   UNL A   1      30.568  27.097  26.537  1.00  0.00     0.347 HD
BRANCH  11  14
ATOM     14  C   UNL A   1      31.575  25.396  26.298  1.00  0.00     0.362 C 
BRANCH  14  15
ATOM     15  C   UNL A   1      31.186  23.961  26.708  1.00  0.00     0.275 C 
ATOM     16  O   UNL A   1      30.017  23.680  26.989  1.00  0.00    -0.268 OA
ATOM     17  N   UNL A   1      32.118  22.944  26.714  1.00  0.00    -0.345 N 
ATOM     18  H   UNL A   1      31.777  22.035  26.546  1.00  0.00     0.164 HD
BRANCH  17  19
ATOM     19  C   UNL A   1      33.551  23.064  26.941  1.00  0.00     0.109 C 
ATOM     20  C   UNL A   1      34.034  22.062  28.001  1.00  0.00     0.036 C 
BRANCH  19  21
ATOM     21  C   UNL A   1      34.456  23.174  25.728  1.00  0.00    -0.026 A 
ATOM     22  C   UNL A   1      33.909  22.990  24.437  1.00  0.00     0.009 A 
ATOM     23  C   UNL A   1      35.851  23.253  25.845  1.00  0.00     0.009 A 
ATOM     24  C   UNL A   1      34.719  22.913  23.305  1.00  0.00     0.039 A 
ATOM     25  C   UNL A   1      36.665  23.168  24.710  1.00  0.00     0.039 A 
ATOM     26  C   UNL A   1      36.093  23.000  23.453  1.00  0.00     0.123 A 
ATOM     27  F   UNL A   1      36.879  22.890  22.375  1.00  0.00    -0.207 F 
ENDBRANCH  19  21
ENDBRANCH  17  19
ENDBRANCH  14  15
ENDBRANCH  11  14
ENDBRANCH   7  11
ENDBRANCH   5   7
ENDBRANCH   4   5
ENDBRANCH   3   4
ENDBRANCH   2   3
ENDBRANCH   1   2
BRANCH   1  28
ATOM     28  C   UNL A   1      34.822  31.785  27.919  1.00  0.00     0.188 C 
BRANCH  28  29
ATOM     29  C   UNL A   1      35.093  33.160  28.577  1.00  0.00     0.188 C 
BRANCH  29  30
ATOM     30  O   UNL A   1      34.111  33.818  29.347  1.00  0.00    -0.376 OA
BRANCH  30  31
ATOM     31  C   UNL A   1      33.530  35.008  28.849  1.00  0.00     0.202 C 
BRANCH  31  32
ATOM     32  C   UNL A   1      32.911  36.052  29.796  1.00  0.00     0.261 C 
BRANCH  32  33
ATOM     33  O   UNL A   1      32.267  35.524  30.968  1.00  0.00    -0.460 OA
BRANCH  33  34
ATOM     34  C   UNL A   1      32.722  36.008  32.164  1.00  0.00     0.338 C 
ATOM     35  O   UNL A   1      32.210  36.842  32.862  1.00  0.00    -0.246 OA
BRANCH  34  36
ATOM     36  C   UNL A   1      33.862  35.161  32.606  1.00  0.00     0.060 A 
ATOM     37  C   UNL A   1      35.162  35.687  32.535  1.00  0.00     0.016 A 
ATOM     38  C   UNL A   1      33.649  33.879  33.107  1.00  0.00     0.016 A 
ATOM     39  C   UNL A   1      36.253  34.938  32.987  1.00  0.00     0.010 A 
ATOM     40  C   UNL A   1      34.747  33.116  33.521  1.00  0.00     0.010 A 
ATOM     41  C   UNL A   1      36.054  33.636  33.456  1.00  0.00    -0.014 A 
BRANCH  41  42
ATOM     42  C   UNL A   1      37.203  32.746  33.751  1.00  0.00     0.031 A 
ATOM     43  C   UNL A   1      37.968  32.959  35.027  1.00  0.00     0.074 A 
ATOM     44  C   UNL A   1      37.601  31.800  32.880  1.00  0.00     0.049 A 
ATOM     45  N   UNL A   1      39.101  32.431  35.413  1.00  0.00    -0.248 NA
ATOM     46  C   UNL A   1      37.378  33.899  35.995  1.00  0.00     0.031 C 
ATOM     47  C   UNL A   1      36.919  31.444  31.637  1.00  0.00     0.029 A 
ATOM     48  N   UNL A   1      38.707  30.983  32.903  1.00  0.00    -0.354 N 
ATOM     49  C   UNL A   1      39.372  32.990  36.655  1.00  0.00     0.074 A 
ATOM     50  C   UNL A   1      38.288  33.899  36.959  1.00  0.00     0.031 C 
ATOM     51  C   UNL A   1      37.642  30.507  30.997  1.00  0.00     0.029 A 
ATOM     52  C   UNL A   1      38.859  30.234  31.761  1.00  0.00     0.049 A 
ATOM     53  H   UNL A   1      39.330  30.939  33.664  1.00  0.00     0.167 HD
ATOM     54  C   UNL A   1      40.434  32.774  37.465  1.00  0.00     0.031 A 
ATOM     55  C   UNL A   1      39.886  29.458  31.355  1.00  0.00     0.031 A 
ATOM     56  C   UNL A   1      41.521  31.883  37.161  1.00  0.00     0.049 A 
ATOM     57  C   UNL A   1      41.108  29.320  32.231  1.00  0.00     0.074 A 
ATOM     58  C   UNL A   1      42.624  31.579  37.940  1.00  0.00     0.029 A 
ATOM     59  N   UNL A   1      41.650  31.169  35.984  1.00  0.00    -0.354 N 
ATOM     60  N   UNL A   1      41.337  29.822  33.421  1.00  0.00    -0.248 NA
ATOM     61  C   UNL A   1      42.220  28.513  31.700  1.00  0.00     0.031 C 
ATOM     62  C   UNL A   1      43.457  30.732  37.204  1.00  0.00     0.029 A 
ATOM     63  C   UNL A   1      42.840  30.460  35.994  1.00  0.00     0.049 A 
ATOM     64  H   UNL A   1      40.995  31.164  35.249  1.00  0.00     0.167 HD
ATOM     65  C   UNL A   1      42.602  29.372  33.786  1.00  0.00     0.074 A 
ATOM     66  C   UNL A   1      43.083  28.541  32.705  1.00  0.00     0.031 C 
ATOM     67  C   UNL A   1      43.307  29.631  34.915  1.00  0.00     0.031 A 
BRANCH  54  68
ATOM     68  C   UNL A   1      40.506  33.553  38.746  1.00  0.00    -0.014 A 
ATOM     69  C   UNL A   1      39.947  33.059  39.934  1.00  0.00     0.009 A 
ATOM     70  C   UNL A   1      41.216  34.764  38.777  1.00  0.00     0.009 A 
ATOM     71  C   UNL A   1      40.086  33.774  41.126  1.00  0.00     0.001 A 
ATOM     72  C   UNL A   1      41.373  35.462  39.974  1.00  0.00     0.001 A 
ATOM     73  C   UNL A   1      40.805  34.968  41.147  1.00  0.00     0.000 A 
ENDBRANCH  54  68
BRANCH  55  74
ATOM     74  C   UNL A   1      39.860  28.803  30.018  1.00  0.00    -0.014 A 
ATOM     75  C   UNL A   1      40.285  29.491  28.871  1.00  0.00     0.009 A 
ATOM     76  C   UNL A   1      39.335  27.509  29.874  1.00  0.00     0.009 A 
ATOM     77  C   UNL A   1      40.147  28.913  27.606  1.00  0.00     0.001 A 
ATOM     78  C   UNL A   1      39.231  26.920  28.612  1.00  0.00     0.001 A 
ATOM     79  C   UNL A   1      39.623  27.628  27.478  1.00  0.00     0.000 A 
ENDBRANCH  55  74
BRANCH  67  80
ATOM     80  C   UNL A   1      44.659  28.989  35.057  1.00  0.00    -0.014 A 
ATOM     81  C   UNL A   1      45.836  29.701  34.779  1.00  0.00     0.009 A 
ATOM     82  C   UNL A   1      44.759  27.672  35.534  1.00  0.00     0.009 A 
ATOM     83  C   UNL A   1      47.084  29.098  34.950  1.00  0.00     0.001 A 
ATOM     84  C   UNL A   1      46.008  27.082  35.732  1.00  0.00     0.001 A 
ATOM     85  C   UNL A   1      47.169  27.792  35.432  1.00  0.00     0.000 A 
ENDBRANCH  67  80
ENDBRANCH  41  42
ENDBRANCH  34  36
ENDBRANCH  33  34
ENDBRANCH  32  33
ENDBRANCH  31  32
ENDBRANCH  30  31
ENDBRANCH  29  30
ENDBRANCH  28  29
ENDBRANCH   1  28
TORSDOF 23
ENDMDL
MODEL 2
REMARK VINA RESULT:      -9.2      5.779     10.338
REMARK SMILES CC[C@@](C)([NH2+]CC(=O)N[C@@H](C)c1ccc(F)cc1)C(=O)OCCOCCOCCOC(=O)c1ccc(-c2c3nc(c(-c4ccccc4)c4ccc([nH]4)c(-c4ccccc4)c4nc(c(-c5ccccc5)c5ccc2[nH]5)C=C4)C=C3)cc1
REMARK SMILES IDX 24 1 23 2 22 3 21 4 19 5 20 6 3 7 4 8 2 9 1 10 5 11 6 14
REMARK SMILES IDX 7 15 8 16 9 17 10 19 11 20 12 21 13 22 18 23 14 24 17 25
REMARK SMILES IDX 15 26 16 27 25 28 26 29 27 30 28 31 29 32 30 33 31 34 32 35
REMARK SMILES IDX 33 36 34 37 80 38 35 39 79 40 36 41 37 42 38 43 73 44 39 45
REMARK SMILES IDX 78 46 72 47 74 48 40 49 77 50 71 51 70 52 41 54 63 55 48 56
REMARK SMILES IDX 62 57 49 58 52 59 61 60 75 61 50 62 51 63 60 65 76 66 53 67
REMARK SMILES IDX 42 68 43 69 47 70 44 71 46 72 45 73 64 74 65 75 69 76 66 77
REMARK SMILES IDX 68 78 67 79 54 80 55 81 59 82 56 83 58 84 57 85
REMARK H PARENT 5 12 5 13 9 18 74 53 52 64
REMARK Flexibility Score: inf
ROOT
ATOM      1  O   UNL A   1      33.689  18.756  24.088  1.00  0.00    -0.376 OA
ENDROOT
BRANCH   1   2
ATOM      2  C   UNL A   1      32.851  19.445  25.001  1.00  0.00     0.202 C 
BRANCH   2   3
ATOM      3  C   UNL A   1      33.457  20.617  25.778  1.00  0.00     0.261 C 
BRANCH   3   4
ATOM      4  O   UNL A   1      34.303  21.429  24.947  1.00  0.00    -0.459 OA
BRANCH   4   5
ATOM      5  C   UNL A   1      34.736  22.647  25.380  1.00  0.00     0.367 C 
ATOM      6  O   UNL A   1      35.720  22.800  26.095  1.00  0.00    -0.245 OA
BRANCH   5   7
ATOM      7  C   UNL A   1      33.804  23.822  24.891  1.00  0.00     0.191 C 
ATOM      8  C   UNL A   1      34.094  25.226  25.442  1.00  0.00     0.092 C 
BRANCH   7   9
ATOM      9  C   UNL A   1      34.067  23.907  23.350  1.00  0.00     0.077 C 
ATOM     10  C   UNL A   1      32.907  24.533  22.553  1.00  0.00     0.011 C 
ENDBRANCH   7   9
BRANCH   7  11
ATOM     11  N   UNL A   1      32.355  23.586  25.182  1.00  0.00    -0.325 N 
ATOM     12  H   UNL A   1      32.157  22.618  24.929  1.00  0.00     0.347 HD
ATOM     13  H   UNL A   1      31.886  24.315  24.646  1.00  0.00     0.347 HD
BRANCH  11  14
ATOM     14  C   UNL A   1      31.832  23.786  26.564  1.00  0.00     0.362 C 
BRANCH  14  15
ATOM     15  C   UNL A   1      30.326  24.072  26.733  1.00  0.00     0.275 C 
ATOM     16  O   UNL A   1      29.587  23.254  27.288  1.00  0.00    -0.268 OA
ATOM     17  N   UNL A   1      29.777  25.270  26.322  1.00  0.00    -0.345 N 
ATOM     18  H   UNL A   1      28.983  25.579  26.816  1.00  0.00     0.164 HD
BRANCH  17  19
ATOM     19  C   UNL A   1      30.241  26.126  25.240  1.00  0.00     0.109 C 
ATOM     20  C   UNL A   1      29.133  26.364  24.203  1.00  0.00     0.036 C 
BRANCH  19  21
ATOM     21  C   UNL A   1      31.030  27.369  25.607  1.00  0.00    -0.026 A 
ATOM     22  C   UNL A   1      31.433  27.563  26.949  1.00  0.00     0.009 A 
ATOM     23  C   UNL A   1      31.205  28.432  24.709  1.00  0.00     0.009 A 
ATOM     24  C   UNL A   1      32.009  28.760  27.372  1.00  0.00     0.039 A 
ATOM     25  C   UNL A   1      31.776  29.636  25.136  1.00  0.00     0.039 A 
ATOM     26  C   UNL A   1      32.174  29.788  26.460  1.00  0.00     0.123 A 
ATOM     27  F   UNL A   1      32.693  30.953  26.867  1.00  0.00    -0.207 F 
ENDBRANCH  19  21
ENDBRANCH  17  19
ENDBRANCH  14  15
ENDBRANCH  11  14
ENDBRANCH   7  11
ENDBRANCH   5   7
ENDBRANCH   4   5
ENDBRANCH   3   4
ENDBRANCH   2   3
ENDBRANCH   1   2
BRANCH   1  28
ATOM     28  C   UNL A   1      34.699  17.914  24.620  1.00  0.00     0.188 C 
BRANCH  28  29
ATOM     29  C   UNL A   1      36.185  18.341  24.543  1.00  0.00     0.188 C 
BRANCH  29  30
ATOM     30  O   UNL A   1      36.654  19.508  25.182  1.00  0.00    -0.376 OA
BRANCH  30  31
ATOM     31  C   UNL A   1      37.702  20.247  24.584  1.00  0.00     0.202 C 
BRANCH  31  32
ATOM     32  C   UNL A   1      38.777  20.942  25.438  1.00  0.00     0.261 C 
BRANCH  32  33
ATOM     33  O   UNL A   1      39.577  20.074  26.258  1.00  0.00    -0.460 OA
BRANCH  33  34
ATOM     34  C   UNL A   1      40.925  20.117  26.029  1.00  0.00     0.338 C 
ATOM     35  O   UNL A   1      41.573  19.399  25.315  1.00  0.00    -0.246 OA
BRANCH  34  36
ATOM     36  C   UNL A   1      41.461  21.368  26.631  1.00  0.00     0.060 A 
ATOM     37  C   UNL A   1      41.443  21.507  28.028  1.00  0.00     0.016 A 
ATOM     38  C   UNL A   1      41.997  22.375  25.831  1.00  0.00     0.016 A 
ATOM     39  C   UNL A   1      41.981  22.647  28.631  1.00  0.00     0.010 A 
ATOM     40  C   UNL A   1      42.498  23.533  26.435  1.00  0.00     0.010 A 
ATOM     41  C   UNL A   1      42.487  23.680  27.836  1.00  0.00    -0.014 A 
BRANCH  41  42
ATOM     42  C   UNL A   1      42.877  24.982  28.430  1.00  0.00     0.031 A 
ATOM     43  C   UNL A   1      41.817  26.030  28.623  1.00  0.00     0.074 A 
ATOM     44  C   UNL A   1      44.157  25.256  28.744  1.00  0.00     0.049 A 
ATOM     45  N   UNL A   1      41.946  27.289  28.953  1.00  0.00    -0.248 NA
ATOM     46  C   UNL A   1      40.425  25.601  28.408  1.00  0.00     0.031 C 
ATOM     47  C   UNL A   1      45.274  24.316  28.666  1.00  0.00     0.029 A 
ATOM     48  N   UNL A   1      44.734  26.431  29.166  1.00  0.00    -0.354 N 
ATOM     49  C   UNL A   1      40.659  27.808  28.963  1.00  0.00     0.074 A 
ATOM     50  C   UNL A   1      39.761  26.731  28.605  1.00  0.00     0.031 C 
ATOM     51  C   UNL A   1      46.408  24.962  28.992  1.00  0.00     0.029 A 
ATOM     52  C   UNL A   1      46.104  26.369  29.252  1.00  0.00     0.049 A 
ATOM     53  H   UNL A   1      44.216  27.239  29.383  1.00  0.00     0.167 HD
ATOM     54  C   UNL A   1      40.259  29.072  29.236  1.00  0.00     0.031 A 
ATOM     55  C   UNL A   1      47.011  27.344  29.466  1.00  0.00     0.031 A 
ATOM     56  C   UNL A   1      41.148  30.150  29.579  1.00  0.00     0.049 A 
ATOM     57  C   UNL A   1      46.545  28.767  29.660  1.00  0.00     0.074 A 
ATOM     58  C   UNL A   1      40.826  31.457  29.902  1.00  0.00     0.029 A 
ATOM     59  N   UNL A   1      42.527  30.051  29.626  1.00  0.00    -0.354 N 
ATOM     60  N   UNL A   1      45.323  29.240  29.707  1.00  0.00    -0.248 NA
ATOM     61  C   UNL A   1      47.588  29.794  29.823  1.00  0.00     0.031 C 
ATOM     62  C   UNL A   1      42.016  32.167  30.078  1.00  0.00     0.029 A 
ATOM     63  C   UNL A   1      43.075  31.287  29.928  1.00  0.00     0.049 A 
ATOM     64  H   UNL A   1      43.041  29.226  29.470  1.00  0.00     0.167 HD
ATOM     65  C   UNL A   1      45.453  30.609  29.927  1.00  0.00     0.074 A 
ATOM     66  C   UNL A   1      46.868  30.887  30.026  1.00  0.00     0.031 C 
ATOM     67  C   UNL A   1      44.485  31.552  30.030  1.00  0.00     0.031 A 
BRANCH  54  68
ATOM     68  C   UNL A   1      38.795  29.382  29.128  1.00  0.00    -0.014 A 
ATOM     69  C   UNL A   1      38.217  29.765  27.908  1.00  0.00     0.009 A 
ATOM     70  C   UNL A   1      37.969  29.211  30.251  1.00  0.00     0.009 A 
ATOM     71  C   UNL A   1      36.840  29.985  27.821  1.00  0.00     0.001 A 
ATOM     72  C   UNL A   1      36.592  29.407  30.154  1.00  0.00     0.001 A 
ATOM     73  C   UNL A   1      36.029  29.798  28.940  1.00  0.00     0.000 A 
ENDBRANCH  54  68
BRANCH  55  74
ATOM     74  C   UNL A   1      48.470  27.045  29.433  1.00  0.00    -0.014 A 
ATOM     75  C   UNL A   1      49.155  26.673  30.601  1.00  0.00     0.009 A 
ATOM     76  C   UNL A   1      49.199  27.207  28.244  1.00  0.00     0.009 A 
ATOM     77  C   UNL A   1      50.543  26.510  30.586  1.00  0.00     0.001 A 
ATOM     78  C   UNL A   1      50.581  27.008  28.225  1.00  0.00     0.001 A 
ATOM     79  C   UNL A   1      51.254  26.674  29.398  1.00  0.00     0.000 A 
ENDBRANCH  55  74
BRANCH  67  80
ATOM     80  C   UNL A   1      44.915  32.969  30.292  1.00  0.00    -0.014 A 
ATOM     81  C   UNL A   1      45.087  33.446  31.600  1.00  0.00     0.009 A 
ATOM     82  C   UNL A   1      45.212  33.818  29.214  1.00  0.00     0.009 A 
ATOM     83  C   UNL A   1      45.521  34.756  31.823  1.00  0.00     0.001 A 
ATOM     84  C   UNL A   1      45.674  35.116  29.439  1.00  0.00     0.001 A 
ATOM     85  C   UNL A   1      45.820  35.586  30.744  1.00  0.00     0.000 A 
ENDBRANCH  67  80
ENDBRANCH  41  42
ENDBRANCH  34  36
ENDBRANCH  33  34
ENDBRANCH  32  33
ENDBRANCH  31  32
ENDBRANCH  30  31
ENDBRANCH  29  30
ENDBRANCH  28  29
ENDBRANCH   1  28
TORSDOF 23
ENDMDL
MODEL 3
REMARK VINA RESULT:      -9.0      5.319      8.899
REMARK SMILES CC[C@@](C)([NH2+]CC(=O)N[C@@H](C)c1ccc(F)cc1)C(=O)OCCOCCOCCOC(=O)c1ccc(-c2c3nc(c(-c4ccccc4)c4ccc([nH]4)c(-c4ccccc4)c4nc(c(-c5ccccc5)c5ccc2[nH]5)C=C4)C=C3)cc1
REMARK SMILES IDX 24 1 23 2 22 3 21 4 19 5 20 6 3 7 4 8 2 9 1 10 5 11 6 14
REMARK SMILES IDX 7 15 8 16 9 17 10 19 11 20 12 21 13 22 18 23 14 24 17 25
REMARK SMILES IDX 15 26 16 27 25 28 26 29 27 30 28 31 29 32 30 33 31 34 32 35
REMARK SMILES IDX 33 36 34 37 80 38 35 39 79 40 36 41 37 42 38 43 73 44 39 45
REMARK SMILES IDX 78 46 72 47 74 48 40 49 77 50 71 51 70 52 41 54 63 55 48 56
REMARK SMILES IDX 62 57 49 58 52 59 61 60 75 61 50 62 51 63 60 65 76 66 53 67
REMARK SMILES IDX 42 68 43 69 47 70 44 71 46 72 45 73 64 74 65 75 69 76 66 77
REMARK SMILES IDX 68 78 67 79 54 80 55 81 59 82 56 83 58 84 57 85
REMARK H PARENT 5 12 5 13 9 18 74 53 52 64
REMARK Flexibility Score: inf
ROOT
ATOM      1  O   UNL A   1      33.988  30.854  27.666  1.00  0.00    -0.376 OA
ENDROOT
BRANCH   1   2
ATOM      2  C   UNL A   1      33.017  31.085  26.658  1.00  0.00     0.202 C 
BRANCH   2   3
ATOM      3  C   UNL A   1      31.635  30.452  26.843  1.00  0.00     0.261 C 
BRANCH   3   4
ATOM      4  O   UNL A   1      31.549  29.161  26.217  1.00  0.00    -0.459 OA
BRANCH   4   5
ATOM      5  C   UNL A   1      31.528  28.026  26.972  1.00  0.00     0.367 C 
ATOM      6  O   UNL A   1      31.489  28.030  28.197  1.00  0.00    -0.245 OA
BRANCH   5   7
ATOM      7  C   UNL A   1      31.600  26.720  26.090  1.00  0.00     0.191 C 
ATOM      8  C   UNL A   1      31.057  26.810  24.655  1.00  0.00     0.092 C 
BRANCH   7   9
ATOM      9  C   UNL A   1      33.132  26.433  25.949  1.00  0.00     0.077 C 
ATOM     10  C   UNL A   1      33.925  27.587  25.306  1.00  0.00     0.011 C 
ENDBRANCH   7   9
BRANCH   7  11
ATOM     11  N   UNL A   1      30.883  25.557  26.700  1.00  0.00    -0.325 N 
ATOM     12  H   UNL A   1      30.080  25.358  26.104  1.00  0.00     0.347 HD
ATOM     13  H   UNL A   1      30.694  25.871  27.651  1.00  0.00     0.347 HD
BRANCH  11  14
ATOM     14  C   UNL A   1      31.600  24.265  26.902  1.00  0.00     0.362 C 
BRANCH  14  15
ATOM     15  C   UNL A   1      30.765  22.968  26.908  1.00  0.00     0.275 C 
ATOM     16  O   UNL A   1      29.864  22.801  27.735  1.00  0.00    -0.268 OA
ATOM     17  N   UNL A   1      30.963  21.988  25.956  1.00  0.00    -0.345 N 
ATOM     18  H   UNL A   1      30.179  21.436  25.727  1.00  0.00     0.164 HD
BRANCH  17  19
ATOM     19  C   UNL A   1      32.199  21.680  25.254  1.00  0.00     0.109 C 
ATOM     20  C   UNL A   1      32.214  20.225  24.761  1.00  0.00     0.036 C 
BRANCH  19  21
ATOM     21  C   UNL A   1      32.710  22.687  24.239  1.00  0.00    -0.026 A 
ATOM     22  C   UNL A   1      34.050  23.133  24.321  1.00  0.00     0.009 A 
ATOM     23  C   UNL A   1      31.853  23.344  23.345  1.00  0.00     0.009 A 
ATOM     24  C   UNL A   1      34.521  24.176  23.525  1.00  0.00     0.039 A 
ATOM     25  C   UNL A   1      32.324  24.396  22.552  1.00  0.00     0.039 A 
ATOM     26  C   UNL A   1      33.651  24.801  22.648  1.00  0.00     0.123 A 
ATOM     27  F   UNL A   1      34.087  25.827  21.907  1.00  0.00    -0.207 F 
ENDBRANCH  19  21
ENDBRANCH  17  19
ENDBRANCH  14  15
ENDBRANCH  11  14
ENDBRANCH   7  11
ENDBRANCH   5   7
ENDBRANCH   4   5
ENDBRANCH   3   4
ENDBRANCH   2   3
ENDBRANCH   1   2
BRANCH   1  28
ATOM     28  C   UNL A   1      34.790  31.950  28.078  1.00  0.00     0.188 C 
BRANCH  28  29
ATOM     29  C   UNL A   1      34.237  32.976  29.096  1.00  0.00     0.188 C 
BRANCH  29  30
ATOM     30  O   UNL A   1      35.094  33.786  29.869  1.00  0.00    -0.376 OA
BRANCH  30  31
ATOM     31  C   UNL A   1      35.267  33.492  31.242  1.00  0.00     0.202 C 
BRANCH  31  32
ATOM     32  C   UNL A   1      35.564  32.060  31.721  1.00  0.00     0.261 C 
BRANCH  32  33
ATOM     33  O   UNL A   1      36.937  31.644  31.625  1.00  0.00    -0.460 OA
BRANCH  33  34
ATOM     34  C   UNL A   1      37.143  30.295  31.525  1.00  0.00     0.338 C 
ATOM     35  O   UNL A   1      36.359  29.413  31.756  1.00  0.00    -0.246 OA
BRANCH  34  36
ATOM     36  C   UNL A   1      38.448  30.071  30.848  1.00  0.00     0.060 A 
ATOM     37  C   UNL A   1      38.514  30.197  29.450  1.00  0.00     0.016 A 
ATOM     38  C   UNL A   1      39.592  29.768  31.581  1.00  0.00     0.016 A 
ATOM     39  C   UNL A   1      39.733  30.041  28.785  1.00  0.00     0.010 A 
ATOM     40  C   UNL A   1      40.803  29.572  30.908  1.00  0.00     0.010 A 
ATOM     41  C   UNL A   1      40.881  29.699  29.508  1.00  0.00    -0.014 A 
BRANCH  41  42
ATOM     42  C   UNL A   1      42.139  29.329  28.815  1.00  0.00     0.031 A 
ATOM     43  C   UNL A   1      42.321  27.905  28.369  1.00  0.00     0.074 A 
ATOM     44  C   UNL A   1      43.130  30.221  28.632  1.00  0.00     0.049 A 
ATOM     45  N   UNL A   1      43.392  27.310  27.909  1.00  0.00    -0.248 NA
ATOM     46  C   UNL A   1      41.137  27.035  28.459  1.00  0.00     0.031 C 
ATOM     47  C   UNL A   1      43.066  31.645  28.960  1.00  0.00     0.029 A 
ATOM     48  N   UNL A   1      44.404  30.043  28.149  1.00  0.00    -0.354 N 
ATOM     49  C   UNL A   1      43.019  25.994  27.677  1.00  0.00     0.074 A 
ATOM     50  C   UNL A   1      41.625  25.873  28.047  1.00  0.00     0.031 C 
ATOM     51  C   UNL A   1      44.263  32.203  28.703  1.00  0.00     0.029 A 
ATOM     52  C   UNL A   1      45.188  31.169  28.241  1.00  0.00     0.049 A 
ATOM     53  H   UNL A   1      44.726  29.192  27.773  1.00  0.00     0.167 HD
ATOM     54  C   UNL A   1      43.772  24.972  27.208  1.00  0.00     0.031 A 
ATOM     55  C   UNL A   1      46.510  31.333  28.027  1.00  0.00     0.031 A 
ATOM     56  C   UNL A   1      45.161  25.083  26.852  1.00  0.00     0.049 A 
ATOM     57  C   UNL A   1      47.350  30.151  27.608  1.00  0.00     0.074 A 
ATOM     58  C   UNL A   1      45.995  24.105  26.338  1.00  0.00     0.029 A 
ATOM     59  N   UNL A   1      45.922  26.230  26.988  1.00  0.00    -0.354 N 
ATOM     60  N   UNL A   1      46.980  28.919  27.353  1.00  0.00    -0.248 NA
ATOM     61  C   UNL A   1      48.796  30.383  27.454  1.00  0.00     0.031 C 
ATOM     62  C   UNL A   1      47.280  24.643  26.227  1.00  0.00     0.029 A 
ATOM     63  C   UNL A   1      47.230  25.973  26.612  1.00  0.00     0.049 A 
ATOM     64  H   UNL A   1      45.584  27.100  27.304  1.00  0.00     0.167 HD
ATOM     65  C   UNL A   1      48.140  28.241  26.989  1.00  0.00     0.074 A 
ATOM     66  C   UNL A   1      49.221  29.200  27.034  1.00  0.00     0.031 C 
ATOM     67  C   UNL A   1      48.297  26.936  26.655  1.00  0.00     0.031 A 
BRANCH  54  68
ATOM     68  C   UNL A   1      43.128  23.621  27.096  1.00  0.00    -0.014 A 
ATOM     69  C   UNL A   1      43.003  22.776  28.208  1.00  0.00     0.009 A 
ATOM     70  C   UNL A   1      42.569  23.224  25.870  1.00  0.00     0.009 A 
ATOM     71  C   UNL A   1      42.342  21.552  28.090  1.00  0.00     0.001 A 
ATOM     72  C   UNL A   1      41.888  22.012  25.762  1.00  0.00     0.001 A 
ATOM     73  C   UNL A   1      41.778  21.175  26.871  1.00  0.00     0.000 A 
ENDBRANCH  54  68
BRANCH  55  74
ATOM     74  C   UNL A   1      47.162  32.649  28.277  1.00  0.00    -0.014 A 
ATOM     75  C   UNL A   1      47.624  32.990  29.558  1.00  0.00     0.009 A 
ATOM     76  C   UNL A   1      47.254  33.601  27.249  1.00  0.00     0.009 A 
ATOM     77  C   UNL A   1      48.126  34.270  29.811  1.00  0.00     0.001 A 
ATOM     78  C   UNL A   1      47.789  34.866  27.497  1.00  0.00     0.001 A 
ATOM     79  C   UNL A   1      48.211  35.205  28.781  1.00  0.00     0.000 A 
ENDBRANCH  55  74
BRANCH  67  80
ATOM     80  C   UNL A   1      49.677  26.472  26.281  1.00  0.00    -0.014 A 
ATOM     81  C   UNL A   1      50.482  25.774  27.195  1.00  0.00     0.009 A 
ATOM     82  C   UNL A   1      50.155  26.683  24.978  1.00  0.00     0.009 A 
ATOM     83  C   UNL A   1      51.749  25.321  26.819  1.00  0.00     0.001 A 
ATOM     84  C   UNL A   1      51.409  26.204  24.596  1.00  0.00     0.001 A 
ATOM     85  C   UNL A   1      52.208  25.530  25.519  1.00  0.00     0.000 A 
ENDBRANCH  67  80
ENDBRANCH  41  42
ENDBRANCH  34  36
ENDBRANCH  33  34
ENDBRANCH  32  33
ENDBRANCH  31  32
ENDBRANCH  30  31
ENDBRANCH  29  30
ENDBRANCH  28  29
ENDBRANCH   1  28
TORSDOF 23
ENDMDL
