MODEL 1
REMARK VINA RESULT:      -9.9      0.000      0.000
REMARK SMILES O=C(Cn1ccc(C(=O)NCCC[NH+]2CCOCC2)n1)OCCOCCOCCOC(=O)c1ccc(-c2c3nc(c(-c4ccccc4)c4ccc([nH]4)c(-c4ccccc4)c4nc(c(-c5ccccc5)c5ccc2[nH]5)C=C4)C=C3)cc1
REMARK SMILES IDX 23 1 22 2 21 3 2 4 1 5 3 6 4 7 5 8 20 9 6 10 7 11 8 12 9 13
REMARK SMILES IDX 10 14 11 16 12 17 13 18 14 19 15 20 19 21 16 23 18 24 17 25
REMARK SMILES IDX 24 26 25 27 26 28 27 29 28 30 29 31 30 32 31 33 32 34 33 35
REMARK SMILES IDX 34 36 80 37 35 38 79 39 36 40 37 41 38 42 73 43 39 44 78 45
REMARK SMILES IDX 72 46 74 47 40 48 77 49 71 50 70 51 41 53 63 54 48 55 62 56
REMARK SMILES IDX 49 57 52 58 61 59 75 60 50 61 51 62 60 64 76 65 53 66 42 67
REMARK SMILES IDX 43 68 47 69 44 70 46 71 45 72 64 73 65 74 69 75 66 76 68 77
REMARK SMILES IDX 67 78 54 79 55 80 59 81 56 82 58 83 57 84
REMARK H PARENT 10 15 14 22 74 52 52 63
REMARK Flexibility Score: inf
ROOT
ATOM      1  C   UNL A   1      33.098  29.694  26.931  1.00  0.00     0.202 C 
ENDROOT
BRANCH   1   2
ATOM      2  C   UNL A   1      32.633  28.671  25.889  1.00  0.00     0.261 C 
BRANCH   2   3
ATOM      3  O   UNL A   1      31.468  27.876  26.224  1.00  0.00    -0.462 OA
BRANCH   3   4
ATOM      4  C   UNL A   1      31.306  26.534  26.296  1.00  0.00     0.327 C 
ATOM      5  O   UNL A   1      30.168  26.092  26.467  1.00  0.00    -0.250 OA
BRANCH   4   6
ATOM      6  C   UNL A   1      32.493  25.606  26.312  1.00  0.00     0.266 C 
BRANCH   6   7
ATOM      7  N   UNL A   1      32.985  25.290  24.991  1.00  0.00    -0.261 N 
ATOM      8  C   UNL A   1      34.230  24.879  24.622  1.00  0.00     0.110 A 
ATOM      9  N   UNL A   1      32.171  25.476  23.953  1.00  0.00    -0.167 NA
ATOM     10  C   UNL A   1      34.262  25.005  23.248  1.00  0.00     0.056 A 
ATOM     11  C   UNL A   1      32.978  25.497  22.881  1.00  0.00     0.150 A 
BRANCH  11  12
ATOM     12  C   UNL A   1      32.539  25.970  21.557  1.00  0.00     0.271 C 
ATOM     13  O   UNL A   1      33.147  25.667  20.531  1.00  0.00    -0.267 OA
ATOM     14  N   UNL A   1      31.464  26.836  21.459  1.00  0.00    -0.350 N 
ATOM     15  H   UNL A   1      31.226  27.108  20.543  1.00  0.00     0.163 HD
BRANCH  14  16
ATOM     16  C   UNL A   1      30.631  27.405  22.511  1.00  0.00     0.122 C 
BRANCH  16  17
ATOM     17  C   UNL A   1      30.875  28.892  22.737  1.00  0.00     0.083 C 
BRANCH  17  18
ATOM     18  C   UNL A   1      30.047  29.828  21.856  1.00  0.00     0.264 C 
BRANCH  18  19
ATOM     19  N   UNL A   1      28.661  30.139  22.245  1.00  0.00    -0.331 N 
ATOM     20  C   UNL A   1      27.895  30.637  21.074  1.00  0.00     0.291 C 
ATOM     21  C   UNL A   1      28.455  31.095  23.353  1.00  0.00     0.291 C 
ATOM     22  H   UNL A   1      28.330  29.242  22.597  1.00  0.00     0.348 HD
ATOM     23  C   UNL A   1      28.181  32.117  20.742  1.00  0.00     0.221 C 
ATOM     24  C   UNL A   1      28.712  32.564  22.993  1.00  0.00     0.221 C 
ATOM     25  O   UNL A   1      27.922  32.966  21.867  1.00  0.00    -0.370 OA
ENDBRANCH  18  19
ENDBRANCH  17  18
ENDBRANCH  16  17
ENDBRANCH  14  16
ENDBRANCH  11  12
ENDBRANCH   6   7
ENDBRANCH   4   6
ENDBRANCH   3   4
ENDBRANCH   2   3
ENDBRANCH   1   2
BRANCH   1  26
ATOM     26  O   UNL A   1      34.459  30.095  26.889  1.00  0.00    -0.376 OA
BRANCH  26  27
ATOM     27  C   UNL A   1      35.389  29.350  27.653  1.00  0.00     0.188 C 
BRANCH  27  28
ATOM     28  C   UNL A   1      36.410  30.214  28.414  1.00  0.00     0.188 C 
BRANCH  28  29
ATOM     29  O   UNL A   1      35.953  31.369  29.106  1.00  0.00    -0.376 OA
BRANCH  29  30
ATOM     30  C   UNL A   1      36.231  32.670  28.588  1.00  0.00     0.202 C 
BRANCH  30  31
ATOM     31  C   UNL A   1      36.609  33.794  29.553  1.00  0.00     0.261 C 
BRANCH  31  32
ATOM     32  O   UNL A   1      37.566  33.355  30.522  1.00  0.00    -0.460 OA
BRANCH  32  33
ATOM     33  C   UNL A   1      38.839  33.253  30.086  1.00  0.00     0.338 C 
ATOM     34  O   UNL A   1      39.361  33.901  29.196  1.00  0.00    -0.246 OA
BRANCH  33  35
ATOM     35  C   UNL A   1      39.548  32.184  30.815  1.00  0.00     0.060 A 
ATOM     36  C   UNL A   1      40.932  32.127  30.631  1.00  0.00     0.016 A 
ATOM     37  C   UNL A   1      38.861  31.156  31.478  1.00  0.00     0.016 A 
ATOM     38  C   UNL A   1      41.586  30.935  30.865  1.00  0.00     0.010 A 
ATOM     39  C   UNL A   1      39.519  29.962  31.722  1.00  0.00     0.010 A 
ATOM     40  C   UNL A   1      40.839  29.831  31.286  1.00  0.00    -0.014 A 
BRANCH  40  41
ATOM     41  C   UNL A   1      41.405  28.526  30.975  1.00  0.00     0.031 A 
ATOM     42  C   UNL A   1      42.341  27.916  31.940  1.00  0.00     0.074 A 
ATOM     43  C   UNL A   1      41.089  27.896  29.824  1.00  0.00     0.049 A 
ATOM     44  N   UNL A   1      43.562  27.541  31.733  1.00  0.00    -0.248 NA
ATOM     45  C   UNL A   1      41.855  27.706  33.307  1.00  0.00     0.031 C 
ATOM     46  C   UNL A   1      40.005  28.235  28.893  1.00  0.00     0.029 A 
ATOM     47  N   UNL A   1      41.609  26.749  29.300  1.00  0.00    -0.354 N 
ATOM     48  C   UNL A   1      43.956  26.893  32.896  1.00  0.00     0.074 A 
ATOM     49  C   UNL A   1      42.902  27.097  33.862  1.00  0.00     0.031 C 
ATOM     50  C   UNL A   1      39.802  27.195  28.058  1.00  0.00     0.029 A 
ATOM     51  C   UNL A   1      40.818  26.188  28.311  1.00  0.00     0.049 A 
ATOM     52  H   UNL A   1      42.462  26.359  29.595  1.00  0.00     0.167 HD
ATOM     53  C   UNL A   1      45.025  26.056  32.940  1.00  0.00     0.031 A 
ATOM     54  C   UNL A   1      40.932  24.951  27.778  1.00  0.00     0.031 A 
ATOM     55  C   UNL A   1      45.950  26.253  31.862  1.00  0.00     0.049 A 
ATOM     56  C   UNL A   1      42.293  24.444  28.045  1.00  0.00     0.074 A 
ATOM     57  C   UNL A   1      46.731  27.301  31.419  1.00  0.00     0.029 A 
ATOM     58  N   UNL A   1      45.981  25.314  30.862  1.00  0.00    -0.354 N 
ATOM     59  N   UNL A   1      43.367  24.891  27.462  1.00  0.00    -0.248 NA
ATOM     60  C   UNL A   1      42.520  23.619  29.222  1.00  0.00     0.031 C 
ATOM     61  C   UNL A   1      46.845  27.124  30.009  1.00  0.00     0.029 A 
ATOM     62  C   UNL A   1      46.115  25.983  29.672  1.00  0.00     0.049 A 
ATOM     63  H   UNL A   1      45.918  24.337  30.976  1.00  0.00     0.167 HD
ATOM     64  C   UNL A   1      44.369  24.753  28.411  1.00  0.00     0.074 A 
ATOM     65  C   UNL A   1      43.825  23.832  29.401  1.00  0.00     0.031 C 
ATOM     66  C   UNL A   1      45.423  25.620  28.454  1.00  0.00     0.031 A 
BRANCH  53  67
ATOM     67  C   UNL A   1      45.042  24.824  33.803  1.00  0.00    -0.014 A 
ATOM     68  C   UNL A   1      44.131  23.785  33.551  1.00  0.00     0.009 A 
ATOM     69  C   UNL A   1      45.758  24.768  35.016  1.00  0.00     0.009 A 
ATOM     70  C   UNL A   1      43.938  22.753  34.477  1.00  0.00     0.001 A 
ATOM     71  C   UNL A   1      45.600  23.717  35.922  1.00  0.00     0.001 A 
ATOM     72  C   UNL A   1      44.675  22.717  35.659  1.00  0.00     0.000 A 
ENDBRANCH  53  67
BRANCH  54  73
ATOM     73  C   UNL A   1      39.849  24.102  27.244  1.00  0.00    -0.014 A 
ATOM     74  C   UNL A   1      38.622  24.655  26.854  1.00  0.00     0.009 A 
ATOM     75  C   UNL A   1      40.105  22.760  26.902  1.00  0.00     0.009 A 
ATOM     76  C   UNL A   1      37.692  23.893  26.134  1.00  0.00     0.001 A 
ATOM     77  C   UNL A   1      39.173  21.997  26.195  1.00  0.00     0.001 A 
ATOM     78  C   UNL A   1      37.971  22.569  25.799  1.00  0.00     0.000 A 
ENDBRANCH  54  73
BRANCH  66  79
ATOM     79  C   UNL A   1      45.651  26.506  27.255  1.00  0.00    -0.014 A 
ATOM     80  C   UNL A   1      45.078  27.784  27.145  1.00  0.00     0.009 A 
ATOM     81  C   UNL A   1      46.570  26.101  26.275  1.00  0.00     0.009 A 
ATOM     82  C   UNL A   1      45.383  28.618  26.065  1.00  0.00     0.001 A 
ATOM     83  C   UNL A   1      46.892  26.943  25.205  1.00  0.00     0.001 A 
ATOM     84  C   UNL A   1      46.292  28.197  25.097  1.00  0.00     0.000 A 
ENDBRANCH  66  79
ENDBRANCH  40  41
ENDBRANCH  33  35
ENDBRANCH  32  33
ENDBRANCH  31  32
ENDBRANCH  30  31
ENDBRANCH  29  30
ENDBRANCH  28  29
ENDBRANCH  27  28
ENDBRANCH  26  27
ENDBRANCH   1  26
TORSDOF 23
ENDMDL
MODEL 2
REMARK VINA RESULT:      -9.7      2.875      5.178
REMARK SMILES O=C(Cn1ccc(C(=O)NCCC[NH+]2CCOCC2)n1)OCCOCCOCCOC(=O)c1ccc(-c2c3nc(c(-c4ccccc4)c4ccc([nH]4)c(-c4ccccc4)c4nc(c(-c5ccccc5)c5ccc2[nH]5)C=C4)C=C3)cc1
REMARK SMILES IDX 23 1 22 2 21 3 2 4 1 5 3 6 4 7 5 8 20 9 6 10 7 11 8 12 9 13
REMARK SMILES IDX 10 14 11 16 12 17 13 18 14 19 15 20 19 21 16 23 18 24 17 25
REMARK SMILES IDX 24 26 25 27 26 28 27 29 28 30 29 31 30 32 31 33 32 34 33 35
REMARK SMILES IDX 34 36 80 37 35 38 79 39 36 40 37 41 38 42 73 43 39 44 78 45
REMARK SMILES IDX 72 46 74 47 40 48 77 49 71 50 70 51 41 53 63 54 48 55 62 56
REMARK SMILES IDX 49 57 52 58 61 59 75 60 50 61 51 62 60 64 76 65 53 66 42 67
REMARK SMILES IDX 43 68 47 69 44 70 46 71 45 72 64 73 65 74 69 75 66 76 68 77
REMARK SMILES IDX 67 78 54 79 55 80 59 81 56 82 58 83 57 84
REMARK H PARENT 10 15 14 22 74 52 52 63
REMARK Flexibility Score: inf
ROOT
ATOM      1  C   UNL A   1      32.469  29.514  26.547  1.00  0.00     0.202 C 
ENDROOT
BRANCH   1   2
ATOM      2  C   UNL A   1      31.699  28.711  27.601  1.00  0.00     0.261 C 
BRANCH   2   3
ATOM      3  O   UNL A   1      31.031  27.506  27.149  1.00  0.00    -0.462 OA
BRANCH   3   4
ATOM      4  C   UNL A   1      31.395  26.592  26.220  1.00  0.00     0.327 C 
ATOM      5  O   UNL A   1      31.058  26.782  25.049  1.00  0.00    -0.250 OA
BRANCH   4   6
ATOM      6  C   UNL A   1      32.067  25.302  26.618  1.00  0.00     0.266 C 
BRANCH   6   7
ATOM      7  N   UNL A   1      33.006  24.823  25.631  1.00  0.00    -0.261 N 
ATOM      8  C   UNL A   1      34.261  25.275  25.359  1.00  0.00     0.110 A 
ATOM      9  N   UNL A   1      32.614  23.855  24.805  1.00  0.00    -0.167 NA
ATOM     10  C   UNL A   1      34.606  24.691  24.158  1.00  0.00     0.056 A 
ATOM     11  C   UNL A   1      33.488  23.894  23.787  1.00  0.00     0.150 A 
BRANCH  11  12
ATOM     12  C   UNL A   1      33.261  23.197  22.509  1.00  0.00     0.271 C 
ATOM     13  O   UNL A   1      33.535  23.725  21.432  1.00  0.00    -0.267 OA
ATOM     14  N   UNL A   1      32.660  21.951  22.503  1.00  0.00    -0.350 N 
ATOM     15  H   UNL A   1      32.543  21.545  21.614  1.00  0.00     0.163 HD
BRANCH  14  16
ATOM     16  C   UNL A   1      32.173  21.149  23.619  1.00  0.00     0.122 C 
BRANCH  16  17
ATOM     17  C   UNL A   1      33.199  20.146  24.134  1.00  0.00     0.083 C 
BRANCH  17  18
ATOM     18  C   UNL A   1      32.632  19.029  25.010  1.00  0.00     0.264 C 
BRANCH  18  19
ATOM     19  N   UNL A   1      32.234  17.758  24.381  1.00  0.00    -0.331 N 
ATOM     20  C   UNL A   1      32.448  16.627  25.320  1.00  0.00     0.291 C 
ATOM     21  C   UNL A   1      32.868  17.396  23.096  1.00  0.00     0.291 C 
ATOM     22  H   UNL A   1      31.253  17.924  24.161  1.00  0.00     0.348 HD
ATOM     23  C   UNL A   1      33.921  16.175  25.405  1.00  0.00     0.221 C 
ATOM     24  C   UNL A   1      34.321  16.918  23.206  1.00  0.00     0.221 C 
ATOM     25  O   UNL A   1      34.435  15.817  24.117  1.00  0.00    -0.370 OA
ENDBRANCH  18  19
ENDBRANCH  17  18
ENDBRANCH  16  17
ENDBRANCH  14  16
ENDBRANCH  11  12
ENDBRANCH   6   7
ENDBRANCH   4   6
ENDBRANCH   3   4
ENDBRANCH   2   3
ENDBRANCH   1   2
BRANCH   1  26
ATOM     26  O   UNL A   1      33.876  29.327  26.485  1.00  0.00    -0.376 OA
BRANCH  26  27
ATOM     27  C   UNL A   1      34.670  29.980  27.458  1.00  0.00     0.188 C 
BRANCH  27  28
ATOM     28  C   UNL A   1      34.282  31.448  27.703  1.00  0.00     0.188 C 
BRANCH  28  29
ATOM     29  O   UNL A   1      35.313  32.416  27.856  1.00  0.00    -0.376 OA
BRANCH  29  30
ATOM     30  C   UNL A   1      35.068  33.609  28.601  1.00  0.00     0.202 C 
BRANCH  30  31
ATOM     31  C   UNL A   1      34.979  33.532  30.125  1.00  0.00     0.261 C 
BRANCH  31  32
ATOM     32  O   UNL A   1      35.343  32.235  30.609  1.00  0.00    -0.460 OA
BRANCH  32  33
ATOM     33  C   UNL A   1      36.608  32.110  31.061  1.00  0.00     0.338 C 
ATOM     34  O   UNL A   1      37.128  32.743  31.962  1.00  0.00    -0.246 OA
BRANCH  33  35
ATOM     35  C   UNL A   1      37.339  31.101  30.270  1.00  0.00     0.060 A 
ATOM     36  C   UNL A   1      36.881  29.785  30.378  1.00  0.00     0.016 A 
ATOM     37  C   UNL A   1      38.548  31.399  29.623  1.00  0.00     0.016 A 
ATOM     38  C   UNL A   1      37.747  28.752  30.082  1.00  0.00     0.010 A 
ATOM     39  C   UNL A   1      39.414  30.362  29.317  1.00  0.00     0.010 A 
ATOM     40  C   UNL A   1      39.048  29.063  29.678  1.00  0.00    -0.014 A 
BRANCH  40  41
ATOM     41  C   UNL A   1      40.052  28.038  29.928  1.00  0.00     0.031 A 
ATOM     42  C   UNL A   1      40.788  28.071  31.207  1.00  0.00     0.074 A 
ATOM     43  C   UNL A   1      40.309  27.089  29.004  1.00  0.00     0.049 A 
ATOM     44  N   UNL A   1      42.066  28.152  31.386  1.00  0.00    -0.248 NA
ATOM     45  C   UNL A   1      39.996  28.012  32.440  1.00  0.00     0.031 C 
ATOM     46  C   UNL A   1      39.513  26.765  27.815  1.00  0.00     0.029 A 
ATOM     47  N   UNL A   1      41.289  26.139  28.997  1.00  0.00    -0.354 N 
ATOM     48  C   UNL A   1      42.264  27.989  32.750  1.00  0.00     0.074 A 
ATOM     49  C   UNL A   1      40.957  27.993  33.363  1.00  0.00     0.031 C 
ATOM     50  C   UNL A   1      39.901  25.564  27.338  1.00  0.00     0.029 A 
ATOM     51  C   UNL A   1      41.048  25.107  28.105  1.00  0.00     0.049 A 
ATOM     52  H   UNL A   1      42.087  26.182  29.570  1.00  0.00     0.167 HD
ATOM     53  C   UNL A   1      43.471  27.657  33.279  1.00  0.00     0.031 A 
ATOM     54  C   UNL A   1      41.691  23.921  28.036  1.00  0.00     0.031 A 
ATOM     55  C   UNL A   1      44.574  27.938  32.407  1.00  0.00     0.049 A 
ATOM     56  C   UNL A   1      42.992  24.046  28.723  1.00  0.00     0.074 A 
ATOM     57  C   UNL A   1      45.094  29.071  31.817  1.00  0.00     0.029 A 
ATOM     58  N   UNL A   1      45.194  26.878  31.794  1.00  0.00    -0.354 N 
ATOM     59  N   UNL A   1      44.003  24.721  28.258  1.00  0.00    -0.248 NA
ATOM     60  C   UNL A   1      43.090  23.665  30.124  1.00  0.00     0.031 C 
ATOM     61  C   UNL A   1      45.682  28.632  30.595  1.00  0.00     0.029 A 
ATOM     62  C   UNL A   1      45.474  27.254  30.505  1.00  0.00     0.049 A 
ATOM     63  H   UNL A   1      45.400  26.006  32.203  1.00  0.00     0.167 HD
ATOM     64  C   UNL A   1      44.659  25.198  29.383  1.00  0.00     0.074 A 
ATOM     65  C   UNL A   1      44.147  24.394  30.485  1.00  0.00     0.031 C 
ATOM     66  C   UNL A   1      45.332  26.386  29.356  1.00  0.00     0.031 A 
BRANCH  53  67
ATOM     67  C   UNL A   1      43.599  26.759  34.479  1.00  0.00    -0.014 A 
ATOM     68  C   UNL A   1      44.785  26.768  35.231  1.00  0.00     0.009 A 
ATOM     69  C   UNL A   1      42.684  25.719  34.739  1.00  0.00     0.009 A 
ATOM     70  C   UNL A   1      45.046  25.774  36.183  1.00  0.00     0.001 A 
ATOM     71  C   UNL A   1      42.921  24.752  35.718  1.00  0.00     0.001 A 
ATOM     72  C   UNL A   1      44.112  24.770  36.428  1.00  0.00     0.000 A 
ENDBRANCH  53  67
BRANCH  54  73
ATOM     73  C   UNL A   1      41.137  22.624  27.598  1.00  0.00    -0.014 A 
ATOM     74  C   UNL A   1      40.079  22.564  26.681  1.00  0.00     0.009 A 
ATOM     75  C   UNL A   1      41.804  21.425  27.913  1.00  0.00     0.009 A 
ATOM     76  C   UNL A   1      39.714  21.347  26.090  1.00  0.00     0.001 A 
ATOM     77  C   UNL A   1      41.434  20.210  27.333  1.00  0.00     0.001 A 
ATOM     78  C   UNL A   1      40.396  20.173  26.411  1.00  0.00     0.000 A 
ENDBRANCH  54  73
BRANCH  66  79
ATOM     79  C   UNL A   1      45.633  26.990  28.007  1.00  0.00    -0.014 A 
ATOM     80  C   UNL A   1      44.716  27.811  27.330  1.00  0.00     0.009 A 
ATOM     81  C   UNL A   1      46.920  26.840  27.467  1.00  0.00     0.009 A 
ATOM     82  C   UNL A   1      45.061  28.430  26.125  1.00  0.00     0.001 A 
ATOM     83  C   UNL A   1      47.272  27.476  26.272  1.00  0.00     0.001 A 
ATOM     84  C   UNL A   1      46.339  28.264  25.599  1.00  0.00     0.000 A 
ENDBRANCH  66  79
ENDBRANCH  40  41
ENDBRANCH  33  35
ENDBRANCH  32  33
ENDBRANCH  31  32
ENDBRANCH  30  31
ENDBRANCH  29  30
ENDBRANCH  28  29
ENDBRANCH  27  28
ENDBRANCH  26  27
ENDBRANCH   1  26
TORSDOF 23
ENDMDL
MODEL 3
REMARK VINA RESULT:      -9.5      3.063      7.471
REMARK SMILES O=C(Cn1ccc(C(=O)NCCC[NH+]2CCOCC2)n1)OCCOCCOCCOC(=O)c1ccc(-c2c3nc(c(-c4ccccc4)c4ccc([nH]4)c(-c4ccccc4)c4nc(c(-c5ccccc5)c5ccc2[nH]5)C=C4)C=C3)cc1
REMARK SMILES IDX 23 1 22 2 21 3 2 4 1 5 3 6 4 7 5 8 20 9 6 10 7 11 8 12 9 13
REMARK SMILES IDX 10 14 11 16 12 17 13 18 14 19 15 20 19 21 16 23 18 24 17 25
REMARK SMILES IDX 24 26 25 27 26 28 27 29 28 30 29 31 30 32 31 33 32 34 33 35
REMARK SMILES IDX 34 36 80 37 35 38 79 39 36 40 37 41 38 42 73 43 39 44 78 45
REMARK SMILES IDX 72 46 74 47 40 48 77 49 71 50 70 51 41 53 63 54 48 55 62 56
REMARK SMILES IDX 49 57 52 58 61 59 75 60 50 61 51 62 60 64 76 65 53 66 42 67
REMARK SMILES IDX 43 68 47 69 44 70 46 71 45 72 64 73 65 74 69 75 66 76 68 77
REMARK SMILES IDX 67 78 54 79 55 80 59 81 56 82 58 83 57 84
REMARK H PARENT 10 15 14 22 74 52 52 63
REMARK Flexibility Score: inf
ROOT
ATOM      1  C   UNL A   1      32.721  20.492  24.785  1.00  0.00     0.202 C 
ENDROOT
BRANCH   1   2
ATOM      2  C   UNL A   1      31.789  21.696  24.616  1.00  0.00     0.261 C 
BRANCH   2   3
ATOM      3  O   UNL A   1      31.178  22.227  25.819  1.00  0.00    -0.462 OA
BRANCH   3   4
ATOM      4  C   UNL A   1      31.528  23.279  26.595  1.00  0.00     0.327 C 
ATOM      5  O   UNL A   1      32.023  23.049  27.701  1.00  0.00    -0.250 OA
BRANCH   4   6
ATOM      6  C   UNL A   1      31.193  24.691  26.190  1.00  0.00     0.266 C 
BRANCH   6   7
ATOM      7  N   UNL A   1      32.241  25.327  25.426  1.00  0.00    -0.261 N 
ATOM      8  C   UNL A   1      33.255  26.122  25.868  1.00  0.00     0.110 A 
ATOM      9  N   UNL A   1      32.215  25.209  24.100  1.00  0.00    -0.167 NA
ATOM     10  C   UNL A   1      33.783  26.702  24.733  1.00  0.00     0.056 A 
ATOM     11  C   UNL A   1      33.019  26.185  23.650  1.00  0.00     0.150 A 
BRANCH  11  12
ATOM     12  C   UNL A   1      33.051  26.609  22.240  1.00  0.00     0.271 C 
ATOM     13  O   UNL A   1      33.639  25.948  21.383  1.00  0.00    -0.267 OA
ATOM     14  N   UNL A   1      32.476  27.811  21.869  1.00  0.00    -0.350 N 
ATOM     15  H   UNL A   1      32.534  28.027  20.910  1.00  0.00     0.163 HD
BRANCH  14  16
ATOM     16  C   UNL A   1      31.795  28.807  22.689  1.00  0.00     0.122 C 
BRANCH  16  17
ATOM     17  C   UNL A   1      30.326  28.986  22.325  1.00  0.00     0.083 C 
BRANCH  17  18
ATOM     18  C   UNL A   1      29.436  29.502  23.455  1.00  0.00     0.264 C 
BRANCH  18  19
ATOM     19  N   UNL A   1      28.074  29.966  23.140  1.00  0.00    -0.331 N 
ATOM     20  C   UNL A   1      27.860  29.979  21.670  1.00  0.00     0.291 C 
ATOM     21  C   UNL A   1      27.655  31.283  23.664  1.00  0.00     0.291 C 
ATOM     22  H   UNL A   1      27.496  29.283  23.629  1.00  0.00     0.348 HD
ATOM     23  C   UNL A   1      28.487  31.206  20.974  1.00  0.00     0.221 C 
ATOM     24  C   UNL A   1      28.263  32.489  22.937  1.00  0.00     0.221 C 
ATOM     25  O   UNL A   1      27.997  32.432  21.530  1.00  0.00    -0.370 OA
ENDBRANCH  18  19
ENDBRANCH  17  18
ENDBRANCH  16  17
ENDBRANCH  14  16
ENDBRANCH  11  12
ENDBRANCH   6   7
ENDBRANCH   4   6
ENDBRANCH   3   4
ENDBRANCH   2   3
ENDBRANCH   1   2
BRANCH   1  26
ATOM     26  O   UNL A   1      34.118  20.749  24.827  1.00  0.00    -0.376 OA
BRANCH  26  27
ATOM     27  C   UNL A   1      34.535  22.090  25.008  1.00  0.00     0.188 C 
BRANCH  27  28
ATOM     28  C   UNL A   1      35.716  22.505  24.114  1.00  0.00     0.188 C 
BRANCH  28  29
ATOM     29  O   UNL A   1      36.854  21.656  24.039  1.00  0.00    -0.376 OA
BRANCH  29  30
ATOM     30  C   UNL A   1      37.068  20.658  25.037  1.00  0.00     0.202 C 
BRANCH  30  31
ATOM     31  C   UNL A   1      38.406  19.919  25.081  1.00  0.00     0.261 C 
BRANCH  31  32
ATOM     32  O   UNL A   1      39.401  20.674  25.779  1.00  0.00    -0.460 OA
BRANCH  32  33
ATOM     33  C   UNL A   1      40.601  20.072  25.922  1.00  0.00     0.338 C 
ATOM     34  O   UNL A   1      40.869  18.909  25.682  1.00  0.00    -0.246 OA
BRANCH  33  35
ATOM     35  C   UNL A   1      41.589  21.021  26.471  1.00  0.00     0.060 A 
ATOM     36  C   UNL A   1      41.858  20.908  27.838  1.00  0.00     0.016 A 
ATOM     37  C   UNL A   1      42.068  22.108  25.724  1.00  0.00     0.016 A 
ATOM     38  C   UNL A   1      42.368  22.000  28.508  1.00  0.00     0.010 A 
ATOM     39  C   UNL A   1      42.590  23.201  26.396  1.00  0.00     0.010 A 
ATOM     40  C   UNL A   1      42.605  23.177  27.792  1.00  0.00    -0.014 A 
BRANCH  40  41
ATOM     41  C   UNL A   1      42.580  24.408  28.569  1.00  0.00     0.031 A 
ATOM     42  C   UNL A   1      41.563  25.427  28.242  1.00  0.00     0.074 A 
ATOM     43  C   UNL A   1      43.476  24.616  29.556  1.00  0.00     0.049 A 
ATOM     44  N   UNL A   1      41.755  26.659  27.897  1.00  0.00    -0.248 NA
ATOM     45  C   UNL A   1      40.157  25.015  28.301  1.00  0.00     0.031 C 
ATOM     46  C   UNL A   1      44.373  23.627  30.168  1.00  0.00     0.029 A 
ATOM     47  N   UNL A   1      43.696  25.741  30.296  1.00  0.00    -0.354 N 
ATOM     48  C   UNL A   1      40.493  27.236  27.854  1.00  0.00     0.074 A 
ATOM     49  C   UNL A   1      39.540  26.164  28.025  1.00  0.00     0.031 C 
ATOM     50  C   UNL A   1      44.860  24.128  31.320  1.00  0.00     0.029 A 
ATOM     51  C   UNL A   1      44.418  25.506  31.455  1.00  0.00     0.049 A 
ATOM     52  H   UNL A   1      43.374  26.632  30.032  1.00  0.00     0.167 HD
ATOM     53  C   UNL A   1      40.302  28.580  27.883  1.00  0.00     0.031 A 
ATOM     54  C   UNL A   1      44.587  26.350  32.496  1.00  0.00     0.031 A 
ATOM     55  C   UNL A   1      41.464  29.331  27.505  1.00  0.00     0.049 A 
ATOM     56  C   UNL A   1      44.301  27.726  32.043  1.00  0.00     0.074 A 
ATOM     57  C   UNL A   1      42.248  29.421  26.373  1.00  0.00     0.029 A 
ATOM     58  N   UNL A   1      42.157  29.984  28.493  1.00  0.00    -0.354 N 
ATOM     59  N   UNL A   1      45.072  28.409  31.249  1.00  0.00    -0.248 NA
ATOM     60  C   UNL A   1      42.962  28.264  32.226  1.00  0.00     0.031 C 
ATOM     61  C   UNL A   1      43.555  29.751  26.837  1.00  0.00     0.029 A 
ATOM     62  C   UNL A   1      43.494  29.830  28.229  1.00  0.00     0.049 A 
ATOM     63  H   UNL A   1      41.767  30.473  29.254  1.00  0.00     0.167 HD
ATOM     64  C   UNL A   1      44.209  29.216  30.524  1.00  0.00     0.074 A 
ATOM     65  C   UNL A   1      42.958  29.196  31.271  1.00  0.00     0.031 C 
ATOM     66  C   UNL A   1      44.499  29.586  29.241  1.00  0.00     0.031 A 
BRANCH  53  67
ATOM     67  C   UNL A   1      39.131  29.207  28.588  1.00  0.00    -0.014 A 
ATOM     68  C   UNL A   1      39.264  29.624  29.923  1.00  0.00     0.009 A 
ATOM     69  C   UNL A   1      37.826  29.166  28.057  1.00  0.00     0.009 A 
ATOM     70  C   UNL A   1      38.142  29.965  30.689  1.00  0.00     0.001 A 
ATOM     71  C   UNL A   1      36.710  29.547  28.805  1.00  0.00     0.001 A 
ATOM     72  C   UNL A   1      36.868  29.930  30.129  1.00  0.00     0.000 A 
ENDBRANCH  53  67
BRANCH  54  73
ATOM     73  C   UNL A   1      44.769  25.995  33.918  1.00  0.00    -0.014 A 
ATOM     74  C   UNL A   1      43.667  25.773  34.754  1.00  0.00     0.009 A 
ATOM     75  C   UNL A   1      46.045  25.650  34.405  1.00  0.00     0.009 A 
ATOM     76  C   UNL A   1      43.837  25.210  36.026  1.00  0.00     0.001 A 
ATOM     77  C   UNL A   1      46.216  25.101  35.677  1.00  0.00     0.001 A 
ATOM     78  C   UNL A   1      45.109  24.869  36.483  1.00  0.00     0.000 A 
ENDBRANCH  54  73
BRANCH  66  79
ATOM     79  C   UNL A   1      45.914  29.388  28.758  1.00  0.00    -0.014 A 
ATOM     80  C   UNL A   1      46.285  28.306  27.943  1.00  0.00     0.009 A 
ATOM     81  C   UNL A   1      46.868  30.384  29.019  1.00  0.00     0.009 A 
ATOM     82  C   UNL A   1      47.584  28.201  27.436  1.00  0.00     0.001 A 
ATOM     83  C   UNL A   1      48.161  30.290  28.495  1.00  0.00     0.001 A 
ATOM     84  C   UNL A   1      48.520  29.195  27.710  1.00  0.00     0.000 A 
ENDBRANCH  66  79
ENDBRANCH  40  41
ENDBRANCH  33  35
ENDBRANCH  32  33
ENDBRANCH  31  32
ENDBRANCH  30  31
ENDBRANCH  29  30
ENDBRANCH  28  29
ENDBRANCH  27  28
ENDBRANCH  26  27
ENDBRANCH   1  26
TORSDOF 23
ENDMDL
