MODEL 1
REMARK VINA RESULT:      -9.6      0.000      0.000
REMARK SMILES O=C(OCCOCCOCCOC(=O)c1cc2n[nH]cc2cc1[N+](=O)[O-])c1ccc(-c2c3nc(c(-c4ccccc4)c4ccc([nH]4)c(-c4ccccc4)c4nc(c(-c5ccccc5)c5ccc2[nH]5)C=C4)C=C3)cc1
REMARK SMILES IDX 7 1 6 2 5 3 4 4 3 5 2 6 1 7 27 8 28 9 74 10 29 11 73 12
REMARK SMILES IDX 30 13 31 14 32 15 67 16 33 17 72 18 66 19 68 20 34 21 71 22
REMARK SMILES IDX 65 23 64 24 35 26 57 27 42 28 56 29 43 30 46 31 55 32 69 33
REMARK SMILES IDX 44 34 45 35 54 37 70 38 47 39 36 40 37 41 41 42 38 43 40 44
REMARK SMILES IDX 39 45 58 46 59 47 63 48 60 49 62 50 61 51 48 52 49 53 53 54
REMARK SMILES IDX 50 55 52 56 51 57 8 58 9 59 10 60 11 61 12 62 13 63 14 64
REMARK SMILES IDX 15 65 16 66 23 67 17 68 22 69 18 70 21 71 19 72 20 73 24 75
REMARK SMILES IDX 25 76 26 77
REMARK H PARENT 68 25 46 36 19 74
REMARK Flexibility Score: inf
ROOT
ATOM      1  C   UNL A   1      38.379  22.050  25.831  1.00  0.00     0.188 C 
ENDROOT
BRANCH   1   2
ATOM      2  O   UNL A   1      37.732  21.223  24.853  1.00  0.00    -0.376 OA
BRANCH   2   3
ATOM      3  C   UNL A   1      38.191  19.867  24.861  1.00  0.00     0.202 C 
BRANCH   3   4
ATOM      4  C   UNL A   1      39.156  19.534  26.006  1.00  0.00     0.261 C 
BRANCH   4   5
ATOM      5  O   UNL A   1      40.357  18.901  25.538  1.00  0.00    -0.460 OA
BRANCH   5   6
ATOM      6  C   UNL A   1      41.634  19.126  25.938  1.00  0.00     0.338 C 
ATOM      7  O   UNL A   1      42.439  18.200  25.869  1.00  0.00    -0.246 OA
BRANCH   6   8
ATOM      8  C   UNL A   1      42.138  20.454  26.415  1.00  0.00     0.060 A 
ATOM      9  C   UNL A   1      42.160  20.880  27.743  1.00  0.00     0.016 A 
ATOM     10  C   UNL A   1      42.680  21.317  25.445  1.00  0.00     0.016 A 
ATOM     11  C   UNL A   1      42.577  22.162  28.088  1.00  0.00     0.010 A 
ATOM     12  C   UNL A   1      43.165  22.584  25.792  1.00  0.00     0.010 A 
ATOM     13  C   UNL A   1      43.076  23.026  27.116  1.00  0.00    -0.014 A 
BRANCH  13  14
ATOM     14  C   UNL A   1      43.413  24.412  27.503  1.00  0.00     0.031 A 
ATOM     15  C   UNL A   1      44.845  24.851  27.464  1.00  0.00     0.074 A 
ATOM     16  C   UNL A   1      42.435  25.301  27.756  1.00  0.00     0.049 A 
ATOM     17  N   UNL A   1      45.356  26.017  27.760  1.00  0.00    -0.248 NA
ATOM     18  C   UNL A   1      45.828  23.857  27.005  1.00  0.00     0.031 C 
ATOM     19  C   UNL A   1      41.003  25.019  27.678  1.00  0.00     0.029 A 
ATOM     20  N   UNL A   1      42.496  26.627  28.097  1.00  0.00    -0.354 N 
ATOM     21  C   UNL A   1      46.717  25.898  27.521  1.00  0.00     0.074 A 
ATOM     22  C   UNL A   1      46.959  24.542  27.080  1.00  0.00     0.031 C 
ATOM     23  C   UNL A   1      40.323  26.142  27.951  1.00  0.00     0.029 A 
ATOM     24  C   UNL A   1      41.263  27.195  28.299  1.00  0.00     0.049 A 
ATOM     25  H   UNL A   1      43.341  27.124  28.188  1.00  0.00     0.167 HD
ATOM     26  C   UNL A   1      47.678  26.841  27.652  1.00  0.00     0.031 A 
ATOM     27  C   UNL A   1      40.921  28.415  28.750  1.00  0.00     0.031 A 
ATOM     28  C   UNL A   1      47.429  28.180  28.107  1.00  0.00     0.049 A 
ATOM     29  C   UNL A   1      42.017  29.396  29.039  1.00  0.00     0.074 A 
ATOM     30  C   UNL A   1      48.336  29.201  28.328  1.00  0.00     0.029 A 
ATOM     31  N   UNL A   1      46.173  28.683  28.415  1.00  0.00    -0.354 N 
ATOM     32  N   UNL A   1      43.308  29.254  28.862  1.00  0.00    -0.248 NA
ATOM     33  C   UNL A   1      41.615  30.698  29.583  1.00  0.00     0.031 C 
ATOM     34  C   UNL A   1      47.631  30.308  28.815  1.00  0.00     0.029 A 
ATOM     35  C   UNL A   1      46.282  29.991  28.851  1.00  0.00     0.049 A 
ATOM     36  H   UNL A   1      45.329  28.183  28.333  1.00  0.00     0.167 HD
ATOM     37  C   UNL A   1      43.874  30.459  29.249  1.00  0.00     0.074 A 
ATOM     38  C   UNL A   1      42.783  31.321  29.661  1.00  0.00     0.031 C 
ATOM     39  C   UNL A   1      45.179  30.821  29.260  1.00  0.00     0.031 A 
BRANCH  26  40
ATOM     40  C   UNL A   1      49.086  26.419  27.355  1.00  0.00    -0.014 A 
ATOM     41  C   UNL A   1      49.644  26.583  26.078  1.00  0.00     0.009 A 
ATOM     42  C   UNL A   1      49.859  25.831  28.367  1.00  0.00     0.009 A 
ATOM     43  C   UNL A   1      50.942  26.139  25.814  1.00  0.00     0.001 A 
ATOM     44  C   UNL A   1      51.163  25.407  28.105  1.00  0.00     0.001 A 
ATOM     45  C   UNL A   1      51.699  25.553  26.827  1.00  0.00     0.000 A 
ENDBRANCH  26  40
BRANCH  27  46
ATOM     46  C   UNL A   1      39.497  28.743  29.023  1.00  0.00    -0.014 A 
ATOM     47  C   UNL A   1      38.677  29.309  28.038  1.00  0.00     0.009 A 
ATOM     48  C   UNL A   1      38.955  28.498  30.298  1.00  0.00     0.009 A 
ATOM     49  C   UNL A   1      37.351  29.643  28.330  1.00  0.00     0.001 A 
ATOM     50  C   UNL A   1      37.624  28.808  30.578  1.00  0.00     0.001 A 
ATOM     51  C   UNL A   1      36.825  29.390  29.597  1.00  0.00     0.000 A 
ENDBRANCH  27  46
BRANCH  39  52
ATOM     52  C   UNL A   1      45.483  32.218  29.706  1.00  0.00    -0.014 A 
ATOM     53  C   UNL A   1      45.665  32.519  31.063  1.00  0.00     0.009 A 
ATOM     54  C   UNL A   1      45.614  33.237  28.751  1.00  0.00     0.009 A 
ATOM     55  C   UNL A   1      45.944  33.828  31.459  1.00  0.00     0.001 A 
ATOM     56  C   UNL A   1      45.919  34.538  29.148  1.00  0.00     0.001 A 
ATOM     57  C   UNL A   1      46.075  34.834  30.501  1.00  0.00     0.000 A 
ENDBRANCH  39  52
ENDBRANCH  13  14
ENDBRANCH   6   8
ENDBRANCH   5   6
ENDBRANCH   4   5
ENDBRANCH   3   4
ENDBRANCH   2   3
ENDBRANCH   1   2
BRANCH   1  58
ATOM     58  C   UNL A   1      38.028  23.526  25.625  1.00  0.00     0.188 C 
BRANCH  58  59
ATOM     59  O   UNL A   1      36.751  23.922  26.127  1.00  0.00    -0.376 OA
BRANCH  59  60
ATOM     60  C   UNL A   1      35.711  24.113  25.171  1.00  0.00     0.202 C 
BRANCH  60  61
ATOM     61  C   UNL A   1      34.276  23.978  25.689  1.00  0.00     0.261 C 
BRANCH  61  62
ATOM     62  O   UNL A   1      33.881  22.633  26.015  1.00  0.00    -0.459 OA
BRANCH  62  63
ATOM     63  C   UNL A   1      32.561  22.395  25.885  1.00  0.00     0.345 C 
ATOM     64  O   UNL A   1      31.625  22.925  26.488  1.00  0.00    -0.246 OA
BRANCH  63  65
ATOM     65  C   UNL A   1      32.302  21.301  24.948  1.00  0.00     0.139 A 
ATOM     66  C   UNL A   1      32.467  19.980  25.438  1.00  0.00     0.053 A 
ATOM     67  C   UNL A   1      32.125  21.613  23.556  1.00  0.00     0.284 A 
ATOM     68  C   UNL A   1      32.470  19.006  24.427  1.00  0.00     0.093 A 
ATOM     69  C   UNL A   1      32.162  20.649  22.517  1.00  0.00     0.098 A 
ATOM     70  N   UNL A   1      32.599  17.674  24.511  1.00  0.00    -0.176 NA
ATOM     71  C   UNL A   1      32.332  19.375  23.040  1.00  0.00     0.026 A 
ATOM     72  N   UNL A   1      32.534  17.233  23.238  1.00  0.00    -0.285 N 
ATOM     73  C   UNL A   1      32.375  18.222  22.309  1.00  0.00     0.114 A 
ATOM     74  H   UNL A   1      32.597  16.280  22.998  1.00  0.00     0.189 HD
BRANCH  67  75
ATOM     75  N   UNL A   1      31.812  22.992  23.156  1.00  0.00     0.063 N 
ATOM     76  O   UNL A   1      32.710  23.638  22.597  1.00  0.00    -0.258 OA
ATOM     77  O   UNL A   1      30.652  23.392  23.314  1.00  0.00    -0.258 OA
ENDBRANCH  67  75
ENDBRANCH  63  65
ENDBRANCH  62  63
ENDBRANCH  61  62
ENDBRANCH  60  61
ENDBRANCH  59  60
ENDBRANCH  58  59
ENDBRANCH   1  58
TORSDOF 18
ENDMDL
MODEL 2
REMARK VINA RESULT:      -9.5      0.823      6.000
REMARK SMILES O=C(OCCOCCOCCOC(=O)c1cc2n[nH]cc2cc1[N+](=O)[O-])c1ccc(-c2c3nc(c(-c4ccccc4)c4ccc([nH]4)c(-c4ccccc4)c4nc(c(-c5ccccc5)c5ccc2[nH]5)C=C4)C=C3)cc1
REMARK SMILES IDX 7 1 6 2 5 3 4 4 3 5 2 6 1 7 27 8 28 9 74 10 29 11 73 12
REMARK SMILES IDX 30 13 31 14 32 15 67 16 33 17 72 18 66 19 68 20 34 21 71 22
REMARK SMILES IDX 65 23 64 24 35 26 57 27 42 28 56 29 43 30 46 31 55 32 69 33
REMARK SMILES IDX 44 34 45 35 54 37 70 38 47 39 36 40 37 41 41 42 38 43 40 44
REMARK SMILES IDX 39 45 58 46 59 47 63 48 60 49 62 50 61 51 48 52 49 53 53 54
REMARK SMILES IDX 50 55 52 56 51 57 8 58 9 59 10 60 11 61 12 62 13 63 14 64
REMARK SMILES IDX 15 65 16 66 23 67 17 68 22 69 18 70 21 71 19 72 20 73 24 75
REMARK SMILES IDX 25 76 26 77
REMARK H PARENT 68 25 46 36 19 74
REMARK Flexibility Score: inf
ROOT
ATOM      1  C   UNL A   1      38.439  21.968  25.712  1.00  0.00     0.188 C 
ENDROOT
BRANCH   1   2
ATOM      2  O   UNL A   1      37.764  21.124  24.768  1.00  0.00    -0.376 OA
BRANCH   2   3
ATOM      3  C   UNL A   1      38.289  19.793  24.717  1.00  0.00     0.202 C 
BRANCH   3   4
ATOM      4  C   UNL A   1      39.165  19.415  25.919  1.00  0.00     0.261 C 
BRANCH   4   5
ATOM      5  O   UNL A   1      40.476  18.985  25.520  1.00  0.00    -0.460 OA
BRANCH   5   6
ATOM      6  C   UNL A   1      41.677  19.436  25.965  1.00  0.00     0.338 C 
ATOM      7  O   UNL A   1      42.621  18.649  25.995  1.00  0.00    -0.246 OA
BRANCH   6   8
ATOM      8  C   UNL A   1      41.937  20.853  26.374  1.00  0.00     0.060 A 
ATOM      9  C   UNL A   1      42.199  21.911  25.503  1.00  0.00     0.016 A 
ATOM     10  C   UNL A   1      41.860  21.145  27.748  1.00  0.00     0.016 A 
ATOM     11  C   UNL A   1      42.505  23.183  25.976  1.00  0.00     0.010 A 
ATOM     12  C   UNL A   1      42.100  22.438  28.230  1.00  0.00     0.010 A 
ATOM     13  C   UNL A   1      42.465  23.456  27.342  1.00  0.00    -0.014 A 
BRANCH  13  14
ATOM     14  C   UNL A   1      42.894  24.789  27.813  1.00  0.00     0.031 A 
ATOM     15  C   UNL A   1      41.858  25.837  28.075  1.00  0.00     0.074 A 
ATOM     16  C   UNL A   1      44.184  25.013  28.128  1.00  0.00     0.049 A 
ATOM     17  N   UNL A   1      42.017  27.066  28.493  1.00  0.00    -0.248 NA
ATOM     18  C   UNL A   1      40.454  25.444  27.869  1.00  0.00     0.031 C 
ATOM     19  C   UNL A   1      45.252  24.017  28.051  1.00  0.00     0.029 A 
ATOM     20  N   UNL A   1      44.807  26.135  28.608  1.00  0.00    -0.354 N 
ATOM     21  C   UNL A   1      40.738  27.590  28.602  1.00  0.00     0.074 A 
ATOM     22  C   UNL A   1      39.813  26.560  28.183  1.00  0.00     0.031 C 
ATOM     23  C   UNL A   1      46.395  24.573  28.481  1.00  0.00     0.029 A 
ATOM     24  C   UNL A   1      46.158  25.974  28.784  1.00  0.00     0.049 A 
ATOM     25  H   UNL A   1      44.332  26.974  28.805  1.00  0.00     0.167 HD
ATOM     26  C   UNL A   1      40.369  28.823  29.020  1.00  0.00     0.031 A 
ATOM     27  C   UNL A   1      47.113  26.862  29.118  1.00  0.00     0.031 A 
ATOM     28  C   UNL A   1      41.296  29.845  29.417  1.00  0.00     0.049 A 
ATOM     29  C   UNL A   1      46.695  28.267  29.427  1.00  0.00     0.074 A 
ATOM     30  C   UNL A   1      41.034  31.146  29.807  1.00  0.00     0.029 A 
ATOM     31  N   UNL A   1      42.672  29.677  29.471  1.00  0.00    -0.354 N 
ATOM     32  N   UNL A   1      45.485  28.770  29.472  1.00  0.00    -0.248 NA
ATOM     33  C   UNL A   1      47.765  29.225  29.732  1.00  0.00     0.031 C 
ATOM     34  C   UNL A   1      42.259  31.779  30.052  1.00  0.00     0.029 A 
ATOM     35  C   UNL A   1      43.277  30.858  29.860  1.00  0.00     0.049 A 
ATOM     36  H   UNL A   1      43.148  28.840  29.263  1.00  0.00     0.167 HD
ATOM     37  C   UNL A   1      45.643  30.097  29.836  1.00  0.00     0.074 A 
ATOM     38  C   UNL A   1      47.066  30.318  30.008  1.00  0.00     0.031 C 
ATOM     39  C   UNL A   1      44.695  31.049  30.016  1.00  0.00     0.031 A 
BRANCH  26  40
ATOM     40  C   UNL A   1      38.902  29.134  29.002  1.00  0.00    -0.014 A 
ATOM     41  C   UNL A   1      38.092  28.904  30.125  1.00  0.00     0.009 A 
ATOM     42  C   UNL A   1      38.319  29.648  27.834  1.00  0.00     0.009 A 
ATOM     43  C   UNL A   1      36.720  29.156  30.068  1.00  0.00     0.001 A 
ATOM     44  C   UNL A   1      36.950  29.918  27.787  1.00  0.00     0.001 A 
ATOM     45  C   UNL A   1      36.151  29.664  28.900  1.00  0.00     0.000 A 
ENDBRANCH  26  40
BRANCH  27  46
ATOM     46  C   UNL A   1      48.546  26.465  29.102  1.00  0.00    -0.014 A 
ATOM     47  C   UNL A   1      49.289  26.465  27.914  1.00  0.00     0.009 A 
ATOM     48  C   UNL A   1      49.174  26.065  30.295  1.00  0.00     0.009 A 
ATOM     49  C   UNL A   1      50.625  26.051  27.918  1.00  0.00     0.001 A 
ATOM     50  C   UNL A   1      50.514  25.677  30.300  1.00  0.00     0.001 A 
ATOM     51  C   UNL A   1      51.236  25.661  29.110  1.00  0.00     0.000 A 
ENDBRANCH  27  46
BRANCH  39  52
ATOM     52  C   UNL A   1      45.177  32.401  30.446  1.00  0.00    -0.014 A 
ATOM     53  C   UNL A   1      45.323  32.717  31.804  1.00  0.00     0.009 A 
ATOM     54  C   UNL A   1      45.511  33.357  29.475  1.00  0.00     0.009 A 
ATOM     55  C   UNL A   1      45.770  33.983  32.184  1.00  0.00     0.001 A 
ATOM     56  C   UNL A   1      45.983  34.611  29.859  1.00  0.00     0.001 A 
ATOM     57  C   UNL A   1      46.103  34.926  31.211  1.00  0.00     0.000 A 
ENDBRANCH  39  52
ENDBRANCH  13  14
ENDBRANCH   6   8
ENDBRANCH   5   6
ENDBRANCH   4   5
ENDBRANCH   3   4
ENDBRANCH   2   3
ENDBRANCH   1   2
BRANCH   1  58
ATOM     58  C   UNL A   1      37.973  23.421  25.585  1.00  0.00     0.188 C 
BRANCH  58  59
ATOM     59  O   UNL A   1      36.731  23.719  26.224  1.00  0.00    -0.376 OA
BRANCH  59  60
ATOM     60  C   UNL A   1      35.679  24.208  25.396  1.00  0.00     0.202 C 
BRANCH  60  61
ATOM     61  C   UNL A   1      34.252  23.986  25.905  1.00  0.00     0.261 C 
BRANCH  61  62
ATOM     62  O   UNL A   1      33.887  22.606  26.085  1.00  0.00    -0.459 OA
BRANCH  62  63
ATOM     63  C   UNL A   1      32.566  22.361  25.972  1.00  0.00     0.345 C 
ATOM     64  O   UNL A   1      31.638  22.867  26.606  1.00  0.00    -0.246 OA
BRANCH  63  65
ATOM     65  C   UNL A   1      32.298  21.292  25.010  1.00  0.00     0.139 A 
ATOM     66  C   UNL A   1      32.478  19.959  25.461  1.00  0.00     0.053 A 
ATOM     67  C   UNL A   1      32.098  21.641  23.629  1.00  0.00     0.284 A 
ATOM     68  C   UNL A   1      32.470  19.012  24.423  1.00  0.00     0.093 A 
ATOM     69  C   UNL A   1      32.123  20.706  22.564  1.00  0.00     0.098 A 
ATOM     70  N   UNL A   1      32.607  17.679  24.468  1.00  0.00    -0.176 NA
ATOM     71  C   UNL A   1      32.308  19.419  23.050  1.00  0.00     0.026 A 
ATOM     72  N   UNL A   1      32.524  17.274  23.185  1.00  0.00    -0.285 N 
ATOM     73  C   UNL A   1      32.346  18.287  22.287  1.00  0.00     0.114 A 
ATOM     74  H   UNL A   1      32.588  16.328  22.919  1.00  0.00     0.189 HD
BRANCH  67  75
ATOM     75  N   UNL A   1      31.771  23.028  23.272  1.00  0.00     0.063 N 
ATOM     76  O   UNL A   1      32.644  23.683  22.686  1.00  0.00    -0.258 OA
ATOM     77  O   UNL A   1      30.622  23.428  23.492  1.00  0.00    -0.258 OA
ENDBRANCH  67  75
ENDBRANCH  63  65
ENDBRANCH  62  63
ENDBRANCH  61  62
ENDBRANCH  60  61
ENDBRANCH  59  60
ENDBRANCH  58  59
ENDBRANCH   1  58
TORSDOF 18
ENDMDL
MODEL 3
REMARK VINA RESULT:      -9.4      2.725      4.132
REMARK SMILES O=C(OCCOCCOCCOC(=O)c1cc2n[nH]cc2cc1[N+](=O)[O-])c1ccc(-c2c3nc(c(-c4ccccc4)c4ccc([nH]4)c(-c4ccccc4)c4nc(c(-c5ccccc5)c5ccc2[nH]5)C=C4)C=C3)cc1
REMARK SMILES IDX 7 1 6 2 5 3 4 4 3 5 2 6 1 7 27 8 28 9 74 10 29 11 73 12
REMARK SMILES IDX 30 13 31 14 32 15 67 16 33 17 72 18 66 19 68 20 34 21 71 22
REMARK SMILES IDX 65 23 64 24 35 26 57 27 42 28 56 29 43 30 46 31 55 32 69 33
REMARK SMILES IDX 44 34 45 35 54 37 70 38 47 39 36 40 37 41 41 42 38 43 40 44
REMARK SMILES IDX 39 45 58 46 59 47 63 48 60 49 62 50 61 51 48 52 49 53 53 54
REMARK SMILES IDX 50 55 52 56 51 57 8 58 9 59 10 60 11 61 12 62 13 63 14 64
REMARK SMILES IDX 15 65 16 66 23 67 17 68 22 69 18 70 21 71 19 72 20 73 24 75
REMARK SMILES IDX 25 76 26 77
REMARK H PARENT 68 25 46 36 19 74
REMARK Flexibility Score: inf
ROOT
ATOM      1  C   UNL A   1      37.015  23.321  25.624  1.00  0.00     0.188 C 
ENDROOT
BRANCH   1   2
ATOM      2  O   UNL A   1      37.810  22.315  24.979  1.00  0.00    -0.376 OA
BRANCH   2   3
ATOM      3  C   UNL A   1      37.328  20.984  25.196  1.00  0.00     0.202 C 
BRANCH   3   4
ATOM      4  C   UNL A   1      38.313  19.883  24.783  1.00  0.00     0.261 C 
BRANCH   4   5
ATOM      5  O   UNL A   1      39.157  19.473  25.871  1.00  0.00    -0.460 OA
BRANCH   5   6
ATOM      6  C   UNL A   1      40.484  19.704  26.034  1.00  0.00     0.338 C 
ATOM      7  O   UNL A   1      41.276  18.834  25.673  1.00  0.00    -0.246 OA
BRANCH   6   8
ATOM      8  C   UNL A   1      41.050  20.977  26.584  1.00  0.00     0.060 A 
ATOM      9  C   UNL A   1      41.112  21.317  27.936  1.00  0.00     0.016 A 
ATOM     10  C   UNL A   1      41.611  21.878  25.660  1.00  0.00     0.016 A 
ATOM     11  C   UNL A   1      41.586  22.556  28.352  1.00  0.00     0.010 A 
ATOM     12  C   UNL A   1      42.153  23.100  26.076  1.00  0.00     0.010 A 
ATOM     13  C   UNL A   1      42.104  23.460  27.427  1.00  0.00    -0.014 A 
BRANCH  13  14
ATOM     14  C   UNL A   1      42.504  24.804  27.894  1.00  0.00     0.031 A 
ATOM     15  C   UNL A   1      43.961  25.137  27.992  1.00  0.00     0.074 A 
ATOM     16  C   UNL A   1      41.574  25.754  28.099  1.00  0.00     0.049 A 
ATOM     17  N   UNL A   1      44.526  26.252  28.375  1.00  0.00    -0.248 NA
ATOM     18  C   UNL A   1      44.908  24.088  27.579  1.00  0.00     0.031 C 
ATOM     19  C   UNL A   1      40.137  25.581  27.890  1.00  0.00     0.029 A 
ATOM     20  N   UNL A   1      41.699  27.061  28.494  1.00  0.00    -0.354 N 
ATOM     21  C   UNL A   1      45.891  26.040  28.245  1.00  0.00     0.074 A 
ATOM     22  C   UNL A   1      46.074  24.685  27.775  1.00  0.00     0.031 C 
ATOM     23  C   UNL A   1      39.518  26.743  28.148  1.00  0.00     0.029 A 
ATOM     24  C   UNL A   1      40.497  27.711  28.614  1.00  0.00     0.049 A 
ATOM     25  H   UNL A   1      42.566  27.490  28.674  1.00  0.00     0.167 HD
ATOM     26  C   UNL A   1      46.902  26.905  28.493  1.00  0.00     0.031 A 
ATOM     27  C   UNL A   1      40.204  28.938  29.082  1.00  0.00     0.031 A 
ATOM     28  C   UNL A   1      46.710  28.243  28.977  1.00  0.00     0.049 A 
ATOM     29  C   UNL A   1      41.338  29.825  29.498  1.00  0.00     0.074 A 
ATOM     30  C   UNL A   1      47.665  29.186  29.312  1.00  0.00     0.029 A 
ATOM     31  N   UNL A   1      45.471  28.827  29.197  1.00  0.00    -0.354 N 
ATOM     32  N   UNL A   1      42.626  29.594  29.425  1.00  0.00    -0.248 NA
ATOM     33  C   UNL A   1      40.983  31.136  30.056  1.00  0.00     0.031 C 
ATOM     34  C   UNL A   1      47.001  30.326  29.780  1.00  0.00     0.029 A 
ATOM     35  C   UNL A   1      45.635  30.109  29.691  1.00  0.00     0.049 A 
ATOM     36  H   UNL A   1      44.604  28.394  29.026  1.00  0.00     0.167 HD
ATOM     37  C   UNL A   1      43.241  30.740  29.903  1.00  0.00     0.074 A 
ATOM     38  C   UNL A   1      42.182  31.667  30.255  1.00  0.00     0.031 C 
ATOM     39  C   UNL A   1      44.563  31.005  30.038  1.00  0.00     0.031 A 
BRANCH  26  40
ATOM     40  C   UNL A   1      48.297  26.390  28.299  1.00  0.00    -0.014 A 
ATOM     41  C   UNL A   1      48.972  26.549  27.079  1.00  0.00     0.009 A 
ATOM     42  C   UNL A   1      48.938  25.718  29.351  1.00  0.00     0.009 A 
ATOM     43  C   UNL A   1      50.252  26.019  26.907  1.00  0.00     0.001 A 
ATOM     44  C   UNL A   1      50.226  25.207  29.182  1.00  0.00     0.001 A 
ATOM     45  C   UNL A   1      50.877  25.350  27.959  1.00  0.00     0.000 A 
ENDBRANCH  26  40
BRANCH  27  46
ATOM     46  C   UNL A   1      38.788  29.361  29.247  1.00  0.00    -0.014 A 
ATOM     47  C   UNL A   1      38.146  30.151  28.285  1.00  0.00     0.009 A 
ATOM     48  C   UNL A   1      38.074  28.978  30.396  1.00  0.00     0.009 A 
ATOM     49  C   UNL A   1      36.826  30.568  28.480  1.00  0.00     0.001 A 
ATOM     50  C   UNL A   1      36.748  29.374  30.577  1.00  0.00     0.001 A 
ATOM     51  C   UNL A   1      36.128  30.177  29.623  1.00  0.00     0.000 A 
ENDBRANCH  27  46
BRANCH  39  52
ATOM     52  C   UNL A   1      44.925  32.360  30.561  1.00  0.00    -0.014 A 
ATOM     53  C   UNL A   1      45.136  32.573  31.931  1.00  0.00     0.009 A 
ATOM     54  C   UNL A   1      45.082  33.429  29.666  1.00  0.00     0.009 A 
ATOM     55  C   UNL A   1      45.470  33.844  32.400  1.00  0.00     0.001 A 
ATOM     56  C   UNL A   1      45.441  34.691  30.135  1.00  0.00     0.001 A 
ATOM     57  C   UNL A   1      45.626  34.900  31.501  1.00  0.00     0.000 A 
ENDBRANCH  39  52
ENDBRANCH  13  14
ENDBRANCH   6   8
ENDBRANCH   5   6
ENDBRANCH   4   5
ENDBRANCH   3   4
ENDBRANCH   2   3
ENDBRANCH   1   2
BRANCH   1  58
ATOM     58  C   UNL A   1      35.625  22.783  25.978  1.00  0.00     0.188 C 
BRANCH  58  59
ATOM     59  O   UNL A   1      34.541  23.671  25.701  1.00  0.00    -0.376 OA
BRANCH  59  60
ATOM     60  C   UNL A   1      34.791  24.725  24.775  1.00  0.00     0.202 C 
BRANCH  60  61
ATOM     61  C   UNL A   1      33.936  24.732  23.504  1.00  0.00     0.261 C 
BRANCH  61  62
ATOM     62  O   UNL A   1      32.876  25.705  23.500  1.00  0.00    -0.459 OA
BRANCH  62  63
ATOM     63  C   UNL A   1      33.185  26.862  22.882  1.00  0.00     0.345 C 
ATOM     64  O   UNL A   1      33.724  27.023  21.786  1.00  0.00    -0.246 OA
BRANCH  63  65
ATOM     65  C   UNL A   1      32.879  28.019  23.725  1.00  0.00     0.139 A 
ATOM     66  C   UNL A   1      33.792  28.315  24.769  1.00  0.00     0.053 A 
ATOM     67  C   UNL A   1      31.587  28.638  23.603  1.00  0.00     0.284 A 
ATOM     68  C   UNL A   1      33.301  29.254  25.691  1.00  0.00     0.093 A 
ATOM     69  C   UNL A   1      31.059  29.560  24.542  1.00  0.00     0.098 A 
ATOM     70  N   UNL A   1      33.875  29.769  26.788  1.00  0.00    -0.176 NA
ATOM     71  C   UNL A   1      31.981  29.813  25.547  1.00  0.00     0.026 A 
ATOM     72  N   UNL A   1      32.959  30.617  27.298  1.00  0.00    -0.285 N 
ATOM     73  C   UNL A   1      31.795  30.680  26.586  1.00  0.00     0.114 A 
ATOM     74  H   UNL A   1      33.116  31.146  28.113  1.00  0.00     0.189 HD
BRANCH  67  75
ATOM     75  N   UNL A   1      30.770  28.383  22.409  1.00  0.00     0.063 N 
ATOM     76  O   UNL A   1      30.514  29.351  21.679  1.00  0.00    -0.258 OA
ATOM     77  O   UNL A   1      30.467  27.211  22.154  1.00  0.00    -0.258 OA
ENDBRANCH  67  75
ENDBRANCH  63  65
ENDBRANCH  62  63
ENDBRANCH  61  62
ENDBRANCH  60  61
ENDBRANCH  59  60
ENDBRANCH  58  59
ENDBRANCH   1  58
TORSDOF 18
ENDMDL
