MODEL 1
REMARK VINA RESULT:     -11.3      0.000      0.000
REMARK SMILES O=C(OCCOCCOCCOC(=O)c1ccc(-c2c3nc(c(-c4ccccc4)c4ccc([nH]4)c(-c4ccccc4)c4nc(c(-c5ccccc5)c5ccc2[nH]5)C=C4)C=C3)cc1)C1=Cc2cc(S(F)(F)(F)(F)F)cc(Br)c2O[C@@H]1C(F)(F)F
REMARK SMILES IDX 8 1 7 2 6 3 5 4 4 5 3 6 2 7 1 8 63 9 64 10 79 11 65 12 78 13
REMARK SMILES IDX 66 14 77 15 67 16 75 17 74 18 76 19 80 20 81 21 82 22 83 23
REMARK SMILES IDX 68 24 69 25 70 26 71 27 72 28 73 29 9 30 10 31 11 32 12 33
REMARK SMILES IDX 13 34 14 35 15 36 16 37 62 38 17 39 61 40 18 41 19 42 20 43
REMARK SMILES IDX 55 44 21 45 60 46 54 47 56 48 22 49 59 50 53 51 52 52 23 54
REMARK SMILES IDX 45 55 30 56 44 57 31 58 34 59 43 60 57 61 32 62 33 63 42 65
REMARK SMILES IDX 58 66 35 67 24 68 25 69 29 70 26 71 28 72 27 73 46 74 47 75
REMARK SMILES IDX 51 76 48 77 50 78 49 79 36 80 37 81 41 82 38 83 40 84 39 85
REMARK H PARENT 56 53 34 64
REMARK Flexibility Score: inf
ROOT
ATOM      1  C   UNL A   1      36.299  21.095  25.180  1.00  0.00     0.188 C 
ENDROOT
BRANCH   1   2
ATOM      2  C   UNL A   1      36.560  22.489  25.725  1.00  0.00     0.188 C 
BRANCH   2   3
ATOM      3  O   UNL A   1      35.443  22.913  26.493  1.00  0.00    -0.376 OA
BRANCH   3   4
ATOM      4  C   UNL A   1      34.649  21.786  26.837  1.00  0.00     0.202 C 
BRANCH   4   5
ATOM      5  C   UNL A   1      33.445  22.243  27.645  1.00  0.00     0.261 C 
BRANCH   5   6
ATOM      6  O   UNL A   1      32.938  23.451  27.098  1.00  0.00    -0.460 OA
BRANCH   6   7
ATOM      7  C   UNL A   1      31.647  23.477  26.509  1.00  0.00     0.338 C 
ATOM      8  O   UNL A   1      30.645  23.864  27.189  1.00  0.00    -0.246 OA
BRANCH   7   9
ATOM      9  C   UNL A   1      31.461  23.041  25.064  1.00  0.00     0.087 C 
ATOM     10  C   UNL A   1      31.169  23.963  24.108  1.00  0.00     0.027 C 
ATOM     11  C   UNL A   1      31.603  21.575  24.688  1.00  0.00     0.316 C 
ATOM     12  C   UNL A   1      31.028  25.429  24.484  1.00  0.00     0.020 A 
ATOM     13  O   UNL A   1      32.814  25.227  26.039  1.00  0.00    -0.474 OA
ATOM     14  C   UNL A   1      30.029  26.155  23.855  1.00  0.00     0.036 A 
ATOM     15  C   UNL A   1      31.906  26.019  25.286  1.00  0.00     0.142 A 
ATOM     16  C   UNL A   1      30.217  27.556  23.911  1.00  0.00     0.109 A 
ATOM     17  C   UNL A   1      31.944  27.388  25.397  1.00  0.00     0.062 A 
ATOM     18  C   UNL A   1      31.024  28.171  24.757  1.00  0.00     0.044 A 
ATOM     19  Br  UNL A   1      33.337  28.231  26.488  1.00  0.00    -0.047 Br
BRANCH  11  20
ATOM     20  C   UNL A   1      32.723  21.418  23.672  1.00  0.00     0.430 C 
ATOM     21  F   UNL A   1      32.212  21.435  22.444  1.00  0.00    -0.167 F 
ATOM     22  F   UNL A   1      33.587  22.419  23.807  1.00  0.00    -0.167 F 
ATOM     23  F   UNL A   1      33.348  20.262  23.877  1.00  0.00    -0.167 F 
ENDBRANCH  11  20
BRANCH  16  24
ATOM     24  S   UNL A   1      29.286  28.577  22.742  1.00  0.00     0.310 S 
ATOM     25  F   UNL A   1      29.341  29.836  23.705  1.00  0.00    -0.094 F 
ATOM     26  F   UNL A   1      27.959  28.157  23.481  1.00  0.00    -0.094 F 
ATOM     27  F   UNL A   1      28.483  29.455  21.741  1.00  0.00    -0.094 F 
ATOM     28  F   UNL A   1      30.634  29.097  22.104  1.00  0.00    -0.094 F 
ATOM     29  F   UNL A   1      30.121  27.781  23.821  1.00  0.00    -0.094 F 
ENDBRANCH  16  24
ENDBRANCH   7   9
ENDBRANCH   6   7
ENDBRANCH   5   6
ENDBRANCH   4   5
ENDBRANCH   3   4
ENDBRANCH   2   3
ENDBRANCH   1   2
BRANCH   1  30
ATOM     30  O   UNL A   1      37.488  20.587  24.591  1.00  0.00    -0.376 OA
BRANCH  30  31
ATOM     31  C   UNL A   1      38.606  20.970  25.378  1.00  0.00     0.202 C 
BRANCH  31  32
ATOM     32  C   UNL A   1      39.189  19.743  26.060  1.00  0.00     0.261 C 
BRANCH  32  33
ATOM     33  O   UNL A   1      40.348  19.316  25.357  1.00  0.00    -0.460 OA
BRANCH  33  34
ATOM     34  C   UNL A   1      41.631  19.463  25.947  1.00  0.00     0.338 C 
ATOM     35  O   UNL A   1      42.446  18.488  25.946  1.00  0.00    -0.246 OA
BRANCH  34  36
ATOM     36  C   UNL A   1      42.028  20.786  26.580  1.00  0.00     0.060 A 
ATOM     37  C   UNL A   1      42.313  21.808  25.688  1.00  0.00     0.016 A 
ATOM     38  C   UNL A   1      41.974  21.009  27.887  1.00  0.00     0.016 A 
ATOM     39  C   UNL A   1      42.813  22.981  26.302  1.00  0.00     0.010 A 
ATOM     40  C   UNL A   1      42.348  22.225  28.406  1.00  0.00     0.010 A 
ATOM     41  C   UNL A   1      42.699  23.261  27.586  1.00  0.00    -0.014 A 
BRANCH  41  42
ATOM     42  C   UNL A   1      42.943  24.662  28.126  1.00  0.00     0.031 A 
ATOM     43  C   UNL A   1      41.878  25.548  28.298  1.00  0.00     0.074 A 
ATOM     44  C   UNL A   1      44.275  25.017  28.255  1.00  0.00     0.049 A 
ATOM     45  N   UNL A   1      41.940  26.836  28.638  1.00  0.00    -0.248 NA
ATOM     46  C   UNL A   1      40.464  25.181  28.128  1.00  0.00     0.031 C 
ATOM     47  C   UNL A   1      45.354  24.126  28.091  1.00  0.00     0.029 A 
ATOM     48  N   UNL A   1      44.793  26.256  28.555  1.00  0.00    -0.354 N 
ATOM     49  C   UNL A   1      40.710  27.350  28.725  1.00  0.00     0.074 A 
ATOM     50  C   UNL A   1      39.744  26.294  28.392  1.00  0.00     0.031 C 
ATOM     51  C   UNL A   1      46.506  24.822  28.279  1.00  0.00     0.029 A 
ATOM     52  C   UNL A   1      46.167  26.158  28.564  1.00  0.00     0.049 A 
ATOM     53  H   UNL A   1      44.273  27.073  28.734  1.00  0.00     0.167 HD
ATOM     54  C   UNL A   1      40.358  28.656  29.069  1.00  0.00     0.031 A 
ATOM     55  C   UNL A   1      47.089  27.164  28.802  1.00  0.00     0.031 A 
ATOM     56  C   UNL A   1      41.279  29.652  29.351  1.00  0.00     0.049 A 
ATOM     57  C   UNL A   1      46.738  28.485  29.090  1.00  0.00     0.074 A 
ATOM     58  C   UNL A   1      40.940  30.970  29.707  1.00  0.00     0.029 A 
ATOM     59  N   UNL A   1      42.654  29.558  29.334  1.00  0.00    -0.354 N 
ATOM     60  N   UNL A   1      45.509  28.988  29.215  1.00  0.00    -0.248 NA
ATOM     61  C   UNL A   1      47.706  29.567  29.312  1.00  0.00     0.031 C 
ATOM     62  C   UNL A   1      42.094  31.666  29.895  1.00  0.00     0.029 A 
ATOM     63  C   UNL A   1      43.172  30.793  29.657  1.00  0.00     0.049 A 
ATOM     64  H   UNL A   1      43.175  28.749  29.127  1.00  0.00     0.167 HD
ATOM     65  C   UNL A   1      45.572  30.287  29.514  1.00  0.00     0.074 A 
ATOM     66  C   UNL A   1      46.987  30.680  29.573  1.00  0.00     0.031 C 
ATOM     67  C   UNL A   1      44.506  31.159  29.744  1.00  0.00     0.031 A 
BRANCH  54  68
ATOM     68  C   UNL A   1      38.880  29.004  29.142  1.00  0.00    -0.014 A 
ATOM     69  C   UNL A   1      38.138  28.973  30.311  1.00  0.00     0.009 A 
ATOM     70  C   UNL A   1      38.365  29.471  28.011  1.00  0.00     0.009 A 
ATOM     71  C   UNL A   1      36.754  29.194  30.117  1.00  0.00     0.001 A 
ATOM     72  C   UNL A   1      37.033  29.797  27.931  1.00  0.00     0.001 A 
ATOM     73  C   UNL A   1      36.226  29.733  29.033  1.00  0.00     0.000 A 
ENDBRANCH  54  68
BRANCH  55  74
ATOM     74  C   UNL A   1      48.567  26.812  28.746  1.00  0.00    -0.014 A 
ATOM     75  C   UNL A   1      49.259  26.776  27.546  1.00  0.00     0.009 A 
ATOM     76  C   UNL A   1      49.123  26.389  29.875  1.00  0.00     0.009 A 
ATOM     77  C   UNL A   1      50.443  26.001  27.590  1.00  0.00     0.001 A 
ATOM     78  C   UNL A   1      50.345  25.760  29.860  1.00  0.00     0.001 A 
ATOM     79  C   UNL A   1      51.058  25.637  28.700  1.00  0.00     0.000 A 
ENDBRANCH  55  74
BRANCH  67  80
ATOM     80  C   UNL A   1      44.829  32.598  30.112  1.00  0.00    -0.014 A 
ATOM     81  C   UNL A   1      45.038  32.837  31.460  1.00  0.00     0.009 A 
ATOM     82  C   UNL A   1      45.015  33.552  29.207  1.00  0.00     0.009 A 
ATOM     83  C   UNL A   1      45.164  34.207  31.788  1.00  0.00     0.001 A 
ATOM     84  C   UNL A   1      45.269  34.845  29.597  1.00  0.00     0.001 A 
ATOM     85  C   UNL A   1      45.429  35.164  30.916  1.00  0.00     0.000 A 
ENDBRANCH  67  80
ENDBRANCH  41  42
ENDBRANCH  34  36
ENDBRANCH  33  34
ENDBRANCH  32  33
ENDBRANCH  31  32
ENDBRANCH  30  31
ENDBRANCH   1  30
TORSDOF 19
ENDMDL
MODEL 2
REMARK VINA RESULT:     -11.1      4.410      9.422
REMARK SMILES O=C(OCCOCCOCCOC(=O)c1ccc(-c2c3nc(c(-c4ccccc4)c4ccc([nH]4)c(-c4ccccc4)c4nc(c(-c5ccccc5)c5ccc2[nH]5)C=C4)C=C3)cc1)C1=Cc2cc(S(F)(F)(F)(F)F)cc(Br)c2O[C@@H]1C(F)(F)F
REMARK SMILES IDX 8 1 7 2 6 3 5 4 4 5 3 6 2 7 1 8 63 9 64 10 79 11 65 12 78 13
REMARK SMILES IDX 66 14 77 15 67 16 75 17 74 18 76 19 80 20 81 21 82 22 83 23
REMARK SMILES IDX 68 24 69 25 70 26 71 27 72 28 73 29 9 30 10 31 11 32 12 33
REMARK SMILES IDX 13 34 14 35 15 36 16 37 62 38 17 39 61 40 18 41 19 42 20 43
REMARK SMILES IDX 55 44 21 45 60 46 54 47 56 48 22 49 59 50 53 51 52 52 23 54
REMARK SMILES IDX 45 55 30 56 44 57 31 58 34 59 43 60 57 61 32 62 33 63 42 65
REMARK SMILES IDX 58 66 35 67 24 68 25 69 29 70 26 71 28 72 27 73 46 74 47 75
REMARK SMILES IDX 51 76 48 77 50 78 49 79 36 80 37 81 41 82 38 83 40 84 39 85
REMARK H PARENT 56 53 34 64
REMARK Flexibility Score: inf
ROOT
ATOM      1  C   UNL A   1      33.033  29.138  26.542  1.00  0.00     0.188 C 
ENDROOT
BRANCH   1   2
ATOM      2  C   UNL A   1      32.925  29.362  25.043  1.00  0.00     0.188 C 
BRANCH   2   3
ATOM      3  O   UNL A   1      33.558  28.290  24.358  1.00  0.00    -0.376 OA
BRANCH   3   4
ATOM      4  C   UNL A   1      33.887  28.700  23.039  1.00  0.00     0.202 C 
BRANCH   4   5
ATOM      5  C   UNL A   1      33.686  27.536  22.082  1.00  0.00     0.261 C 
BRANCH   5   6
ATOM      6  O   UNL A   1      33.788  26.313  22.796  1.00  0.00    -0.460 OA
BRANCH   6   7
ATOM      7  C   UNL A   1      32.948  25.220  22.457  1.00  0.00     0.338 C 
ATOM      8  O   UNL A   1      33.266  24.447  21.498  1.00  0.00    -0.246 OA
BRANCH   7   9
ATOM      9  C   UNL A   1      31.668  24.973  23.239  1.00  0.00     0.087 C 
ATOM     10  C   UNL A   1      31.506  23.812  23.929  1.00  0.00     0.027 C 
ATOM     11  C   UNL A   1      30.570  26.023  23.251  1.00  0.00     0.316 C 
ATOM     12  C   UNL A   1      32.605  22.761  23.917  1.00  0.00     0.020 A 
ATOM     13  O   UNL A   1      34.264  24.461  23.986  1.00  0.00    -0.474 OA
ATOM     14  C   UNL A   1      32.216  21.432  23.855  1.00  0.00     0.036 A 
ATOM     15  C   UNL A   1      33.878  23.098  24.087  1.00  0.00     0.142 A 
ATOM     16  C   UNL A   1      33.215  20.523  24.274  1.00  0.00     0.109 A 
ATOM     17  C   UNL A   1      34.826  22.141  24.359  1.00  0.00     0.062 A 
ATOM     18  C   UNL A   1      34.500  20.813  24.372  1.00  0.00     0.044 A 
ATOM     19  Br  UNL A   1      36.670  22.686  24.735  1.00  0.00    -0.047 Br
BRANCH  11  20
ATOM     20  C   UNL A   1      30.318  26.477  24.679  1.00  0.00     0.430 C 
ATOM     21  F   UNL A   1      30.120  27.792  24.698  1.00  0.00    -0.167 F 
ATOM     22  F   UNL A   1      29.241  25.859  25.157  1.00  0.00    -0.167 F 
ATOM     23  F   UNL A   1      31.372  26.177  25.433  1.00  0.00    -0.167 F 
ENDBRANCH  11  20
BRANCH  16  24
ATOM     24  S   UNL A   1      32.696  18.843  24.705  1.00  0.00     0.310 S 
ATOM     25  F   UNL A   1      34.191  18.314  24.694  1.00  0.00    -0.094 F 
ATOM     26  F   UNL A   1      32.637  18.502  23.167  1.00  0.00    -0.094 F 
ATOM     27  F   UNL A   1      32.252  17.399  25.071  1.00  0.00    -0.094 F 
ATOM     28  F   UNL A   1      32.897  19.162  26.238  1.00  0.00    -0.094 F 
ATOM     29  F   UNL A   1      33.257  20.277  24.348  1.00  0.00    -0.094 F 
ENDBRANCH  16  24
ENDBRANCH   7   9
ENDBRANCH   6   7
ENDBRANCH   5   6
ENDBRANCH   4   5
ENDBRANCH   3   4
ENDBRANCH   2   3
ENDBRANCH   1   2
BRANCH   1  30
ATOM     30  O   UNL A   1      32.107  29.979  27.214  1.00  0.00    -0.376 OA
BRANCH  30  31
ATOM     31  C   UNL A   1      31.649  30.986  26.323  1.00  0.00     0.202 C 
BRANCH  31  32
ATOM     32  C   UNL A   1      31.422  32.277  27.091  1.00  0.00     0.261 C 
BRANCH  32  33
ATOM     33  O   UNL A   1      32.518  33.155  26.876  1.00  0.00    -0.460 OA
BRANCH  33  34
ATOM     34  C   UNL A   1      33.082  33.867  27.967  1.00  0.00     0.338 C 
ATOM     35  O   UNL A   1      32.518  34.922  28.398  1.00  0.00    -0.246 OA
BRANCH  34  36
ATOM     36  C   UNL A   1      34.362  33.369  28.618  1.00  0.00     0.060 A 
ATOM     37  C   UNL A   1      34.235  32.205  29.358  1.00  0.00     0.016 A 
ATOM     38  C   UNL A   1      35.551  33.914  28.390  1.00  0.00     0.016 A 
ATOM     39  C   UNL A   1      35.408  31.844  30.064  1.00  0.00     0.010 A 
ATOM     40  C   UNL A   1      36.676  33.424  29.009  1.00  0.00     0.010 A 
ATOM     41  C   UNL A   1      36.613  32.312  29.802  1.00  0.00    -0.014 A 
BRANCH  41  42
ATOM     42  C   UNL A   1      37.867  31.649  30.350  1.00  0.00     0.031 A 
ATOM     43  C   UNL A   1      38.538  30.679  29.604  1.00  0.00     0.074 A 
ATOM     44  C   UNL A   1      38.165  31.956  31.667  1.00  0.00     0.049 A 
ATOM     45  N   UNL A   1      39.566  29.922  29.991  1.00  0.00    -0.248 NA
ATOM     46  C   UNL A   1      38.201  30.328  28.216  1.00  0.00     0.031 C 
ATOM     47  C   UNL A   1      37.499  32.940  32.424  1.00  0.00     0.029 A 
ATOM     48  N   UNL A   1      39.127  31.387  32.470  1.00  0.00    -0.354 N 
ATOM     49  C   UNL A   1      39.950  29.122  28.994  1.00  0.00     0.074 A 
ATOM     50  C   UNL A   1      39.074  29.366  27.841  1.00  0.00     0.031 C 
ATOM     51  C   UNL A   1      38.044  32.956  33.668  1.00  0.00     0.029 A 
ATOM     52  C   UNL A   1      39.061  31.983  33.710  1.00  0.00     0.049 A 
ATOM     53  H   UNL A   1      39.756  30.677  32.205  1.00  0.00     0.167 HD
ATOM     54  C   UNL A   1      40.997  28.199  29.002  1.00  0.00     0.031 A 
ATOM     55  C   UNL A   1      39.832  31.706  34.828  1.00  0.00     0.031 A 
ATOM     56  C   UNL A   1      41.798  27.953  30.106  1.00  0.00     0.049 A 
ATOM     57  C   UNL A   1      40.841  30.742  34.854  1.00  0.00     0.074 A 
ATOM     58  C   UNL A   1      42.862  27.033  30.128  1.00  0.00     0.029 A 
ATOM     59  N   UNL A   1      41.714  28.532  31.354  1.00  0.00    -0.354 N 
ATOM     60  N   UNL A   1      41.251  29.971  33.846  1.00  0.00    -0.248 NA
ATOM     61  C   UNL A   1      41.643  30.418  36.040  1.00  0.00     0.031 C 
ATOM     62  C   UNL A   1      43.408  27.049  31.374  1.00  0.00     0.029 A 
ATOM     63  C   UNL A   1      42.692  27.979  32.151  1.00  0.00     0.049 A 
ATOM     64  H   UNL A   1      41.067  29.222  31.628  1.00  0.00     0.167 HD
ATOM     65  C   UNL A   1      42.253  29.185  34.246  1.00  0.00     0.074 A 
ATOM     66  C   UNL A   1      42.514  29.456  35.666  1.00  0.00     0.031 C 
ATOM     67  C   UNL A   1      42.961  28.255  33.482  1.00  0.00     0.031 A 
BRANCH  54  68
ATOM     68  C   UNL A   1      41.277  27.421  27.726  1.00  0.00    -0.014 A 
ATOM     69  C   UNL A   1      40.851  26.121  27.506  1.00  0.00     0.009 A 
ATOM     70  C   UNL A   1      41.860  28.127  26.765  1.00  0.00     0.009 A 
ATOM     71  C   UNL A   1      41.348  25.550  26.312  1.00  0.00     0.001 A 
ATOM     72  C   UNL A   1      42.195  27.538  25.569  1.00  0.00     0.001 A 
ATOM     73  C   UNL A   1      41.857  26.239  25.307  1.00  0.00     0.000 A 
ENDBRANCH  54  68
BRANCH  55  74
ATOM     74  C   UNL A   1      39.563  32.497  36.099  1.00  0.00    -0.014 A 
ATOM     75  C   UNL A   1      38.576  32.118  36.993  1.00  0.00     0.009 A 
ATOM     76  C   UNL A   1      40.210  33.649  36.232  1.00  0.00     0.009 A 
ATOM     77  C   UNL A   1      38.137  33.164  37.839  1.00  0.00     0.001 A 
ATOM     78  C   UNL A   1      39.811  34.570  37.172  1.00  0.00     0.001 A 
ATOM     79  C   UNL A   1      38.802  34.285  38.051  1.00  0.00     0.000 A 
ENDBRANCH  55  74
BRANCH  67  80
ATOM     80  C   UNL A   1      44.098  27.499  34.152  1.00  0.00    -0.014 A 
ATOM     81  C   UNL A   1      43.758  26.272  34.696  1.00  0.00     0.009 A 
ATOM     82  C   UNL A   1      45.358  27.918  34.129  1.00  0.00     0.009 A 
ATOM     83  C   UNL A   1      44.791  25.677  35.459  1.00  0.00     0.001 A 
ATOM     84  C   UNL A   1      46.340  27.214  34.782  1.00  0.00     0.001 A 
ATOM     85  C   UNL A   1      46.064  26.022  35.392  1.00  0.00     0.000 A 
ENDBRANCH  67  80
ENDBRANCH  41  42
ENDBRANCH  34  36
ENDBRANCH  33  34
ENDBRANCH  32  33
ENDBRANCH  31  32
ENDBRANCH  30  31
ENDBRANCH   1  30
TORSDOF 19
ENDMDL
MODEL 3
REMARK VINA RESULT:     -11.1      3.727      8.996
REMARK SMILES O=C(OCCOCCOCCOC(=O)c1ccc(-c2c3nc(c(-c4ccccc4)c4ccc([nH]4)c(-c4ccccc4)c4nc(c(-c5ccccc5)c5ccc2[nH]5)C=C4)C=C3)cc1)C1=Cc2cc(S(F)(F)(F)(F)F)cc(Br)c2O[C@@H]1C(F)(F)F
REMARK SMILES IDX 8 1 7 2 6 3 5 4 4 5 3 6 2 7 1 8 63 9 64 10 79 11 65 12 78 13
REMARK SMILES IDX 66 14 77 15 67 16 75 17 74 18 76 19 80 20 81 21 82 22 83 23
REMARK SMILES IDX 68 24 69 25 70 26 71 27 72 28 73 29 9 30 10 31 11 32 12 33
REMARK SMILES IDX 13 34 14 35 15 36 16 37 62 38 17 39 61 40 18 41 19 42 20 43
REMARK SMILES IDX 55 44 21 45 60 46 54 47 56 48 22 49 59 50 53 51 52 52 23 54
REMARK SMILES IDX 45 55 30 56 44 57 31 58 34 59 43 60 57 61 32 62 33 63 42 65
REMARK SMILES IDX 58 66 35 67 24 68 25 69 29 70 26 71 28 72 27 73 46 74 47 75
REMARK SMILES IDX 51 76 48 77 50 78 49 79 36 80 37 81 41 82 38 83 40 84 39 85
REMARK H PARENT 56 53 34 64
REMARK Flexibility Score: inf
ROOT
ATOM      1  C   UNL A   1      32.940  29.952  26.097  1.00  0.00     0.188 C 
ENDROOT
BRANCH   1   2
ATOM      2  C   UNL A   1      33.500  28.989  25.064  1.00  0.00     0.188 C 
BRANCH   2   3
ATOM      3  O   UNL A   1      34.020  27.842  25.720  1.00  0.00    -0.376 OA
BRANCH   3   4
ATOM      4  C   UNL A   1      33.193  26.722  25.443  1.00  0.00     0.202 C 
BRANCH   4   5
ATOM      5  C   UNL A   1      33.644  26.066  24.149  1.00  0.00     0.261 C 
BRANCH   5   6
ATOM      6  O   UNL A   1      33.979  24.709  24.397  1.00  0.00    -0.460 OA
BRANCH   6   7
ATOM      7  C   UNL A   1      33.231  23.669  23.783  1.00  0.00     0.338 C 
ATOM      8  O   UNL A   1      33.572  23.231  22.640  1.00  0.00    -0.246 OA
BRANCH   7   9
ATOM      9  C   UNL A   1      32.022  23.081  24.493  1.00  0.00     0.087 C 
ATOM     10  C   UNL A   1      32.039  21.784  24.902  1.00  0.00     0.027 C 
ATOM     11  C   UNL A   1      30.796  23.942  24.747  1.00  0.00     0.316 C 
ATOM     12  C   UNL A   1      33.266  20.923  24.649  1.00  0.00     0.020 A 
ATOM     13  O   UNL A   1      34.687  22.775  25.096  1.00  0.00    -0.474 OA
ATOM     14  C   UNL A   1      33.054  19.602  24.288  1.00  0.00     0.036 A 
ATOM     15  C   UNL A   1      34.488  21.384  24.887  1.00  0.00     0.142 A 
ATOM     16  C   UNL A   1      34.179  18.766  24.486  1.00  0.00     0.109 A 
ATOM     17  C   UNL A   1      35.563  20.529  24.931  1.00  0.00     0.062 A 
ATOM     18  C   UNL A   1      35.417  19.200  24.644  1.00  0.00     0.044 A 
ATOM     19  Br  UNL A   1      37.331  21.222  25.415  1.00  0.00    -0.047 Br
BRANCH  11  20
ATOM     20  C   UNL A   1      30.535  24.025  26.242  1.00  0.00     0.430 C 
ATOM     21  F   UNL A   1      29.949  22.903  26.652  1.00  0.00    -0.167 F 
ATOM     22  F   UNL A   1      31.688  24.184  26.885  1.00  0.00    -0.167 F 
ATOM     23  F   UNL A   1      29.738  25.059  26.496  1.00  0.00    -0.167 F 
ENDBRANCH  11  20
BRANCH  16  24
ATOM     24  S   UNL A   1      33.902  16.978  24.527  1.00  0.00     0.310 S 
ATOM     25  F   UNL A   1      32.385  17.142  24.092  1.00  0.00    -0.094 F 
ATOM     26  F   UNL A   1      33.417  17.119  26.019  1.00  0.00    -0.094 F 
ATOM     27  F   UNL A   1      33.660  15.443  24.565  1.00  0.00    -0.094 F 
ATOM     28  F   UNL A   1      34.255  16.877  22.991  1.00  0.00    -0.094 F 
ATOM     29  F   UNL A   1      34.042  18.550  24.440  1.00  0.00    -0.094 F 
ENDBRANCH  16  24
ENDBRANCH   7   9
ENDBRANCH   6   7
ENDBRANCH   5   6
ENDBRANCH   4   5
ENDBRANCH   3   4
ENDBRANCH   2   3
ENDBRANCH   1   2
BRANCH   1  30
ATOM     30  O   UNL A   1      31.700  30.471  25.638  1.00  0.00    -0.376 OA
BRANCH  30  31
ATOM     31  C   UNL A   1      31.304  31.554  26.467  1.00  0.00     0.202 C 
BRANCH  31  32
ATOM     32  C   UNL A   1      32.534  32.181  27.103  1.00  0.00     0.261 C 
BRANCH  32  33
ATOM     33  O   UNL A   1      32.210  33.479  27.581  1.00  0.00    -0.460 OA
BRANCH  33  34
ATOM     34  C   UNL A   1      33.143  34.198  28.373  1.00  0.00     0.338 C 
ATOM     35  O   UNL A   1      32.924  35.416  28.665  1.00  0.00    -0.246 OA
BRANCH  34  36
ATOM     36  C   UNL A   1      34.405  33.511  28.871  1.00  0.00     0.060 A 
ATOM     37  C   UNL A   1      35.558  33.808  28.163  1.00  0.00     0.016 A 
ATOM     38  C   UNL A   1      34.447  32.792  29.985  1.00  0.00     0.016 A 
ATOM     39  C   UNL A   1      36.685  33.050  28.560  1.00  0.00     0.010 A 
ATOM     40  C   UNL A   1      35.616  32.191  30.387  1.00  0.00     0.010 A 
ATOM     41  C   UNL A   1      36.780  32.392  29.700  1.00  0.00    -0.014 A 
BRANCH  41  42
ATOM     42  C   UNL A   1      38.116  31.885  30.224  1.00  0.00     0.031 A 
ATOM     43  C   UNL A   1      38.914  32.699  31.029  1.00  0.00     0.074 A 
ATOM     44  C   UNL A   1      38.524  30.667  29.707  1.00  0.00     0.049 A 
ATOM     45  N   UNL A   1      40.152  32.453  31.460  1.00  0.00    -0.248 NA
ATOM     46  C   UNL A   1      38.493  34.008  31.551  1.00  0.00     0.031 C 
ATOM     47  C   UNL A   1      37.722  29.836  28.902  1.00  0.00     0.029 A 
ATOM     48  N   UNL A   1      39.744  30.049  29.866  1.00  0.00    -0.354 N 
ATOM     49  C   UNL A   1      40.582  33.459  32.225  1.00  0.00     0.074 A 
ATOM     50  C   UNL A   1      39.524  34.477  32.289  1.00  0.00     0.031 C 
ATOM     51  C   UNL A   1      38.451  28.738  28.571  1.00  0.00     0.029 A 
ATOM     52  C   UNL A   1      39.721  28.864  29.165  1.00  0.00     0.049 A 
ATOM     53  H   UNL A   1      40.503  30.393  30.392  1.00  0.00     0.167 HD
ATOM     54  C   UNL A   1      41.814  33.566  32.872  1.00  0.00     0.031 A 
ATOM     55  C   UNL A   1      40.740  27.934  29.035  1.00  0.00     0.031 A 
ATOM     56  C   UNL A   1      42.818  32.615  32.779  1.00  0.00     0.049 A 
ATOM     57  C   UNL A   1      41.993  28.069  29.635  1.00  0.00     0.074 A 
ATOM     58  C   UNL A   1      44.061  32.705  33.431  1.00  0.00     0.029 A 
ATOM     59  N   UNL A   1      42.802  31.442  32.056  1.00  0.00    -0.354 N 
ATOM     60  N   UNL A   1      42.409  29.055  30.432  1.00  0.00    -0.248 NA
ATOM     61  C   UNL A   1      43.091  27.106  29.479  1.00  0.00     0.031 C 
ATOM     62  C   UNL A   1      44.791  31.606  33.099  1.00  0.00     0.029 A 
ATOM     63  C   UNL A   1      44.015  30.812  32.234  1.00  0.00     0.049 A 
ATOM     64  H   UNL A   1      42.054  31.111  31.507  1.00  0.00     0.167 HD
ATOM     65  C   UNL A   1      43.662  28.828  30.829  1.00  0.00     0.074 A 
ATOM     66  C   UNL A   1      44.122  27.575  30.215  1.00  0.00     0.031 C 
ATOM     67  C   UNL A   1      44.440  29.615  31.681  1.00  0.00     0.031 A 
BRANCH  54  68
ATOM     68  C   UNL A   1      42.069  34.795  33.729  1.00  0.00    -0.014 A 
ATOM     69  C   UNL A   1      41.790  34.862  35.085  1.00  0.00     0.009 A 
ATOM     70  C   UNL A   1      42.707  35.781  33.109  1.00  0.00     0.009 A 
ATOM     71  C   UNL A   1      41.973  36.147  35.645  1.00  0.00     0.001 A 
ATOM     72  C   UNL A   1      42.975  36.961  33.759  1.00  0.00     0.001 A 
ATOM     73  C   UNL A   1      42.673  37.117  35.084  1.00  0.00     0.000 A 
ENDBRANCH  54  68
BRANCH  55  74
ATOM     74  C   UNL A   1      40.478  26.696  28.192  1.00  0.00    -0.014 A 
ATOM     75  C   UNL A   1      40.897  26.615  26.874  1.00  0.00     0.009 A 
ATOM     76  C   UNL A   1      39.697  25.764  28.725  1.00  0.00     0.009 A 
ATOM     77  C   UNL A   1      40.197  25.653  26.108  1.00  0.00     0.001 A 
ATOM     78  C   UNL A   1      39.155  24.773  27.942  1.00  0.00     0.001 A 
ATOM     79  C   UNL A   1      39.479  24.669  26.617  1.00  0.00     0.000 A 
ENDBRANCH  55  74
BRANCH  67  80
ATOM     80  C   UNL A   1      45.838  29.127  32.024  1.00  0.00    -0.014 A 
ATOM     81  C   UNL A   1      46.850  29.589  31.199  1.00  0.00     0.009 A 
ATOM     82  C   UNL A   1      46.107  28.399  33.102  1.00  0.00     0.009 A 
ATOM     83  C   UNL A   1      48.107  28.984  31.437  1.00  0.00     0.001 A 
ATOM     84  C   UNL A   1      47.384  27.955  33.344  1.00  0.00     0.001 A 
ATOM     85  C   UNL A   1      48.423  28.324  32.536  1.00  0.00     0.000 A 
ENDBRANCH  67  80
ENDBRANCH  41  42
ENDBRANCH  34  36
ENDBRANCH  33  34
ENDBRANCH  32  33
ENDBRANCH  31  32
ENDBRANCH  30  31
ENDBRANCH   1  30
TORSDOF 19
ENDMDL
