MODEL 1
REMARK VINA RESULT:      -9.2      0.000      0.000
REMARK SMILES O=C(CC1(CSC[C@H]2C[C@H]3CC[C@@H]2C3)CC1)OCCOCCOCCOC(=O)c1ccc(-c2c3nc(c(-c4ccccc4)c4ccc([nH]4)c(-c4ccccc4)c4nc(c(-c5ccccc5)c5ccc2[nH]5)C=C4)C=C3)cc1
REMARK SMILES IDX 20 1 19 2 18 3 17 4 2 5 1 6 3 7 4 8 15 9 16 10 5 11 6 12
REMARK SMILES IDX 7 13 8 14 9 15 13 16 10 17 12 18 14 19 11 20 21 21 22 22
REMARK SMILES IDX 23 23 24 24 25 25 26 26 27 27 28 28 29 29 30 30 76 31 31 32
REMARK SMILES IDX 75 33 32 34 33 35 34 36 69 37 35 38 74 39 68 40 70 41 36 42
REMARK SMILES IDX 73 43 67 44 66 45 37 47 59 48 44 49 58 50 45 51 48 52 57 53
REMARK SMILES IDX 71 54 46 55 47 56 56 58 72 59 49 60 38 61 39 62 43 63 40 64
REMARK SMILES IDX 42 65 41 66 60 67 61 68 65 69 62 70 64 71 63 72 50 73 51 74
REMARK SMILES IDX 55 75 52 76 54 77 53 78
REMARK H PARENT 70 46 48 57
REMARK Flexibility Score: inf
ROOT
ATOM      1  O   UNL A   1      34.327  30.103  27.500  1.00  0.00    -0.376 OA
ENDROOT
BRANCH   1   2
ATOM      2  C   UNL A   1      33.003  29.930  27.072  1.00  0.00     0.202 C 
BRANCH   2   3
ATOM      3  C   UNL A   1      32.212  28.660  27.368  1.00  0.00     0.261 C 
BRANCH   3   4
ATOM      4  O   UNL A   1      32.277  27.576  26.432  1.00  0.00    -0.463 OA
BRANCH   4   5
ATOM      5  C   UNL A   1      31.274  26.795  25.992  1.00  0.00     0.306 C 
ATOM      6  O   UNL A   1      30.457  26.358  26.803  1.00  0.00    -0.252 OA
BRANCH   5   7
ATOM      7  C   UNL A   1      31.268  26.318  24.551  1.00  0.00     0.130 C 
BRANCH   7   8
ATOM      8  C   UNL A   1      32.580  26.317  23.795  1.00  0.00    -0.010 C 
ATOM      9  C   UNL A   1      33.811  25.781  24.522  1.00  0.00     0.009 C 
ATOM     10  C   UNL A   1      33.171  24.946  23.471  1.00  0.00     0.009 C 
BRANCH   8  11
ATOM     11  C   UNL A   1      32.750  27.409  22.761  1.00  0.00     0.077 C 
BRANCH  11  12
ATOM     12  S   UNL A   1      31.933  28.962  23.237  1.00  0.00    -0.161 SA
BRANCH  12  13
ATOM     13  C   UNL A   1      30.355  28.784  22.343  1.00  0.00     0.073 C 
BRANCH  13  14
ATOM     14  C   UNL A   1      29.278  29.419  23.200  1.00  0.00     0.002 C 
ATOM     15  C   UNL A   1      29.682  30.744  23.869  1.00  0.00     0.008 C 
ATOM     16  C   UNL A   1      27.990  29.785  22.426  1.00  0.00    -0.007 C 
ATOM     17  C   UNL A   1      28.525  31.673  23.473  1.00  0.00    -0.011 C 
ATOM     18  C   UNL A   1      28.278  30.753  21.265  1.00  0.00     0.004 C 
ATOM     19  C   UNL A   1      27.328  30.717  23.433  1.00  0.00     0.007 C 
ATOM     20  C   UNL A   1      28.705  32.036  21.990  1.00  0.00     0.004 C 
ENDBRANCH  13  14
ENDBRANCH  12  13
ENDBRANCH  11  12
ENDBRANCH   8  11
ENDBRANCH   7   8
ENDBRANCH   5   7
ENDBRANCH   4   5
ENDBRANCH   3   4
ENDBRANCH   2   3
ENDBRANCH   1   2
BRANCH   1  21
ATOM     21  C   UNL A   1      34.950  31.355  27.631  1.00  0.00     0.188 C 
BRANCH  21  22
ATOM     22  C   UNL A   1      34.014  32.494  28.041  1.00  0.00     0.188 C 
BRANCH  22  23
ATOM     23  O   UNL A   1      34.351  33.834  27.710  1.00  0.00    -0.376 OA
BRANCH  23  24
ATOM     24  C   UNL A   1      34.325  34.833  28.714  1.00  0.00     0.202 C 
BRANCH  24  25
ATOM     25  C   UNL A   1      33.028  35.024  29.525  1.00  0.00     0.261 C 
BRANCH  25  26
ATOM     26  O   UNL A   1      32.982  36.122  30.466  1.00  0.00    -0.460 OA
BRANCH  26  27
ATOM     27  C   UNL A   1      32.748  35.813  31.767  1.00  0.00     0.338 C 
ATOM     28  O   UNL A   1      31.699  35.993  32.380  1.00  0.00    -0.246 OA
BRANCH  27  29
ATOM     29  C   UNL A   1      33.890  35.073  32.373  1.00  0.00     0.060 A 
ATOM     30  C   UNL A   1      35.183  35.616  32.279  1.00  0.00     0.016 A 
ATOM     31  C   UNL A   1      33.721  33.819  32.964  1.00  0.00     0.016 A 
ATOM     32  C   UNL A   1      36.302  34.901  32.736  1.00  0.00     0.010 A 
ATOM     33  C   UNL A   1      34.846  33.093  33.399  1.00  0.00     0.010 A 
ATOM     34  C   UNL A   1      36.150  33.612  33.263  1.00  0.00    -0.014 A 
BRANCH  34  35
ATOM     35  C   UNL A   1      37.339  32.748  33.533  1.00  0.00     0.031 A 
ATOM     36  C   UNL A   1      38.138  32.972  34.796  1.00  0.00     0.074 A 
ATOM     37  C   UNL A   1      37.727  31.777  32.683  1.00  0.00     0.049 A 
ATOM     38  N   UNL A   1      39.260  32.413  35.182  1.00  0.00    -0.248 NA
ATOM     39  C   UNL A   1      37.601  33.958  35.746  1.00  0.00     0.031 C 
ATOM     40  C   UNL A   1      37.033  31.395  31.456  1.00  0.00     0.029 A 
ATOM     41  N   UNL A   1      38.823  30.944  32.720  1.00  0.00    -0.354 N 
ATOM     42  C   UNL A   1      39.569  32.991  36.409  1.00  0.00     0.074 A 
ATOM     43  C   UNL A   1      38.527  33.955  36.694  1.00  0.00     0.031 C 
ATOM     44  C   UNL A   1      37.730  30.418  30.846  1.00  0.00     0.029 A 
ATOM     45  C   UNL A   1      38.941  30.132  31.617  1.00  0.00     0.049 A 
ATOM     46  H   UNL A   1      39.463  30.929  33.469  1.00  0.00     0.167 HD
ATOM     47  C   UNL A   1      40.622  32.746  37.228  1.00  0.00     0.031 A 
ATOM     48  C   UNL A   1      39.924  29.284  31.247  1.00  0.00     0.031 A 
ATOM     49  C   UNL A   1      41.670  31.796  36.958  1.00  0.00     0.049 A 
ATOM     50  C   UNL A   1      41.136  29.102  32.130  1.00  0.00     0.074 A 
ATOM     51  C   UNL A   1      42.759  31.469  37.749  1.00  0.00     0.029 A 
ATOM     52  N   UNL A   1      41.767  31.029  35.810  1.00  0.00    -0.354 N 
ATOM     53  N   UNL A   1      41.398  29.634  33.299  1.00  0.00    -0.248 NA
ATOM     54  C   UNL A   1      42.189  28.198  31.637  1.00  0.00     0.031 C 
ATOM     55  C   UNL A   1      43.553  30.557  37.049  1.00  0.00     0.029 A 
ATOM     56  C   UNL A   1      42.921  30.261  35.854  1.00  0.00     0.049 A 
ATOM     57  H   UNL A   1      41.115  31.028  35.073  1.00  0.00     0.167 HD
ATOM     58  C   UNL A   1      42.624  29.106  33.691  1.00  0.00     0.074 A 
ATOM     59  C   UNL A   1      43.045  28.196  32.648  1.00  0.00     0.031 C 
ATOM     60  C   UNL A   1      43.339  29.355  34.816  1.00  0.00     0.031 A 
BRANCH  47  61
ATOM     61  C   UNL A   1      40.727  33.551  38.495  1.00  0.00    -0.014 A 
ATOM     62  C   UNL A   1      40.280  33.043  39.725  1.00  0.00     0.009 A 
ATOM     63  C   UNL A   1      41.359  34.805  38.469  1.00  0.00     0.009 A 
ATOM     64  C   UNL A   1      40.444  33.785  40.897  1.00  0.00     0.001 A 
ATOM     65  C   UNL A   1      41.546  35.532  39.645  1.00  0.00     0.001 A 
ATOM     66  C   UNL A   1      41.083  35.025  40.857  1.00  0.00     0.000 A 
ENDBRANCH  47  61
BRANCH  48  67
ATOM     67  C   UNL A   1      39.849  28.561  29.945  1.00  0.00    -0.014 A 
ATOM     68  C   UNL A   1      39.338  27.255  29.873  1.00  0.00     0.009 A 
ATOM     69  C   UNL A   1      40.355  29.152  28.776  1.00  0.00     0.009 A 
ATOM     70  C   UNL A   1      39.371  26.545  28.669  1.00  0.00     0.001 A 
ATOM     71  C   UNL A   1      40.354  28.453  27.566  1.00  0.00     0.001 A 
ATOM     72  C   UNL A   1      39.875  27.146  27.516  1.00  0.00     0.000 A 
ENDBRANCH  48  67
BRANCH  60  73
ATOM     73  C   UNL A   1      44.633  28.609  35.004  1.00  0.00    -0.014 A 
ATOM     74  C   UNL A   1      45.857  29.146  34.574  1.00  0.00     0.009 A 
ATOM     75  C   UNL A   1      44.634  27.369  35.662  1.00  0.00     0.009 A 
ATOM     76  C   UNL A   1      47.047  28.438  34.765  1.00  0.00     0.001 A 
ATOM     77  C   UNL A   1      45.828  26.678  35.881  1.00  0.00     0.001 A 
ATOM     78  C   UNL A   1      47.032  27.209  35.423  1.00  0.00     0.000 A 
ENDBRANCH  60  73
ENDBRANCH  34  35
ENDBRANCH  27  29
ENDBRANCH  26  27
ENDBRANCH  25  26
ENDBRANCH  24  25
ENDBRANCH  23  24
ENDBRANCH  22  23
ENDBRANCH  21  22
ENDBRANCH   1  21
TORSDOF 22
ENDMDL
MODEL 2
REMARK VINA RESULT:      -8.9      1.731      3.864
REMARK SMILES O=C(CC1(CSC[C@H]2C[C@H]3CC[C@@H]2C3)CC1)OCCOCCOCCOC(=O)c1ccc(-c2c3nc(c(-c4ccccc4)c4ccc([nH]4)c(-c4ccccc4)c4nc(c(-c5ccccc5)c5ccc2[nH]5)C=C4)C=C3)cc1
REMARK SMILES IDX 20 1 19 2 18 3 17 4 2 5 1 6 3 7 4 8 15 9 16 10 5 11 6 12
REMARK SMILES IDX 7 13 8 14 9 15 13 16 10 17 12 18 14 19 11 20 21 21 22 22
REMARK SMILES IDX 23 23 24 24 25 25 26 26 27 27 28 28 29 29 30 30 76 31 31 32
REMARK SMILES IDX 75 33 32 34 33 35 34 36 69 37 35 38 74 39 68 40 70 41 36 42
REMARK SMILES IDX 73 43 67 44 66 45 37 47 59 48 44 49 58 50 45 51 48 52 57 53
REMARK SMILES IDX 71 54 46 55 47 56 56 58 72 59 49 60 38 61 39 62 43 63 40 64
REMARK SMILES IDX 42 65 41 66 60 67 61 68 65 69 62 70 64 71 63 72 50 73 51 74
REMARK SMILES IDX 55 75 52 76 54 77 53 78
REMARK H PARENT 70 46 48 57
REMARK Flexibility Score: inf
ROOT
ATOM      1  O   UNL A   1      33.763  30.470  27.415  1.00  0.00    -0.376 OA
ENDROOT
BRANCH   1   2
ATOM      2  C   UNL A   1      32.447  30.454  26.931  1.00  0.00     0.202 C 
BRANCH   2   3
ATOM      3  C   UNL A   1      31.808  29.196  26.355  1.00  0.00     0.261 C 
BRANCH   3   4
ATOM      4  O   UNL A   1      31.658  29.091  24.933  1.00  0.00    -0.463 OA
BRANCH   4   5
ATOM      5  C   UNL A   1      32.354  28.321  24.077  1.00  0.00     0.306 C 
ATOM      6  O   UNL A   1      33.424  28.739  23.633  1.00  0.00    -0.252 OA
BRANCH   5   7
ATOM      7  C   UNL A   1      31.734  27.047  23.534  1.00  0.00     0.130 C 
BRANCH   7   8
ATOM      8  C   UNL A   1      31.496  25.904  24.498  1.00  0.00    -0.010 C 
ATOM      9  C   UNL A   1      30.177  25.894  25.267  1.00  0.00     0.009 C 
ATOM     10  C   UNL A   1      30.365  24.942  24.140  1.00  0.00     0.009 C 
BRANCH   8  11
ATOM     11  C   UNL A   1      32.732  25.313  25.143  1.00  0.00     0.077 C 
BRANCH  11  12
ATOM     12  S   UNL A   1      33.978  24.788  23.927  1.00  0.00    -0.161 SA
BRANCH  12  13
ATOM     13  C   UNL A   1      33.589  23.012  23.813  1.00  0.00     0.073 C 
BRANCH  13  14
ATOM     14  C   UNL A   1      34.905  22.261  23.834  1.00  0.00     0.002 C 
ATOM     15  C   UNL A   1      36.156  23.144  23.686  1.00  0.00     0.008 C 
ATOM     16  C   UNL A   1      35.167  21.483  25.145  1.00  0.00    -0.007 C 
ATOM     17  C   UNL A   1      37.016  22.690  24.875  1.00  0.00    -0.011 C 
ATOM     18  C   UNL A   1      35.154  22.411  26.371  1.00  0.00     0.004 C 
ATOM     19  C   UNL A   1      36.658  21.205  24.998  1.00  0.00     0.007 C 
ATOM     20  C   UNL A   1      36.397  23.284  26.151  1.00  0.00     0.004 C 
ENDBRANCH  13  14
ENDBRANCH  12  13
ENDBRANCH  11  12
ENDBRANCH   8  11
ENDBRANCH   7   8
ENDBRANCH   5   7
ENDBRANCH   4   5
ENDBRANCH   3   4
ENDBRANCH   2   3
ENDBRANCH   1   2
BRANCH   1  21
ATOM     21  C   UNL A   1      34.384  31.607  27.960  1.00  0.00     0.188 C 
BRANCH  21  22
ATOM     22  C   UNL A   1      33.601  32.909  27.780  1.00  0.00     0.188 C 
BRANCH  22  23
ATOM     23  O   UNL A   1      34.292  34.150  27.780  1.00  0.00    -0.376 OA
BRANCH  23  24
ATOM     24  C   UNL A   1      34.273  34.966  28.939  1.00  0.00     0.202 C 
BRANCH  24  25
ATOM     25  C   UNL A   1      32.908  35.328  29.557  1.00  0.00     0.261 C 
BRANCH  25  26
ATOM     26  O   UNL A   1      32.893  36.323  30.608  1.00  0.00    -0.460 OA
BRANCH  26  27
ATOM     27  C   UNL A   1      32.601  35.894  31.862  1.00  0.00     0.338 C 
ATOM     28  O   UNL A   1      31.519  35.999  32.434  1.00  0.00    -0.246 OA
BRANCH  27  29
ATOM     29  C   UNL A   1      33.728  35.122  32.458  1.00  0.00     0.060 A 
ATOM     30  C   UNL A   1      35.008  35.699  32.492  1.00  0.00     0.016 A 
ATOM     31  C   UNL A   1      33.560  33.813  32.913  1.00  0.00     0.016 A 
ATOM     32  C   UNL A   1      36.119  34.967  32.941  1.00  0.00     0.010 A 
ATOM     33  C   UNL A   1      34.678  33.071  33.340  1.00  0.00     0.010 A 
ATOM     34  C   UNL A   1      35.973  33.629  33.330  1.00  0.00    -0.014 A 
BRANCH  34  35
ATOM     35  C   UNL A   1      37.168  32.768  33.583  1.00  0.00     0.031 A 
ATOM     36  C   UNL A   1      37.975  32.982  34.843  1.00  0.00     0.074 A 
ATOM     37  C   UNL A   1      37.555  31.808  32.720  1.00  0.00     0.049 A 
ATOM     38  N   UNL A   1      39.102  32.425  35.216  1.00  0.00    -0.248 NA
ATOM     39  C   UNL A   1      37.438  33.954  35.807  1.00  0.00     0.031 C 
ATOM     40  C   UNL A   1      36.855  31.436  31.493  1.00  0.00     0.029 A 
ATOM     41  N   UNL A   1      38.656  30.980  32.741  1.00  0.00    -0.354 N 
ATOM     42  C   UNL A   1      39.415  32.990  36.447  1.00  0.00     0.074 A 
ATOM     43  C   UNL A   1      38.371  33.946  36.749  1.00  0.00     0.031 C 
ATOM     44  C   UNL A   1      37.552  30.469  30.868  1.00  0.00     0.029 A 
ATOM     45  C   UNL A   1      38.770  30.181  31.627  1.00  0.00     0.049 A 
ATOM     46  H   UNL A   1      39.301  30.960  33.485  1.00  0.00     0.167 HD
ATOM     47  C   UNL A   1      40.476  32.742  37.255  1.00  0.00     0.031 A 
ATOM     48  C   UNL A   1      39.754  29.342  31.242  1.00  0.00     0.031 A 
ATOM     49  C   UNL A   1      41.526  31.800  36.969  1.00  0.00     0.049 A 
ATOM     50  C   UNL A   1      40.973  29.156  32.115  1.00  0.00     0.074 A 
ATOM     51  C   UNL A   1      42.623  31.470  37.749  1.00  0.00     0.029 A 
ATOM     52  N   UNL A   1      41.620  31.046  35.812  1.00  0.00    -0.354 N 
ATOM     53  N   UNL A   1      41.240  29.676  33.287  1.00  0.00    -0.248 NA
ATOM     54  C   UNL A   1      42.027  28.263  31.605  1.00  0.00     0.031 C 
ATOM     55  C   UNL A   1      43.416  30.570  37.033  1.00  0.00     0.029 A 
ATOM     56  C   UNL A   1      42.777  30.283  35.839  1.00  0.00     0.049 A 
ATOM     57  H   UNL A   1      40.963  31.049  35.078  1.00  0.00     0.167 HD
ATOM     58  C   UNL A   1      42.472  29.151  33.666  1.00  0.00     0.074 A 
ATOM     59  C   UNL A   1      42.891  28.255  32.610  1.00  0.00     0.031 C 
ATOM     60  C   UNL A   1      43.193  29.391  34.789  1.00  0.00     0.031 A 
BRANCH  47  61
ATOM     61  C   UNL A   1      40.585  33.533  38.531  1.00  0.00    -0.014 A 
ATOM     62  C   UNL A   1      41.249  34.769  38.572  1.00  0.00     0.009 A 
ATOM     63  C   UNL A   1      39.941  33.070  39.690  1.00  0.00     0.009 A 
ATOM     64  C   UNL A   1      41.284  35.513  39.754  1.00  0.00     0.001 A 
ATOM     65  C   UNL A   1      39.954  33.828  40.862  1.00  0.00     0.001 A 
ATOM     66  C   UNL A   1      40.630  35.046  40.895  1.00  0.00     0.000 A 
ENDBRANCH  47  61
BRANCH  48  67
ATOM     67  C   UNL A   1      39.674  28.633  29.933  1.00  0.00    -0.014 A 
ATOM     68  C   UNL A   1      39.251  27.296  29.860  1.00  0.00     0.009 A 
ATOM     69  C   UNL A   1      40.090  29.273  28.753  1.00  0.00     0.009 A 
ATOM     70  C   UNL A   1      39.282  26.606  28.645  1.00  0.00     0.001 A 
ATOM     71  C   UNL A   1      40.085  28.592  27.534  1.00  0.00     0.001 A 
ATOM     72  C   UNL A   1      39.695  27.256  27.482  1.00  0.00     0.000 A 
ENDBRANCH  48  67
BRANCH  60  73
ATOM     73  C   UNL A   1      44.492  28.649  34.960  1.00  0.00    -0.014 A 
ATOM     74  C   UNL A   1      44.533  27.361  35.518  1.00  0.00     0.009 A 
ATOM     75  C   UNL A   1      45.690  29.231  34.516  1.00  0.00     0.009 A 
ATOM     76  C   UNL A   1      45.750  26.690  35.660  1.00  0.00     0.001 A 
ATOM     77  C   UNL A   1      46.901  28.545  34.629  1.00  0.00     0.001 A 
ATOM     78  C   UNL A   1      46.931  27.279  35.211  1.00  0.00     0.000 A 
ENDBRANCH  60  73
ENDBRANCH  34  35
ENDBRANCH  27  29
ENDBRANCH  26  27
ENDBRANCH  25  26
ENDBRANCH  24  25
ENDBRANCH  23  24
ENDBRANCH  22  23
ENDBRANCH  21  22
ENDBRANCH   1  21
TORSDOF 22
ENDMDL
MODEL 3
REMARK VINA RESULT:      -8.8      6.805     12.593
REMARK SMILES O=C(CC1(CSC[C@H]2C[C@H]3CC[C@@H]2C3)CC1)OCCOCCOCCOC(=O)c1ccc(-c2c3nc(c(-c4ccccc4)c4ccc([nH]4)c(-c4ccccc4)c4nc(c(-c5ccccc5)c5ccc2[nH]5)C=C4)C=C3)cc1
REMARK SMILES IDX 20 1 19 2 18 3 17 4 2 5 1 6 3 7 4 8 15 9 16 10 5 11 6 12
REMARK SMILES IDX 7 13 8 14 9 15 13 16 10 17 12 18 14 19 11 20 21 21 22 22
REMARK SMILES IDX 23 23 24 24 25 25 26 26 27 27 28 28 29 29 30 30 76 31 31 32
REMARK SMILES IDX 75 33 32 34 33 35 34 36 69 37 35 38 74 39 68 40 70 41 36 42
REMARK SMILES IDX 73 43 67 44 66 45 37 47 59 48 44 49 58 50 45 51 48 52 57 53
REMARK SMILES IDX 71 54 46 55 47 56 56 58 72 59 49 60 38 61 39 62 43 63 40 64
REMARK SMILES IDX 42 65 41 66 60 67 61 68 65 69 62 70 64 71 63 72 50 73 51 74
REMARK SMILES IDX 55 75 52 76 54 77 53 78
REMARK H PARENT 70 46 48 57
REMARK Flexibility Score: inf
ROOT
ATOM      1  O   UNL A   1      45.556  24.484  25.460  1.00  0.00    -0.376 OA
ENDROOT
BRANCH   1   2
ATOM      2  C   UNL A   1      45.332  25.843  25.199  1.00  0.00     0.202 C 
BRANCH   2   3
ATOM      3  C   UNL A   1      46.448  26.880  25.275  1.00  0.00     0.261 C 
BRANCH   3   4
ATOM      4  O   UNL A   1      46.303  27.978  26.185  1.00  0.00    -0.463 OA
BRANCH   4   5
ATOM      5  C   UNL A   1      46.067  29.272  25.899  1.00  0.00     0.306 C 
ATOM      6  O   UNL A   1      46.533  29.749  24.864  1.00  0.00    -0.252 OA
BRANCH   5   7
ATOM      7  C   UNL A   1      45.395  30.161  26.930  1.00  0.00     0.130 C 
BRANCH   7   8
ATOM      8  C   UNL A   1      46.194  31.309  27.509  1.00  0.00    -0.010 C 
ATOM      9  C   UNL A   1      45.979  31.644  28.982  1.00  0.00     0.009 C 
ATOM     10  C   UNL A   1      47.226  30.944  28.574  1.00  0.00     0.009 C 
BRANCH   8  11
ATOM     11  C   UNL A   1      46.555  32.418  26.543  1.00  0.00     0.077 C 
BRANCH  11  12
ATOM     12  S   UNL A   1      46.238  34.074  27.223  1.00  0.00    -0.161 SA
BRANCH  12  13
ATOM     13  C   UNL A   1      44.854  34.600  26.161  1.00  0.00     0.073 C 
BRANCH  13  14
ATOM     14  C   UNL A   1      43.596  34.548  27.004  1.00  0.00     0.002 C 
ATOM     15  C   UNL A   1      43.831  34.616  28.522  1.00  0.00     0.008 C 
ATOM     16  C   UNL A   1      42.611  35.711  26.739  1.00  0.00    -0.007 C 
ATOM     17  C   UNL A   1      42.879  35.745  28.947  1.00  0.00    -0.011 C 
ATOM     18  C   UNL A   1      43.267  37.081  26.985  1.00  0.00     0.004 C 
ATOM     19  C   UNL A   1      41.714  35.587  27.965  1.00  0.00     0.007 C 
ATOM     20  C   UNL A   1      43.506  37.076  28.501  1.00  0.00     0.004 C 
ENDBRANCH  13  14
ENDBRANCH  12  13
ENDBRANCH  11  12
ENDBRANCH   8  11
ENDBRANCH   7   8
ENDBRANCH   5   7
ENDBRANCH   4   5
ENDBRANCH   3   4
ENDBRANCH   2   3
ENDBRANCH   1   2
BRANCH   1  21
ATOM     21  C   UNL A   1      46.416  23.672  24.703  1.00  0.00     0.188 C 
BRANCH  21  22
ATOM     22  C   UNL A   1      45.874  22.272  24.404  1.00  0.00     0.188 C 
BRANCH  22  23
ATOM     23  O   UNL A   1      46.289  21.173  25.202  1.00  0.00    -0.376 OA
BRANCH  23  24
ATOM     24  C   UNL A   1      46.015  19.850  24.773  1.00  0.00     0.202 C 
BRANCH  24  25
ATOM     25  C   UNL A   1      44.543  19.420  24.616  1.00  0.00     0.261 C 
BRANCH  25  26
ATOM     26  O   UNL A   1      43.781  19.190  25.824  1.00  0.00    -0.460 OA
BRANCH  26  27
ATOM     27  C   UNL A   1      42.488  19.602  25.828  1.00  0.00     0.338 C 
ATOM     28  O   UNL A   1      41.512  18.938  25.489  1.00  0.00    -0.246 OA
BRANCH  27  29
ATOM     29  C   UNL A   1      42.340  20.950  26.444  1.00  0.00     0.060 A 
ATOM     30  C   UNL A   1      42.480  22.089  25.635  1.00  0.00     0.016 A 
ATOM     31  C   UNL A   1      42.141  21.112  27.817  1.00  0.00     0.016 A 
ATOM     32  C   UNL A   1      42.459  23.378  26.192  1.00  0.00     0.010 A 
ATOM     33  C   UNL A   1      42.145  22.403  28.378  1.00  0.00     0.010 A 
ATOM     34  C   UNL A   1      42.334  23.548  27.576  1.00  0.00    -0.014 A 
BRANCH  34  35
ATOM     35  C   UNL A   1      42.546  24.885  28.209  1.00  0.00     0.031 A 
ATOM     36  C   UNL A   1      43.892  25.206  28.817  1.00  0.00     0.074 A 
ATOM     37  C   UNL A   1      41.573  25.816  28.262  1.00  0.00     0.049 A 
ATOM     38  N   UNL A   1      44.267  26.257  29.506  1.00  0.00    -0.248 NA
ATOM     39  C   UNL A   1      44.954  24.206  28.623  1.00  0.00     0.031 C 
ATOM     40  C   UNL A   1      40.242  25.687  27.672  1.00  0.00     0.029 A 
ATOM     41  N   UNL A   1      41.554  27.055  28.862  1.00  0.00    -0.354 N 
ATOM     42  C   UNL A   1      45.599  26.038  29.839  1.00  0.00     0.074 A 
ATOM     43  C   UNL A   1      45.961  24.747  29.294  1.00  0.00     0.031 C 
ATOM     44  C   UNL A   1      39.529  26.793  27.957  1.00  0.00     0.029 A 
ATOM     45  C   UNL A   1      40.337  27.691  28.785  1.00  0.00     0.049 A 
ATOM     46  H   UNL A   1      42.340  27.451  29.305  1.00  0.00     0.167 HD
ATOM     47  C   UNL A   1      46.447  26.833  30.537  1.00  0.00     0.031 A 
ATOM     48  C   UNL A   1      39.907  28.843  29.341  1.00  0.00     0.031 A 
ATOM     49  C   UNL A   1      46.103  28.116  31.091  1.00  0.00     0.049 A 
ATOM     50  C   UNL A   1      40.843  29.663  30.197  1.00  0.00     0.074 A 
ATOM     51  C   UNL A   1      46.912  28.998  31.789  1.00  0.00     0.029 A 
ATOM     52  N   UNL A   1      44.848  28.698  31.022  1.00  0.00    -0.354 N 
ATOM     53  N   UNL A   1      42.106  29.456  30.478  1.00  0.00    -0.248 NA
ATOM     54  C   UNL A   1      40.288  30.881  30.811  1.00  0.00     0.031 C 
ATOM     55  C   UNL A   1      46.130  30.079  32.203  1.00  0.00     0.029 A 
ATOM     56  C   UNL A   1      44.853  29.907  31.701  1.00  0.00     0.049 A 
ATOM     57  H   UNL A   1      44.070  28.312  30.559  1.00  0.00     0.167 HD
ATOM     58  C   UNL A   1      42.501  30.528  31.272  1.00  0.00     0.074 A 
ATOM     59  C   UNL A   1      41.352  31.396  31.411  1.00  0.00     0.031 C 
ATOM     60  C   UNL A   1      43.709  30.771  31.837  1.00  0.00     0.031 A 
BRANCH  47  61
ATOM     61  C   UNL A   1      47.842  26.325  30.783  1.00  0.00    -0.014 A 
ATOM     62  C   UNL A   1      48.870  26.525  29.848  1.00  0.00     0.009 A 
ATOM     63  C   UNL A   1      48.149  25.709  32.007  1.00  0.00     0.009 A 
ATOM     64  C   UNL A   1      50.171  26.096  30.127  1.00  0.00     0.001 A 
ATOM     65  C   UNL A   1      49.454  25.308  32.295  1.00  0.00     0.001 A 
ATOM     66  C   UNL A   1      50.463  25.496  31.352  1.00  0.00     0.000 A 
ENDBRANCH  47  61
BRANCH  48  67
ATOM     67  C   UNL A   1      38.495  29.288  29.163  1.00  0.00    -0.014 A 
ATOM     68  C   UNL A   1      38.093  29.965  28.000  1.00  0.00     0.009 A 
ATOM     69  C   UNL A   1      37.556  29.098  30.190  1.00  0.00     0.009 A 
ATOM     70  C   UNL A   1      36.796  30.474  27.887  1.00  0.00     0.001 A 
ATOM     71  C   UNL A   1      36.251  29.576  30.060  1.00  0.00     0.001 A 
ATOM     72  C   UNL A   1      35.875  30.276  28.915  1.00  0.00     0.000 A 
ENDBRANCH  48  67
BRANCH  60  73
ATOM     73  C   UNL A   1      43.870  32.042  32.628  1.00  0.00    -0.014 A 
ATOM     74  C   UNL A   1      43.648  32.077  34.014  1.00  0.00     0.009 A 
ATOM     75  C   UNL A   1      44.295  33.215  31.983  1.00  0.00     0.009 A 
ATOM     76  C   UNL A   1      43.810  33.266  34.728  1.00  0.00     0.001 A 
ATOM     77  C   UNL A   1      44.488  34.395  32.704  1.00  0.00     0.001 A 
ATOM     78  C   UNL A   1      44.235  34.422  34.074  1.00  0.00     0.000 A 
ENDBRANCH  60  73
ENDBRANCH  34  35
ENDBRANCH  27  29
ENDBRANCH  26  27
ENDBRANCH  25  26
ENDBRANCH  24  25
ENDBRANCH  23  24
ENDBRANCH  22  23
ENDBRANCH  21  22
ENDBRANCH   1  21
TORSDOF 22
ENDMDL
