MODEL 1
REMARK VINA RESULT:      -8.9      0.000      0.000
REMARK SMILES C[C@H]([NH2+]CC1(O)CCCC1)[C@H](C)C(=O)OCCOCCOCCOC(=O)c1ccc(-c2c3nc(c(-c4ccccc4)c4ccc([nH]4)c(-c4ccccc4)c4nc(c(-c5ccccc5)c5ccc2[nH]5)C=C4)C=C3)cc1
REMARK SMILES IDX 18 1 17 2 16 3 15 4 13 5 14 6 11 7 12 8 2 9 1 10 3 11 4 14
REMARK SMILES IDX 5 15 7 16 10 17 8 18 9 19 6 20 19 22 20 23 21 24 22 25 23 26
REMARK SMILES IDX 24 27 25 28 26 29 27 30 28 31 74 32 29 33 73 34 30 35 31 36
REMARK SMILES IDX 32 37 67 38 33 39 72 40 66 41 68 42 34 43 71 44 65 45 64 46
REMARK SMILES IDX 35 48 57 49 42 50 56 51 43 52 46 53 55 54 69 55 44 56 45 57
REMARK SMILES IDX 54 59 70 60 47 61 36 62 37 63 41 64 38 65 40 66 39 67 58 68
REMARK SMILES IDX 59 69 63 70 60 71 62 72 61 73 48 74 49 75 53 76 50 77 52 78
REMARK SMILES IDX 51 79
REMARK H PARENT 3 12 3 13 6 21 68 47 46 58
REMARK Flexibility Score: inf
ROOT
ATOM      1  O   UNL A   1      31.521  29.392  27.262  1.00  0.00    -0.376 OA
ENDROOT
BRANCH   1   2
ATOM      2  C   UNL A   1      32.057  28.105  27.527  1.00  0.00     0.202 C 
BRANCH   2   3
ATOM      3  C   UNL A   1      32.874  27.406  26.429  1.00  0.00     0.261 C 
BRANCH   3   4
ATOM      4  O   UNL A   1      32.800  25.964  26.362  1.00  0.00    -0.463 OA
BRANCH   4   5
ATOM      5  C   UNL A   1      31.598  25.436  26.001  1.00  0.00     0.314 C 
ATOM      6  O   UNL A   1      30.937  24.684  26.709  1.00  0.00    -0.252 OA
BRANCH   5   7
ATOM      7  C   UNL A   1      31.160  25.785  24.580  1.00  0.00     0.154 C 
ATOM      8  C   UNL A   1      30.917  24.603  23.627  1.00  0.00     0.026 C 
BRANCH   7   9
ATOM      9  C   UNL A   1      30.048  26.874  24.540  1.00  0.00     0.193 C 
ATOM     10  C   UNL A   1      28.720  26.455  23.907  1.00  0.00     0.076 C 
BRANCH   9  11
ATOM     11  N   UNL A   1      30.542  28.067  23.857  1.00  0.00    -0.341 N 
ATOM     12  H   UNL A   1      31.549  27.968  23.734  1.00  0.00     0.346 HD
ATOM     13  H   UNL A   1      30.286  28.862  24.442  1.00  0.00     0.346 HD
BRANCH  11  14
ATOM     14  C   UNL A   1      29.941  28.308  22.543  1.00  0.00     0.296 C 
BRANCH  14  15
ATOM     15  C   UNL A   1      29.425  29.756  22.531  1.00  0.00     0.113 C 
ATOM     16  C   UNL A   1      29.820  30.545  23.786  1.00  0.00     0.041 C 
ATOM     17  C   UNL A   1      27.904  29.866  22.544  1.00  0.00     0.041 C 
ATOM     18  C   UNL A   1      28.868  31.738  23.798  1.00  0.00     0.003 C 
ATOM     19  C   UNL A   1      27.644  31.308  22.986  1.00  0.00     0.003 C 
BRANCH  15  20
ATOM     20  O   UNL A   1      29.944  30.391  21.350  1.00  0.00    -0.384 OA
ATOM     21  H   UNL A   1      30.166  31.313  21.549  1.00  0.00     0.211 HD
ENDBRANCH  15  20
ENDBRANCH  14  15
ENDBRANCH  11  14
ENDBRANCH   9  11
ENDBRANCH   7   9
ENDBRANCH   5   7
ENDBRANCH   4   5
ENDBRANCH   3   4
ENDBRANCH   2   3
ENDBRANCH   1   2
BRANCH   1  22
ATOM     22  C   UNL A   1      32.300  30.339  26.539  1.00  0.00     0.188 C 
BRANCH  22  23
ATOM     23  C   UNL A   1      33.396  31.133  27.272  1.00  0.00     0.188 C 
BRANCH  23  24
ATOM     24  O   UNL A   1      33.006  32.432  27.649  1.00  0.00    -0.376 OA
BRANCH  24  25
ATOM     25  C   UNL A   1      34.013  33.346  28.018  1.00  0.00     0.202 C 
BRANCH  25  26
ATOM     26  C   UNL A   1      34.362  33.442  29.510  1.00  0.00     0.261 C 
BRANCH  26  27
ATOM     27  O   UNL A   1      34.750  32.218  30.162  1.00  0.00    -0.460 OA
BRANCH  27  28
ATOM     28  C   UNL A   1      35.748  32.289  31.076  1.00  0.00     0.338 C 
ATOM     29  O   UNL A   1      35.709  32.833  32.158  1.00  0.00    -0.246 OA
BRANCH  28  30
ATOM     30  C   UNL A   1      36.846  31.397  30.619  1.00  0.00     0.060 A 
ATOM     31  C   UNL A   1      37.343  30.422  31.498  1.00  0.00     0.016 A 
ATOM     32  C   UNL A   1      37.385  31.523  29.338  1.00  0.00     0.016 A 
ATOM     33  C   UNL A   1      38.410  29.605  31.113  1.00  0.00     0.010 A 
ATOM     34  C   UNL A   1      38.466  30.718  28.962  1.00  0.00     0.010 A 
ATOM     35  C   UNL A   1      39.012  29.783  29.861  1.00  0.00    -0.014 A 
BRANCH  35  36
ATOM     36  C   UNL A   1      40.340  29.178  29.575  1.00  0.00     0.031 A 
ATOM     37  C   UNL A   1      41.559  30.053  29.712  1.00  0.00     0.074 A 
ATOM     38  C   UNL A   1      40.481  27.892  29.206  1.00  0.00     0.049 A 
ATOM     39  N   UNL A   1      42.812  29.789  29.438  1.00  0.00    -0.248 NA
ATOM     40  C   UNL A   1      41.329  31.415  30.222  1.00  0.00     0.031 C 
ATOM     41  C   UNL A   1      39.403  26.915  29.090  1.00  0.00     0.029 A 
ATOM     42  N   UNL A   1      41.611  27.193  28.851  1.00  0.00    -0.354 N 
ATOM     43  C   UNL A   1      43.512  30.955  29.726  1.00  0.00     0.074 A 
ATOM     44  C   UNL A   1      42.545  31.934  30.166  1.00  0.00     0.031 C 
ATOM     45  C   UNL A   1      39.920  25.743  28.677  1.00  0.00     0.029 A 
ATOM     46  C   UNL A   1      41.358  25.899  28.463  1.00  0.00     0.049 A 
ATOM     47  H   UNL A   1      42.515  27.581  28.872  1.00  0.00     0.167 HD
ATOM     48  C   UNL A   1      44.843  31.192  29.639  1.00  0.00     0.031 A 
ATOM     49  C   UNL A   1      42.189  24.958  27.969  1.00  0.00     0.031 A 
ATOM     50  C   UNL A   1      45.810  30.228  29.186  1.00  0.00     0.049 A 
ATOM     51  C   UNL A   1      43.654  25.275  27.792  1.00  0.00     0.074 A 
ATOM     52  C   UNL A   1      47.181  30.373  29.069  1.00  0.00     0.029 A 
ATOM     53  N   UNL A   1      45.506  28.942  28.769  1.00  0.00    -0.354 N 
ATOM     54  N   UNL A   1      44.308  26.373  28.082  1.00  0.00    -0.248 NA
ATOM     55  C   UNL A   1      44.496  24.211  27.224  1.00  0.00     0.031 C 
ATOM     56  C   UNL A   1      47.700  29.197  28.520  1.00  0.00     0.029 A 
ATOM     57  C   UNL A   1      46.662  28.292  28.367  1.00  0.00     0.049 A 
ATOM     58  H   UNL A   1      44.603  28.549  28.757  1.00  0.00     0.167 HD
ATOM     59  C   UNL A   1      45.640  26.117  27.772  1.00  0.00     0.074 A 
ATOM     60  C   UNL A   1      45.702  24.757  27.282  1.00  0.00     0.031 C 
ATOM     61  C   UNL A   1      46.716  26.935  27.888  1.00  0.00     0.031 A 
BRANCH  48  62
ATOM     62  C   UNL A   1      45.323  32.570  30.002  1.00  0.00    -0.014 A 
ATOM     63  C   UNL A   1      45.392  33.597  29.047  1.00  0.00     0.009 A 
ATOM     64  C   UNL A   1      45.688  32.851  31.327  1.00  0.00     0.009 A 
ATOM     65  C   UNL A   1      45.854  34.865  29.404  1.00  0.00     0.001 A 
ATOM     66  C   UNL A   1      46.118  34.129  31.689  1.00  0.00     0.001 A 
ATOM     67  C   UNL A   1      46.212  35.131  30.726  1.00  0.00     0.000 A 
ENDBRANCH  48  62
BRANCH  49  68
ATOM     68  C   UNL A   1      41.663  23.621  27.577  1.00  0.00    -0.014 A 
ATOM     69  C   UNL A   1      41.572  22.582  28.517  1.00  0.00     0.009 A 
ATOM     70  C   UNL A   1      41.291  23.362  26.248  1.00  0.00     0.009 A 
ATOM     71  C   UNL A   1      41.152  21.307  28.129  1.00  0.00     0.001 A 
ATOM     72  C   UNL A   1      40.839  22.096  25.870  1.00  0.00     0.001 A 
ATOM     73  C   UNL A   1      40.782  21.066  26.807  1.00  0.00     0.000 A 
ENDBRANCH  49  68
BRANCH  61  74
ATOM     74  C   UNL A   1      48.066  26.366  27.539  1.00  0.00    -0.014 A 
ATOM     75  C   UNL A   1      48.872  25.731  28.496  1.00  0.00     0.009 A 
ATOM     76  C   UNL A   1      48.520  26.433  26.211  1.00  0.00     0.009 A 
ATOM     77  C   UNL A   1      50.119  25.213  28.141  1.00  0.00     0.001 A 
ATOM     78  C   UNL A   1      49.751  25.884  25.850  1.00  0.00     0.001 A 
ATOM     79  C   UNL A   1      50.556  25.284  26.818  1.00  0.00     0.000 A 
ENDBRANCH  61  74
ENDBRANCH  35  36
ENDBRANCH  28  30
ENDBRANCH  27  28
ENDBRANCH  26  27
ENDBRANCH  25  26
ENDBRANCH  24  25
ENDBRANCH  23  24
ENDBRANCH  22  23
ENDBRANCH   1  22
TORSDOF 22
ENDMDL
MODEL 2
REMARK VINA RESULT:      -8.4      2.082      2.458
REMARK SMILES C[C@H]([NH2+]CC1(O)CCCC1)[C@H](C)C(=O)OCCOCCOCCOC(=O)c1ccc(-c2c3nc(c(-c4ccccc4)c4ccc([nH]4)c(-c4ccccc4)c4nc(c(-c5ccccc5)c5ccc2[nH]5)C=C4)C=C3)cc1
REMARK SMILES IDX 18 1 17 2 16 3 15 4 13 5 14 6 11 7 12 8 2 9 1 10 3 11 4 14
REMARK SMILES IDX 5 15 7 16 10 17 8 18 9 19 6 20 19 22 20 23 21 24 22 25 23 26
REMARK SMILES IDX 24 27 25 28 26 29 27 30 28 31 74 32 29 33 73 34 30 35 31 36
REMARK SMILES IDX 32 37 67 38 33 39 72 40 66 41 68 42 34 43 71 44 65 45 64 46
REMARK SMILES IDX 35 48 57 49 42 50 56 51 43 52 46 53 55 54 69 55 44 56 45 57
REMARK SMILES IDX 54 59 70 60 47 61 36 62 37 63 41 64 38 65 40 66 39 67 58 68
REMARK SMILES IDX 59 69 63 70 60 71 62 72 61 73 48 74 49 75 53 76 50 77 52 78
REMARK SMILES IDX 51 79
REMARK H PARENT 3 12 3 13 6 21 68 47 46 58
REMARK Flexibility Score: inf
ROOT
ATOM      1  O   UNL A   1      31.563  29.398  27.238  1.00  0.00    -0.376 OA
ENDROOT
BRANCH   1   2
ATOM      2  C   UNL A   1      32.048  28.092  27.514  1.00  0.00     0.202 C 
BRANCH   2   3
ATOM      3  C   UNL A   1      32.844  27.356  26.424  1.00  0.00     0.261 C 
BRANCH   3   4
ATOM      4  O   UNL A   1      32.742  25.915  26.387  1.00  0.00    -0.463 OA
BRANCH   4   5
ATOM      5  C   UNL A   1      31.528  25.403  26.047  1.00  0.00     0.314 C 
ATOM      6  O   UNL A   1      30.861  24.673  26.773  1.00  0.00    -0.252 OA
BRANCH   5   7
ATOM      7  C   UNL A   1      31.081  25.738  24.625  1.00  0.00     0.154 C 
ATOM      8  C   UNL A   1      30.822  24.546  23.689  1.00  0.00     0.026 C 
BRANCH   7   9
ATOM      9  C   UNL A   1      29.978  26.834  24.580  1.00  0.00     0.193 C 
ATOM     10  C   UNL A   1      28.630  26.408  23.993  1.00  0.00     0.076 C 
BRANCH   9  11
ATOM     11  N   UNL A   1      30.463  28.002  23.850  1.00  0.00    -0.341 N 
ATOM     12  H   UNL A   1      31.463  27.884  23.690  1.00  0.00     0.346 HD
ATOM     13  H   UNL A   1      30.242  28.815  24.424  1.00  0.00     0.346 HD
BRANCH  11  14
ATOM     14  C   UNL A   1      29.816  28.222  22.554  1.00  0.00     0.296 C 
BRANCH  14  15
ATOM     15  C   UNL A   1      29.317  29.675  22.528  1.00  0.00     0.113 C 
ATOM     16  C   UNL A   1      29.795  30.496  23.734  1.00  0.00     0.041 C 
ATOM     17  C   UNL A   1      27.801  29.807  22.627  1.00  0.00     0.041 C 
ATOM     18  C   UNL A   1      28.859  31.702  23.765  1.00  0.00     0.003 C 
ATOM     19  C   UNL A   1      27.585  31.265  23.039  1.00  0.00     0.003 C 
BRANCH  15  20
ATOM     20  O   UNL A   1      29.773  30.268  21.300  1.00  0.00    -0.384 OA
ATOM     21  H   UNL A   1      30.018  31.193  21.457  1.00  0.00     0.211 HD
ENDBRANCH  15  20
ENDBRANCH  14  15
ENDBRANCH  11  14
ENDBRANCH   9  11
ENDBRANCH   7   9
ENDBRANCH   5   7
ENDBRANCH   4   5
ENDBRANCH   3   4
ENDBRANCH   2   3
ENDBRANCH   1   2
BRANCH   1  22
ATOM     22  C   UNL A   1      32.391  30.316  26.531  1.00  0.00     0.188 C 
BRANCH  22  23
ATOM     23  C   UNL A   1      33.559  30.999  27.262  1.00  0.00     0.188 C 
BRANCH  23  24
ATOM     24  O   UNL A   1      33.292  32.324  27.658  1.00  0.00    -0.376 OA
BRANCH  24  25
ATOM     25  C   UNL A   1      34.365  33.106  28.128  1.00  0.00     0.202 C 
BRANCH  25  26
ATOM     26  C   UNL A   1      34.616  33.116  29.643  1.00  0.00     0.261 C 
BRANCH  26  27
ATOM     27  O   UNL A   1      34.888  31.844  30.260  1.00  0.00    -0.460 OA
BRANCH  27  28
ATOM     28  C   UNL A   1      35.639  31.847  31.387  1.00  0.00     0.338 C 
ATOM     29  O   UNL A   1      35.316  32.263  32.479  1.00  0.00    -0.246 OA
BRANCH  28  30
ATOM     30  C   UNL A   1      36.867  31.054  31.117  1.00  0.00     0.060 A 
ATOM     31  C   UNL A   1      37.081  29.864  31.829  1.00  0.00     0.016 A 
ATOM     32  C   UNL A   1      37.802  31.481  30.172  1.00  0.00     0.016 A 
ATOM     33  C   UNL A   1      38.253  29.125  31.632  1.00  0.00     0.010 A 
ATOM     34  C   UNL A   1      38.982  30.752  29.991  1.00  0.00     0.010 A 
ATOM     35  C   UNL A   1      39.234  29.593  30.748  1.00  0.00    -0.014 A 
BRANCH  35  36
ATOM     36  C   UNL A   1      40.606  29.022  30.784  1.00  0.00     0.031 A 
ATOM     37  C   UNL A   1      41.618  29.672  31.691  1.00  0.00     0.074 A 
ATOM     38  C   UNL A   1      40.963  27.958  30.042  1.00  0.00     0.049 A 
ATOM     39  N   UNL A   1      42.895  29.418  31.837  1.00  0.00    -0.248 NA
ATOM     40  C   UNL A   1      41.121  30.761  32.548  1.00  0.00     0.031 C 
ATOM     41  C   UNL A   1      40.079  27.194  29.167  1.00  0.00     0.029 A 
ATOM     42  N   UNL A   1      42.186  27.343  29.908  1.00  0.00    -0.354 N 
ATOM     43  C   UNL A   1      43.352  30.326  32.784  1.00  0.00     0.074 A 
ATOM     44  C   UNL A   1      42.227  31.154  33.157  1.00  0.00     0.031 C 
ATOM     45  C   UNL A   1      40.792  26.218  28.574  1.00  0.00     0.029 A 
ATOM     46  C   UNL A   1      42.188  26.313  28.998  1.00  0.00     0.049 A 
ATOM     47  H   UNL A   1      42.984  27.614  30.415  1.00  0.00     0.167 HD
ATOM     48  C   UNL A   1      44.595  30.460  33.305  1.00  0.00     0.031 A 
ATOM     49  C   UNL A   1      43.205  25.553  28.542  1.00  0.00     0.031 A 
ATOM     50  C   UNL A   1      45.724  29.651  32.928  1.00  0.00     0.049 A 
ATOM     51  C   UNL A   1      44.601  25.782  29.068  1.00  0.00     0.074 A 
ATOM     52  C   UNL A   1      47.021  29.708  33.404  1.00  0.00     0.029 A 
ATOM     53  N   UNL A   1      45.689  28.645  31.976  1.00  0.00    -0.354 N 
ATOM     54  N   UNL A   1      45.019  26.631  29.975  1.00  0.00    -0.248 NA
ATOM     55  C   UNL A   1      45.666  24.935  28.508  1.00  0.00     0.031 C 
ATOM     56  C   UNL A   1      47.788  28.779  32.695  1.00  0.00     0.029 A 
ATOM     57  C   UNL A   1      46.950  28.091  31.831  1.00  0.00     0.049 A 
ATOM     58  H   UNL A   1      44.888  28.366  31.475  1.00  0.00     0.167 HD
ATOM     59  C   UNL A   1      46.381  26.392  30.123  1.00  0.00     0.074 A 
ATOM     60  C   UNL A   1      46.717  25.311  29.221  1.00  0.00     0.031 C 
ATOM     61  C   UNL A   1      47.274  27.010  30.936  1.00  0.00     0.031 A 
BRANCH  48  62
ATOM     62  C   UNL A   1      44.807  31.556  34.312  1.00  0.00    -0.014 A 
ATOM     63  C   UNL A   1      45.174  32.853  33.918  1.00  0.00     0.009 A 
ATOM     64  C   UNL A   1      44.610  31.294  35.677  1.00  0.00     0.009 A 
ATOM     65  C   UNL A   1      45.379  33.852  34.872  1.00  0.00     0.001 A 
ATOM     66  C   UNL A   1      44.782  32.302  36.626  1.00  0.00     0.001 A 
ATOM     67  C   UNL A   1      45.177  33.576  36.225  1.00  0.00     0.000 A 
ENDBRANCH  48  62
BRANCH  49  68
ATOM     68  C   UNL A   1      42.960  24.510  27.508  1.00  0.00    -0.014 A 
ATOM     69  C   UNL A   1      42.541  23.221  27.876  1.00  0.00     0.009 A 
ATOM     70  C   UNL A   1      43.188  24.783  26.150  1.00  0.00     0.009 A 
ATOM     71  C   UNL A   1      42.386  22.222  26.911  1.00  0.00     0.001 A 
ATOM     72  C   UNL A   1      43.001  23.792  25.185  1.00  0.00     0.001 A 
ATOM     73  C   UNL A   1      42.612  22.509  25.566  1.00  0.00     0.000 A 
ENDBRANCH  49  68
BRANCH  61  74
ATOM     74  C   UNL A   1      48.689  26.493  30.940  1.00  0.00    -0.014 A 
ATOM     75  C   UNL A   1      49.107  25.485  31.823  1.00  0.00     0.009 A 
ATOM     76  C   UNL A   1      49.611  27.002  30.010  1.00  0.00     0.009 A 
ATOM     77  C   UNL A   1      50.427  25.028  31.801  1.00  0.00     0.001 A 
ATOM     78  C   UNL A   1      50.919  26.519  29.966  1.00  0.00     0.001 A 
ATOM     79  C   UNL A   1      51.330  25.540  30.870  1.00  0.00     0.000 A 
ENDBRANCH  61  74
ENDBRANCH  35  36
ENDBRANCH  28  30
ENDBRANCH  27  28
ENDBRANCH  26  27
ENDBRANCH  25  26
ENDBRANCH  24  25
ENDBRANCH  23  24
ENDBRANCH  22  23
ENDBRANCH   1  22
TORSDOF 22
ENDMDL
MODEL 3
REMARK VINA RESULT:      -8.3      3.411      8.752
REMARK SMILES C[C@H]([NH2+]CC1(O)CCCC1)[C@H](C)C(=O)OCCOCCOCCOC(=O)c1ccc(-c2c3nc(c(-c4ccccc4)c4ccc([nH]4)c(-c4ccccc4)c4nc(c(-c5ccccc5)c5ccc2[nH]5)C=C4)C=C3)cc1
REMARK SMILES IDX 18 1 17 2 16 3 15 4 13 5 14 6 11 7 12 8 2 9 1 10 3 11 4 14
REMARK SMILES IDX 5 15 7 16 10 17 8 18 9 19 6 20 19 22 20 23 21 24 22 25 23 26
REMARK SMILES IDX 24 27 25 28 26 29 27 30 28 31 74 32 29 33 73 34 30 35 31 36
REMARK SMILES IDX 32 37 67 38 33 39 72 40 66 41 68 42 34 43 71 44 65 45 64 46
REMARK SMILES IDX 35 48 57 49 42 50 56 51 43 52 46 53 55 54 69 55 44 56 45 57
REMARK SMILES IDX 54 59 70 60 47 61 36 62 37 63 41 64 38 65 40 66 39 67 58 68
REMARK SMILES IDX 59 69 63 70 60 71 62 72 61 73 48 74 49 75 53 76 50 77 52 78
REMARK SMILES IDX 51 79
REMARK H PARENT 3 12 3 13 6 21 68 47 46 58
REMARK Flexibility Score: inf
ROOT
ATOM      1  O   UNL A   1      35.137  23.716  25.180  1.00  0.00    -0.376 OA
ENDROOT
BRANCH   1   2
ATOM      2  C   UNL A   1      34.903  25.010  25.716  1.00  0.00     0.202 C 
BRANCH   2   3
ATOM      3  C   UNL A   1      33.868  25.916  25.029  1.00  0.00     0.261 C 
BRANCH   3   4
ATOM      4  O   UNL A   1      32.761  25.271  24.360  1.00  0.00    -0.463 OA
BRANCH   4   5
ATOM      5  C   UNL A   1      31.670  24.994  25.127  1.00  0.00     0.314 C 
ATOM      6  O   UNL A   1      31.256  25.722  26.022  1.00  0.00    -0.252 OA
BRANCH   5   7
ATOM      7  C   UNL A   1      31.034  23.634  24.845  1.00  0.00     0.154 C 
ATOM      8  C   UNL A   1      30.811  23.274  23.367  1.00  0.00     0.026 C 
BRANCH   7   9
ATOM      9  C   UNL A   1      31.656  22.487  25.693  1.00  0.00     0.193 C 
ATOM     10  C   UNL A   1      32.109  22.866  27.105  1.00  0.00     0.076 C 
BRANCH   9  11
ATOM     11  N   UNL A   1      32.782  21.892  24.979  1.00  0.00    -0.341 N 
ATOM     12  H   UNL A   1      33.466  22.625  24.797  1.00  0.00     0.346 HD
ATOM     13  H   UNL A   1      32.400  21.480  24.129  1.00  0.00     0.346 HD
BRANCH  11  14
ATOM     14  C   UNL A   1      33.455  20.808  25.700  1.00  0.00     0.296 C 
BRANCH  14  15
ATOM     15  C   UNL A   1      33.348  19.543  24.833  1.00  0.00     0.113 C 
ATOM     16  C   UNL A   1      32.512  18.435  25.488  1.00  0.00     0.041 C 
ATOM     17  C   UNL A   1      34.683  18.844  24.598  1.00  0.00     0.041 C 
ATOM     18  C   UNL A   1      32.900  17.170  24.727  1.00  0.00     0.003 C 
ATOM     19  C   UNL A   1      34.287  17.438  24.141  1.00  0.00     0.003 C 
BRANCH  15  20
ATOM     20  O   UNL A   1      32.778  19.929  23.571  1.00  0.00    -0.384 OA
ATOM     21  H   UNL A   1      33.488  20.118  22.939  1.00  0.00     0.211 HD
ENDBRANCH  15  20
ENDBRANCH  14  15
ENDBRANCH  11  14
ENDBRANCH   9  11
ENDBRANCH   7   9
ENDBRANCH   5   7
ENDBRANCH   4   5
ENDBRANCH   3   4
ENDBRANCH   2   3
ENDBRANCH   1   2
BRANCH   1  22
ATOM     22  C   UNL A   1      36.452  23.356  24.772  1.00  0.00     0.188 C 
BRANCH  22  23
ATOM     23  C   UNL A   1      36.790  21.875  24.528  1.00  0.00     0.188 C 
BRANCH  23  24
ATOM     24  O   UNL A   1      38.061  21.492  24.996  1.00  0.00    -0.376 OA
BRANCH  24  25
ATOM     25  C   UNL A   1      38.207  20.201  25.540  1.00  0.00     0.202 C 
BRANCH  25  26
ATOM     26  C   UNL A   1      39.607  19.572  25.488  1.00  0.00     0.261 C 
BRANCH  26  27
ATOM     27  O   UNL A   1      40.715  20.438  25.793  1.00  0.00    -0.460 OA
BRANCH  27  28
ATOM     28  C   UNL A   1      41.108  20.515  27.088  1.00  0.00     0.338 C 
ATOM     29  O   UNL A   1      41.502  19.606  27.786  1.00  0.00    -0.246 OA
BRANCH  28  30
ATOM     30  C   UNL A   1      41.177  21.953  27.457  1.00  0.00     0.060 A 
ATOM     31  C   UNL A   1      40.463  22.888  26.692  1.00  0.00     0.016 A 
ATOM     32  C   UNL A   1      41.943  22.377  28.544  1.00  0.00     0.016 A 
ATOM     33  C   UNL A   1      40.552  24.253  26.985  1.00  0.00     0.010 A 
ATOM     34  C   UNL A   1      42.047  23.745  28.823  1.00  0.00     0.010 A 
ATOM     35  C   UNL A   1      41.386  24.694  28.021  1.00  0.00    -0.014 A 
BRANCH  35  36
ATOM     36  C   UNL A   1      41.759  26.129  28.122  1.00  0.00     0.031 A 
ATOM     37  C   UNL A   1      43.025  26.579  27.439  1.00  0.00     0.074 A 
ATOM     38  C   UNL A   1      41.010  27.023  28.793  1.00  0.00     0.049 A 
ATOM     39  N   UNL A   1      43.610  27.751  27.452  1.00  0.00    -0.248 NA
ATOM     40  C   UNL A   1      43.729  25.565  26.639  1.00  0.00     0.031 C 
ATOM     41  C   UNL A   1      39.736  26.745  29.450  1.00  0.00     0.029 A 
ATOM     42  N   UNL A   1      41.232  28.358  29.035  1.00  0.00    -0.354 N 
ATOM     43  C   UNL A   1      44.755  27.607  26.678  1.00  0.00     0.074 A 
ATOM     44  C   UNL A   1      44.799  26.231  26.237  1.00  0.00     0.031 C 
ATOM     45  C   UNL A   1      39.293  27.874  30.034  1.00  0.00     0.029 A 
ATOM     46  C   UNL A   1      40.270  28.942  29.825  1.00  0.00     0.049 A 
ATOM     47  H   UNL A   1      42.005  28.850  28.677  1.00  0.00     0.167 HD
ATOM     48  C   UNL A   1      45.687  28.535  26.356  1.00  0.00     0.031 A 
ATOM     49  C   UNL A   1      40.201  30.187  30.340  1.00  0.00     0.031 A 
ATOM     50  C   UNL A   1      45.659  29.902  26.804  1.00  0.00     0.049 A 
ATOM     51  C   UNL A   1      41.300  31.178  30.044  1.00  0.00     0.074 A 
ATOM     52  C   UNL A   1      46.555  30.918  26.525  1.00  0.00     0.029 A 
ATOM     53  N   UNL A   1      44.687  30.440  27.632  1.00  0.00    -0.354 N 
ATOM     54  N   UNL A   1      42.369  31.037  29.299  1.00  0.00    -0.248 NA
ATOM     55  C   UNL A   1      41.173  32.509  30.660  1.00  0.00     0.031 C 
ATOM     56  C   UNL A   1      46.162  32.055  27.237  1.00  0.00     0.029 A 
ATOM     57  C   UNL A   1      44.977  31.768  27.897  1.00  0.00     0.049 A 
ATOM     58  H   UNL A   1      43.907  29.951  27.983  1.00  0.00     0.167 HD
ATOM     59  C   UNL A   1      43.016  32.268  29.322  1.00  0.00     0.074 A 
ATOM     60  C   UNL A   1      42.215  33.147  30.146  1.00  0.00     0.031 C 
ATOM     61  C   UNL A   1      44.170  32.638  28.712  1.00  0.00     0.031 A 
BRANCH  48  62
ATOM     62  C   UNL A   1      46.844  28.085  25.508  1.00  0.00    -0.014 A 
ATOM     63  C   UNL A   1      48.038  27.620  26.084  1.00  0.00     0.009 A 
ATOM     64  C   UNL A   1      46.729  28.102  24.109  1.00  0.00     0.009 A 
ATOM     65  C   UNL A   1      49.105  27.220  25.276  1.00  0.00     0.001 A 
ATOM     66  C   UNL A   1      47.784  27.670  23.304  1.00  0.00     0.001 A 
ATOM     67  C   UNL A   1      48.974  27.241  23.887  1.00  0.00     0.000 A 
ENDBRANCH  48  62
BRANCH  49  68
ATOM     68  C   UNL A   1      39.061  30.577  31.214  1.00  0.00    -0.014 A 
ATOM     69  C   UNL A   1      37.950  31.253  30.686  1.00  0.00     0.009 A 
ATOM     70  C   UNL A   1      39.098  30.315  32.594  1.00  0.00     0.009 A 
ATOM     71  C   UNL A   1      36.918  31.686  31.522  1.00  0.00     0.001 A 
ATOM     72  C   UNL A   1      38.049  30.720  33.422  1.00  0.00     0.001 A 
ATOM     73  C   UNL A   1      36.966  31.416  32.888  1.00  0.00     0.000 A 
ENDBRANCH  49  68
BRANCH  61  74
ATOM     74  C   UNL A   1      44.606  34.073  28.856  1.00  0.00    -0.014 A 
ATOM     75  C   UNL A   1      44.550  34.975  27.783  1.00  0.00     0.009 A 
ATOM     76  C   UNL A   1      45.045  34.538  30.108  1.00  0.00     0.009 A 
ATOM     77  C   UNL A   1      44.962  36.300  27.949  1.00  0.00     0.001 A 
ATOM     78  C   UNL A   1      45.423  35.870  30.281  1.00  0.00     0.001 A 
ATOM     79  C   UNL A   1      45.392  36.748  29.198  1.00  0.00     0.000 A 
ENDBRANCH  61  74
ENDBRANCH  35  36
ENDBRANCH  28  30
ENDBRANCH  27  28
ENDBRANCH  26  27
ENDBRANCH  25  26
ENDBRANCH  24  25
ENDBRANCH  23  24
ENDBRANCH  22  23
ENDBRANCH   1  22
TORSDOF 22
ENDMDL
