MODEL 1
REMARK VINA RESULT:     -10.7      0.000      0.000
REMARK SMILES O=C(CSc1cc(-c2ccccc2)nc(-c2ccccc2F)n1)OCCOCCOCCOC(=O)c1ccc(-c2c3nc(c(-c4ccccc4)c4ccc([nH]4)c(-c4ccccc4)c4nc(c(-c5ccccc5)c5ccc2[nH]5)C=C4)C=C3)cc1
REMARK SMILES IDX 28 1 27 2 26 3 25 4 24 5 2 6 1 7 3 8 4 9 5 10 6 11 23 12
REMARK SMILES IDX 7 13 15 14 14 15 8 16 9 17 13 18 10 19 12 20 11 21 16 22
REMARK SMILES IDX 17 23 21 24 18 25 20 26 22 27 19 28 29 29 30 30 31 31 32 32
REMARK SMILES IDX 33 33 34 34 35 35 36 36 37 37 83 38 38 39 82 40 39 41 40 42
REMARK SMILES IDX 41 43 76 44 42 45 81 46 75 47 77 48 43 49 80 50 74 51 73 52
REMARK SMILES IDX 44 54 66 55 51 56 65 57 52 58 55 59 64 60 78 61 53 62 54 63
REMARK SMILES IDX 63 65 79 66 56 67 45 68 46 69 50 70 47 71 49 72 48 73 67 74
REMARK SMILES IDX 68 75 72 76 69 77 71 78 70 79 57 80 58 81 62 82 59 83 61 84
REMARK SMILES IDX 60 85
REMARK H PARENT 77 53 55 64
REMARK Flexibility Score: inf
ROOT
ATOM      1  C   UNL A   1      42.592  18.362  25.475  1.00  0.00     0.188 C 
ENDROOT
BRANCH   1   2
ATOM      2  O   UNL A   1      41.500  19.039  26.076  1.00  0.00    -0.376 OA
BRANCH   2   3
ATOM      3  C   UNL A   1      41.723  19.883  27.200  1.00  0.00     0.202 C 
BRANCH   3   4
ATOM      4  C   UNL A   1      41.147  21.302  27.203  1.00  0.00     0.261 C 
BRANCH   4   5
ATOM      5  O   UNL A   1      39.722  21.461  26.970  1.00  0.00    -0.463 OA
BRANCH   5   6
ATOM      6  C   UNL A   1      39.052  22.512  26.451  1.00  0.00     0.316 C 
ATOM      7  O   UNL A   1      39.541  23.639  26.546  1.00  0.00    -0.251 OA
BRANCH   6   8
ATOM      8  C   UNL A   1      37.722  22.302  25.769  1.00  0.00     0.199 C 
BRANCH   8   9
ATOM      9  S   UNL A   1      36.733  23.829  25.712  1.00  0.00    -0.094 SA
BRANCH   9  10
ATOM     10  C   UNL A   1      35.190  23.037  25.338  1.00  0.00     0.101 A 
ATOM     11  C   UNL A   1      35.133  21.695  25.068  1.00  0.00     0.064 A 
ATOM     12  N   UNL A   1      34.147  23.858  25.219  1.00  0.00    -0.222 NA
ATOM     13  C   UNL A   1      33.912  21.212  24.632  1.00  0.00     0.075 A 
ATOM     14  C   UNL A   1      32.994  23.305  24.817  1.00  0.00     0.163 A 
ATOM     15  N   UNL A   1      32.828  22.012  24.496  1.00  0.00    -0.228 NA
BRANCH  13  16
ATOM     16  C   UNL A   1      33.750  19.794  24.264  1.00  0.00     0.000 A 
ATOM     17  C   UNL A   1      32.634  19.352  23.535  1.00  0.00     0.010 A 
ATOM     18  C   UNL A   1      34.731  18.841  24.599  1.00  0.00     0.010 A 
ATOM     19  C   UNL A   1      32.512  18.014  23.143  1.00  0.00     0.001 A 
ATOM     20  C   UNL A   1      34.610  17.504  24.212  1.00  0.00     0.001 A 
ATOM     21  C   UNL A   1      33.501  17.093  23.480  1.00  0.00     0.000 A 
ENDBRANCH  13  16
BRANCH  14  22
ATOM     22  C   UNL A   1      31.871  24.226  24.764  1.00  0.00     0.055 A 
ATOM     23  C   UNL A   1      30.900  24.128  23.749  1.00  0.00     0.015 A 
ATOM     24  C   UNL A   1      31.816  25.330  25.619  1.00  0.00     0.134 A 
ATOM     25  C   UNL A   1      29.922  25.116  23.592  1.00  0.00     0.001 A 
ATOM     26  C   UNL A   1      30.847  26.321  25.465  1.00  0.00     0.040 A 
ATOM     27  F   UNL A   1      32.747  25.495  26.572  1.00  0.00    -0.206 F 
ATOM     28  C   UNL A   1      29.903  26.218  24.445  1.00  0.00     0.003 A 
ENDBRANCH  14  22
ENDBRANCH   9  10
ENDBRANCH   8   9
ENDBRANCH   6   8
ENDBRANCH   5   6
ENDBRANCH   4   5
ENDBRANCH   3   4
ENDBRANCH   2   3
ENDBRANCH   1   2
BRANCH   1  29
ATOM     29  C   UNL A   1      43.869  19.209  25.468  1.00  0.00     0.188 C 
BRANCH  29  30
ATOM     30  O   UNL A   1      43.844  20.347  24.610  1.00  0.00    -0.376 OA
BRANCH  30  31
ATOM     31  C   UNL A   1      45.095  20.986  24.338  1.00  0.00     0.202 C 
BRANCH  31  32
ATOM     32  C   UNL A   1      45.368  22.316  25.060  1.00  0.00     0.261 C 
BRANCH  32  33
ATOM     33  O   UNL A   1      44.600  23.431  24.552  1.00  0.00    -0.460 OA
BRANCH  33  34
ATOM     34  C   UNL A   1      45.048  24.654  24.934  1.00  0.00     0.338 C 
ATOM     35  O   UNL A   1      46.092  25.194  24.609  1.00  0.00    -0.246 OA
BRANCH  34  36
ATOM     36  C   UNL A   1      44.041  25.369  25.741  1.00  0.00     0.060 A 
ATOM     37  C   UNL A   1      44.124  26.765  25.823  1.00  0.00     0.016 A 
ATOM     38  C   UNL A   1      43.176  24.665  26.581  1.00  0.00     0.016 A 
ATOM     39  C   UNL A   1      43.380  27.455  26.783  1.00  0.00     0.010 A 
ATOM     40  C   UNL A   1      42.435  25.360  27.548  1.00  0.00     0.010 A 
ATOM     41  C   UNL A   1      42.567  26.754  27.683  1.00  0.00    -0.014 A 
BRANCH  41  42
ATOM     42  C   UNL A   1      41.983  27.467  28.849  1.00  0.00     0.031 A 
ATOM     43  C   UNL A   1      42.679  27.401  30.185  1.00  0.00     0.074 A 
ATOM     44  C   UNL A   1      40.871  28.213  28.719  1.00  0.00     0.049 A 
ATOM     45  N   UNL A   1      42.360  27.982  31.315  1.00  0.00    -0.248 NA
ATOM     46  C   UNL A   1      43.896  26.577  30.254  1.00  0.00     0.031 C 
ATOM     47  C   UNL A   1      40.111  28.392  27.484  1.00  0.00     0.029 A 
ATOM     48  N   UNL A   1      40.191  28.962  29.647  1.00  0.00    -0.354 N 
ATOM     49  C   UNL A   1      43.341  27.606  32.225  1.00  0.00     0.074 A 
ATOM     50  C   UNL A   1      44.245  26.717  31.525  1.00  0.00     0.031 C 
ATOM     51  C   UNL A   1      39.063  29.198  27.732  1.00  0.00     0.029 A 
ATOM     52  C   UNL A   1      39.071  29.576  29.145  1.00  0.00     0.049 A 
ATOM     53  H   UNL A   1      40.479  29.050  30.585  1.00  0.00     0.167 HD
ATOM     54  C   UNL A   1      43.489  27.972  33.522  1.00  0.00     0.031 A 
ATOM     55  C   UNL A   1      38.150  30.349  29.753  1.00  0.00     0.031 A 
ATOM     56  C   UNL A   1      42.588  28.835  34.238  1.00  0.00     0.049 A 
ATOM     57  C   UNL A   1      38.298  30.685  31.212  1.00  0.00     0.074 A 
ATOM     58  C   UNL A   1      42.661  29.255  35.556  1.00  0.00     0.029 A 
ATOM     59  N   UNL A   1      41.446  29.403  33.701  1.00  0.00    -0.354 N 
ATOM     60  N   UNL A   1      39.247  30.344  32.050  1.00  0.00    -0.248 NA
ATOM     61  C   UNL A   1      37.249  31.529  31.806  1.00  0.00     0.031 C 
ATOM     62  C   UNL A   1      41.540  30.047  35.828  1.00  0.00     0.029 A 
ATOM     63  C   UNL A   1      40.794  30.156  34.665  1.00  0.00     0.049 A 
ATOM     64  H   UNL A   1      41.142  29.291  32.772  1.00  0.00     0.167 HD
ATOM     65  C   UNL A   1      38.921  30.947  33.259  1.00  0.00     0.074 A 
ATOM     66  C   UNL A   1      37.699  31.692  33.042  1.00  0.00     0.031 C 
ATOM     67  C   UNL A   1      39.576  30.887  34.444  1.00  0.00     0.031 A 
BRANCH  54  68
ATOM     68  C   UNL A   1      44.676  27.423  34.260  1.00  0.00    -0.014 A 
ATOM     69  C   UNL A   1      44.600  26.194  34.934  1.00  0.00     0.009 A 
ATOM     70  C   UNL A   1      45.896  28.117  34.244  1.00  0.00     0.009 A 
ATOM     71  C   UNL A   1      45.716  25.683  35.600  1.00  0.00     0.001 A 
ATOM     72  C   UNL A   1      47.016  27.593  34.891  1.00  0.00     0.001 A 
ATOM     73  C   UNL A   1      46.924  26.380  35.574  1.00  0.00     0.000 A 
ENDBRANCH  54  68
BRANCH  55  74
ATOM     74  C   UNL A   1      36.981  30.854  28.988  1.00  0.00    -0.014 A 
ATOM     75  C   UNL A   1      36.895  32.205  28.618  1.00  0.00     0.009 A 
ATOM     76  C   UNL A   1      35.928  29.989  28.658  1.00  0.00     0.009 A 
ATOM     77  C   UNL A   1      35.760  32.684  27.958  1.00  0.00     0.001 A 
ATOM     78  C   UNL A   1      34.808  30.466  27.975  1.00  0.00     0.001 A 
ATOM     79  C   UNL A   1      34.721  31.814  27.634  1.00  0.00     0.000 A 
ENDBRANCH  55  74
BRANCH  67  80
ATOM     80  C   UNL A   1      38.996  31.668  35.589  1.00  0.00    -0.014 A 
ATOM     81  C   UNL A   1      39.263  33.038  35.744  1.00  0.00     0.009 A 
ATOM     82  C   UNL A   1      38.157  31.031  36.517  1.00  0.00     0.009 A 
ATOM     83  C   UNL A   1      38.731  33.744  36.825  1.00  0.00     0.001 A 
ATOM     84  C   UNL A   1      37.606  31.746  37.582  1.00  0.00     0.001 A 
ATOM     85  C   UNL A   1      37.903  33.099  37.741  1.00  0.00     0.000 A 
ENDBRANCH  67  80
ENDBRANCH  41  42
ENDBRANCH  34  36
ENDBRANCH  33  34
ENDBRANCH  32  33
ENDBRANCH  31  32
ENDBRANCH  30  31
ENDBRANCH  29  30
ENDBRANCH   1  29
TORSDOF 21
ENDMDL
MODEL 2
REMARK VINA RESULT:     -10.4      1.260      3.177
REMARK SMILES O=C(CSc1cc(-c2ccccc2)nc(-c2ccccc2F)n1)OCCOCCOCCOC(=O)c1ccc(-c2c3nc(c(-c4ccccc4)c4ccc([nH]4)c(-c4ccccc4)c4nc(c(-c5ccccc5)c5ccc2[nH]5)C=C4)C=C3)cc1
REMARK SMILES IDX 28 1 27 2 26 3 25 4 24 5 2 6 1 7 3 8 4 9 5 10 6 11 23 12
REMARK SMILES IDX 7 13 15 14 14 15 8 16 9 17 13 18 10 19 12 20 11 21 16 22
REMARK SMILES IDX 17 23 21 24 18 25 20 26 22 27 19 28 29 29 30 30 31 31 32 32
REMARK SMILES IDX 33 33 34 34 35 35 36 36 37 37 83 38 38 39 82 40 39 41 40 42
REMARK SMILES IDX 41 43 76 44 42 45 81 46 75 47 77 48 43 49 80 50 74 51 73 52
REMARK SMILES IDX 44 54 66 55 51 56 65 57 52 58 55 59 64 60 78 61 53 62 54 63
REMARK SMILES IDX 63 65 79 66 56 67 45 68 46 69 50 70 47 71 49 72 48 73 67 74
REMARK SMILES IDX 68 75 72 76 69 77 71 78 70 79 57 80 58 81 62 82 59 83 61 84
REMARK SMILES IDX 60 85
REMARK H PARENT 77 53 55 64
REMARK Flexibility Score: inf
ROOT
ATOM      1  C   UNL A   1      42.695  19.421  25.758  1.00  0.00     0.188 C 
ENDROOT
BRANCH   1   2
ATOM      2  O   UNL A   1      41.845  20.153  26.628  1.00  0.00    -0.376 OA
BRANCH   2   3
ATOM      3  C   UNL A   1      42.406  21.083  27.548  1.00  0.00     0.202 C 
BRANCH   3   4
ATOM      4  C   UNL A   1      41.876  22.518  27.585  1.00  0.00     0.261 C 
BRANCH   4   5
ATOM      5  O   UNL A   1      40.442  22.713  27.708  1.00  0.00    -0.463 OA
BRANCH   5   6
ATOM      6  C   UNL A   1      39.698  23.800  27.411  1.00  0.00     0.316 C 
ATOM      7  O   UNL A   1      40.082  24.909  27.786  1.00  0.00    -0.251 OA
BRANCH   6   8
ATOM      8  C   UNL A   1      38.414  23.651  26.631  1.00  0.00     0.199 C 
BRANCH   8   9
ATOM      9  S   UNL A   1      38.335  22.065  25.741  1.00  0.00    -0.094 SA
BRANCH   9  10
ATOM     10  C   UNL A   1      36.580  22.086  25.480  1.00  0.00     0.101 A 
ATOM     11  C   UNL A   1      35.853  23.233  25.662  1.00  0.00     0.064 A 
ATOM     12  N   UNL A   1      36.031  20.898  25.226  1.00  0.00    -0.222 NA
ATOM     13  C   UNL A   1      34.478  23.102  25.589  1.00  0.00     0.075 A 
ATOM     14  C   UNL A   1      34.694  20.862  25.146  1.00  0.00     0.163 A 
ATOM     15  N   UNL A   1      33.881  21.914  25.335  1.00  0.00    -0.228 NA
BRANCH  13  16
ATOM     16  C   UNL A   1      33.597  24.260  25.820  1.00  0.00     0.000 A 
ATOM     17  C   UNL A   1      32.266  24.094  26.238  1.00  0.00     0.010 A 
ATOM     18  C   UNL A   1      34.074  25.577  25.665  1.00  0.00     0.010 A 
ATOM     19  C   UNL A   1      31.451  25.199  26.506  1.00  0.00     0.001 A 
ATOM     20  C   UNL A   1      33.261  26.681  25.930  1.00  0.00     0.001 A 
ATOM     21  C   UNL A   1      31.950  26.491  26.354  1.00  0.00     0.000 A 
ENDBRANCH  13  16
BRANCH  14  22
ATOM     22  C   UNL A   1      34.146  19.560  24.803  1.00  0.00     0.055 A 
ATOM     23  C   UNL A   1      34.977  18.523  24.339  1.00  0.00     0.015 A 
ATOM     24  C   UNL A   1      32.764  19.357  24.770  1.00  0.00     0.134 A 
ATOM     25  C   UNL A   1      34.433  17.334  23.842  1.00  0.00     0.001 A 
ATOM     26  C   UNL A   1      32.215  18.177  24.271  1.00  0.00     0.040 A 
ATOM     27  F   UNL A   1      31.927  20.333  25.156  1.00  0.00    -0.206 F 
ATOM     28  C   UNL A   1      33.050  17.166  23.800  1.00  0.00     0.003 A 
ENDBRANCH  14  22
ENDBRANCH   9  10
ENDBRANCH   8   9
ENDBRANCH   6   8
ENDBRANCH   5   6
ENDBRANCH   4   5
ENDBRANCH   3   4
ENDBRANCH   2   3
ENDBRANCH   1   2
BRANCH   1  29
ATOM     29  C   UNL A   1      44.022  20.142  25.499  1.00  0.00     0.188 C 
BRANCH  29  30
ATOM     30  O   UNL A   1      43.950  21.259  24.617  1.00  0.00    -0.376 OA
BRANCH  30  31
ATOM     31  C   UNL A   1      45.183  21.749  24.083  1.00  0.00     0.202 C 
BRANCH  31  32
ATOM     32  C   UNL A   1      45.789  22.991  24.760  1.00  0.00     0.261 C 
BRANCH  32  33
ATOM     33  O   UNL A   1      45.270  24.245  24.263  1.00  0.00    -0.460 OA
BRANCH  33  34
ATOM     34  C   UNL A   1      45.740  25.349  24.896  1.00  0.00     0.338 C 
ATOM     35  O   UNL A   1      46.857  25.831  24.811  1.00  0.00    -0.246 OA
BRANCH  34  36
ATOM     36  C   UNL A   1      44.676  26.026  25.661  1.00  0.00     0.060 A 
ATOM     37  C   UNL A   1      44.725  27.421  25.776  1.00  0.00     0.016 A 
ATOM     38  C   UNL A   1      43.782  25.287  26.439  1.00  0.00     0.016 A 
ATOM     39  C   UNL A   1      43.915  28.076  26.707  1.00  0.00     0.010 A 
ATOM     40  C   UNL A   1      42.976  25.946  27.378  1.00  0.00     0.010 A 
ATOM     41  C   UNL A   1      43.069  27.339  27.548  1.00  0.00    -0.014 A 
BRANCH  41  42
ATOM     42  C   UNL A   1      42.409  28.015  28.695  1.00  0.00     0.031 A 
ATOM     43  C   UNL A   1      43.135  28.127  30.011  1.00  0.00     0.074 A 
ATOM     44  C   UNL A   1      41.192  28.574  28.562  1.00  0.00     0.049 A 
ATOM     45  N   UNL A   1      42.755  28.711  31.121  1.00  0.00    -0.248 NA
ATOM     46  C   UNL A   1      44.466  27.504  30.084  1.00  0.00     0.031 C 
ATOM     47  C   UNL A   1      40.386  28.570  27.342  1.00  0.00     0.029 A 
ATOM     48  N   UNL A   1      40.425  29.259  29.472  1.00  0.00    -0.354 N 
ATOM     49  C   UNL A   1      43.802  28.538  32.018  1.00  0.00     0.074 A 
ATOM     50  C   UNL A   1      44.817  27.762  31.336  1.00  0.00     0.031 C 
ATOM     51  C   UNL A   1      39.233  29.218  27.581  1.00  0.00     0.029 A 
ATOM     52  C   UNL A   1      39.213  29.667  28.973  1.00  0.00     0.049 A 
ATOM     53  H   UNL A   1      40.716  29.439  30.395  1.00  0.00     0.167 HD
ATOM     54  C   UNL A   1      43.920  28.991  33.290  1.00  0.00     0.031 A 
ATOM     55  C   UNL A   1      38.197  30.321  29.570  1.00  0.00     0.031 A 
ATOM     56  C   UNL A   1      42.913  29.742  33.990  1.00  0.00     0.049 A 
ATOM     57  C   UNL A   1      38.324  30.753  31.006  1.00  0.00     0.074 A 
ATOM     58  C   UNL A   1      42.949  30.238  35.283  1.00  0.00     0.029 A 
ATOM     59  N   UNL A   1      41.686  30.100  33.460  1.00  0.00    -0.354 N 
ATOM     60  N   UNL A   1      39.332  30.605  31.831  1.00  0.00    -0.248 NA
ATOM     61  C   UNL A   1      37.170  31.456  31.589  1.00  0.00     0.031 C 
ATOM     62  C   UNL A   1      41.725  30.862  35.549  1.00  0.00     0.029 A 
ATOM     63  C   UNL A   1      40.947  30.794  34.405  1.00  0.00     0.049 A 
ATOM     64  H   UNL A   1      41.382  29.894  32.547  1.00  0.00     0.167 HD
ATOM     65  C   UNL A   1      38.943  31.214  33.018  1.00  0.00     0.074 A 
ATOM     66  C   UNL A   1      37.617  31.751  32.802  1.00  0.00     0.031 C 
ATOM     67  C   UNL A   1      39.625  31.318  34.185  1.00  0.00     0.031 A 
BRANCH  54  68
ATOM     68  C   UNL A   1      45.194  28.670  34.019  1.00  0.00    -0.014 A 
ATOM     69  C   UNL A   1      45.324  27.479  34.752  1.00  0.00     0.009 A 
ATOM     70  C   UNL A   1      46.290  29.541  33.935  1.00  0.00     0.009 A 
ATOM     71  C   UNL A   1      46.519  27.181  35.408  1.00  0.00     0.001 A 
ATOM     72  C   UNL A   1      47.492  29.229  34.573  1.00  0.00     0.001 A 
ATOM     73  C   UNL A   1      47.603  28.054  35.315  1.00  0.00     0.000 A 
ENDBRANCH  54  68
BRANCH  55  74
ATOM     74  C   UNL A   1      36.948  30.601  28.816  1.00  0.00    -0.014 A 
ATOM     75  C   UNL A   1      36.613  31.911  28.442  1.00  0.00     0.009 A 
ATOM     76  C   UNL A   1      36.066  29.556  28.502  1.00  0.00     0.009 A 
ATOM     77  C   UNL A   1      35.404  32.172  27.792  1.00  0.00     0.001 A 
ATOM     78  C   UNL A   1      34.871  29.817  27.830  1.00  0.00     0.001 A 
ATOM     79  C   UNL A   1      34.537  31.125  27.484  1.00  0.00     0.000 A 
ENDBRANCH  55  74
BRANCH  67  80
ATOM     80  C   UNL A   1      38.957  32.061  35.307  1.00  0.00    -0.014 A 
ATOM     81  C   UNL A   1      38.846  33.460  35.288  1.00  0.00     0.009 A 
ATOM     82  C   UNL A   1      38.414  31.351  36.390  1.00  0.00     0.009 A 
ATOM     83  C   UNL A   1      38.239  34.136  36.349  1.00  0.00     0.001 A 
ATOM     84  C   UNL A   1      37.786  32.027  37.437  1.00  0.00     0.001 A 
ATOM     85  C   UNL A   1      37.708  33.420  37.421  1.00  0.00     0.000 A 
ENDBRANCH  67  80
ENDBRANCH  41  42
ENDBRANCH  34  36
ENDBRANCH  33  34
ENDBRANCH  32  33
ENDBRANCH  31  32
ENDBRANCH  30  31
ENDBRANCH  29  30
ENDBRANCH   1  29
TORSDOF 21
ENDMDL
MODEL 3
REMARK VINA RESULT:     -10.2      4.585      9.751
REMARK SMILES O=C(CSc1cc(-c2ccccc2)nc(-c2ccccc2F)n1)OCCOCCOCCOC(=O)c1ccc(-c2c3nc(c(-c4ccccc4)c4ccc([nH]4)c(-c4ccccc4)c4nc(c(-c5ccccc5)c5ccc2[nH]5)C=C4)C=C3)cc1
REMARK SMILES IDX 28 1 27 2 26 3 25 4 24 5 2 6 1 7 3 8 4 9 5 10 6 11 23 12
REMARK SMILES IDX 7 13 15 14 14 15 8 16 9 17 13 18 10 19 12 20 11 21 16 22
REMARK SMILES IDX 17 23 21 24 18 25 20 26 22 27 19 28 29 29 30 30 31 31 32 32
REMARK SMILES IDX 33 33 34 34 35 35 36 36 37 37 83 38 38 39 82 40 39 41 40 42
REMARK SMILES IDX 41 43 76 44 42 45 81 46 75 47 77 48 43 49 80 50 74 51 73 52
REMARK SMILES IDX 44 54 66 55 51 56 65 57 52 58 55 59 64 60 78 61 53 62 54 63
REMARK SMILES IDX 63 65 79 66 56 67 45 68 46 69 50 70 47 71 49 72 48 73 67 74
REMARK SMILES IDX 68 75 72 76 69 77 71 78 70 79 57 80 58 81 62 82 59 83 61 84
REMARK SMILES IDX 60 85
REMARK H PARENT 77 53 55 64
REMARK Flexibility Score: inf
ROOT
ATOM      1  C   UNL A   1      32.421  29.495  25.520  1.00  0.00     0.188 C 
ENDROOT
BRANCH   1   2
ATOM      2  O   UNL A   1      31.412  29.255  24.553  1.00  0.00    -0.376 OA
BRANCH   2   3
ATOM      3  C   UNL A   1      31.689  28.423  23.432  1.00  0.00     0.202 C 
BRANCH   3   4
ATOM      4  C   UNL A   1      31.446  26.915  23.534  1.00  0.00     0.261 C 
BRANCH   4   5
ATOM      5  O   UNL A   1      32.602  26.042  23.624  1.00  0.00    -0.463 OA
BRANCH   5   6
ATOM      6  C   UNL A   1      33.198  25.309  22.658  1.00  0.00     0.316 C 
ATOM      7  O   UNL A   1      34.167  25.780  22.062  1.00  0.00    -0.251 OA
BRANCH   6   8
ATOM      8  C   UNL A   1      32.677  23.933  22.320  1.00  0.00     0.199 C 
BRANCH   8   9
ATOM      9  S   UNL A   1      31.728  23.205  23.693  1.00  0.00    -0.094 SA
BRANCH   9  10
ATOM     10  C   UNL A   1      32.962  22.019  24.162  1.00  0.00     0.101 A 
ATOM     11  C   UNL A   1      32.708  20.674  24.102  1.00  0.00     0.064 A 
ATOM     12  N   UNL A   1      34.075  22.536  24.684  1.00  0.00    -0.222 NA
ATOM     13  C   UNL A   1      33.675  19.846  24.641  1.00  0.00     0.075 A 
ATOM     14  C   UNL A   1      34.973  21.664  25.160  1.00  0.00     0.163 A 
ATOM     15  N   UNL A   1      34.818  20.330  25.182  1.00  0.00    -0.228 NA
BRANCH  13  16
ATOM     16  C   UNL A   1      33.483  18.385  24.676  1.00  0.00     0.000 A 
ATOM     17  C   UNL A   1      34.176  17.536  23.798  1.00  0.00     0.010 A 
ATOM     18  C   UNL A   1      32.624  17.788  25.620  1.00  0.00     0.010 A 
ATOM     19  C   UNL A   1      34.030  16.146  23.871  1.00  0.00     0.001 A 
ATOM     20  C   UNL A   1      32.474  16.402  25.693  1.00  0.00     0.001 A 
ATOM     21  C   UNL A   1      33.180  15.581  24.820  1.00  0.00     0.000 A 
ENDBRANCH  13  16
BRANCH  14  22
ATOM     22  C   UNL A   1      36.196  22.271  25.660  1.00  0.00     0.055 A 
ATOM     23  C   UNL A   1      36.215  23.609  26.099  1.00  0.00     0.015 A 
ATOM     24  C   UNL A   1      37.415  21.596  25.562  1.00  0.00     0.134 A 
ATOM     25  C   UNL A   1      37.420  24.246  26.409  1.00  0.00     0.001 A 
ATOM     26  C   UNL A   1      38.621  22.227  25.864  1.00  0.00     0.040 A 
ATOM     27  F   UNL A   1      37.457  20.335  25.102  1.00  0.00    -0.206 F 
ATOM     28  C   UNL A   1      38.625  23.556  26.282  1.00  0.00     0.003 A 
ENDBRANCH  14  22
ENDBRANCH   9  10
ENDBRANCH   8   9
ENDBRANCH   6   8
ENDBRANCH   5   6
ENDBRANCH   4   5
ENDBRANCH   3   4
ENDBRANCH   2   3
ENDBRANCH   1   2
BRANCH   1  29
ATOM     29  C   UNL A   1      32.121  30.727  26.381  1.00  0.00     0.188 C 
BRANCH  29  30
ATOM     30  O   UNL A   1      32.793  30.774  27.637  1.00  0.00    -0.376 OA
BRANCH  30  31
ATOM     31  C   UNL A   1      33.789  31.787  27.806  1.00  0.00     0.202 C 
BRANCH  31  32
ATOM     32  C   UNL A   1      35.258  31.339  27.723  1.00  0.00     0.261 C 
BRANCH  32  33
ATOM     33  O   UNL A   1      36.126  31.979  28.685  1.00  0.00    -0.460 OA
BRANCH  33  34
ATOM     34  C   UNL A   1      36.422  31.229  29.777  1.00  0.00     0.338 C 
ATOM     35  O   UNL A   1      35.802  31.173  30.825  1.00  0.00    -0.246 OA
BRANCH  34  36
ATOM     36  C   UNL A   1      37.574  30.343  29.526  1.00  0.00     0.060 A 
ATOM     37  C   UNL A   1      38.435  30.056  30.592  1.00  0.00     0.016 A 
ATOM     38  C   UNL A   1      37.926  29.990  28.221  1.00  0.00     0.016 A 
ATOM     39  C   UNL A   1      39.676  29.460  30.349  1.00  0.00     0.010 A 
ATOM     40  C   UNL A   1      39.174  29.399  27.980  1.00  0.00     0.010 A 
ATOM     41  C   UNL A   1      40.074  29.172  29.037  1.00  0.00    -0.014 A 
BRANCH  41  42
ATOM     42  C   UNL A   1      41.483  28.778  28.771  1.00  0.00     0.031 A 
ATOM     43  C   UNL A   1      41.798  27.351  28.402  1.00  0.00     0.074 A 
ATOM     44  C   UNL A   1      42.474  29.687  28.805  1.00  0.00     0.049 A 
ATOM     45  N   UNL A   1      42.951  26.811  28.092  1.00  0.00    -0.248 NA
ATOM     46  C   UNL A   1      40.666  26.412  28.371  1.00  0.00     0.031 C 
ATOM     47  C   UNL A   1      42.312  31.106  29.117  1.00  0.00     0.029 A 
ATOM     48  N   UNL A   1      43.819  29.544  28.570  1.00  0.00    -0.354 N 
ATOM     49  C   UNL A   1      42.683  25.475  27.819  1.00  0.00     0.074 A 
ATOM     50  C   UNL A   1      41.265  25.278  28.035  1.00  0.00     0.031 C 
ATOM     51  C   UNL A   1      43.516  31.703  29.059  1.00  0.00     0.029 A 
ATOM     52  C   UNL A   1      44.532  30.707  28.722  1.00  0.00     0.049 A 
ATOM     53  H   UNL A   1      44.234  28.687  28.316  1.00  0.00     0.167 HD
ATOM     54  C   UNL A   1      43.531  24.499  27.412  1.00  0.00     0.031 A 
ATOM     55  C   UNL A   1      45.854  30.943  28.612  1.00  0.00     0.031 A 
ATOM     56  C   UNL A   1      44.946  24.672  27.215  1.00  0.00     0.049 A 
ATOM     57  C   UNL A   1      46.786  29.826  28.227  1.00  0.00     0.074 A 
ATOM     58  C   UNL A   1      45.881  23.734  26.807  1.00  0.00     0.029 A 
ATOM     59  N   UNL A   1      45.631  25.857  27.418  1.00  0.00    -0.354 N 
ATOM     60  N   UNL A   1      46.511  28.576  27.946  1.00  0.00    -0.248 NA
ATOM     61  C   UNL A   1      48.216  30.162  28.134  1.00  0.00     0.031 C 
ATOM     62  C   UNL A   1      47.141  24.344  26.803  1.00  0.00     0.029 A 
ATOM     63  C   UNL A   1      46.981  25.672  27.163  1.00  0.00     0.049 A 
ATOM     64  H   UNL A   1      45.222  26.706  27.701  1.00  0.00     0.167 HD
ATOM     65  C   UNL A   1      47.726  27.984  27.621  1.00  0.00     0.074 A 
ATOM     66  C   UNL A   1      48.737  29.015  27.720  1.00  0.00     0.031 C 
ATOM     67  C   UNL A   1      47.981  26.699  27.272  1.00  0.00     0.031 A 
BRANCH  54  68
ATOM     68  C   UNL A   1      42.946  23.138  27.164  1.00  0.00    -0.014 A 
ATOM     69  C   UNL A   1      42.703  22.253  28.227  1.00  0.00     0.009 A 
ATOM     70  C   UNL A   1      42.591  22.754  25.862  1.00  0.00     0.009 A 
ATOM     71  C   UNL A   1      42.139  20.999  27.986  1.00  0.00     0.001 A 
ATOM     72  C   UNL A   1      42.006  21.508  25.628  1.00  0.00     0.001 A 
ATOM     73  C   UNL A   1      41.787  20.630  26.688  1.00  0.00     0.000 A 
ENDBRANCH  54  68
BRANCH  55  74
ATOM     74  C   UNL A   1      46.392  32.301  28.886  1.00  0.00    -0.014 A 
ATOM     75  C   UNL A   1      46.271  32.877  30.160  1.00  0.00     0.009 A 
ATOM     76  C   UNL A   1      46.996  33.040  27.859  1.00  0.00     0.009 A 
ATOM     77  C   UNL A   1      46.720  34.180  30.389  1.00  0.00     0.001 A 
ATOM     78  C   UNL A   1      47.467  34.331  28.099  1.00  0.00     0.001 A 
ATOM     79  C   UNL A   1      47.320  34.904  29.360  1.00  0.00     0.000 A 
ENDBRANCH  55  74
BRANCH  67  80
ATOM     80  C   UNL A   1      49.406  26.345  26.949  1.00  0.00    -0.014 A 
ATOM     81  C   UNL A   1      49.908  26.473  25.644  1.00  0.00     0.009 A 
ATOM     82  C   UNL A   1      50.262  25.895  27.966  1.00  0.00     0.009 A 
ATOM     83  C   UNL A   1      51.229  26.121  25.358  1.00  0.00     0.001 A 
ATOM     84  C   UNL A   1      51.589  25.568  27.682  1.00  0.00     0.001 A 
ATOM     85  C   UNL A   1      52.068  25.671  26.376  1.00  0.00     0.000 A 
ENDBRANCH  67  80
ENDBRANCH  41  42
ENDBRANCH  34  36
ENDBRANCH  33  34
ENDBRANCH  32  33
ENDBRANCH  31  32
ENDBRANCH  30  31
ENDBRANCH  29  30
ENDBRANCH   1  29
TORSDOF 21
ENDMDL
