MODEL 1
REMARK VINA RESULT:     -11.1      0.000      0.000
REMARK SMILES CC(C)c1cc(OCC(=O)OCCOCCOCCOC(=O)c2ccc(-c3c4nc(c(-c5ccccc5)c5ccc([nH]5)c(-c5ccccc5)c5nc(c(-c6ccccc6)c6ccc3[nH]6)C=C5)C=C4)cc2)nc(Nc2ccc(F)cc2F)n1
REMARK SMILES IDX 15 1 14 2 13 3 12 4 11 5 9 6 10 7 8 8 7 9 6 10 4 11 5 12
REMARK SMILES IDX 82 13 72 14 71 15 2 16 1 17 3 18 73 19 74 21 75 22 80 23
REMARK SMILES IDX 76 24 79 25 81 26 77 27 78 28 16 29 17 30 18 31 19 32 20 33
REMARK SMILES IDX 21 34 22 35 23 36 24 37 70 38 25 39 69 40 26 41 27 42 28 43
REMARK SMILES IDX 63 44 29 45 68 46 62 47 64 48 30 49 67 50 61 51 60 52 31 54
REMARK SMILES IDX 53 55 38 56 52 57 39 58 42 59 51 60 65 61 40 62 41 63 50 65
REMARK SMILES IDX 66 66 43 67 32 68 33 69 37 70 34 71 36 72 35 73 54 74 55 75
REMARK SMILES IDX 59 76 56 77 58 78 57 79 44 80 45 81 49 82 46 83 48 84 47 85
REMARK H PARENT 73 20 64 53 42 64
REMARK Flexibility Score: inf
ROOT
ATOM      1  C   UNL A   1      40.898  19.659  26.142  1.00  0.00     0.188 C 
ENDROOT
BRANCH   1   2
ATOM      2  O   UNL A   1      40.063  20.626  26.747  1.00  0.00    -0.376 OA
BRANCH   2   3
ATOM      3  C   UNL A   1      39.431  21.518  25.854  1.00  0.00     0.202 C 
BRANCH   3   4
ATOM      4  C   UNL A   1      37.942  21.219  25.564  1.00  0.00     0.261 C 
BRANCH   4   5
ATOM      5  O   UNL A   1      37.474  21.568  24.214  1.00  0.00    -0.461 OA
BRANCH   5   6
ATOM      6  C   UNL A   1      36.808  22.748  24.037  1.00  0.00     0.344 C 
ATOM      7  O   UNL A   1      36.270  23.052  22.973  1.00  0.00    -0.248 OA
BRANCH   6   8
ATOM      8  C   UNL A   1      36.631  23.681  25.333  1.00  0.00     0.353 C 
BRANCH   8   9
ATOM      9  O   UNL A   1      35.514  23.828  26.212  1.00  0.00    -0.466 OA
BRANCH   9  10
ATOM     10  C   UNL A   1      34.175  23.696  25.863  1.00  0.00     0.218 A 
ATOM     11  C   UNL A   1      32.225  24.349  24.543  1.00  0.00     0.052 A 
ATOM     12  C   UNL A   1      33.388  24.691  25.294  1.00  0.00     0.092 A 
ATOM     13  N   UNL A   1      31.763  23.101  24.742  1.00  0.00    -0.217 NA
ATOM     14  C   UNL A   1      32.514  22.184  25.394  1.00  0.00     0.230 A 
ATOM     15  N   UNL A   1      33.725  22.435  25.930  1.00  0.00    -0.177 NA
BRANCH  11  16
ATOM     16  C   UNL A   1      31.299  25.317  23.265  1.00  0.00     0.032 C 
ATOM     17  C   UNL A   1      29.832  26.952  23.430  1.00  0.00     0.014 C 
ATOM     18  C   UNL A   1      32.546  25.174  21.971  1.00  0.00     0.014 C 
ENDBRANCH  11  16
BRANCH  14  19
ATOM     19  N   UNL A   1      32.006  20.888  25.535  1.00  0.00    -0.322 N 
ATOM     20  H   UNL A   1      31.298  20.755  26.207  1.00  0.00     0.170 HD
BRANCH  19  21
ATOM     21  C   UNL A   1      32.414  19.760  24.807  1.00  0.00     0.077 A 
ATOM     22  C   UNL A   1      32.351  19.772  23.408  1.00  0.00     0.032 A 
ATOM     23  C   UNL A   1      32.854  18.583  25.439  1.00  0.00     0.149 A 
ATOM     24  C   UNL A   1      32.835  18.688  22.668  1.00  0.00     0.041 A 
ATOM     25  C   UNL A   1      33.332  17.497  24.711  1.00  0.00     0.080 A 
ATOM     26  F   UNL A   1      32.816  18.481  26.776  1.00  0.00    -0.205 F 
ATOM     27  C   UNL A   1      33.340  17.571  23.327  1.00  0.00     0.126 A 
ATOM     28  F   UNL A   1      33.836  16.551  22.614  1.00  0.00    -0.207 F 
ENDBRANCH  19  21
ENDBRANCH  14  19
ENDBRANCH   9  10
ENDBRANCH   8   9
ENDBRANCH   6   8
ENDBRANCH   5   6
ENDBRANCH   4   5
ENDBRANCH   3   4
ENDBRANCH   2   3
ENDBRANCH   1   2
BRANCH   1  29
ATOM     29  C   UNL A   1      42.423  19.689  26.337  1.00  0.00     0.188 C 
BRANCH  29  30
ATOM     30  O   UNL A   1      43.069  19.430  25.120  1.00  0.00    -0.376 OA
BRANCH  30  31
ATOM     31  C   UNL A   1      44.419  19.792  25.016  1.00  0.00     0.202 C 
BRANCH  31  32
ATOM     32  C   UNL A   1      44.916  20.929  24.090  1.00  0.00     0.261 C 
BRANCH  32  33
ATOM     33  O   UNL A   1      45.257  22.240  24.600  1.00  0.00    -0.460 OA
BRANCH  33  34
ATOM     34  C   UNL A   1      44.140  22.915  24.951  1.00  0.00     0.338 C 
ATOM     35  O   UNL A   1      43.112  22.848  24.293  1.00  0.00    -0.246 OA
BRANCH  34  36
ATOM     36  C   UNL A   1      44.094  23.682  26.239  1.00  0.00     0.060 A 
ATOM     37  C   UNL A   1      42.699  23.346  27.356  1.00  0.00     0.016 A 
ATOM     38  C   UNL A   1      44.669  25.377  26.140  1.00  0.00     0.016 A 
ATOM     39  C   UNL A   1      41.769  24.691  28.162  1.00  0.00     0.010 A 
ATOM     40  C   UNL A   1      43.774  26.718  26.976  1.00  0.00     0.010 A 
ATOM     41  C   UNL A   1      42.367  26.379  28.045  1.00  0.00    -0.014 A 
BRANCH  41  42
ATOM     42  C   UNL A   1      42.013  27.380  29.113  1.00  0.00     0.031 A 
ATOM     43  C   UNL A   1      42.693  27.342  30.460  1.00  0.00     0.074 A 
ATOM     44  C   UNL A   1      40.926  28.175  28.939  1.00  0.00     0.049 A 
ATOM     45  N   UNL A   1      42.379  27.985  31.560  1.00  0.00    -0.248 NA
ATOM     46  C   UNL A   1      43.880  26.483  30.592  1.00  0.00     0.031 C 
ATOM     47  C   UNL A   1      40.159  28.366  27.703  1.00  0.00     0.029 A 
ATOM     48  N   UNL A   1      40.213  28.938  29.839  1.00  0.00    -0.354 N 
ATOM     49  C   UNL A   1      43.326  27.614  32.509  1.00  0.00     0.074 A 
ATOM     50  C   UNL A   1      44.190  26.640  31.873  1.00  0.00     0.031 C 
ATOM     51  C   UNL A   1      39.053  29.073  27.933  1.00  0.00     0.029 A 
ATOM     52  C   UNL A   1      39.037  29.447  29.325  1.00  0.00     0.049 A 
ATOM     53  H   UNL A   1      40.514  29.104  30.763  1.00  0.00     0.167 HD
ATOM     54  C   UNL A   1      43.474  28.059  33.783  1.00  0.00     0.031 A 
ATOM     55  C   UNL A   1      38.036  30.158  29.870  1.00  0.00     0.031 A 
ATOM     56  C   UNL A   1      42.579  28.999  34.414  1.00  0.00     0.049 A 
ATOM     57  C   UNL A   1      38.184  30.585  31.289  1.00  0.00     0.074 A 
ATOM     58  C   UNL A   1      42.651  29.548  35.684  1.00  0.00     0.029 A 
ATOM     59  N   UNL A   1      41.431  29.513  33.825  1.00  0.00    -0.354 N 
ATOM     60  N   UNL A   1      39.145  30.298  32.130  1.00  0.00    -0.248 NA
ATOM     61  C   UNL A   1      37.146  31.474  31.818  1.00  0.00     0.031 C 
ATOM     62  C   UNL A   1      41.510  30.332  35.887  1.00  0.00     0.029 A 
ATOM     63  C   UNL A   1      40.767  30.338  34.717  1.00  0.00     0.049 A 
ATOM     64  H   UNL A   1      41.133  29.319  32.907  1.00  0.00     0.167 HD
ATOM     65  C   UNL A   1      38.856  31.010  33.279  1.00  0.00     0.074 A 
ATOM     66  C   UNL A   1      37.636  31.751  33.017  1.00  0.00     0.031 C 
ATOM     67  C   UNL A   1      39.544  31.052  34.444  1.00  0.00     0.031 A 
BRANCH  54  68
ATOM     68  C   UNL A   1      44.633  27.513  34.582  1.00  0.00    -0.014 A 
ATOM     69  C   UNL A   1      44.535  26.292  35.272  1.00  0.00     0.009 A 
ATOM     70  C   UNL A   1      45.845  28.220  34.644  1.00  0.00     0.009 A 
ATOM     71  C   UNL A   1      45.595  25.828  36.055  1.00  0.00     0.001 A 
ATOM     72  C   UNL A   1      46.917  27.737  35.400  1.00  0.00     0.001 A 
ATOM     73  C   UNL A   1      46.785  26.550  36.119  1.00  0.00     0.000 A 
ENDBRANCH  54  68
BRANCH  55  74
ATOM     74  C   UNL A   1      36.872  30.586  29.039  1.00  0.00    -0.014 A 
ATOM     75  C   UNL A   1      36.708  31.935  28.691  1.00  0.00     0.009 A 
ATOM     76  C   UNL A   1      35.940  29.649  28.558  1.00  0.00     0.009 A 
ATOM     77  C   UNL A   1      35.615  32.346  27.923  1.00  0.00     0.001 A 
ATOM     78  C   UNL A   1      34.865  30.058  27.764  1.00  0.00     0.001 A 
ATOM     79  C   UNL A   1      34.695  31.407  27.459  1.00  0.00     0.000 A 
ENDBRANCH  55  74
BRANCH  67  80
ATOM     80  C   UNL A   1      38.997  31.954  35.509  1.00  0.00    -0.014 A 
ATOM     81  C   UNL A   1      39.186  33.344  35.458  1.00  0.00     0.009 A 
ATOM     82  C   UNL A   1      38.266  31.402  36.572  1.00  0.00     0.009 A 
ATOM     83  C   UNL A   1      38.682  34.159  36.471  1.00  0.00     0.001 A 
ATOM     84  C   UNL A   1      37.729  32.223  37.561  1.00  0.00     0.001 A 
ATOM     85  C   UNL A   1      37.946  33.600  37.515  1.00  0.00     0.000 A 
ENDBRANCH  67  80
ENDBRANCH  41  42
ENDBRANCH  34  36
ENDBRANCH  33  34
ENDBRANCH  32  33
ENDBRANCH  31  32
ENDBRANCH  30  31
ENDBRANCH  29  30
ENDBRANCH   1  29
TORSDOF 22
ENDMDL
MODEL 2
REMARK VINA RESULT:     -10.1      1.405      5.896
REMARK SMILES CC(C)c1cc(OCC(=O)OCCOCCOCCOC(=O)c2ccc(-c3c4nc(c(-c5ccccc5)c5ccc([nH]5)c(-c5ccccc5)c5nc(c(-c6ccccc6)c6ccc3[nH]6)C=C5)C=C4)cc2)nc(Nc2ccc(F)cc2F)n1
REMARK SMILES IDX 15 1 14 2 13 3 12 4 11 5 9 6 10 7 8 8 7 9 6 10 4 11 5 12
REMARK SMILES IDX 82 13 72 14 71 15 2 16 1 17 3 18 73 19 74 21 75 22 80 23
REMARK SMILES IDX 76 24 79 25 81 26 77 27 78 28 16 29 17 30 18 31 19 32 20 33
REMARK SMILES IDX 21 34 22 35 23 36 24 37 70 38 25 39 69 40 26 41 27 42 28 43
REMARK SMILES IDX 63 44 29 45 68 46 62 47 64 48 30 49 67 50 61 51 60 52 31 54
REMARK SMILES IDX 53 55 38 56 52 57 39 58 42 59 51 60 65 61 40 62 41 63 50 65
REMARK SMILES IDX 66 66 43 67 32 68 33 69 37 70 34 71 36 72 35 73 54 74 55 75
REMARK SMILES IDX 59 76 56 77 58 78 57 79 44 80 45 81 49 82 46 83 48 84 47 85
REMARK H PARENT 73 20 64 53 42 64
REMARK Flexibility Score: inf
ROOT
ATOM      1  C   UNL A   1      41.062  19.393  26.119  1.00  0.00     0.188 C 
ENDROOT
BRANCH   1   2
ATOM      2  O   UNL A   1      40.142  20.288  26.711  1.00  0.00    -0.376 OA
BRANCH   2   3
ATOM      3  C   UNL A   1      39.623  21.275  25.846  1.00  0.00     0.202 C 
BRANCH   3   4
ATOM      4  C   UNL A   1      38.088  21.252  25.663  1.00  0.00     0.261 C 
BRANCH   4   5
ATOM      5  O   UNL A   1      37.601  21.603  24.320  1.00  0.00    -0.461 OA
BRANCH   5   6
ATOM      6  C   UNL A   1      37.008  22.820  24.136  1.00  0.00     0.344 C 
ATOM      7  O   UNL A   1      36.712  23.249  23.022  1.00  0.00    -0.248 OA
BRANCH   6   8
ATOM      8  C   UNL A   1      36.576  23.623  25.458  1.00  0.00     0.353 C 
BRANCH   8   9
ATOM      9  O   UNL A   1      35.501  24.542  25.664  1.00  0.00    -0.466 OA
BRANCH   9  10
ATOM     10  C   UNL A   1      34.273  24.523  25.013  1.00  0.00     0.218 A 
ATOM     11  C   UNL A   1      32.807  25.184  23.174  1.00  0.00     0.052 A 
ATOM     12  C   UNL A   1      33.809  25.498  24.138  1.00  0.00     0.092 A 
ATOM     13  N   UNL A   1      32.113  24.057  23.418  1.00  0.00    -0.217 NA
ATOM     14  C   UNL A   1      32.536  23.177  24.354  1.00  0.00     0.230 A 
ATOM     15  N   UNL A   1      33.619  23.360  25.136  1.00  0.00    -0.177 NA
BRANCH  11  16
ATOM     16  C   UNL A   1      32.366  26.030  21.587  1.00  0.00     0.032 C 
ATOM     17  C   UNL A   1      32.438  25.361  19.489  1.00  0.00     0.014 C 
ATOM     18  C   UNL A   1      31.101  27.108  22.286  1.00  0.00     0.014 C 
ENDBRANCH  11  16
BRANCH  14  19
ATOM     19  N   UNL A   1      31.803  21.999  24.538  1.00  0.00    -0.322 N 
ATOM     20  H   UNL A   1      30.915  22.084  24.953  1.00  0.00     0.170 HD
BRANCH  19  21
ATOM     21  C   UNL A   1      32.220  20.707  24.185  1.00  0.00     0.077 A 
ATOM     22  C   UNL A   1      32.805  19.874  25.147  1.00  0.00     0.032 A 
ATOM     23  C   UNL A   1      32.107  20.219  22.871  1.00  0.00     0.149 A 
ATOM     24  C   UNL A   1      33.145  18.554  24.830  1.00  0.00     0.041 A 
ATOM     25  C   UNL A   1      32.448  18.910  22.544  1.00  0.00     0.080 A 
ATOM     26  F   UNL A   1      31.666  21.021  21.890  1.00  0.00    -0.205 F 
ATOM     27  C   UNL A   1      32.943  18.080  23.537  1.00  0.00     0.126 A 
ATOM     28  F   UNL A   1      33.236  16.805  23.249  1.00  0.00    -0.207 F 
ENDBRANCH  19  21
ENDBRANCH  14  19
ENDBRANCH   9  10
ENDBRANCH   8   9
ENDBRANCH   6   8
ENDBRANCH   5   6
ENDBRANCH   4   5
ENDBRANCH   3   4
ENDBRANCH   2   3
ENDBRANCH   1   2
BRANCH   1  29
ATOM     29  C   UNL A   1      42.578  19.559  26.318  1.00  0.00     0.188 C 
BRANCH  29  30
ATOM     30  O   UNL A   1      43.198  19.825  25.089  1.00  0.00    -0.376 OA
BRANCH  30  31
ATOM     31  C   UNL A   1      44.581  20.052  25.099  1.00  0.00     0.202 C 
BRANCH  31  32
ATOM     32  C   UNL A   1      45.204  21.455  24.900  1.00  0.00     0.261 C 
BRANCH  32  33
ATOM     33  O   UNL A   1      44.766  22.604  25.664  1.00  0.00    -0.460 OA
BRANCH  33  34
ATOM     34  C   UNL A   1      43.712  23.199  25.062  1.00  0.00     0.338 C 
ATOM     35  O   UNL A   1      43.354  22.889  23.935  1.00  0.00    -0.246 OA
BRANCH  34  36
ATOM     36  C   UNL A   1      42.870  24.186  25.814  1.00  0.00     0.060 A 
ATOM     37  C   UNL A   1      43.345  25.938  25.703  1.00  0.00     0.016 A 
ATOM     38  C   UNL A   1      42.243  23.610  27.390  1.00  0.00     0.016 A 
ATOM     39  C   UNL A   1      43.408  27.010  27.174  1.00  0.00     0.010 A 
ATOM     40  C   UNL A   1      42.261  24.686  28.854  1.00  0.00     0.010 A 
ATOM     41  C   UNL A   1      42.775  26.406  28.742  1.00  0.00    -0.014 A 
BRANCH  41  42
ATOM     42  C   UNL A   1      42.274  27.379  29.777  1.00  0.00     0.031 A 
ATOM     43  C   UNL A   1      41.010  28.171  29.544  1.00  0.00     0.074 A 
ATOM     44  C   UNL A   1      43.080  27.704  30.821  1.00  0.00     0.049 A 
ATOM     45  N   UNL A   1      40.540  29.191  30.223  1.00  0.00    -0.248 NA
ATOM     46  C   UNL A   1      40.161  27.765  28.414  1.00  0.00     0.031 C 
ATOM     47  C   UNL A   1      44.321  27.034  31.222  1.00  0.00     0.029 A 
ATOM     48  N   UNL A   1      43.015  28.749  31.719  1.00  0.00    -0.354 N 
ATOM     49  C   UNL A   1      39.343  29.544  29.608  1.00  0.00     0.074 A 
ATOM     50  C   UNL A   1      39.191  28.670  28.463  1.00  0.00     0.031 C 
ATOM     51  C   UNL A   1      44.947  27.721  32.177  1.00  0.00     0.029 A 
ATOM     52  C   UNL A   1      44.137  28.865  32.516  1.00  0.00     0.049 A 
ATOM     53  H   UNL A   1      42.241  29.355  31.786  1.00  0.00     0.167 HD
ATOM     54  C   UNL A   1      38.446  30.494  29.977  1.00  0.00     0.031 A 
ATOM     55  C   UNL A   1      44.508  29.765  33.442  1.00  0.00     0.031 A 
ATOM     56  C   UNL A   1      38.634  31.385  31.097  1.00  0.00     0.049 A 
ATOM     57  C   UNL A   1      43.538  30.840  33.789  1.00  0.00     0.074 A 
ATOM     58  C   UNL A   1      37.778  32.359  31.585  1.00  0.00     0.029 A 
ATOM     59  N   UNL A   1      39.772  31.423  31.892  1.00  0.00    -0.354 N 
ATOM     60  N   UNL A   1      42.368  31.085  33.255  1.00  0.00    -0.248 NA
ATOM     61  C   UNL A   1      43.908  31.723  34.898  1.00  0.00     0.031 C 
ATOM     62  C   UNL A   1      38.430  33.033  32.624  1.00  0.00     0.029 A 
ATOM     63  C   UNL A   1      39.657  32.428  32.838  1.00  0.00     0.049 A 
ATOM     64  H   UNL A   1      40.547  30.824  31.797  1.00  0.00     0.167 HD
ATOM     65  C   UNL A   1      41.836  32.126  33.993  1.00  0.00     0.074 A 
ATOM     66  C   UNL A   1      42.808  32.451  35.020  1.00  0.00     0.031 C 
ATOM     67  C   UNL A   1      40.645  32.749  33.839  1.00  0.00     0.031 A 
BRANCH  54  68
ATOM     68  C   UNL A   1      37.194  30.631  29.143  1.00  0.00    -0.014 A 
ATOM     69  C   UNL A   1      36.335  29.540  28.930  1.00  0.00     0.009 A 
ATOM     70  C   UNL A   1      36.860  31.867  28.567  1.00  0.00     0.009 A 
ATOM     71  C   UNL A   1      35.211  29.665  28.108  1.00  0.00     0.001 A 
ATOM     72  C   UNL A   1      35.716  32.001  27.773  1.00  0.00     0.001 A 
ATOM     73  C   UNL A   1      34.903  30.895  27.530  1.00  0.00     0.000 A 
ENDBRANCH  54  68
BRANCH  55  74
ATOM     74  C   UNL A   1      45.806  29.616  34.162  1.00  0.00    -0.014 A 
ATOM     75  C   UNL A   1      47.017  29.880  33.502  1.00  0.00     0.009 A 
ATOM     76  C   UNL A   1      45.847  29.247  35.518  1.00  0.00     0.009 A 
ATOM     77  C   UNL A   1      48.238  29.732  34.165  1.00  0.00     0.001 A 
ATOM     78  C   UNL A   1      47.069  29.130  36.188  1.00  0.00     0.001 A 
ATOM     79  C   UNL A   1      48.263  29.358  35.508  1.00  0.00     0.000 A 
ENDBRANCH  55  74
BRANCH  67  80
ATOM     80  C   UNL A   1      40.325  33.831  34.828  1.00  0.00    -0.014 A 
ATOM     81  C   UNL A   1      40.745  35.154  34.624  1.00  0.00     0.009 A 
ATOM     82  C   UNL A   1      39.574  33.519  35.971  1.00  0.00     0.009 A 
ATOM     83  C   UNL A   1      40.449  36.138  35.567  1.00  0.00     0.001 A 
ATOM     84  C   UNL A   1      39.245  34.512  36.892  1.00  0.00     0.001 A 
ATOM     85  C   UNL A   1      39.692  35.819  36.694  1.00  0.00     0.000 A 
ENDBRANCH  67  80
ENDBRANCH  41  42
ENDBRANCH  34  36
ENDBRANCH  33  34
ENDBRANCH  32  33
ENDBRANCH  31  32
ENDBRANCH  30  31
ENDBRANCH  29  30
ENDBRANCH   1  29
TORSDOF 22
ENDMDL
MODEL 3
REMARK VINA RESULT:      -9.5      5.081     10.238
REMARK SMILES CC(C)c1cc(OCC(=O)OCCOCCOCCOC(=O)c2ccc(-c3c4nc(c(-c5ccccc5)c5ccc([nH]5)c(-c5ccccc5)c5nc(c(-c6ccccc6)c6ccc3[nH]6)C=C5)C=C4)cc2)nc(Nc2ccc(F)cc2F)n1
REMARK SMILES IDX 15 1 14 2 13 3 12 4 11 5 9 6 10 7 8 8 7 9 6 10 4 11 5 12
REMARK SMILES IDX 82 13 72 14 71 15 2 16 1 17 3 18 73 19 74 21 75 22 80 23
REMARK SMILES IDX 76 24 79 25 81 26 77 27 78 28 16 29 17 30 18 31 19 32 20 33
REMARK SMILES IDX 21 34 22 35 23 36 24 37 70 38 25 39 69 40 26 41 27 42 28 43
REMARK SMILES IDX 63 44 29 45 68 46 62 47 64 48 30 49 67 50 61 51 60 52 31 54
REMARK SMILES IDX 53 55 38 56 52 57 39 58 42 59 51 60 65 61 40 62 41 63 50 65
REMARK SMILES IDX 66 66 43 67 32 68 33 69 37 70 34 71 36 72 35 73 54 74 55 75
REMARK SMILES IDX 59 76 56 77 58 78 57 79 44 80 45 81 49 82 46 83 48 84 47 85
REMARK H PARENT 73 20 64 53 42 64
REMARK Flexibility Score: inf
ROOT
ATOM      1  C   UNL A   1      35.528  23.135  24.183  1.00  0.00     0.188 C 
ENDROOT
BRANCH   1   2
ATOM      2  O   UNL A   1      34.376  23.858  24.571  1.00  0.00    -0.376 OA
BRANCH   2   3
ATOM      3  C   UNL A   1      34.623  25.006  25.354  1.00  0.00     0.202 C 
BRANCH   3   4
ATOM      4  C   UNL A   1      33.540  26.106  25.274  1.00  0.00     0.261 C 
BRANCH   4   5
ATOM      5  O   UNL A   1      32.712  26.274  26.478  1.00  0.00    -0.461 OA
BRANCH   5   6
ATOM      6  C   UNL A   1      32.214  27.514  26.763  1.00  0.00     0.344 C 
ATOM      7  O   UNL A   1      31.387  27.706  27.653  1.00  0.00    -0.248 OA
BRANCH   6   8
ATOM      8  C   UNL A   1      32.863  28.754  25.975  1.00  0.00     0.353 C 
BRANCH   8   9
ATOM      9  O   UNL A   1      33.262  30.039  26.454  1.00  0.00    -0.466 OA
BRANCH   9  10
ATOM     10  C   UNL A   1      34.357  30.303  27.271  1.00  0.00     0.218 A 
ATOM     11  C   UNL A   1      36.604  29.792  28.081  1.00  0.00     0.052 A 
ATOM     12  C   UNL A   1      35.303  29.370  27.677  1.00  0.00     0.092 A 
ATOM     13  N   UNL A   1      36.710  31.097  28.392  1.00  0.00    -0.217 NA
ATOM     14  C   UNL A   1      35.721  31.963  28.075  1.00  0.00     0.230 A 
ATOM     15  N   UNL A   1      34.560  31.610  27.489  1.00  0.00    -0.177 NA
BRANCH  11  16
ATOM     16  C   UNL A   1      38.196  28.850  28.161  1.00  0.00     0.032 C 
ATOM     17  C   UNL A   1      40.046  28.976  26.971  1.00  0.00     0.014 C 
ATOM     18  C   UNL A   1      38.125  28.496  29.928  1.00  0.00     0.014 C 
ENDBRANCH  11  16
BRANCH  14  19
ATOM     19  N   UNL A   1      35.900  33.317  28.380  1.00  0.00    -0.322 N 
ATOM     20  H   UNL A   1      36.750  33.730  28.102  1.00  0.00     0.170 HD
BRANCH  19  21
ATOM     21  C   UNL A   1      34.979  34.140  29.045  1.00  0.00     0.077 A 
ATOM     22  C   UNL A   1      34.686  33.911  30.396  1.00  0.00     0.032 A 
ATOM     23  C   UNL A   1      34.299  35.181  28.389  1.00  0.00     0.149 A 
ATOM     24  C   UNL A   1      33.836  34.777  31.093  1.00  0.00     0.041 A 
ATOM     25  C   UNL A   1      33.447  36.044  29.073  1.00  0.00     0.080 A 
ATOM     26  F   UNL A   1      34.455  35.361  27.069  1.00  0.00    -0.205 F 
ATOM     27  C   UNL A   1      33.243  35.847  30.429  1.00  0.00     0.126 A 
ATOM     28  F   UNL A   1      32.460  36.694  31.110  1.00  0.00    -0.207 F 
ENDBRANCH  19  21
ENDBRANCH  14  19
ENDBRANCH   9  10
ENDBRANCH   8   9
ENDBRANCH   6   8
ENDBRANCH   5   6
ENDBRANCH   4   5
ENDBRANCH   3   4
ENDBRANCH   2   3
ENDBRANCH   1   2
BRANCH   1  29
ATOM     29  C   UNL A   1      36.282  22.242  25.182  1.00  0.00     0.188 C 
BRANCH  29  30
ATOM     30  O   UNL A   1      37.664  22.337  24.963  1.00  0.00    -0.376 OA
BRANCH  30  31
ATOM     31  C   UNL A   1      38.469  22.675  26.060  1.00  0.00     0.202 C 
BRANCH  31  32
ATOM     32  C   UNL A   1      39.859  22.041  26.310  1.00  0.00     0.261 C 
BRANCH  32  33
ATOM     33  O   UNL A   1      40.047  20.606  26.370  1.00  0.00    -0.460 OA
BRANCH  33  34
ATOM     34  C   UNL A   1      41.325  20.284  26.068  1.00  0.00     0.338 C 
ATOM     35  O   UNL A   1      41.599  19.324  25.363  1.00  0.00    -0.246 OA
BRANCH  34  36
ATOM     36  C   UNL A   1      42.451  21.176  26.498  1.00  0.00     0.060 A 
ATOM     37  C   UNL A   1      42.686  21.414  28.286  1.00  0.00     0.016 A 
ATOM     38  C   UNL A   1      42.749  22.592  25.442  1.00  0.00     0.016 A 
ATOM     39  C   UNL A   1      42.980  23.062  29.004  1.00  0.00     0.010 A 
ATOM     40  C   UNL A   1      43.087  24.231  26.148  1.00  0.00     0.010 A 
ATOM     41  C   UNL A   1      43.274  24.464  27.922  1.00  0.00    -0.014 A 
BRANCH  41  42
ATOM     42  C   UNL A   1      44.068  25.644  28.416  1.00  0.00     0.031 A 
ATOM     43  C   UNL A   1      43.373  26.850  29.000  1.00  0.00     0.074 A 
ATOM     44  C   UNL A   1      45.394  25.714  28.133  1.00  0.00     0.049 A 
ATOM     45  N   UNL A   1      43.871  28.030  29.288  1.00  0.00    -0.248 NA
ATOM     46  C   UNL A   1      41.941  26.717  29.311  1.00  0.00     0.031 C 
ATOM     47  C   UNL A   1      46.241  24.643  27.596  1.00  0.00     0.029 A 
ATOM     48  N   UNL A   1      46.274  26.774  28.189  1.00  0.00    -0.354 N 
ATOM     49  C   UNL A   1      42.821  28.775  29.813  1.00  0.00     0.074 A 
ATOM     50  C   UNL A   1      41.642  27.935  29.748  1.00  0.00     0.031 C 
ATOM     51  C   UNL A   1      47.448  25.107  27.272  1.00  0.00     0.029 A 
ATOM     52  C   UNL A   1      47.504  26.504  27.621  1.00  0.00     0.049 A 
ATOM     53  H   UNL A   1      46.047  27.642  28.596  1.00  0.00     0.167 HD
ATOM     54  C   UNL A   1      42.842  30.033  30.323  1.00  0.00     0.031 A 
ATOM     55  C   UNL A   1      48.593  27.260  27.402  1.00  0.00     0.031 A 
ATOM     56  C   UNL A   1      44.016  30.873  30.342  1.00  0.00     0.049 A 
ATOM     57  C   UNL A   1      48.576  28.660  27.911  1.00  0.00     0.074 A 
ATOM     58  C   UNL A   1      44.164  32.147  30.865  1.00  0.00     0.029 A 
ATOM     59  N   UNL A   1      45.243  30.524  29.792  1.00  0.00    -0.354 N 
ATOM     60  N   UNL A   1      47.597  29.303  28.495  1.00  0.00    -0.248 NA
ATOM     61  C   UNL A   1      49.823  29.418  27.783  1.00  0.00     0.031 C 
ATOM     62  C   UNL A   1      45.455  32.595  30.564  1.00  0.00     0.029 A 
ATOM     63  C   UNL A   1      46.138  31.573  29.926  1.00  0.00     0.049 A 
ATOM     64  H   UNL A   1      45.446  29.660  29.369  1.00  0.00     0.167 HD
ATOM     65  C   UNL A   1      48.121  30.532  28.851  1.00  0.00     0.074 A 
ATOM     66  C   UNL A   1      49.509  30.533  28.426  1.00  0.00     0.031 C 
ATOM     67  C   UNL A   1      47.510  31.562  29.480  1.00  0.00     0.031 A 
BRANCH  54  68
ATOM     68  C   UNL A   1      41.549  30.583  30.877  1.00  0.00    -0.014 A 
ATOM     69  C   UNL A   1      41.153  30.326  32.201  1.00  0.00     0.009 A 
ATOM     70  C   UNL A   1      40.715  31.374  30.071  1.00  0.00     0.009 A 
ATOM     71  C   UNL A   1      39.926  30.792  32.682  1.00  0.00     0.001 A 
ATOM     72  C   UNL A   1      39.503  31.869  30.565  1.00  0.00     0.001 A 
ATOM     73  C   UNL A   1      39.102  31.562  31.864  1.00  0.00     0.000 A 
ENDBRANCH  54  68
BRANCH  55  74
ATOM     74  C   UNL A   1      49.806  26.672  26.764  1.00  0.00    -0.014 A 
ATOM     75  C   UNL A   1      50.034  26.837  25.389  1.00  0.00     0.009 A 
ATOM     76  C   UNL A   1      50.761  25.974  27.524  1.00  0.00     0.009 A 
ATOM     77  C   UNL A   1      51.161  26.278  24.780  1.00  0.00     0.001 A 
ATOM     78  C   UNL A   1      51.904  25.444  26.918  1.00  0.00     0.001 A 
ATOM     79  C   UNL A   1      52.095  25.584  25.545  1.00  0.00     0.000 A 
ENDBRANCH  55  74
BRANCH  67  80
ATOM     80  C   UNL A   1      48.357  32.766  29.766  1.00  0.00    -0.014 A 
ATOM     81  C   UNL A   1      49.025  32.915  30.991  1.00  0.00     0.009 A 
ATOM     82  C   UNL A   1      48.500  33.757  28.783  1.00  0.00     0.009 A 
ATOM     83  C   UNL A   1      49.793  34.052  31.238  1.00  0.00     0.001 A 
ATOM     84  C   UNL A   1      49.301  34.873  29.018  1.00  0.00     0.001 A 
ATOM     85  C   UNL A   1      49.938  35.024  30.249  1.00  0.00     0.000 A 
ENDBRANCH  67  80
ENDBRANCH  41  42
ENDBRANCH  34  36
ENDBRANCH  33  34
ENDBRANCH  32  33
ENDBRANCH  31  32
ENDBRANCH  30  31
ENDBRANCH  29  30
ENDBRANCH   1  29
TORSDOF 22
ENDMDL
