MODEL 1
REMARK VINA RESULT:      -9.1      0.000      0.000
REMARK SMILES O=C(OCCOCCOCCOC(=O)[C@@H]1C[C@@H]2CC(=O)[C@H]1C2)c1ccc(-c2c3nc(c(-c4ccccc4)c4ccc([nH]4)c(-c4ccccc4)c4nc(c(-c5ccccc5)c5ccc2[nH]5)C=C4)C=C3)cc1
REMARK SMILES IDX 7 1 6 2 5 3 4 4 3 5 2 6 1 7 23 8 24 9 70 10 25 11 69 12
REMARK SMILES IDX 26 13 27 14 28 15 63 16 29 17 68 18 62 19 64 20 30 21 67 22
REMARK SMILES IDX 61 23 60 24 31 26 53 27 38 28 52 29 39 30 42 31 51 32 65 33
REMARK SMILES IDX 40 34 41 35 50 37 66 38 43 39 32 40 33 41 37 42 34 43 36 44
REMARK SMILES IDX 35 45 54 46 55 47 59 48 56 49 58 50 57 51 44 52 45 53 49 54
REMARK SMILES IDX 46 55 48 56 47 57 8 58 9 59 10 60 11 61 12 62 13 63 14 64
REMARK SMILES IDX 15 65 16 66 21 67 17 68 19 69 22 70 18 71 20 72
REMARK H PARENT 64 25 42 36
REMARK Flexibility Score: inf
ROOT
ATOM      1  C   UNL A   1      33.990  36.779  33.027  1.00  0.00     0.188 C 
ENDROOT
BRANCH   1   2
ATOM      2  O   UNL A   1      34.575  35.944  34.029  1.00  0.00    -0.376 OA
BRANCH   2   3
ATOM      3  C   UNL A   1      35.363  34.864  33.515  1.00  0.00     0.202 C 
BRANCH   3   4
ATOM      4  C   UNL A   1      35.108  33.472  34.126  1.00  0.00     0.261 C 
BRANCH   4   5
ATOM      5  O   UNL A   1      35.882  32.409  33.541  1.00  0.00    -0.460 OA
BRANCH   5   6
ATOM      6  C   UNL A   1      37.094  31.929  33.917  1.00  0.00     0.338 C 
ATOM      7  O   UNL A   1      37.409  31.987  35.104  1.00  0.00    -0.246 OA
BRANCH   6   8
ATOM      8  C   UNL A   1      38.090  31.357  32.962  1.00  0.00     0.060 A 
ATOM      9  C   UNL A   1      38.976  30.328  33.267  1.00  0.00     0.016 A 
ATOM     10  C   UNL A   1      38.080  31.842  31.644  1.00  0.00     0.016 A 
ATOM     11  C   UNL A   1      39.895  29.856  32.348  1.00  0.00     0.010 A 
ATOM     12  C   UNL A   1      38.972  31.341  30.688  1.00  0.00     0.010 A 
ATOM     13  C   UNL A   1      39.906  30.368  31.058  1.00  0.00    -0.014 A 
BRANCH  13  14
ATOM     14  C   UNL A   1      41.025  29.970  30.190  1.00  0.00     0.031 A 
ATOM     15  C   UNL A   1      40.886  28.701  29.411  1.00  0.00     0.074 A 
ATOM     16  C   UNL A   1      42.039  30.827  29.977  1.00  0.00     0.049 A 
ATOM     17  N   UNL A   1      41.728  28.144  28.586  1.00  0.00    -0.248 NA
ATOM     18  C   UNL A   1      39.617  27.968  29.568  1.00  0.00     0.031 C 
ATOM     19  C   UNL A   1      42.155  32.159  30.575  1.00  0.00     0.029 A 
ATOM     20  N   UNL A   1      43.136  30.730  29.166  1.00  0.00    -0.354 N 
ATOM     21  C   UNL A   1      41.107  26.981  28.153  1.00  0.00     0.074 A 
ATOM     22  C   UNL A   1      39.823  26.905  28.809  1.00  0.00     0.031 C 
ATOM     23  C   UNL A   1      43.246  32.766  30.082  1.00  0.00     0.029 A 
ATOM     24  C   UNL A   1      43.945  31.839  29.205  1.00  0.00     0.049 A 
ATOM     25  H   UNL A   1      43.326  29.941  28.608  1.00  0.00     0.167 HD
ATOM     26  C   UNL A   1      41.582  26.056  27.290  1.00  0.00     0.031 A 
ATOM     27  C   UNL A   1      45.137  32.059  28.623  1.00  0.00     0.031 A 
ATOM     28  C   UNL A   1      42.874  26.160  26.670  1.00  0.00     0.049 A 
ATOM     29  C   UNL A   1      45.703  30.956  27.775  1.00  0.00     0.074 A 
ATOM     30  C   UNL A   1      43.512  25.260  25.840  1.00  0.00     0.029 A 
ATOM     31  N   UNL A   1      43.726  27.246  26.825  1.00  0.00    -0.354 N 
ATOM     32  N   UNL A   1      45.152  29.813  27.436  1.00  0.00    -0.248 NA
ATOM     33  C   UNL A   1      47.054  31.160  27.242  1.00  0.00     0.031 C 
ATOM     34  C   UNL A   1      44.777  25.776  25.542  1.00  0.00     0.029 A 
ATOM     35  C   UNL A   1      44.899  27.029  26.125  1.00  0.00     0.049 A 
ATOM     36  H   UNL A   1      43.526  28.051  27.354  1.00  0.00     0.167 HD
ATOM     37  C   UNL A   1      46.080  29.169  26.632  1.00  0.00     0.074 A 
ATOM     38  C   UNL A   1      47.218  30.062  26.517  1.00  0.00     0.031 C 
ATOM     39  C   UNL A   1      46.005  27.950  26.043  1.00  0.00     0.031 A 
BRANCH  26  40
ATOM     40  C   UNL A   1      40.737  24.835  27.067  1.00  0.00    -0.014 A 
ATOM     41  C   UNL A   1      39.527  24.888  26.356  1.00  0.00     0.009 A 
ATOM     42  C   UNL A   1      41.140  23.613  27.626  1.00  0.00     0.009 A 
ATOM     43  C   UNL A   1      38.719  23.753  26.250  1.00  0.00     0.001 A 
ATOM     44  C   UNL A   1      40.346  22.474  27.493  1.00  0.00     0.001 A 
ATOM     45  C   UNL A   1      39.129  22.547  26.816  1.00  0.00     0.000 A 
ENDBRANCH  26  40
BRANCH  27  46
ATOM     46  C   UNL A   1      45.888  33.319  28.877  1.00  0.00    -0.014 A 
ATOM     47  C   UNL A   1      45.659  34.468  28.104  1.00  0.00     0.009 A 
ATOM     48  C   UNL A   1      46.858  33.377  29.894  1.00  0.00     0.009 A 
ATOM     49  C   UNL A   1      46.403  35.632  28.326  1.00  0.00     0.001 A 
ATOM     50  C   UNL A   1      47.574  34.551  30.135  1.00  0.00     0.001 A 
ATOM     51  C   UNL A   1      47.354  35.674  29.343  1.00  0.00     0.000 A 
ENDBRANCH  27  46
BRANCH  39  52
ATOM     52  C   UNL A   1      47.172  27.543  25.193  1.00  0.00    -0.014 A 
ATOM     53  C   UNL A   1      48.240  26.804  25.724  1.00  0.00     0.009 A 
ATOM     54  C   UNL A   1      47.172  27.864  23.827  1.00  0.00     0.009 A 
ATOM     55  C   UNL A   1      49.305  26.427  24.906  1.00  0.00     0.001 A 
ATOM     56  C   UNL A   1      48.219  27.454  23.006  1.00  0.00     0.001 A 
ATOM     57  C   UNL A   1      49.289  26.744  23.548  1.00  0.00     0.000 A 
ENDBRANCH  39  52
ENDBRANCH  13  14
ENDBRANCH   6   8
ENDBRANCH   5   6
ENDBRANCH   4   5
ENDBRANCH   3   4
ENDBRANCH   2   3
ENDBRANCH   1   2
BRANCH   1  58
ATOM     58  C   UNL A   1      32.702  36.205  32.443  1.00  0.00     0.188 C 
BRANCH  58  59
ATOM     59  O   UNL A   1      32.298  36.671  31.162  1.00  0.00    -0.376 OA
BRANCH  59  60
ATOM     60  C   UNL A   1      33.296  37.177  30.285  1.00  0.00     0.202 C 
BRANCH  60  61
ATOM     61  C   UNL A   1      33.238  36.785  28.800  1.00  0.00     0.261 C 
BRANCH  61  62
ATOM     62  O   UNL A   1      34.150  35.757  28.391  1.00  0.00    -0.463 OA
BRANCH  62  63
ATOM     63  C   UNL A   1      33.601  34.514  28.348  1.00  0.00     0.309 C 
ATOM     64  O   UNL A   1      32.486  34.220  28.759  1.00  0.00    -0.252 OA
BRANCH  63  65
ATOM     65  C   UNL A   1      34.542  33.520  27.688  1.00  0.00     0.110 C 
ATOM     66  C   UNL A   1      34.010  32.069  27.847  1.00  0.00     0.020 C 
ATOM     67  C   UNL A   1      35.906  33.448  28.390  1.00  0.00     0.070 C 
ATOM     68  C   UNL A   1      35.042  31.416  28.790  1.00  0.00    -0.002 C 
ATOM     69  C   UNL A   1      35.624  33.388  29.874  1.00  0.00     0.137 C 
ATOM     70  C   UNL A   1      36.336  31.988  28.210  1.00  0.00     0.016 C 
ATOM     71  C   UNL A   1      34.994  32.052  30.201  1.00  0.00     0.079 C 
ATOM     72  O   UNL A   1      35.850  34.295  30.665  1.00  0.00    -0.299 OA
ENDBRANCH  63  65
ENDBRANCH  62  63
ENDBRANCH  61  62
ENDBRANCH  60  61
ENDBRANCH  59  60
ENDBRANCH  58  59
ENDBRANCH   1  58
TORSDOF 17
ENDMDL
MODEL 2
REMARK VINA RESULT:      -9.0      3.296      7.555
REMARK SMILES O=C(OCCOCCOCCOC(=O)[C@@H]1C[C@@H]2CC(=O)[C@H]1C2)c1ccc(-c2c3nc(c(-c4ccccc4)c4ccc([nH]4)c(-c4ccccc4)c4nc(c(-c5ccccc5)c5ccc2[nH]5)C=C4)C=C3)cc1
REMARK SMILES IDX 7 1 6 2 5 3 4 4 3 5 2 6 1 7 23 8 24 9 70 10 25 11 69 12
REMARK SMILES IDX 26 13 27 14 28 15 63 16 29 17 68 18 62 19 64 20 30 21 67 22
REMARK SMILES IDX 61 23 60 24 31 26 53 27 38 28 52 29 39 30 42 31 51 32 65 33
REMARK SMILES IDX 40 34 41 35 50 37 66 38 43 39 32 40 33 41 37 42 34 43 36 44
REMARK SMILES IDX 35 45 54 46 55 47 59 48 56 49 58 50 57 51 44 52 45 53 49 54
REMARK SMILES IDX 46 55 48 56 47 57 8 58 9 59 10 60 11 61 12 62 13 63 14 64
REMARK SMILES IDX 15 65 16 66 21 67 17 68 19 69 22 70 18 71 20 72
REMARK H PARENT 64 25 42 36
REMARK Flexibility Score: inf
ROOT
ATOM      1  C   UNL A   1      33.991  32.850  28.279  1.00  0.00     0.188 C 
ENDROOT
BRANCH   1   2
ATOM      2  O   UNL A   1      34.002  32.715  29.703  1.00  0.00    -0.376 OA
BRANCH   2   3
ATOM      3  C   UNL A   1      34.363  33.909  30.408  1.00  0.00     0.202 C 
BRANCH   3   4
ATOM      4  C   UNL A   1      34.443  33.804  31.944  1.00  0.00     0.261 C 
BRANCH   4   5
ATOM      5  O   UNL A   1      34.875  32.522  32.436  1.00  0.00    -0.460 OA
BRANCH   5   6
ATOM      6  C   UNL A   1      36.077  32.168  32.953  1.00  0.00     0.338 C 
ATOM      7  O   UNL A   1      36.310  32.421  34.134  1.00  0.00    -0.246 OA
BRANCH   6   8
ATOM      8  C   UNL A   1      37.159  31.510  32.160  1.00  0.00     0.060 A 
ATOM      9  C   UNL A   1      38.162  30.712  32.702  1.00  0.00     0.016 A 
ATOM     10  C   UNL A   1      37.115  31.647  30.762  1.00  0.00     0.016 A 
ATOM     11  C   UNL A   1      39.152  30.149  31.919  1.00  0.00     0.010 A 
ATOM     12  C   UNL A   1      38.083  31.044  29.951  1.00  0.00     0.010 A 
ATOM     13  C   UNL A   1      39.126  30.322  30.542  1.00  0.00    -0.014 A 
BRANCH  13  14
ATOM     14  C   UNL A   1      40.305  29.868  29.788  1.00  0.00     0.031 A 
ATOM     15  C   UNL A   1      41.465  30.805  29.678  1.00  0.00     0.074 A 
ATOM     16  C   UNL A   1      40.386  28.587  29.388  1.00  0.00     0.049 A 
ATOM     17  N   UNL A   1      42.607  30.635  29.071  1.00  0.00    -0.248 NA
ATOM     18  C   UNL A   1      41.329  32.104  30.361  1.00  0.00     0.031 C 
ATOM     19  C   UNL A   1      39.358  27.568  29.613  1.00  0.00     0.029 A 
ATOM     20  N   UNL A   1      41.392  27.910  28.756  1.00  0.00    -0.354 N 
ATOM     21  C   UNL A   1      43.310  31.816  29.269  1.00  0.00     0.074 A 
ATOM     22  C   UNL A   1      42.468  32.697  30.044  1.00  0.00     0.031 C 
ATOM     23  C   UNL A   1      39.803  26.388  29.155  1.00  0.00     0.029 A 
ATOM     24  C   UNL A   1      41.104  26.586  28.532  1.00  0.00     0.049 A 
ATOM     25  H   UNL A   1      42.241  28.331  28.488  1.00  0.00     0.167 HD
ATOM     26  C   UNL A   1      44.547  32.130  28.827  1.00  0.00     0.031 A 
ATOM     27  C   UNL A   1      41.802  25.651  27.864  1.00  0.00     0.031 A 
ATOM     28  C   UNL A   1      45.347  31.231  28.043  1.00  0.00     0.049 A 
ATOM     29  C   UNL A   1      43.117  26.068  27.268  1.00  0.00     0.074 A 
ATOM     30  C   UNL A   1      46.581  31.448  27.464  1.00  0.00     0.029 A 
ATOM     31  N   UNL A   1      44.974  29.930  27.730  1.00  0.00    -0.354 N 
ATOM     32  N   UNL A   1      43.743  27.217  27.380  1.00  0.00    -0.248 NA
ATOM     33  C   UNL A   1      43.813  25.075  26.444  1.00  0.00     0.031 C 
ATOM     34  C   UNL A   1      46.927  30.297  26.749  1.00  0.00     0.029 A 
ATOM     35  C   UNL A   1      45.944  29.337  26.943  1.00  0.00     0.049 A 
ATOM     36  H   UNL A   1      44.143  29.493  28.024  1.00  0.00     0.167 HD
ATOM     37  C   UNL A   1      44.919  27.080  26.659  1.00  0.00     0.074 A 
ATOM     38  C   UNL A   1      44.925  25.727  26.134  1.00  0.00     0.031 C 
ATOM     39  C   UNL A   1      45.904  27.986  26.443  1.00  0.00     0.031 A 
BRANCH  26  40
ATOM     40  C   UNL A   1      45.035  33.523  29.105  1.00  0.00    -0.014 A 
ATOM     41  C   UNL A   1      45.843  33.820  30.214  1.00  0.00     0.009 A 
ATOM     42  C   UNL A   1      44.633  34.570  28.261  1.00  0.00     0.009 A 
ATOM     43  C   UNL A   1      46.200  35.141  30.496  1.00  0.00     0.001 A 
ATOM     44  C   UNL A   1      45.016  35.885  28.527  1.00  0.00     0.001 A 
ATOM     45  C   UNL A   1      45.788  36.172  29.652  1.00  0.00     0.000 A 
ENDBRANCH  26  40
BRANCH  27  46
ATOM     46  C   UNL A   1      41.251  24.282  27.669  1.00  0.00    -0.014 A 
ATOM     47  C   UNL A   1      41.801  23.176  28.335  1.00  0.00     0.009 A 
ATOM     48  C   UNL A   1      40.169  24.069  26.795  1.00  0.00     0.009 A 
ATOM     49  C   UNL A   1      41.300  21.890  28.108  1.00  0.00     0.001 A 
ATOM     50  C   UNL A   1      39.649  22.788  26.597  1.00  0.00     0.001 A 
ATOM     51  C   UNL A   1      40.222  21.698  27.245  1.00  0.00     0.000 A 
ENDBRANCH  27  46
BRANCH  39  52
ATOM     52  C   UNL A   1      47.081  27.518  25.639  1.00  0.00    -0.014 A 
ATOM     53  C   UNL A   1      47.065  27.545  24.237  1.00  0.00     0.009 A 
ATOM     54  C   UNL A   1      48.241  27.092  26.305  1.00  0.00     0.009 A 
ATOM     55  C   UNL A   1      48.180  27.118  23.515  1.00  0.00     0.001 A 
ATOM     56  C   UNL A   1      49.366  26.701  25.582  1.00  0.00     0.001 A 
ATOM     57  C   UNL A   1      49.330  26.706  24.188  1.00  0.00     0.000 A 
ENDBRANCH  39  52
ENDBRANCH  13  14
ENDBRANCH   6   8
ENDBRANCH   5   6
ENDBRANCH   4   5
ENDBRANCH   3   4
ENDBRANCH   2   3
ENDBRANCH   1   2
BRANCH   1  58
ATOM     58  C   UNL A   1      34.245  31.533  27.550  1.00  0.00     0.188 C 
BRANCH  58  59
ATOM     59  O   UNL A   1      33.166  30.610  27.469  1.00  0.00    -0.376 OA
BRANCH  59  60
ATOM     60  C   UNL A   1      32.070  30.929  26.623  1.00  0.00     0.202 C 
BRANCH  60  61
ATOM     61  C   UNL A   1      31.679  29.935  25.519  1.00  0.00     0.261 C 
BRANCH  61  62
ATOM     62  O   UNL A   1      30.546  30.305  24.720  1.00  0.00    -0.463 OA
BRANCH  62  63
ATOM     63  C   UNL A   1      30.314  29.474  23.670  1.00  0.00     0.309 C 
ATOM     64  O   UNL A   1      30.406  28.254  23.701  1.00  0.00    -0.252 OA
BRANCH  63  65
ATOM     65  C   UNL A   1      29.887  30.253  22.437  1.00  0.00     0.110 C 
ATOM     66  C   UNL A   1      29.567  31.729  22.801  1.00  0.00     0.020 C 
ATOM     67  C   UNL A   1      28.549  29.759  21.865  1.00  0.00     0.070 C 
ATOM     68  C   UNL A   1      28.043  31.825  22.581  1.00  0.00    -0.002 C 
ATOM     69  C   UNL A   1      27.615  29.588  23.041  1.00  0.00     0.137 C 
ATOM     70  C   UNL A   1      27.908  31.025  21.285  1.00  0.00     0.016 C 
ATOM     71  C   UNL A   1      27.272  30.951  23.600  1.00  0.00     0.079 C 
ATOM     72  O   UNL A   1      27.230  28.509  23.476  1.00  0.00    -0.299 OA
ENDBRANCH  63  65
ENDBRANCH  62  63
ENDBRANCH  61  62
ENDBRANCH  60  61
ENDBRANCH  59  60
ENDBRANCH  58  59
ENDBRANCH   1  58
TORSDOF 17
ENDMDL
MODEL 3
REMARK VINA RESULT:      -8.9      5.798     11.221
REMARK SMILES O=C(OCCOCCOCCOC(=O)[C@@H]1C[C@@H]2CC(=O)[C@H]1C2)c1ccc(-c2c3nc(c(-c4ccccc4)c4ccc([nH]4)c(-c4ccccc4)c4nc(c(-c5ccccc5)c5ccc2[nH]5)C=C4)C=C3)cc1
REMARK SMILES IDX 7 1 6 2 5 3 4 4 3 5 2 6 1 7 23 8 24 9 70 10 25 11 69 12
REMARK SMILES IDX 26 13 27 14 28 15 63 16 29 17 68 18 62 19 64 20 30 21 67 22
REMARK SMILES IDX 61 23 60 24 31 26 53 27 38 28 52 29 39 30 42 31 51 32 65 33
REMARK SMILES IDX 40 34 41 35 50 37 66 38 43 39 32 40 33 41 37 42 34 43 36 44
REMARK SMILES IDX 35 45 54 46 55 47 59 48 56 49 58 50 57 51 44 52 45 53 49 54
REMARK SMILES IDX 46 55 48 56 47 57 8 58 9 59 10 60 11 61 12 62 13 63 14 64
REMARK SMILES IDX 15 65 16 66 21 67 17 68 19 69 22 70 18 71 20 72
REMARK H PARENT 64 25 42 36
REMARK Flexibility Score: inf
ROOT
ATOM      1  C   UNL A   1      41.899  21.697  27.389  1.00  0.00     0.188 C 
ENDROOT
BRANCH   1   2
ATOM      2  O   UNL A   1      42.136  20.297  27.556  1.00  0.00    -0.376 OA
BRANCH   2   3
ATOM      3  C   UNL A   1      41.770  19.495  26.427  1.00  0.00     0.202 C 
BRANCH   3   4
ATOM      4  C   UNL A   1      42.872  18.595  25.835  1.00  0.00     0.261 C 
BRANCH   4   5
ATOM      5  O   UNL A   1      43.372  19.024  24.555  1.00  0.00    -0.460 OA
BRANCH   5   6
ATOM      6  C   UNL A   1      44.528  19.671  24.264  1.00  0.00     0.338 C 
ATOM      7  O   UNL A   1      45.373  19.093  23.583  1.00  0.00    -0.246 OA
BRANCH   6   8
ATOM      8  C   UNL A   1      44.853  21.045  24.751  1.00  0.00     0.060 A 
ATOM      9  C   UNL A   1      45.423  21.331  25.988  1.00  0.00     0.016 A 
ATOM     10  C   UNL A   1      44.638  22.116  23.867  1.00  0.00     0.016 A 
ATOM     11  C   UNL A   1      45.679  22.627  26.395  1.00  0.00     0.010 A 
ATOM     12  C   UNL A   1      44.936  23.430  24.246  1.00  0.00     0.010 A 
ATOM     13  C   UNL A   1      45.426  23.684  25.531  1.00  0.00    -0.014 A 
BRANCH  13  14
ATOM     14  C   UNL A   1      45.533  25.042  26.087  1.00  0.00     0.031 A 
ATOM     15  C   UNL A   1      46.845  25.748  25.957  1.00  0.00     0.074 A 
ATOM     16  C   UNL A   1      44.427  25.673  26.519  1.00  0.00     0.049 A 
ATOM     17  N   UNL A   1      47.183  26.939  26.363  1.00  0.00    -0.248 NA
ATOM     18  C   UNL A   1      47.917  25.019  25.255  1.00  0.00     0.031 C 
ATOM     19  C   UNL A   1      43.077  25.102  26.518  1.00  0.00     0.029 A 
ATOM     20  N   UNL A   1      44.250  26.942  26.995  1.00  0.00    -0.354 N 
ATOM     21  C   UNL A   1      48.514  27.090  25.998  1.00  0.00     0.074 A 
ATOM     22  C   UNL A   1      48.926  25.870  25.345  1.00  0.00     0.031 C 
ATOM     23  C   UNL A   1      42.208  26.033  26.941  1.00  0.00     0.029 A 
ATOM     24  C   UNL A   1      42.947  27.229  27.320  1.00  0.00     0.049 A 
ATOM     25  H   UNL A   1      44.987  27.589  27.095  1.00  0.00     0.167 HD
ATOM     26  C   UNL A   1      49.318  28.157  26.206  1.00  0.00     0.031 A 
ATOM     27  C   UNL A   1      42.421  28.325  27.895  1.00  0.00     0.031 A 
ATOM     28  C   UNL A   1      48.875  29.347  26.876  1.00  0.00     0.049 A 
ATOM     29  C   UNL A   1      43.364  29.443  28.237  1.00  0.00     0.074 A 
ATOM     30  C   UNL A   1      49.602  30.468  27.223  1.00  0.00     0.029 A 
ATOM     31  N   UNL A   1      47.569  29.560  27.302  1.00  0.00    -0.354 N 
ATOM     32  N   UNL A   1      44.646  29.549  27.971  1.00  0.00    -0.248 NA
ATOM     33  C   UNL A   1      42.800  30.582  28.968  1.00  0.00     0.031 C 
ATOM     34  C   UNL A   1      48.748  31.335  27.914  1.00  0.00     0.029 A 
ATOM     35  C   UNL A   1      47.473  30.787  27.933  1.00  0.00     0.049 A 
ATOM     36  H   UNL A   1      46.823  28.932  27.174  1.00  0.00     0.167 HD
ATOM     37  C   UNL A   1      45.039  30.775  28.483  1.00  0.00     0.074 A 
ATOM     38  C   UNL A   1      43.852  31.384  29.054  1.00  0.00     0.031 C 
ATOM     39  C   UNL A   1      46.267  31.349  28.487  1.00  0.00     0.031 A 
BRANCH  26  40
ATOM     40  C   UNL A   1      50.754  28.017  25.791  1.00  0.00    -0.014 A 
ATOM     41  C   UNL A   1      51.741  27.548  26.674  1.00  0.00     0.009 A 
ATOM     42  C   UNL A   1      51.135  28.413  24.500  1.00  0.00     0.009 A 
ATOM     43  C   UNL A   1      53.082  27.522  26.285  1.00  0.00     0.001 A 
ATOM     44  C   UNL A   1      52.471  28.358  24.104  1.00  0.00     0.001 A 
ATOM     45  C   UNL A   1      53.447  27.924  25.000  1.00  0.00     0.000 A 
ENDBRANCH  26  40
BRANCH  27  46
ATOM     46  C   UNL A   1      40.973  28.385  28.239  1.00  0.00    -0.014 A 
ATOM     47  C   UNL A   1      40.045  28.977  27.369  1.00  0.00     0.009 A 
ATOM     48  C   UNL A   1      40.510  27.858  29.457  1.00  0.00     0.009 A 
ATOM     49  C   UNL A   1      38.695  29.065  27.725  1.00  0.00     0.001 A 
ATOM     50  C   UNL A   1      39.156  27.916  29.795  1.00  0.00     0.001 A 
ATOM     51  C   UNL A   1      38.252  28.530  28.933  1.00  0.00     0.000 A 
ENDBRANCH  27  46
BRANCH  39  52
ATOM     52  C   UNL A   1      46.366  32.718  29.094  1.00  0.00    -0.014 A 
ATOM     53  C   UNL A   1      46.142  33.873  28.332  1.00  0.00     0.009 A 
ATOM     54  C   UNL A   1      46.638  32.841  30.466  1.00  0.00     0.009 A 
ATOM     55  C   UNL A   1      46.225  35.132  28.927  1.00  0.00     0.001 A 
ATOM     56  C   UNL A   1      46.684  34.098  31.064  1.00  0.00     0.001 A 
ATOM     57  C   UNL A   1      46.488  35.242  30.293  1.00  0.00     0.000 A 
ENDBRANCH  39  52
ENDBRANCH  13  14
ENDBRANCH   6   8
ENDBRANCH   5   6
ENDBRANCH   4   5
ENDBRANCH   3   4
ENDBRANCH   2   3
ENDBRANCH   1   2
BRANCH   1  58
ATOM     58  C   UNL A   1      40.939  22.011  26.245  1.00  0.00     0.188 C 
BRANCH  58  59
ATOM     59  O   UNL A   1      39.579  22.263  26.581  1.00  0.00    -0.376 OA
BRANCH  59  60
ATOM     60  C   UNL A   1      38.569  21.732  25.735  1.00  0.00     0.202 C 
BRANCH  60  61
ATOM     61  C   UNL A   1      37.240  22.494  25.607  1.00  0.00     0.261 C 
BRANCH  61  62
ATOM     62  O   UNL A   1      36.232  21.860  24.808  1.00  0.00    -0.463 OA
BRANCH  62  63
ATOM     63  C   UNL A   1      34.961  22.103  25.225  1.00  0.00     0.309 C 
ATOM     64  O   UNL A   1      34.023  21.325  25.120  1.00  0.00    -0.252 OA
BRANCH  63  65
ATOM     65  C   UNL A   1      34.849  23.470  25.878  1.00  0.00     0.110 C 
ATOM     66  C   UNL A   1      33.432  23.680  26.478  1.00  0.00     0.020 C 
ATOM     67  C   UNL A   1      34.948  24.617  24.859  1.00  0.00     0.070 C 
ATOM     68  C   UNL A   1      32.831  24.786  25.586  1.00  0.00    -0.002 C 
ATOM     69  C   UNL A   1      34.064  24.235  23.694  1.00  0.00     0.137 C 
ATOM     70  C   UNL A   1      34.043  25.707  25.446  1.00  0.00     0.016 C 
ATOM     71  C   UNL A   1      32.618  24.285  24.137  1.00  0.00     0.079 C 
ATOM     72  O   UNL A   1      34.471  23.911  22.586  1.00  0.00    -0.299 OA
ENDBRANCH  63  65
ENDBRANCH  62  63
ENDBRANCH  61  62
ENDBRANCH  60  61
ENDBRANCH  59  60
ENDBRANCH  58  59
ENDBRANCH   1  58
TORSDOF 17
ENDMDL
