MODEL 1
REMARK VINA RESULT:     -11.3      0.000      0.000
REMARK SMILES Cc1cccc(NC(=O)C[C@@H]2CCCCO2)c1C(=O)OCCOCCOCCOC(=O)c1ccc(-c2c3nc(c(-c4ccccc4)c4ccc([nH]4)c(-c4ccccc4)c4nc(c(-c5ccccc5)c5ccc2[nH]5)C=C4)C=C3)cc1
REMARK SMILES IDX 24 1 23 2 22 3 21 4 20 5 18 6 19 7 17 8 1 9 2 10 3 11 4 12
REMARK SMILES IDX 6 13 5 14 7 15 8 16 9 18 10 19 11 20 12 21 16 22 13 23 15 24
REMARK SMILES IDX 14 25 25 26 26 27 27 28 28 29 29 30 30 31 31 32 32 33 33 34
REMARK SMILES IDX 79 35 34 36 78 37 35 38 36 39 37 40 72 41 38 42 77 43 71 44
REMARK SMILES IDX 73 45 39 46 76 47 70 48 69 49 40 51 62 52 47 53 61 54 48 55
REMARK SMILES IDX 51 56 60 57 74 58 49 59 50 60 59 62 75 63 52 64 41 65 42 66
REMARK SMILES IDX 46 67 43 68 45 69 44 70 63 71 64 72 68 73 65 74 67 75 66 76
REMARK SMILES IDX 53 77 54 78 58 79 55 80 57 81 56 82
REMARK H PARENT 7 17 73 50 51 61
REMARK Flexibility Score: inf
ROOT
ATOM      1  C   UNL A   1      45.818  23.062  25.294  1.00  0.00     0.188 C 
ENDROOT
BRANCH   1   2
ATOM      2  O   UNL A   1      46.209  21.682  25.485  1.00  0.00    -0.376 OA
BRANCH   2   3
ATOM      3  C   UNL A   1      45.494  20.536  24.990  1.00  0.00     0.202 C 
BRANCH   3   4
ATOM      4  C   UNL A   1      43.899  20.129  25.392  1.00  0.00     0.261 C 
BRANCH   4   5
ATOM      5  O   UNL A   1      42.449  21.063  25.628  1.00  0.00    -0.460 OA
BRANCH   5   6
ATOM      6  C   UNL A   1      41.469  21.280  26.673  1.00  0.00     0.340 C 
ATOM      7  O   UNL A   1      40.941  20.387  27.329  1.00  0.00    -0.246 OA
BRANCH   6   8
ATOM      8  C   UNL A   1      40.652  22.474  27.055  1.00  0.00     0.086 A 
ATOM      9  C   UNL A   1      42.612  23.624  28.210  1.00  0.00     0.045 C 
ATOM     10  C   UNL A   1      41.241  23.602  27.618  1.00  0.00    -0.034 A 
ATOM     11  C   UNL A   1      40.524  24.818  27.599  1.00  0.00     0.004 A 
ATOM     12  C   UNL A   1      39.264  24.938  27.008  1.00  0.00     0.002 A 
ATOM     13  C   UNL A   1      39.261  22.577  26.544  1.00  0.00     0.056 A 
ATOM     14  C   UNL A   1      38.640  23.825  26.475  1.00  0.00     0.027 A 
BRANCH  13  15
ATOM     15  N   UNL A   1      38.533  21.438  26.061  1.00  0.00    -0.325 N 
ATOM     16  C   UNL A   1      37.542  21.238  25.132  1.00  0.00     0.227 C 
ATOM     17  H   UNL A   1      38.811  20.601  26.499  1.00  0.00     0.169 HD
ATOM     18  O   UNL A   1      37.241  20.081  24.813  1.00  0.00    -0.275 OA
BRANCH  16  19
ATOM     19  C   UNL A   1      36.747  22.366  24.509  1.00  0.00     0.132 C 
BRANCH  19  20
ATOM     20  C   UNL A   1      35.223  22.157  24.450  1.00  0.00     0.127 C 
ATOM     21  C   UNL A   1      34.583  23.011  23.347  1.00  0.00     0.033 C 
ATOM     22  O   UNL A   1      34.504  22.386  25.660  1.00  0.00    -0.378 OA
ATOM     23  C   UNL A   1      34.678  24.495  23.686  1.00  0.00     0.005 C 
ATOM     24  C   UNL A   1      34.439  23.726  26.117  1.00  0.00     0.160 C 
ATOM     25  C   UNL A   1      34.102  24.776  25.067  1.00  0.00     0.029 C 
ENDBRANCH  19  20
ENDBRANCH  16  19
ENDBRANCH  13  15
ENDBRANCH   6   8
ENDBRANCH   5   6
ENDBRANCH   4   5
ENDBRANCH   3   4
ENDBRANCH   2   3
ENDBRANCH   1   2
BRANCH   1  26
ATOM     26  C   UNL A   1      45.861  24.131  26.395  1.00  0.00     0.188 C 
BRANCH  26  27
ATOM     27  O   UNL A   1      46.638  25.243  25.991  1.00  0.00    -0.376 OA
BRANCH  27  28
ATOM     28  C   UNL A   1      46.067  26.059  24.979  1.00  0.00     0.202 C 
BRANCH  28  29
ATOM     29  C   UNL A   1      45.370  27.320  25.532  1.00  0.00     0.261 C 
BRANCH  29  30
ATOM     30  O   UNL A   1      44.236  26.970  26.360  1.00  0.00    -0.460 OA
BRANCH  30  31
ATOM     31  C   UNL A   1      42.987  27.019  25.764  1.00  0.00     0.338 C 
ATOM     32  O   UNL A   1      42.652  26.365  24.821  1.00  0.00    -0.246 OA
BRANCH  31  33
ATOM     33  C   UNL A   1      42.227  28.196  26.323  1.00  0.00     0.060 A 
ATOM     34  C   UNL A   1      42.661  29.047  27.347  1.00  0.00     0.016 A 
ATOM     35  C   UNL A   1      40.900  28.203  26.082  1.00  0.00     0.016 A 
ATOM     36  C   UNL A   1      41.728  29.703  28.255  1.00  0.00     0.010 A 
ATOM     37  C   UNL A   1      40.095  28.618  27.135  1.00  0.00     0.010 A 
ATOM     38  C   UNL A   1      40.359  29.419  28.267  1.00  0.00    -0.014 A 
BRANCH  38  39
ATOM     39  C   UNL A   1      39.248  29.895  29.441  1.00  0.00     0.031 A 
ATOM     40  C   UNL A   1      38.296  31.313  29.656  1.00  0.00     0.074 A 
ATOM     41  C   UNL A   1      39.264  29.142  30.565  1.00  0.00     0.049 A 
ATOM     42  N   UNL A   1      38.091  31.913  30.820  1.00  0.00    -0.248 NA
ATOM     43  C   UNL A   1      37.647  32.222  28.635  1.00  0.00     0.031 C 
ATOM     44  C   UNL A   1      38.416  29.259  31.745  1.00  0.00     0.029 A 
ATOM     45  N   UNL A   1      40.254  28.232  30.949  1.00  0.00    -0.354 N 
ATOM     46  C   UNL A   1      37.259  33.026  30.610  1.00  0.00     0.074 A 
ATOM     47  C   UNL A   1      37.337  33.339  29.253  1.00  0.00     0.031 C 
ATOM     48  C   UNL A   1      39.078  28.744  32.792  1.00  0.00     0.029 A 
ATOM     49  C   UNL A   1      40.406  28.370  32.333  1.00  0.00     0.049 A 
ATOM     50  H   UNL A   1      40.747  27.615  30.360  1.00  0.00     0.167 HD
ATOM     51  C   UNL A   1      36.365  33.532  31.499  1.00  0.00     0.031 A 
ATOM     52  C   UNL A   1      41.593  28.752  32.878  1.00  0.00     0.031 A 
ATOM     53  C   UNL A   1      36.747  33.118  32.817  1.00  0.00     0.049 A 
ATOM     54  C   UNL A   1      41.492  30.011  33.719  1.00  0.00     0.074 A 
ATOM     55  C   UNL A   1      36.341  32.106  33.660  1.00  0.00     0.029 A 
ATOM     56  N   UNL A   1      37.989  33.543  33.252  1.00  0.00    -0.354 N 
ATOM     57  N   UNL A   1      40.420  30.749  33.835  1.00  0.00    -0.248 NA
ATOM     58  C   UNL A   1      42.619  30.562  34.470  1.00  0.00     0.031 C 
ATOM     59  C   UNL A   1      37.450  31.808  34.507  1.00  0.00     0.029 A 
ATOM     60  C   UNL A   1      38.476  32.694  34.220  1.00  0.00     0.049 A 
ATOM     61  H   UNL A   1      38.459  34.341  32.918  1.00  0.00     0.167 HD
ATOM     62  C   UNL A   1      40.716  31.882  34.548  1.00  0.00     0.074 A 
ATOM     63  C   UNL A   1      42.089  31.690  34.972  1.00  0.00     0.031 C 
ATOM     64  C   UNL A   1      39.835  32.915  34.692  1.00  0.00     0.031 A 
BRANCH  51  65
ATOM     65  C   UNL A   1      35.062  34.255  31.108  1.00  0.00    -0.014 A 
ATOM     66  C   UNL A   1      34.517  34.041  29.831  1.00  0.00     0.009 A 
ATOM     67  C   UNL A   1      34.387  35.247  31.864  1.00  0.00     0.009 A 
ATOM     68  C   UNL A   1      33.413  34.777  29.347  1.00  0.00     0.001 A 
ATOM     69  C   UNL A   1      33.270  35.967  31.404  1.00  0.00     0.001 A 
ATOM     70  C   UNL A   1      32.788  35.739  30.132  1.00  0.00     0.000 A 
ENDBRANCH  51  65
BRANCH  52  71
ATOM     71  C   UNL A   1      42.807  28.282  32.133  1.00  0.00    -0.014 A 
ATOM     72  C   UNL A   1      43.397  29.152  31.186  1.00  0.00     0.009 A 
ATOM     73  C   UNL A   1      43.540  27.152  32.513  1.00  0.00     0.009 A 
ATOM     74  C   UNL A   1      44.708  28.965  30.730  1.00  0.00     0.001 A 
ATOM     75  C   UNL A   1      44.852  26.957  32.043  1.00  0.00     0.001 A 
ATOM     76  C   UNL A   1      45.445  27.875  31.177  1.00  0.00     0.000 A 
ENDBRANCH  52  71
BRANCH  64  77
ATOM     77  C   UNL A   1      40.168  34.281  35.250  1.00  0.00    -0.014 A 
ATOM     78  C   UNL A   1      39.699  34.769  36.476  1.00  0.00     0.009 A 
ATOM     79  C   UNL A   1      41.145  35.061  34.589  1.00  0.00     0.009 A 
ATOM     80  C   UNL A   1      40.143  35.997  36.987  1.00  0.00     0.001 A 
ATOM     81  C   UNL A   1      41.635  36.254  35.124  1.00  0.00     0.001 A 
ATOM     82  C   UNL A   1      41.120  36.731  36.319  1.00  0.00     0.000 A 
ENDBRANCH  64  77
ENDBRANCH  38  39
ENDBRANCH  31  33
ENDBRANCH  30  31
ENDBRANCH  29  30
ENDBRANCH  28  29
ENDBRANCH  27  28
ENDBRANCH  26  27
ENDBRANCH   1  26
TORSDOF 20
ENDMDL
MODEL 2
REMARK VINA RESULT:     -10.4      4.528     10.784
REMARK SMILES Cc1cccc(NC(=O)C[C@@H]2CCCCO2)c1C(=O)OCCOCCOCCOC(=O)c1ccc(-c2c3nc(c(-c4ccccc4)c4ccc([nH]4)c(-c4ccccc4)c4nc(c(-c5ccccc5)c5ccc2[nH]5)C=C4)C=C3)cc1
REMARK SMILES IDX 24 1 23 2 22 3 21 4 20 5 18 6 19 7 17 8 1 9 2 10 3 11 4 12
REMARK SMILES IDX 6 13 5 14 7 15 8 16 9 18 10 19 11 20 12 21 16 22 13 23 15 24
REMARK SMILES IDX 14 25 25 26 26 27 27 28 28 29 29 30 30 31 31 32 32 33 33 34
REMARK SMILES IDX 79 35 34 36 78 37 35 38 36 39 37 40 72 41 38 42 77 43 71 44
REMARK SMILES IDX 73 45 39 46 76 47 70 48 69 49 40 51 62 52 47 53 61 54 48 55
REMARK SMILES IDX 51 56 60 57 74 58 49 59 50 60 59 62 75 63 52 64 41 65 42 66
REMARK SMILES IDX 46 67 43 68 45 69 44 70 63 71 64 72 68 73 65 74 67 75 66 76
REMARK SMILES IDX 53 77 54 78 58 79 55 80 57 81 56 82
REMARK H PARENT 7 17 73 50 51 61
REMARK Flexibility Score: inf
ROOT
ATOM      1  C   UNL A   1      34.313  32.815  28.047  1.00  0.00     0.188 C 
ENDROOT
BRANCH   1   2
ATOM      2  O   UNL A   1      33.708  31.506  28.174  1.00  0.00    -0.376 OA
BRANCH   2   3
ATOM      3  C   UNL A   1      33.337  30.649  27.079  1.00  0.00     0.202 C 
BRANCH   3   4
ATOM      4  C   UNL A   1      31.944  29.687  27.018  1.00  0.00     0.261 C 
BRANCH   4   5
ATOM      5  O   UNL A   1      31.667  27.973  27.136  1.00  0.00    -0.460 OA
BRANCH   5   6
ATOM      6  C   UNL A   1      31.323  26.877  26.253  1.00  0.00     0.340 C 
ATOM      7  O   UNL A   1      30.632  25.915  26.573  1.00  0.00    -0.246 OA
BRANCH   6   8
ATOM      8  C   UNL A   1      31.862  26.446  24.924  1.00  0.00     0.086 A 
ATOM      9  C   UNL A   1      30.431  28.121  23.640  1.00  0.00     0.045 C 
ATOM     10  C   UNL A   1      31.553  27.143  23.759  1.00  0.00    -0.034 A 
ATOM     11  C   UNL A   1      32.370  26.953  22.624  1.00  0.00     0.004 A 
ATOM     12  C   UNL A   1      33.492  26.120  22.635  1.00  0.00     0.002 A 
ATOM     13  C   UNL A   1      32.977  25.466  24.893  1.00  0.00     0.056 A 
ATOM     14  C   UNL A   1      33.799  25.387  23.768  1.00  0.00     0.027 A 
BRANCH  13  15
ATOM     15  N   UNL A   1      33.285  24.616  26.009  1.00  0.00    -0.325 N 
ATOM     16  C   UNL A   1      33.196  23.269  26.261  1.00  0.00     0.227 C 
ATOM     17  H   UNL A   1      33.648  25.118  26.774  1.00  0.00     0.169 HD
ATOM     18  O   UNL A   1      33.720  22.814  27.285  1.00  0.00    -0.275 OA
BRANCH  16  19
ATOM     19  C   UNL A   1      32.434  22.307  25.374  1.00  0.00     0.132 C 
BRANCH  19  20
ATOM     20  C   UNL A   1      33.145  21.890  24.074  1.00  0.00     0.127 C 
ATOM     21  C   UNL A   1      32.494  20.647  23.453  1.00  0.00     0.033 C 
ATOM     22  O   UNL A   1      34.549  21.655  24.166  1.00  0.00    -0.378 OA
ATOM     23  C   UNL A   1      32.716  19.421  24.333  1.00  0.00     0.005 C 
ATOM     24  C   UNL A   1      34.955  20.521  24.912  1.00  0.00     0.160 C 
ATOM     25  C   UNL A   1      34.196  19.231  24.637  1.00  0.00     0.029 C 
ENDBRANCH  19  20
ENDBRANCH  16  19
ENDBRANCH  13  15
ENDBRANCH   6   8
ENDBRANCH   5   6
ENDBRANCH   4   5
ENDBRANCH   3   4
ENDBRANCH   2   3
ENDBRANCH   1   2
BRANCH   1  26
ATOM     26  C   UNL A   1      34.709  33.700  29.236  1.00  0.00     0.188 C 
BRANCH  26  27
ATOM     27  O   UNL A   1      35.827  33.162  29.917  1.00  0.00    -0.376 OA
BRANCH  27  28
ATOM     28  C   UNL A   1      37.027  33.079  29.162  1.00  0.00     0.202 C 
BRANCH  28  29
ATOM     29  C   UNL A   1      37.796  31.759  29.378  1.00  0.00     0.261 C 
BRANCH  29  30
ATOM     30  O   UNL A   1      37.835  30.972  28.164  1.00  0.00    -0.460 OA
BRANCH  30  31
ATOM     31  C   UNL A   1      37.360  29.674  28.244  1.00  0.00     0.338 C 
ATOM     32  O   UNL A   1      36.221  29.371  28.441  1.00  0.00    -0.246 OA
BRANCH  31  33
ATOM     33  C   UNL A   1      38.535  28.729  28.303  1.00  0.00     0.060 A 
ATOM     34  C   UNL A   1      38.872  27.898  29.379  1.00  0.00     0.016 A 
ATOM     35  C   UNL A   1      39.527  28.973  27.423  1.00  0.00     0.016 A 
ATOM     36  C   UNL A   1      40.251  27.526  29.668  1.00  0.00     0.010 A 
ATOM     37  C   UNL A   1      40.820  28.823  27.909  1.00  0.00     0.010 A 
ATOM     38  C   UNL A   1      41.341  28.084  28.993  1.00  0.00    -0.014 A 
BRANCH  38  39
ATOM     39  C   UNL A   1      42.964  27.948  29.425  1.00  0.00     0.031 A 
ATOM     40  C   UNL A   1      44.311  29.013  29.296  1.00  0.00     0.074 A 
ATOM     41  C   UNL A   1      43.365  26.688  29.711  1.00  0.00     0.049 A 
ATOM     42  N   UNL A   1      45.532  28.643  28.940  1.00  0.00    -0.248 NA
ATOM     43  C   UNL A   1      44.381  30.521  29.401  1.00  0.00     0.031 C 
ATOM     44  C   UNL A   1      44.678  26.233  30.150  1.00  0.00     0.029 A 
ATOM     45  N   UNL A   1      42.675  25.506  29.425  1.00  0.00    -0.354 N 
ATOM     46  C   UNL A   1      46.366  29.775  28.957  1.00  0.00     0.074 A 
ATOM     47  C   UNL A   1      45.534  30.892  28.891  1.00  0.00     0.031 C 
ATOM     48  C   UNL A   1      44.818  24.946  29.796  1.00  0.00     0.029 A 
ATOM     49  C   UNL A   1      43.639  24.569  29.035  1.00  0.00     0.049 A 
ATOM     50  H   UNL A   1      41.703  25.361  29.486  1.00  0.00     0.167 HD
ATOM     51  C   UNL A   1      47.695  29.780  29.238  1.00  0.00     0.031 A 
ATOM     52  C   UNL A   1      43.615  24.006  27.796  1.00  0.00     0.031 A 
ATOM     53  C   UNL A   1      48.218  28.466  29.007  1.00  0.00     0.049 A 
ATOM     54  C   UNL A   1      44.891  24.234  27.007  1.00  0.00     0.074 A 
ATOM     55  C   UNL A   1      48.503  27.390  29.820  1.00  0.00     0.029 A 
ATOM     56  N   UNL A   1      48.111  27.988  27.713  1.00  0.00    -0.354 N 
ATOM     57  N   UNL A   1      45.885  24.989  27.394  1.00  0.00    -0.248 NA
ATOM     58  C   UNL A   1      45.127  23.654  25.686  1.00  0.00     0.031 C 
ATOM     59  C   UNL A   1      48.387  26.222  29.010  1.00  0.00     0.029 A 
ATOM     60  C   UNL A   1      48.115  26.611  27.708  1.00  0.00     0.049 A 
ATOM     61  H   UNL A   1      48.043  28.552  26.910  1.00  0.00     0.167 HD
ATOM     62  C   UNL A   1      46.807  25.089  26.385  1.00  0.00     0.074 A 
ATOM     63  C   UNL A   1      46.315  24.190  25.359  1.00  0.00     0.031 C 
ATOM     64  C   UNL A   1      47.873  25.939  26.440  1.00  0.00     0.031 A 
BRANCH  51  65
ATOM     65  C   UNL A   1      48.443  30.962  29.885  1.00  0.00    -0.014 A 
ATOM     66  C   UNL A   1      48.926  31.997  29.067  1.00  0.00     0.009 A 
ATOM     67  C   UNL A   1      48.829  31.074  31.246  1.00  0.00     0.009 A 
ATOM     68  C   UNL A   1      49.746  33.034  29.564  1.00  0.00     0.001 A 
ATOM     69  C   UNL A   1      49.622  32.117  31.758  1.00  0.00     0.001 A 
ATOM     70  C   UNL A   1      50.094  33.096  30.909  1.00  0.00     0.000 A 
ENDBRANCH  51  65
BRANCH  52  71
ATOM     71  C   UNL A   1      42.243  23.808  27.221  1.00  0.00    -0.014 A 
ATOM     72  C   UNL A   1      41.617  22.550  27.383  1.00  0.00     0.009 A 
ATOM     73  C   UNL A   1      41.448  24.870  26.775  1.00  0.00     0.009 A 
ATOM     74  C   UNL A   1      40.236  22.389  27.224  1.00  0.00     0.001 A 
ATOM     75  C   UNL A   1      40.062  24.703  26.600  1.00  0.00     0.001 A 
ATOM     76  C   UNL A   1      39.452  23.474  26.851  1.00  0.00     0.000 A 
ENDBRANCH  52  71
BRANCH  64  77
ATOM     77  C   UNL A   1      48.785  26.280  25.283  1.00  0.00    -0.014 A 
ATOM     78  C   UNL A   1      48.370  26.936  24.117  1.00  0.00     0.009 A 
ATOM     79  C   UNL A   1      50.177  26.083  25.437  1.00  0.00     0.009 A 
ATOM     80  C   UNL A   1      49.291  27.327  23.136  1.00  0.00     0.001 A 
ATOM     81  C   UNL A   1      51.103  26.525  24.491  1.00  0.00     0.001 A 
ATOM     82  C   UNL A   1      50.657  27.134  23.328  1.00  0.00     0.000 A 
ENDBRANCH  64  77
ENDBRANCH  38  39
ENDBRANCH  31  33
ENDBRANCH  30  31
ENDBRANCH  29  30
ENDBRANCH  28  29
ENDBRANCH  27  28
ENDBRANCH  26  27
ENDBRANCH   1  26
TORSDOF 20
ENDMDL
MODEL 3
REMARK VINA RESULT:      -9.9      4.266     10.873
REMARK SMILES Cc1cccc(NC(=O)C[C@@H]2CCCCO2)c1C(=O)OCCOCCOCCOC(=O)c1ccc(-c2c3nc(c(-c4ccccc4)c4ccc([nH]4)c(-c4ccccc4)c4nc(c(-c5ccccc5)c5ccc2[nH]5)C=C4)C=C3)cc1
REMARK SMILES IDX 24 1 23 2 22 3 21 4 20 5 18 6 19 7 17 8 1 9 2 10 3 11 4 12
REMARK SMILES IDX 6 13 5 14 7 15 8 16 9 18 10 19 11 20 12 21 16 22 13 23 15 24
REMARK SMILES IDX 14 25 25 26 26 27 27 28 28 29 29 30 30 31 31 32 32 33 33 34
REMARK SMILES IDX 79 35 34 36 78 37 35 38 36 39 37 40 72 41 38 42 77 43 71 44
REMARK SMILES IDX 73 45 39 46 76 47 70 48 69 49 40 51 62 52 47 53 61 54 48 55
REMARK SMILES IDX 51 56 60 57 74 58 49 59 50 60 59 62 75 63 52 64 41 65 42 66
REMARK SMILES IDX 46 67 43 68 45 69 44 70 63 71 64 72 68 73 65 74 67 75 66 76
REMARK SMILES IDX 53 77 54 78 58 79 55 80 57 81 56 82
REMARK H PARENT 7 17 73 50 51 61
REMARK Flexibility Score: inf
ROOT
ATOM      1  C   UNL A   1      35.786  33.047  28.267  1.00  0.00     0.188 C 
ENDROOT
BRANCH   1   2
ATOM      2  O   UNL A   1      35.815  31.780  27.569  1.00  0.00    -0.376 OA
BRANCH   2   3
ATOM      3  C   UNL A   1      35.037  30.620  27.915  1.00  0.00     0.202 C 
BRANCH   3   4
ATOM      4  C   UNL A   1      34.650  29.351  26.861  1.00  0.00     0.261 C 
BRANCH   4   5
ATOM      5  O   UNL A   1      33.723  29.257  25.391  1.00  0.00    -0.460 OA
BRANCH   5   6
ATOM      6  C   UNL A   1      32.489  28.649  24.935  1.00  0.00     0.340 C 
ATOM      7  O   UNL A   1      31.615  29.236  24.306  1.00  0.00    -0.246 OA
BRANCH   6   8
ATOM      8  C   UNL A   1      31.813  27.360  25.283  1.00  0.00     0.086 A 
ATOM      9  C   UNL A   1      31.410  28.059  27.702  1.00  0.00     0.045 C 
ATOM     10  C   UNL A   1      31.186  27.182  26.514  1.00  0.00    -0.034 A 
ATOM     11  C   UNL A   1      30.249  26.135  26.648  1.00  0.00     0.004 A 
ATOM     12  C   UNL A   1      29.904  25.295  25.587  1.00  0.00     0.002 A 
ATOM     13  C   UNL A   1      31.538  26.385  24.197  1.00  0.00     0.056 A 
ATOM     14  C   UNL A   1      30.539  25.426  24.365  1.00  0.00     0.027 A 
BRANCH  13  15
ATOM     15  N   UNL A   1      32.230  26.420  22.940  1.00  0.00    -0.325 N 
ATOM     16  C   UNL A   1      33.404  25.893  22.460  1.00  0.00     0.227 C 
ATOM     17  H   UNL A   1      31.749  26.945  22.260  1.00  0.00     0.169 HD
ATOM     18  O   UNL A   1      33.642  25.960  21.248  1.00  0.00    -0.275 OA
BRANCH  16  19
ATOM     19  C   UNL A   1      34.463  25.278  23.350  1.00  0.00     0.132 C 
BRANCH  19  20
ATOM     20  C   UNL A   1      34.357  23.757  23.563  1.00  0.00     0.127 C 
ATOM     21  C   UNL A   1      34.513  23.386  25.044  1.00  0.00     0.033 C 
ATOM     22  O   UNL A   1      35.255  22.946  22.807  1.00  0.00    -0.378 OA
ATOM     23  C   UNL A   1      35.932  23.667  25.527  1.00  0.00     0.005 C 
ATOM     24  C   UNL A   1      36.628  23.035  23.146  1.00  0.00     0.160 C 
ATOM     25  C   UNL A   1      36.957  22.986  24.631  1.00  0.00     0.029 C 
ENDBRANCH  19  20
ENDBRANCH  16  19
ENDBRANCH  13  15
ENDBRANCH   6   8
ENDBRANCH   5   6
ENDBRANCH   4   5
ENDBRANCH   3   4
ENDBRANCH   2   3
ENDBRANCH   1   2
BRANCH   1  26
ATOM     26  C   UNL A   1      35.303  33.224  29.713  1.00  0.00     0.188 C 
BRANCH  26  27
ATOM     27  O   UNL A   1      36.397  33.398  30.595  1.00  0.00    -0.376 OA
BRANCH  27  28
ATOM     28  C   UNL A   1      37.665  33.567  29.977  1.00  0.00     0.202 C 
BRANCH  28  29
ATOM     29  C   UNL A   1      38.669  32.449  30.326  1.00  0.00     0.261 C 
BRANCH  29  30
ATOM     30  O   UNL A   1      38.289  31.195  29.712  1.00  0.00    -0.460 OA
BRANCH  30  31
ATOM     31  C   UNL A   1      38.014  30.139  30.564  1.00  0.00     0.338 C 
ATOM     32  O   UNL A   1      37.130  30.119  31.367  1.00  0.00    -0.246 OA
BRANCH  31  33
ATOM     33  C   UNL A   1      39.150  29.149  30.494  1.00  0.00     0.060 A 
ATOM     34  C   UNL A   1      39.877  28.649  31.582  1.00  0.00     0.016 A 
ATOM     35  C   UNL A   1      39.744  29.024  29.290  1.00  0.00     0.016 A 
ATOM     36  C   UNL A   1      41.274  28.252  31.463  1.00  0.00     0.010 A 
ATOM     37  C   UNL A   1      41.128  28.905  29.306  1.00  0.00     0.010 A 
ATOM     38  C   UNL A   1      42.027  28.477  30.306  1.00  0.00    -0.014 A 
BRANCH  38  39
ATOM     39  C   UNL A   1      43.699  28.324  30.154  1.00  0.00     0.031 A 
ATOM     40  C   UNL A   1      44.937  29.400  29.632  1.00  0.00     0.074 A 
ATOM     41  C   UNL A   1      44.153  27.052  30.219  1.00  0.00     0.049 A 
ATOM     42  N   UNL A   1      45.959  29.055  28.863  1.00  0.00    -0.248 NA
ATOM     43  C   UNL A   1      45.061  30.901  29.787  1.00  0.00     0.031 C 
ATOM     44  C   UNL A   1      45.530  26.579  30.160  1.00  0.00     0.029 A 
ATOM     45  N   UNL A   1      43.390  25.884  30.121  1.00  0.00    -0.354 N 
ATOM     46  C   UNL A   1      46.767  30.188  28.656  1.00  0.00     0.074 A 
ATOM     47  C   UNL A   1      45.978  31.303  28.937  1.00  0.00     0.031 C 
ATOM     48  C   UNL A   1      45.522  25.314  29.711  1.00  0.00     0.029 A 
ATOM     49  C   UNL A   1      44.150  24.974  29.377  1.00  0.00     0.049 A 
ATOM     50  H   UNL A   1      42.494  25.733  30.501  1.00  0.00     0.167 HD
ATOM     51  C   UNL A   1      48.111  30.183  28.469  1.00  0.00     0.031 A 
ATOM     52  C   UNL A   1      43.698  24.481  28.191  1.00  0.00     0.031 A 
ATOM     53  C   UNL A   1      48.505  28.886  28.003  1.00  0.00     0.049 A 
ATOM     54  C   UNL A   1      44.633  24.758  27.029  1.00  0.00     0.074 A 
ATOM     55  C   UNL A   1      49.033  27.768  28.612  1.00  0.00     0.029 A 
ATOM     56  N   UNL A   1      47.958  28.480  26.799  1.00  0.00    -0.354 N 
ATOM     57  N   UNL A   1      45.711  25.494  27.095  1.00  0.00    -0.248 NA
ATOM     58  C   UNL A   1      44.398  24.253  25.677  1.00  0.00     0.031 C 
ATOM     59  C   UNL A   1      48.631  26.646  27.828  1.00  0.00     0.029 A 
ATOM     60  C   UNL A   1      47.940  27.106  26.719  1.00  0.00     0.049 A 
ATOM     61  H   UNL A   1      47.630  29.088  26.098  1.00  0.00     0.167 HD
ATOM     62  C   UNL A   1      46.237  25.654  25.840  1.00  0.00     0.074 A 
ATOM     63  C   UNL A   1      45.412  24.811  24.996  1.00  0.00     0.031 C 
ATOM     64  C   UNL A   1      47.272  26.504  25.575  1.00  0.00     0.031 A 
BRANCH  51  65
ATOM     65  C   UNL A   1      49.052  31.330  28.885  1.00  0.00    -0.014 A 
ATOM     66  C   UNL A   1      49.778  32.014  27.896  1.00  0.00     0.009 A 
ATOM     67  C   UNL A   1      49.384  31.712  30.211  1.00  0.00     0.009 A 
ATOM     68  C   UNL A   1      50.767  32.972  28.210  1.00  0.00     0.001 A 
ATOM     69  C   UNL A   1      50.347  32.684  30.535  1.00  0.00     0.001 A 
ATOM     70  C   UNL A   1      51.053  33.309  29.528  1.00  0.00     0.000 A 
ENDBRANCH  51  65
BRANCH  52  71
ATOM     71  C   UNL A   1      42.210  24.310  28.107  1.00  0.00    -0.014 A 
ATOM     72  C   UNL A   1      41.410  25.455  27.880  1.00  0.00     0.009 A 
ATOM     73  C   UNL A   1      41.596  23.059  27.972  1.00  0.00     0.009 A 
ATOM     74  C   UNL A   1      40.091  25.353  27.421  1.00  0.00     0.001 A 
ATOM     75  C   UNL A   1      40.266  22.958  27.525  1.00  0.00     0.001 A 
ATOM     76  C   UNL A   1      39.524  24.099  27.224  1.00  0.00     0.000 A 
ENDBRANCH  52  71
BRANCH  64  77
ATOM     77  C   UNL A   1      47.741  26.912  24.196  1.00  0.00    -0.014 A 
ATOM     78  C   UNL A   1      47.077  27.833  23.376  1.00  0.00     0.009 A 
ATOM     79  C   UNL A   1      49.014  26.477  23.759  1.00  0.00     0.009 A 
ATOM     80  C   UNL A   1      47.631  28.255  22.160  1.00  0.00     0.001 A 
ATOM     81  C   UNL A   1      49.596  26.941  22.578  1.00  0.00     0.001 A 
ATOM     82  C   UNL A   1      48.895  27.820  21.768  1.00  0.00     0.000 A 
ENDBRANCH  64  77
ENDBRANCH  38  39
ENDBRANCH  31  33
ENDBRANCH  30  31
ENDBRANCH  29  30
ENDBRANCH  28  29
ENDBRANCH  27  28
ENDBRANCH  26  27
ENDBRANCH   1  26
TORSDOF 20
ENDMDL
