MODEL 1
REMARK VINA RESULT:      -9.9      0.000      0.000
REMARK SMILES O=C(OCCOCCOCCOC(=O)[C@@H]1[C@H](C(=O)NCc2ccncc2)[C@H]2C=C[C@@H]1O2)c1ccc(-c2c3nc(c(-c4ccccc4)c4ccc([nH]4)c(-c4ccccc4)c4nc(c(-c5ccccc5)c5ccc2[nH]5)C=C4)C=C3)cc1
REMARK SMILES IDX 8 1 7 2 6 3 5 4 4 5 3 6 2 7 1 8 32 9 33 10 79 11 34 12 78 13
REMARK SMILES IDX 35 14 36 15 37 16 72 17 38 18 77 19 71 20 73 21 39 22 76 23
REMARK SMILES IDX 70 24 69 25 40 27 62 28 47 29 61 30 48 31 51 32 60 33 74 34
REMARK SMILES IDX 49 35 50 36 59 38 75 39 52 40 41 41 42 42 46 43 43 44 45 45
REMARK SMILES IDX 44 46 63 47 64 48 68 49 65 50 67 51 66 52 53 53 54 54 58 55
REMARK SMILES IDX 55 56 57 57 56 58 9 59 10 60 11 61 12 62 13 63 14 64 15 65
REMARK SMILES IDX 16 66 30 67 27 68 29 69 31 70 28 71 17 72 18 73 19 74 20 76
REMARK SMILES IDX 21 77 22 78 26 79 23 80 25 81 24 82
REMARK H PARENT 73 26 51 37 19 75
REMARK Flexibility Score: inf
ROOT
ATOM      1  C   UNL A   1      30.582  27.541  24.552  1.00  0.00     0.188 C 
ENDROOT
BRANCH   1   2
ATOM      2  C   UNL A   1      31.834  27.624  23.690  1.00  0.00     0.188 C 
BRANCH   2   3
ATOM      3  O   UNL A   1      33.007  27.709  24.505  1.00  0.00    -0.376 OA
BRANCH   3   4
ATOM      4  C   UNL A   1      32.798  28.418  25.726  1.00  0.00     0.202 C 
BRANCH   4   5
ATOM      5  C   UNL A   1      34.088  28.934  26.379  1.00  0.00     0.261 C 
BRANCH   5   6
ATOM      6  O   UNL A   1      33.878  30.091  27.206  1.00  0.00    -0.460 OA
BRANCH   6   7
ATOM      7  C   UNL A   1      34.759  30.680  28.051  1.00  0.00     0.338 C 
ATOM      8  O   UNL A   1      34.436  31.739  28.588  1.00  0.00    -0.246 OA
BRANCH   7   9
ATOM      9  C   UNL A   1      36.108  30.116  28.382  1.00  0.00     0.060 A 
ATOM     10  C   UNL A   1      36.437  29.462  29.570  1.00  0.00     0.016 A 
ATOM     11  C   UNL A   1      37.098  30.186  27.387  1.00  0.00     0.016 A 
ATOM     12  C   UNL A   1      37.712  28.956  29.803  1.00  0.00     0.010 A 
ATOM     13  C   UNL A   1      38.375  29.644  27.594  1.00  0.00     0.010 A 
ATOM     14  C   UNL A   1      38.690  29.044  28.818  1.00  0.00    -0.014 A 
BRANCH  14  15
ATOM     15  C   UNL A   1      40.059  28.594  29.136  1.00  0.00     0.031 A 
ATOM     16  C   UNL A   1      40.956  29.511  29.903  1.00  0.00     0.074 A 
ATOM     17  C   UNL A   1      40.452  27.338  28.856  1.00  0.00     0.049 A 
ATOM     18  N   UNL A   1      42.205  29.344  30.241  1.00  0.00    -0.248 NA
ATOM     19  C   UNL A   1      40.355  30.764  30.388  1.00  0.00     0.031 C 
ATOM     20  C   UNL A   1      39.600  26.306  28.272  1.00  0.00     0.029 A 
ATOM     21  N   UNL A   1      41.654  26.707  29.042  1.00  0.00    -0.354 N 
ATOM     22  C   UNL A   1      42.541  30.469  30.977  1.00  0.00     0.074 A 
ATOM     23  C   UNL A   1      41.374  31.321  31.024  1.00  0.00     0.031 C 
ATOM     24  C   UNL A   1      40.306  25.173  28.141  1.00  0.00     0.029 A 
ATOM     25  C   UNL A   1      41.682  25.432  28.532  1.00  0.00     0.049 A 
ATOM     26  H   UNL A   1      42.422  27.125  29.497  1.00  0.00     0.167 HD
ATOM     27  C   UNL A   1      43.726  30.760  31.559  1.00  0.00     0.031 A 
ATOM     28  C   UNL A   1      42.716  24.594  28.333  1.00  0.00     0.031 A 
ATOM     29  C   UNL A   1      44.882  29.912  31.483  1.00  0.00     0.049 A 
ATOM     30  C   UNL A   1      44.072  25.031  28.793  1.00  0.00     0.074 A 
ATOM     31  C   UNL A   1      46.145  30.121  32.003  1.00  0.00     0.029 A 
ATOM     32  N   UNL A   1      44.912  28.690  30.828  1.00  0.00    -0.354 N 
ATOM     33  N   UNL A   1      44.402  26.121  29.444  1.00  0.00    -0.248 NA
ATOM     34  C   UNL A   1      45.196  24.134  28.497  1.00  0.00     0.031 C 
ATOM     35  C   UNL A   1      46.955  29.049  31.612  1.00  0.00     0.029 A 
ATOM     36  C   UNL A   1      46.184  28.152  30.890  1.00  0.00     0.049 A 
ATOM     37  H   UNL A   1      44.141  28.267  30.384  1.00  0.00     0.167 HD
ATOM     38  C   UNL A   1      45.767  26.033  29.657  1.00  0.00     0.074 A 
ATOM     39  C   UNL A   1      46.202  24.779  29.073  1.00  0.00     0.031 C 
ATOM     40  C   UNL A   1      46.586  26.907  30.288  1.00  0.00     0.031 A 
BRANCH  27  41
ATOM     41  C   UNL A   1      43.827  32.080  32.260  1.00  0.00    -0.014 A 
ATOM     42  C   UNL A   1      43.514  32.213  33.622  1.00  0.00     0.009 A 
ATOM     43  C   UNL A   1      44.221  33.214  31.534  1.00  0.00     0.009 A 
ATOM     44  C   UNL A   1      43.569  33.466  34.236  1.00  0.00     0.001 A 
ATOM     45  C   UNL A   1      44.292  34.461  32.156  1.00  0.00     0.001 A 
ATOM     46  C   UNL A   1      43.959  34.587  33.504  1.00  0.00     0.000 A 
ENDBRANCH  27  41
BRANCH  28  47
ATOM     47  C   UNL A   1      42.532  23.338  27.559  1.00  0.00    -0.014 A 
ATOM     48  C   UNL A   1      42.733  23.290  26.173  1.00  0.00     0.009 A 
ATOM     49  C   UNL A   1      42.111  22.171  28.222  1.00  0.00     0.009 A 
ATOM     50  C   UNL A   1      42.499  22.106  25.467  1.00  0.00     0.001 A 
ATOM     51  C   UNL A   1      41.904  20.984  27.518  1.00  0.00     0.001 A 
ATOM     52  C   UNL A   1      42.089  20.954  26.138  1.00  0.00     0.000 A 
ENDBRANCH  28  47
BRANCH  40  53
ATOM     53  C   UNL A   1      48.026  26.513  30.394  1.00  0.00    -0.014 A 
ATOM     54  C   UNL A   1      48.517  25.872  31.540  1.00  0.00     0.009 A 
ATOM     55  C   UNL A   1      48.892  26.765  29.319  1.00  0.00     0.009 A 
ATOM     56  C   UNL A   1      49.862  25.513  31.619  1.00  0.00     0.001 A 
ATOM     57  C   UNL A   1      50.230  26.381  29.391  1.00  0.00     0.001 A 
ATOM     58  C   UNL A   1      50.715  25.763  30.542  1.00  0.00     0.000 A 
ENDBRANCH  40  53
ENDBRANCH  14  15
ENDBRANCH   7   9
ENDBRANCH   6   7
ENDBRANCH   5   6
ENDBRANCH   4   5
ENDBRANCH   3   4
ENDBRANCH   2   3
ENDBRANCH   1   2
BRANCH   1  59
ATOM     59  O   UNL A   1      29.960  26.259  24.598  1.00  0.00    -0.376 OA
BRANCH  59  60
ATOM     60  C   UNL A   1      29.878  25.628  25.873  1.00  0.00     0.202 C 
BRANCH  60  61
ATOM     61  C   UNL A   1      30.792  24.422  26.154  1.00  0.00     0.261 C 
BRANCH  61  62
ATOM     62  O   UNL A   1      32.129  24.501  25.620  1.00  0.00    -0.463 OA
BRANCH  62  63
ATOM     63  C   UNL A   1      33.019  23.638  26.189  1.00  0.00     0.312 C 
ATOM     64  O   UNL A   1      32.866  23.126  27.293  1.00  0.00    -0.252 OA
BRANCH  63  65
ATOM     65  C   UNL A   1      34.299  23.529  25.394  1.00  0.00     0.147 C 
ATOM     66  C   UNL A   1      34.423  22.547  24.210  1.00  0.00     0.128 C 
ATOM     67  C   UNL A   1      35.447  23.031  26.304  1.00  0.00     0.157 C 
ATOM     68  C   UNL A   1      35.537  21.595  24.672  1.00  0.00     0.155 C 
ATOM     69  C   UNL A   1      36.787  23.214  25.645  1.00  0.00     0.004 C 
ATOM     70  O   UNL A   1      35.326  21.596  26.108  1.00  0.00    -0.365 OA
ATOM     71  C   UNL A   1      36.847  22.324  24.646  1.00  0.00     0.004 C 
BRANCH  66  72
ATOM     72  C   UNL A   1      33.263  21.796  23.609  1.00  0.00     0.227 C 
ATOM     73  O   UNL A   1      32.805  22.192  22.528  1.00  0.00    -0.275 OA
ATOM     74  N   UNL A   1      32.693  20.680  24.099  1.00  0.00    -0.352 N 
ATOM     75  H   UNL A   1      32.026  20.290  23.488  1.00  0.00     0.163 HD
BRANCH  74  76
ATOM     76  C   UNL A   1      32.841  19.924  25.328  1.00  0.00     0.151 C 
BRANCH  76  77
ATOM     77  C   UNL A   1      33.157  18.472  25.067  1.00  0.00    -0.026 A 
ATOM     78  C   UNL A   1      34.187  18.136  24.184  1.00  0.00     0.025 A 
ATOM     79  C   UNL A   1      32.448  17.426  25.667  1.00  0.00     0.025 A 
ATOM     80  C   UNL A   1      34.507  16.799  23.998  1.00  0.00     0.111 A 
ATOM     81  C   UNL A   1      32.847  16.119  25.424  1.00  0.00     0.111 A 
ATOM     82  N   UNL A   1      33.864  15.781  24.606  1.00  0.00    -0.265 NA
ENDBRANCH  76  77
ENDBRANCH  74  76
ENDBRANCH  66  72
ENDBRANCH  63  65
ENDBRANCH  62  63
ENDBRANCH  61  62
ENDBRANCH  60  61
ENDBRANCH  59  60
ENDBRANCH   1  59
TORSDOF 20
ENDMDL
MODEL 2
REMARK VINA RESULT:      -9.9      3.342      8.621
REMARK SMILES O=C(OCCOCCOCCOC(=O)[C@@H]1[C@H](C(=O)NCc2ccncc2)[C@H]2C=C[C@@H]1O2)c1ccc(-c2c3nc(c(-c4ccccc4)c4ccc([nH]4)c(-c4ccccc4)c4nc(c(-c5ccccc5)c5ccc2[nH]5)C=C4)C=C3)cc1
REMARK SMILES IDX 8 1 7 2 6 3 5 4 4 5 3 6 2 7 1 8 32 9 33 10 79 11 34 12 78 13
REMARK SMILES IDX 35 14 36 15 37 16 72 17 38 18 77 19 71 20 73 21 39 22 76 23
REMARK SMILES IDX 70 24 69 25 40 27 62 28 47 29 61 30 48 31 51 32 60 33 74 34
REMARK SMILES IDX 49 35 50 36 59 38 75 39 52 40 41 41 42 42 46 43 43 44 45 45
REMARK SMILES IDX 44 46 63 47 64 48 68 49 65 50 67 51 66 52 53 53 54 54 58 55
REMARK SMILES IDX 55 56 57 57 56 58 9 59 10 60 11 61 12 62 13 63 14 64 15 65
REMARK SMILES IDX 16 66 30 67 27 68 29 69 31 70 28 71 17 72 18 73 19 74 20 76
REMARK SMILES IDX 21 77 22 78 26 79 23 80 25 81 24 82
REMARK H PARENT 73 26 51 37 19 75
REMARK Flexibility Score: inf
ROOT
ATOM      1  C   UNL A   1      39.512  21.797  26.118  1.00  0.00     0.188 C 
ENDROOT
BRANCH   1   2
ATOM      2  C   UNL A   1      40.591  21.293  27.066  1.00  0.00     0.188 C 
BRANCH   2   3
ATOM      3  O   UNL A   1      41.516  20.445  26.379  1.00  0.00    -0.376 OA
BRANCH   3   4
ATOM      4  C   UNL A   1      42.872  20.873  26.497  1.00  0.00     0.202 C 
BRANCH   4   5
ATOM      5  C   UNL A   1      43.537  21.225  25.159  1.00  0.00     0.261 C 
BRANCH   5   6
ATOM      6  O   UNL A   1      43.172  22.527  24.672  1.00  0.00    -0.460 OA
BRANCH   6   7
ATOM      7  C   UNL A   1      43.781  23.711  24.928  1.00  0.00     0.338 C 
ATOM      8  O   UNL A   1      44.791  24.001  24.288  1.00  0.00    -0.246 OA
BRANCH   7   9
ATOM      9  C   UNL A   1      43.292  24.702  25.941  1.00  0.00     0.060 A 
ATOM     10  C   UNL A   1      43.791  25.994  26.109  1.00  0.00     0.016 A 
ATOM     11  C   UNL A   1      42.194  24.325  26.734  1.00  0.00     0.016 A 
ATOM     12  C   UNL A   1      43.280  26.862  27.070  1.00  0.00     0.010 A 
ATOM     13  C   UNL A   1      41.643  25.205  27.677  1.00  0.00     0.010 A 
ATOM     14  C   UNL A   1      42.203  26.474  27.860  1.00  0.00    -0.014 A 
BRANCH  14  15
ATOM     15  C   UNL A   1      41.755  27.377  28.939  1.00  0.00     0.031 A 
ATOM     16  C   UNL A   1      42.568  27.459  30.189  1.00  0.00     0.074 A 
ATOM     17  C   UNL A   1      40.711  28.203  28.752  1.00  0.00     0.049 A 
ATOM     18  N   UNL A   1      42.332  28.138  31.279  1.00  0.00    -0.248 NA
ATOM     19  C   UNL A   1      43.834  26.708  30.202  1.00  0.00     0.031 C 
ATOM     20  C   UNL A   1      39.958  28.333  27.507  1.00  0.00     0.029 A 
ATOM     21  N   UNL A   1      40.113  29.104  29.595  1.00  0.00    -0.354 N 
ATOM     22  C   UNL A   1      43.417  27.897  32.106  1.00  0.00     0.074 A 
ATOM     23  C   UNL A   1      44.306  26.998  31.404  1.00  0.00     0.031 C 
ATOM     24  C   UNL A   1      38.996  29.254  27.668  1.00  0.00     0.029 A 
ATOM     25  C   UNL A   1      38.998  29.696  29.052  1.00  0.00     0.049 A 
ATOM     26  H   UNL A   1      40.449  29.308  30.498  1.00  0.00     0.167 HD
ATOM     27  C   UNL A   1      43.646  28.389  33.344  1.00  0.00     0.031 A 
ATOM     28  C   UNL A   1      38.045  30.452  29.627  1.00  0.00     0.031 A 
ATOM     29  C   UNL A   1      42.741  29.264  34.035  1.00  0.00     0.049 A 
ATOM     30  C   UNL A   1      38.207  30.807  31.073  1.00  0.00     0.074 A 
ATOM     31  C   UNL A   1      42.851  29.795  35.306  1.00  0.00     0.029 A 
ATOM     32  N   UNL A   1      41.545  29.726  33.505  1.00  0.00    -0.354 N 
ATOM     33  N   UNL A   1      39.210  30.536  31.873  1.00  0.00    -0.248 NA
ATOM     34  C   UNL A   1      37.118  31.568  31.697  1.00  0.00     0.031 C 
ATOM     35  C   UNL A   1      41.691  30.533  35.566  1.00  0.00     0.029 A 
ATOM     36  C   UNL A   1      40.883  30.500  34.440  1.00  0.00     0.049 A 
ATOM     37  H   UNL A   1      41.216  29.531  32.598  1.00  0.00     0.167 HD
ATOM     38  C   UNL A   1      38.886  31.110  33.090  1.00  0.00     0.074 A 
ATOM     39  C   UNL A   1      37.596  31.752  32.920  1.00  0.00     0.031 C 
ATOM     40  C   UNL A   1      39.596  31.115  34.243  1.00  0.00     0.031 A 
BRANCH  27  41
ATOM     41  C   UNL A   1      44.889  27.921  34.037  1.00  0.00    -0.014 A 
ATOM     42  C   UNL A   1      44.895  26.764  34.830  1.00  0.00     0.009 A 
ATOM     43  C   UNL A   1      46.069  28.669  33.908  1.00  0.00     0.009 A 
ATOM     44  C   UNL A   1      46.056  26.380  35.505  1.00  0.00     0.001 A 
ATOM     45  C   UNL A   1      47.232  28.272  34.569  1.00  0.00     0.001 A 
ATOM     46  C   UNL A   1      47.223  27.133  35.373  1.00  0.00     0.000 A 
ENDBRANCH  27  41
BRANCH  28  47
ATOM     47  C   UNL A   1      36.808  30.804  28.881  1.00  0.00    -0.014 A 
ATOM     48  C   UNL A   1      36.521  32.124  28.510  1.00  0.00     0.009 A 
ATOM     49  C   UNL A   1      35.878  29.796  28.566  1.00  0.00     0.009 A 
ATOM     50  C   UNL A   1      35.323  32.429  27.856  1.00  0.00     0.001 A 
ATOM     51  C   UNL A   1      34.696  30.100  27.890  1.00  0.00     0.001 A 
ATOM     52  C   UNL A   1      34.414  31.418  27.544  1.00  0.00     0.000 A 
ENDBRANCH  28  47
BRANCH  40  53
ATOM     53  C   UNL A   1      38.994  31.860  35.393  1.00  0.00    -0.014 A 
ATOM     54  C   UNL A   1      38.166  31.210  36.319  1.00  0.00     0.009 A 
ATOM     55  C   UNL A   1      39.284  33.222  35.562  1.00  0.00     0.009 A 
ATOM     56  C   UNL A   1      37.615  31.921  37.384  1.00  0.00     0.001 A 
ATOM     57  C   UNL A   1      38.751  33.923  36.643  1.00  0.00     0.001 A 
ATOM     58  C   UNL A   1      37.913  33.275  37.548  1.00  0.00     0.000 A 
ENDBRANCH  40  53
ENDBRANCH  14  15
ENDBRANCH   7   9
ENDBRANCH   6   7
ENDBRANCH   5   6
ENDBRANCH   4   5
ENDBRANCH   3   4
ENDBRANCH   2   3
ENDBRANCH   1   2
BRANCH   1  59
ATOM     59  O   UNL A   1      38.598  22.736  26.681  1.00  0.00    -0.376 OA
BRANCH  59  60
ATOM     60  C   UNL A   1      37.795  23.480  25.768  1.00  0.00     0.202 C 
BRANCH  60  61
ATOM     61  C   UNL A   1      36.313  23.096  25.617  1.00  0.00     0.261 C 
BRANCH  61  62
ATOM     62  O   UNL A   1      35.524  23.119  26.824  1.00  0.00    -0.463 OA
BRANCH  62  63
ATOM     63  C   UNL A   1      34.236  22.700  26.669  1.00  0.00     0.312 C 
ATOM     64  O   UNL A   1      33.662  21.944  27.447  1.00  0.00    -0.252 OA
BRANCH  63  65
ATOM     65  C   UNL A   1      33.655  23.118  25.338  1.00  0.00     0.147 C 
ATOM     66  C   UNL A   1      32.447  24.076  25.260  1.00  0.00     0.128 C 
ATOM     67  C   UNL A   1      33.093  21.884  24.594  1.00  0.00     0.157 C 
ATOM     68  C   UNL A   1      31.371  23.213  24.584  1.00  0.00     0.155 C 
ATOM     69  C   UNL A   1      32.802  22.200  23.151  1.00  0.00     0.004 C 
ATOM     70  O   UNL A   1      31.722  21.894  25.077  1.00  0.00    -0.365 OA
ATOM     71  C   UNL A   1      31.737  23.010  23.145  1.00  0.00     0.004 C 
BRANCH  66  72
ATOM     72  C   UNL A   1      31.893  24.837  26.437  1.00  0.00     0.227 C 
ATOM     73  O   UNL A   1      31.025  24.290  27.132  1.00  0.00    -0.275 OA
ATOM     74  N   UNL A   1      32.288  26.051  26.862  1.00  0.00    -0.352 N 
ATOM     75  H   UNL A   1      31.874  26.311  27.717  1.00  0.00     0.163 HD
BRANCH  74  76
ATOM     76  C   UNL A   1      33.187  27.062  26.340  1.00  0.00     0.151 C 
BRANCH  76  77
ATOM     77  C   UNL A   1      32.624  27.747  25.119  1.00  0.00    -0.026 A 
ATOM     78  C   UNL A   1      33.322  27.688  23.910  1.00  0.00     0.025 A 
ATOM     79  C   UNL A   1      31.423  28.462  25.142  1.00  0.00     0.025 A 
ATOM     80  C   UNL A   1      32.766  28.271  22.781  1.00  0.00     0.111 A 
ATOM     81  C   UNL A   1      30.943  29.006  23.958  1.00  0.00     0.111 A 
ATOM     82  N   UNL A   1      31.585  28.923  22.775  1.00  0.00    -0.265 NA
ENDBRANCH  76  77
ENDBRANCH  74  76
ENDBRANCH  66  72
ENDBRANCH  63  65
ENDBRANCH  62  63
ENDBRANCH  61  62
ENDBRANCH  60  61
ENDBRANCH  59  60
ENDBRANCH   1  59
TORSDOF 20
ENDMDL
MODEL 3
REMARK VINA RESULT:      -9.6      2.270      7.292
REMARK SMILES O=C(OCCOCCOCCOC(=O)[C@@H]1[C@H](C(=O)NCc2ccncc2)[C@H]2C=C[C@@H]1O2)c1ccc(-c2c3nc(c(-c4ccccc4)c4ccc([nH]4)c(-c4ccccc4)c4nc(c(-c5ccccc5)c5ccc2[nH]5)C=C4)C=C3)cc1
REMARK SMILES IDX 8 1 7 2 6 3 5 4 4 5 3 6 2 7 1 8 32 9 33 10 79 11 34 12 78 13
REMARK SMILES IDX 35 14 36 15 37 16 72 17 38 18 77 19 71 20 73 21 39 22 76 23
REMARK SMILES IDX 70 24 69 25 40 27 62 28 47 29 61 30 48 31 51 32 60 33 74 34
REMARK SMILES IDX 49 35 50 36 59 38 75 39 52 40 41 41 42 42 46 43 43 44 45 45
REMARK SMILES IDX 44 46 63 47 64 48 68 49 65 50 67 51 66 52 53 53 54 54 58 55
REMARK SMILES IDX 55 56 57 57 56 58 9 59 10 60 11 61 12 62 13 63 14 64 15 65
REMARK SMILES IDX 16 66 30 67 27 68 29 69 31 70 28 71 17 72 18 73 19 74 20 76
REMARK SMILES IDX 21 77 22 78 26 79 23 80 25 81 24 82
REMARK H PARENT 73 26 51 37 19 75
REMARK Flexibility Score: inf
ROOT
ATOM      1  C   UNL A   1      35.735  22.412  24.463  1.00  0.00     0.188 C 
ENDROOT
BRANCH   1   2
ATOM      2  C   UNL A   1      36.207  21.025  24.879  1.00  0.00     0.188 C 
BRANCH   2   3
ATOM      3  O   UNL A   1      37.565  20.811  24.485  1.00  0.00    -0.376 OA
BRANCH   3   4
ATOM      4  C   UNL A   1      38.089  19.556  24.917  1.00  0.00     0.202 C 
BRANCH   4   5
ATOM      5  C   UNL A   1      39.182  19.669  25.988  1.00  0.00     0.261 C 
BRANCH   5   6
ATOM      6  O   UNL A   1      40.389  18.971  25.640  1.00  0.00    -0.460 OA
BRANCH   6   7
ATOM      7  C   UNL A   1      41.667  19.332  25.911  1.00  0.00     0.338 C 
ATOM      8  O   UNL A   1      42.546  18.474  25.842  1.00  0.00    -0.246 OA
BRANCH   7   9
ATOM      9  C   UNL A   1      42.083  20.724  26.285  1.00  0.00     0.060 A 
ATOM     10  C   UNL A   1      42.333  21.758  25.383  1.00  0.00     0.016 A 
ATOM     11  C   UNL A   1      42.153  21.029  27.655  1.00  0.00     0.016 A 
ATOM     12  C   UNL A   1      42.709  23.029  25.806  1.00  0.00     0.010 A 
ATOM     13  C   UNL A   1      42.491  22.317  28.095  1.00  0.00     0.010 A 
ATOM     14  C   UNL A   1      42.791  23.318  27.164  1.00  0.00    -0.014 A 
BRANCH  14  15
ATOM     15  C   UNL A   1      43.294  24.643  27.578  1.00  0.00     0.031 A 
ATOM     16  C   UNL A   1      42.312  25.669  28.042  1.00  0.00     0.074 A 
ATOM     17  C   UNL A   1      44.615  24.881  27.660  1.00  0.00     0.049 A 
ATOM     18  N   UNL A   1      42.525  26.908  28.395  1.00  0.00    -0.248 NA
ATOM     19  C   UNL A   1      40.911  25.233  28.160  1.00  0.00     0.031 C 
ATOM     20  C   UNL A   1      45.661  23.894  27.403  1.00  0.00     0.029 A 
ATOM     21  N   UNL A   1      45.307  26.014  28.000  1.00  0.00    -0.354 N 
ATOM     22  C   UNL A   1      41.287  27.400  28.777  1.00  0.00     0.074 A 
ATOM     23  C   UNL A   1      40.324  26.336  28.598  1.00  0.00     0.031 C 
ATOM     24  C   UNL A   1      46.861  24.465  27.589  1.00  0.00     0.029 A 
ATOM     25  C   UNL A   1      46.668  25.878  27.870  1.00  0.00     0.049 A 
ATOM     26  H   UNL A   1      44.873  26.843  28.307  1.00  0.00     0.167 HD
ATOM     27  C   UNL A   1      40.988  28.635  29.237  1.00  0.00     0.031 A 
ATOM     28  C   UNL A   1      47.645  26.803  27.902  1.00  0.00     0.031 A 
ATOM     29  C   UNL A   1      41.954  29.686  29.388  1.00  0.00     0.049 A 
ATOM     30  C   UNL A   1      47.260  28.219  28.201  1.00  0.00     0.074 A 
ATOM     31  C   UNL A   1      41.760  30.987  29.809  1.00  0.00     0.029 A 
ATOM     32  N   UNL A   1      43.306  29.550  29.105  1.00  0.00    -0.354 N 
ATOM     33  N   UNL A   1      46.080  28.697  28.512  1.00  0.00    -0.248 NA
ATOM     34  C   UNL A   1      48.331  29.222  28.155  1.00  0.00     0.031 C 
ATOM     35  C   UNL A   1      42.986  31.656  29.727  1.00  0.00     0.029 A 
ATOM     36  C   UNL A   1      43.952  30.757  29.299  1.00  0.00     0.049 A 
ATOM     37  H   UNL A   1      43.741  28.718  28.809  1.00  0.00     0.167 HD
ATOM     38  C   UNL A   1      46.266  30.053  28.722  1.00  0.00     0.074 A 
ATOM     39  C   UNL A   1      47.676  30.319  28.511  1.00  0.00     0.031 C 
ATOM     40  C   UNL A   1      45.353  30.991  29.069  1.00  0.00     0.031 A 
BRANCH  27  41
ATOM     41  C   UNL A   1      39.546  28.913  29.534  1.00  0.00    -0.014 A 
ATOM     42  C   UNL A   1      39.003  28.684  30.807  1.00  0.00     0.009 A 
ATOM     43  C   UNL A   1      38.715  29.392  28.511  1.00  0.00     0.009 A 
ATOM     44  C   UNL A   1      37.643  28.905  31.041  1.00  0.00     0.001 A 
ATOM     45  C   UNL A   1      37.361  29.629  28.753  1.00  0.00     0.001 A 
ATOM     46  C   UNL A   1      36.825  29.378  30.016  1.00  0.00     0.000 A 
ENDBRANCH  27  41
BRANCH  28  47
ATOM     47  C   UNL A   1      49.036  26.446  27.518  1.00  0.00    -0.014 A 
ATOM     48  C   UNL A   1      49.453  26.445  26.181  1.00  0.00     0.009 A 
ATOM     49  C   UNL A   1      49.953  26.064  28.514  1.00  0.00     0.009 A 
ATOM     50  C   UNL A   1      50.754  26.052  25.849  1.00  0.00     0.001 A 
ATOM     51  C   UNL A   1      51.258  25.698  28.181  1.00  0.00     0.001 A 
ATOM     52  C   UNL A   1      51.656  25.683  26.847  1.00  0.00     0.000 A 
ENDBRANCH  28  47
BRANCH  40  53
ATOM     53  C   UNL A   1      45.870  32.383  29.261  1.00  0.00    -0.014 A 
ATOM     54  C   UNL A   1      46.379  32.799  30.499  1.00  0.00     0.009 A 
ATOM     55  C   UNL A   1      45.870  33.276  28.179  1.00  0.00     0.009 A 
ATOM     56  C   UNL A   1      46.856  34.100  30.658  1.00  0.00     0.001 A 
ATOM     57  C   UNL A   1      46.372  34.567  28.335  1.00  0.00     0.001 A 
ATOM     58  C   UNL A   1      46.857  34.980  29.574  1.00  0.00     0.000 A 
ENDBRANCH  40  53
ENDBRANCH  14  15
ENDBRANCH   7   9
ENDBRANCH   6   7
ENDBRANCH   5   6
ENDBRANCH   4   5
ENDBRANCH   3   4
ENDBRANCH   2   3
ENDBRANCH   1   2
BRANCH   1  59
ATOM     59  O   UNL A   1      35.203  23.213  25.517  1.00  0.00    -0.376 OA
BRANCH  59  60
ATOM     60  C   UNL A   1      35.060  24.607  25.256  1.00  0.00     0.202 C 
BRANCH  60  61
ATOM     61  C   UNL A   1      33.774  25.311  25.724  1.00  0.00     0.261 C 
BRANCH  61  62
ATOM     62  O   UNL A   1      33.109  26.136  24.746  1.00  0.00    -0.463 OA
BRANCH  62  63
ATOM     63  C   UNL A   1      32.948  27.439  25.118  1.00  0.00     0.312 C 
ATOM     64  O   UNL A   1      33.707  28.033  25.878  1.00  0.00    -0.252 OA
BRANCH  63  65
ATOM     65  C   UNL A   1      31.635  28.013  24.640  1.00  0.00     0.147 C 
ATOM     66  C   UNL A   1      30.326  27.202  24.737  1.00  0.00     0.128 C 
ATOM     67  C   UNL A   1      31.697  28.281  23.117  1.00  0.00     0.157 C 
ATOM     68  C   UNL A   1      29.909  27.050  23.266  1.00  0.00     0.155 C 
ATOM     69  C   UNL A   1      30.546  29.139  22.665  1.00  0.00     0.004 C 
ATOM     70  O   UNL A   1      31.205  27.010  22.613  1.00  0.00    -0.365 OA
ATOM     71  C   UNL A   1      29.447  28.379  22.748  1.00  0.00     0.004 C 
BRANCH  66  72
ATOM     72  C   UNL A   1      30.188  25.904  25.491  1.00  0.00     0.227 C 
ATOM     73  O   UNL A   1      29.854  25.952  26.683  1.00  0.00    -0.275 OA
ATOM     74  N   UNL A   1      30.334  24.666  24.985  1.00  0.00    -0.352 N 
ATOM     75  H   UNL A   1      30.087  23.959  25.624  1.00  0.00     0.163 HD
BRANCH  74  76
ATOM     76  C   UNL A   1      30.777  24.141  23.708  1.00  0.00     0.151 C 
BRANCH  76  77
ATOM     77  C   UNL A   1      31.468  22.808  23.851  1.00  0.00    -0.026 A 
ATOM     78  C   UNL A   1      31.653  22.257  25.122  1.00  0.00     0.025 A 
ATOM     79  C   UNL A   1      31.953  22.088  22.755  1.00  0.00     0.025 A 
ATOM     80  C   UNL A   1      32.236  21.004  25.237  1.00  0.00     0.111 A 
ATOM     81  C   UNL A   1      32.517  20.838  22.969  1.00  0.00     0.111 A 
ATOM     82  N   UNL A   1      32.665  20.276  24.186  1.00  0.00    -0.265 NA
ENDBRANCH  76  77
ENDBRANCH  74  76
ENDBRANCH  66  72
ENDBRANCH  63  65
ENDBRANCH  62  63
ENDBRANCH  61  62
ENDBRANCH  60  61
ENDBRANCH  59  60
ENDBRANCH   1  59
TORSDOF 20
ENDMDL
