MODEL 1
REMARK VINA RESULT:      -9.3      0.000      0.000
REMARK SMILES O=C(OCCOCCOCCOC(=O)[C@H]1CCCN(C(=O)C2CCN(S(=O)(=O)c3ccccc3)CC2)C1)c1ccc(-c2c3nc(c(-c4ccccc4)c4ccc([nH]4)c(-c4ccccc4)c4nc(c(-c5ccccc5)c5ccc2[nH]5)C=C4)C=C3)cc1
REMARK SMILES IDX 8 1 7 2 6 3 5 4 4 5 3 6 2 7 1 8 38 9 39 10 85 11 40 12 84 13
REMARK SMILES IDX 41 14 42 15 43 16 78 17 44 18 83 19 77 20 79 21 45 22 82 23
REMARK SMILES IDX 76 24 75 25 46 27 68 28 53 29 67 30 54 31 57 32 66 33 80 34
REMARK SMILES IDX 55 35 56 36 65 38 81 39 58 40 47 41 48 42 52 43 49 44 51 45
REMARK SMILES IDX 50 46 69 47 70 48 74 49 71 50 73 51 72 52 59 53 60 54 64 55
REMARK SMILES IDX 61 56 63 57 62 58 9 59 10 60 11 61 12 62 13 63 14 64 15 65
REMARK SMILES IDX 16 66 37 67 17 68 19 69 18 70 20 71 21 72 22 73 23 74 36 75
REMARK SMILES IDX 24 76 35 77 25 78 26 79 27 80 28 81 29 82 30 83 34 84 31 85
REMARK SMILES IDX 33 86 32 87
REMARK H PARENT 79 26 57 37
REMARK Flexibility Score: inf
ROOT
ATOM      1  C   UNL A   1      38.993  28.828  28.983  1.00  0.00     0.188 C 
ENDROOT
BRANCH   1   2
ATOM      2  C   UNL A   1      40.316  28.059  29.015  1.00  0.00     0.188 C 
BRANCH   2   3
ATOM      3  O   UNL A   1      40.459  27.243  27.841  1.00  0.00    -0.376 OA
BRANCH   3   4
ATOM      4  C   UNL A   1      39.419  26.269  27.703  1.00  0.00     0.202 C 
BRANCH   4   5
ATOM      5  C   UNL A   1      39.828  24.845  28.101  1.00  0.00     0.261 C 
BRANCH   5   6
ATOM      6  O   UNL A   1      40.463  24.142  27.020  1.00  0.00    -0.460 OA
BRANCH   6   7
ATOM      7  C   UNL A   1      41.788  23.915  26.840  1.00  0.00     0.338 C 
ATOM      8  O   UNL A   1      42.179  22.755  26.728  1.00  0.00    -0.246 OA
BRANCH   7   9
ATOM      9  C   UNL A   1      42.802  25.009  26.711  1.00  0.00     0.060 A 
ATOM     10  C   UNL A   1      43.133  25.654  25.518  1.00  0.00     0.016 A 
ATOM     11  C   UNL A   1      43.418  25.460  27.892  1.00  0.00     0.016 A 
ATOM     12  C   UNL A   1      44.134  26.623  25.475  1.00  0.00     0.010 A 
ATOM     13  C   UNL A   1      44.363  26.493  27.867  1.00  0.00     0.010 A 
ATOM     14  C   UNL A   1      44.748  27.063  26.648  1.00  0.00    -0.014 A 
BRANCH  14  15
ATOM     15  C   UNL A   1      45.813  28.093  26.576  1.00  0.00     0.031 A 
ATOM     16  C   UNL A   1      45.435  29.543  26.640  1.00  0.00     0.074 A 
ATOM     17  C   UNL A   1      47.110  27.727  26.583  1.00  0.00     0.049 A 
ATOM     18  N   UNL A   1      46.205  30.597  26.574  1.00  0.00    -0.248 NA
ATOM     19  C   UNL A   1      44.010  29.848  26.854  1.00  0.00     0.031 C 
ATOM     20  C   UNL A   1      47.588  26.354  26.737  1.00  0.00     0.029 A 
ATOM     21  N   UNL A   1      48.264  28.469  26.525  1.00  0.00    -0.354 N 
ATOM     22  C   UNL A   1      45.363  31.687  26.752  1.00  0.00     0.074 A 
ATOM     23  C   UNL A   1      44.019  31.172  26.897  1.00  0.00     0.031 C 
ATOM     24  C   UNL A   1      48.926  26.362  26.838  1.00  0.00     0.029 A 
ATOM     25  C   UNL A   1      49.413  27.715  26.624  1.00  0.00     0.049 A 
ATOM     26  H   UNL A   1      48.269  29.448  26.422  1.00  0.00     0.167 HD
ATOM     27  C   UNL A   1      45.688  32.999  26.807  1.00  0.00     0.031 A 
ATOM     28  C   UNL A   1      50.708  28.074  26.513  1.00  0.00     0.031 A 
ATOM     29  C   UNL A   1      47.025  33.498  26.650  1.00  0.00     0.049 A 
ATOM     30  C   UNL A   1      50.983  29.524  26.213  1.00  0.00     0.074 A 
ATOM     31  C   UNL A   1      47.469  34.808  26.647  1.00  0.00     0.029 A 
ATOM     32  N   UNL A   1      48.137  32.695  26.458  1.00  0.00    -0.354 N 
ATOM     33  N   UNL A   1      50.177  30.553  26.320  1.00  0.00    -0.248 NA
ATOM     34  C   UNL A   1      52.329  29.862  25.730  1.00  0.00     0.031 C 
ATOM     35  C   UNL A   1      48.847  34.797  26.398  1.00  0.00     0.029 A 
ATOM     36  C   UNL A   1      49.262  33.479  26.282  1.00  0.00     0.049 A 
ATOM     37  H   UNL A   1      48.128  31.710  26.447  1.00  0.00     0.167 HD
ATOM     38  C   UNL A   1      50.937  31.667  25.993  1.00  0.00     0.074 A 
ATOM     39  C   UNL A   1      52.262  31.184  25.656  1.00  0.00     0.031 C 
ATOM     40  C   UNL A   1      50.577  32.973  25.989  1.00  0.00     0.031 A 
BRANCH  27  41
ATOM     41  C   UNL A   1      44.564  33.973  27.000  1.00  0.00    -0.014 A 
ATOM     42  C   UNL A   1      43.851  34.484  25.906  1.00  0.00     0.009 A 
ATOM     43  C   UNL A   1      44.218  34.387  28.295  1.00  0.00     0.009 A 
ATOM     44  C   UNL A   1      42.826  35.413  26.103  1.00  0.00     0.001 A 
ATOM     45  C   UNL A   1      43.183  35.303  28.491  1.00  0.00     0.001 A 
ATOM     46  C   UNL A   1      42.493  35.820  27.395  1.00  0.00     0.000 A 
ENDBRANCH  27  41
BRANCH  28  47
ATOM     47  C   UNL A   1      51.828  27.082  26.599  1.00  0.00    -0.014 A 
ATOM     48  C   UNL A   1      52.668  27.033  27.723  1.00  0.00     0.009 A 
ATOM     49  C   UNL A   1      52.122  26.215  25.534  1.00  0.00     0.009 A 
ATOM     50  C   UNL A   1      53.785  26.189  27.752  1.00  0.00     0.001 A 
ATOM     51  C   UNL A   1      53.216  25.346  25.574  1.00  0.00     0.001 A 
ATOM     52  C   UNL A   1      54.059  25.346  26.677  1.00  0.00     0.000 A 
ENDBRANCH  28  47
BRANCH  40  53
ATOM     53  C   UNL A   1      51.659  33.969  25.704  1.00  0.00    -0.014 A 
ATOM     54  C   UNL A   1      52.587  34.338  26.687  1.00  0.00     0.009 A 
ATOM     55  C   UNL A   1      51.763  34.520  24.418  1.00  0.00     0.009 A 
ATOM     56  C   UNL A   1      53.586  35.267  26.392  1.00  0.00     0.001 A 
ATOM     57  C   UNL A   1      52.777  35.429  24.120  1.00  0.00     0.001 A 
ATOM     58  C   UNL A   1      53.684  35.807  25.109  1.00  0.00     0.000 A 
ENDBRANCH  40  53
ENDBRANCH  14  15
ENDBRANCH   7   9
ENDBRANCH   6   7
ENDBRANCH   5   6
ENDBRANCH   4   5
ENDBRANCH   3   4
ENDBRANCH   2   3
ENDBRANCH   1   2
BRANCH   1  59
ATOM     59  O   UNL A   1      39.091  30.234  29.230  1.00  0.00    -0.376 OA
BRANCH  59  60
ATOM     60  C   UNL A   1      38.007  30.865  29.908  1.00  0.00     0.202 C 
BRANCH  60  61
ATOM     61  C   UNL A   1      36.662  30.136  29.852  1.00  0.00     0.261 C 
BRANCH  61  62
ATOM     62  O   UNL A   1      35.713  30.773  28.981  1.00  0.00    -0.463 OA
BRANCH  62  63
ATOM     63  C   UNL A   1      35.388  30.060  27.867  1.00  0.00     0.310 C 
ATOM     64  O   UNL A   1      36.177  29.692  27.006  1.00  0.00    -0.252 OA
BRANCH  63  65
ATOM     65  C   UNL A   1      33.897  29.819  27.787  1.00  0.00     0.119 C 
ATOM     66  C   UNL A   1      33.262  31.168  27.436  1.00  0.00     0.019 C 
ATOM     67  C   UNL A   1      33.635  28.683  26.773  1.00  0.00     0.134 C 
ATOM     68  C   UNL A   1      31.891  31.015  26.809  1.00  0.00     0.022 C 
ATOM     69  N   UNL A   1      32.312  28.733  26.131  1.00  0.00    -0.342 N 
ATOM     70  C   UNL A   1      31.970  30.048  25.644  1.00  0.00     0.119 C 
BRANCH  69  71
ATOM     71  C   UNL A   1      31.607  27.564  25.918  1.00  0.00     0.225 C 
ATOM     72  O   UNL A   1      31.497  26.747  26.844  1.00  0.00    -0.275 OA
BRANCH  71  73
ATOM     73  C   UNL A   1      30.901  27.196  24.582  1.00  0.00     0.081 C 
ATOM     74  C   UNL A   1      30.124  25.894  24.478  1.00  0.00     0.030 C 
ATOM     75  C   UNL A   1      31.642  27.499  23.296  1.00  0.00     0.030 C 
ATOM     76  C   UNL A   1      30.793  24.724  23.769  1.00  0.00     0.103 C 
ATOM     77  C   UNL A   1      32.457  26.356  22.731  1.00  0.00     0.103 C 
ATOM     78  N   UNL A   1      31.774  25.041  22.663  1.00  0.00    -0.198 NA
BRANCH  78  79
ATOM     79  S   UNL A   1      32.833  23.658  22.477  1.00  0.00     0.243 S 
ATOM     80  O   UNL A   1      32.021  22.473  22.656  1.00  0.00    -0.207 OA
ATOM     81  O   UNL A   1      33.530  23.864  21.220  1.00  0.00    -0.207 OA
BRANCH  79  82
ATOM     82  C   UNL A   1      34.067  23.582  23.758  1.00  0.00     0.082 A 
ATOM     83  C   UNL A   1      35.189  22.777  23.512  1.00  0.00     0.022 A 
ATOM     84  C   UNL A   1      33.843  24.059  25.052  1.00  0.00     0.022 A 
ATOM     85  C   UNL A   1      36.069  22.458  24.548  1.00  0.00     0.001 A 
ATOM     86  C   UNL A   1      34.744  23.766  26.079  1.00  0.00     0.001 A 
ATOM     87  C   UNL A   1      35.850  22.957  25.830  1.00  0.00     0.000 A 
ENDBRANCH  79  82
ENDBRANCH  78  79
ENDBRANCH  71  73
ENDBRANCH  69  71
ENDBRANCH  63  65
ENDBRANCH  62  63
ENDBRANCH  61  62
ENDBRANCH  60  61
ENDBRANCH  59  60
ENDBRANCH   1  59
TORSDOF 21
ENDMDL
MODEL 2
REMARK VINA RESULT:      -9.1      5.513     11.732
REMARK SMILES O=C(OCCOCCOCCOC(=O)[C@H]1CCCN(C(=O)C2CCN(S(=O)(=O)c3ccccc3)CC2)C1)c1ccc(-c2c3nc(c(-c4ccccc4)c4ccc([nH]4)c(-c4ccccc4)c4nc(c(-c5ccccc5)c5ccc2[nH]5)C=C4)C=C3)cc1
REMARK SMILES IDX 8 1 7 2 6 3 5 4 4 5 3 6 2 7 1 8 38 9 39 10 85 11 40 12 84 13
REMARK SMILES IDX 41 14 42 15 43 16 78 17 44 18 83 19 77 20 79 21 45 22 82 23
REMARK SMILES IDX 76 24 75 25 46 27 68 28 53 29 67 30 54 31 57 32 66 33 80 34
REMARK SMILES IDX 55 35 56 36 65 38 81 39 58 40 47 41 48 42 52 43 49 44 51 45
REMARK SMILES IDX 50 46 69 47 70 48 74 49 71 50 73 51 72 52 59 53 60 54 64 55
REMARK SMILES IDX 61 56 63 57 62 58 9 59 10 60 11 61 12 62 13 63 14 64 15 65
REMARK SMILES IDX 16 66 37 67 17 68 19 69 18 70 20 71 21 72 22 73 23 74 36 75
REMARK SMILES IDX 24 76 35 77 25 78 26 79 27 80 28 81 29 82 30 83 34 84 31 85
REMARK SMILES IDX 33 86 32 87
REMARK H PARENT 79 26 57 37
REMARK Flexibility Score: inf
ROOT
ATOM      1  C   UNL A   1      37.058  33.239  31.505  1.00  0.00     0.188 C 
ENDROOT
BRANCH   1   2
ATOM      2  C   UNL A   1      35.629  33.650  31.870  1.00  0.00     0.188 C 
BRANCH   2   3
ATOM      3  O   UNL A   1      34.678  33.005  31.008  1.00  0.00    -0.376 OA
BRANCH   3   4
ATOM      4  C   UNL A   1      34.261  33.829  29.914  1.00  0.00     0.202 C 
BRANCH   4   5
ATOM      5  C   UNL A   1      34.430  33.182  28.533  1.00  0.00     0.261 C 
BRANCH   5   6
ATOM      6  O   UNL A   1      33.990  31.815  28.517  1.00  0.00    -0.460 OA
BRANCH   6   7
ATOM      7  C   UNL A   1      34.588  30.756  27.917  1.00  0.00     0.338 C 
ATOM      8  O   UNL A   1      34.044  30.247  26.938  1.00  0.00    -0.246 OA
BRANCH   7   9
ATOM      9  C   UNL A   1      35.911  30.202  28.346  1.00  0.00     0.060 A 
ATOM     10  C   UNL A   1      36.150  29.557  29.560  1.00  0.00     0.016 A 
ATOM     11  C   UNL A   1      36.973  30.286  27.428  1.00  0.00     0.016 A 
ATOM     12  C   UNL A   1      37.428  29.123  29.908  1.00  0.00     0.010 A 
ATOM     13  C   UNL A   1      38.240  29.776  27.738  1.00  0.00     0.010 A 
ATOM     14  C   UNL A   1      38.482  29.214  28.997  1.00  0.00    -0.014 A 
BRANCH  14  15
ATOM     15  C   UNL A   1      39.833  28.749  29.392  1.00  0.00     0.031 A 
ATOM     16  C   UNL A   1      40.602  29.524  30.421  1.00  0.00     0.074 A 
ATOM     17  C   UNL A   1      40.308  27.576  28.930  1.00  0.00     0.049 A 
ATOM     18  N   UNL A   1      41.802  29.301  30.891  1.00  0.00    -0.248 NA
ATOM     19  C   UNL A   1      39.916  30.672  31.037  1.00  0.00     0.031 C 
ATOM     20  C   UNL A   1      39.552  26.642  28.096  1.00  0.00     0.029 A 
ATOM     21  N   UNL A   1      41.502  26.932  29.138  1.00  0.00    -0.354 N 
ATOM     22  C   UNL A   1      42.007  30.270  31.864  1.00  0.00     0.074 A 
ATOM     23  C   UNL A   1      40.826  31.102  31.899  1.00  0.00     0.031 C 
ATOM     24  C   UNL A   1      40.269  25.520  27.931  1.00  0.00     0.029 A 
ATOM     25  C   UNL A   1      41.583  25.700  28.529  1.00  0.00     0.049 A 
ATOM     26  H   UNL A   1      42.233  27.316  29.674  1.00  0.00     0.167 HD
ATOM     27  C   UNL A   1      43.082  30.436  32.670  1.00  0.00     0.031 A 
ATOM     28  C   UNL A   1      42.613  24.835  28.432  1.00  0.00     0.031 A 
ATOM     29  C   UNL A   1      44.255  29.609  32.618  1.00  0.00     0.049 A 
ATOM     30  C   UNL A   1      43.912  25.261  29.064  1.00  0.00     0.074 A 
ATOM     31  C   UNL A   1      45.420  29.706  33.356  1.00  0.00     0.029 A 
ATOM     32  N   UNL A   1      44.407  28.529  31.763  1.00  0.00    -0.354 N 
ATOM     33  N   UNL A   1      44.128  26.214  29.939  1.00  0.00    -0.248 NA
ATOM     34  C   UNL A   1      45.121  24.528  28.663  1.00  0.00     0.031 C 
ATOM     35  C   UNL A   1      46.301  28.715  32.907  1.00  0.00     0.029 A 
ATOM     36  C   UNL A   1      45.667  27.981  31.915  1.00  0.00     0.049 A 
ATOM     37  H   UNL A   1      43.721  28.201  31.139  1.00  0.00     0.167 HD
ATOM     38  C   UNL A   1      45.477  26.146  30.251  1.00  0.00     0.074 A 
ATOM     39  C   UNL A   1      46.038  25.076  29.449  1.00  0.00     0.031 C 
ATOM     40  C   UNL A   1      46.187  26.890  31.134  1.00  0.00     0.031 A 
BRANCH  27  41
ATOM     41  C   UNL A   1      43.041  31.584  33.634  1.00  0.00    -0.014 A 
ATOM     42  C   UNL A   1      43.534  32.848  33.279  1.00  0.00     0.009 A 
ATOM     43  C   UNL A   1      42.505  31.395  34.916  1.00  0.00     0.009 A 
ATOM     44  C   UNL A   1      43.514  33.897  34.201  1.00  0.00     0.001 A 
ATOM     45  C   UNL A   1      42.471  32.449  35.830  1.00  0.00     0.001 A 
ATOM     46  C   UNL A   1      42.982  33.697  35.475  1.00  0.00     0.000 A 
ENDBRANCH  27  41
BRANCH  28  47
ATOM     47  C   UNL A   1      42.516  23.550  27.668  1.00  0.00    -0.014 A 
ATOM     48  C   UNL A   1      42.754  23.509  26.285  1.00  0.00     0.009 A 
ATOM     49  C   UNL A   1      42.117  22.356  28.291  1.00  0.00     0.009 A 
ATOM     50  C   UNL A   1      42.548  22.333  25.552  1.00  0.00     0.001 A 
ATOM     51  C   UNL A   1      41.945  21.172  27.568  1.00  0.00     0.001 A 
ATOM     52  C   UNL A   1      42.143  21.165  26.194  1.00  0.00     0.000 A 
ENDBRANCH  28  47
BRANCH  40  53
ATOM     53  C   UNL A   1      47.618  26.501  31.344  1.00  0.00    -0.014 A 
ATOM     54  C   UNL A   1      48.641  27.024  30.541  1.00  0.00     0.009 A 
ATOM     55  C   UNL A   1      47.944  25.619  32.385  1.00  0.00     0.009 A 
ATOM     56  C   UNL A   1      49.966  26.647  30.762  1.00  0.00     0.001 A 
ATOM     57  C   UNL A   1      49.271  25.262  32.618  1.00  0.00     0.001 A 
ATOM     58  C   UNL A   1      50.281  25.771  31.802  1.00  0.00     0.000 A 
ENDBRANCH  40  53
ENDBRANCH  14  15
ENDBRANCH   7   9
ENDBRANCH   6   7
ENDBRANCH   5   6
ENDBRANCH   4   5
ENDBRANCH   3   4
ENDBRANCH   2   3
ENDBRANCH   1   2
BRANCH   1  59
ATOM     59  O   UNL A   1      37.261  32.858  30.141  1.00  0.00    -0.376 OA
BRANCH  59  60
ATOM     60  C   UNL A   1      38.519  33.166  29.547  1.00  0.00     0.202 C 
BRANCH  60  61
ATOM     61  C   UNL A   1      39.213  34.432  30.057  1.00  0.00     0.261 C 
BRANCH  61  62
ATOM     62  O   UNL A   1      40.644  34.306  30.110  1.00  0.00    -0.463 OA
BRANCH  62  63
ATOM     63  C   UNL A   1      41.314  34.938  29.107  1.00  0.00     0.310 C 
ATOM     64  O   UNL A   1      40.803  35.648  28.251  1.00  0.00    -0.252 OA
BRANCH  63  65
ATOM     65  C   UNL A   1      42.790  34.607  29.142  1.00  0.00     0.119 C 
ATOM     66  C   UNL A   1      42.901  33.207  29.753  1.00  0.00     0.019 C 
ATOM     67  C   UNL A   1      43.360  34.751  27.714  1.00  0.00     0.134 C 
ATOM     68  C   UNL A   1      44.200  32.519  29.385  1.00  0.00     0.022 C 
ATOM     69  N   UNL A   1      44.544  33.918  27.445  1.00  0.00    -0.342 N 
ATOM     70  C   UNL A   1      44.384  32.552  27.881  1.00  0.00     0.119 C 
BRANCH  69  71
ATOM     71  C   UNL A   1      45.592  34.433  26.705  1.00  0.00     0.225 C 
ATOM     72  O   UNL A   1      45.845  33.942  25.595  1.00  0.00    -0.275 OA
BRANCH  71  73
ATOM     73  C   UNL A   1      46.482  35.626  27.155  1.00  0.00     0.081 C 
ATOM     74  C   UNL A   1      46.645  35.922  28.637  1.00  0.00     0.030 C 
ATOM     75  C   UNL A   1      46.397  36.903  26.345  1.00  0.00     0.030 C 
ATOM     76  C   UNL A   1      45.830  37.065  29.225  1.00  0.00     0.103 C 
ATOM     77  C   UNL A   1      45.421  37.937  26.863  1.00  0.00     0.103 C 
ATOM     78  N   UNL A   1      45.487  38.225  28.316  1.00  0.00    -0.198 NA
BRANCH  78  79
ATOM     79  S   UNL A   1      44.081  39.029  28.984  1.00  0.00     0.243 S 
ATOM     80  O   UNL A   1      43.151  37.996  29.386  1.00  0.00    -0.207 OA
ATOM     81  O   UNL A   1      44.594  39.956  29.977  1.00  0.00    -0.207 OA
BRANCH  79  82
ATOM     82  C   UNL A   1      43.216  39.991  27.761  1.00  0.00     0.082 A 
ATOM     83  C   UNL A   1      41.921  39.571  27.421  1.00  0.00     0.022 A 
ATOM     84  C   UNL A   1      43.851  40.949  26.966  1.00  0.00     0.022 A 
ATOM     85  C   UNL A   1      41.277  40.104  26.303  1.00  0.00     0.001 A 
ATOM     86  C   UNL A   1      43.190  41.505  25.866  1.00  0.00     0.001 A 
ATOM     87  C   UNL A   1      41.910  41.074  25.529  1.00  0.00     0.000 A 
ENDBRANCH  79  82
ENDBRANCH  78  79
ENDBRANCH  71  73
ENDBRANCH  69  71
ENDBRANCH  63  65
ENDBRANCH  62  63
ENDBRANCH  61  62
ENDBRANCH  60  61
ENDBRANCH  59  60
ENDBRANCH   1  59
TORSDOF 21
ENDMDL
MODEL 3
REMARK VINA RESULT:      -9.0      5.710     11.194
REMARK SMILES O=C(OCCOCCOCCOC(=O)[C@H]1CCCN(C(=O)C2CCN(S(=O)(=O)c3ccccc3)CC2)C1)c1ccc(-c2c3nc(c(-c4ccccc4)c4ccc([nH]4)c(-c4ccccc4)c4nc(c(-c5ccccc5)c5ccc2[nH]5)C=C4)C=C3)cc1
REMARK SMILES IDX 8 1 7 2 6 3 5 4 4 5 3 6 2 7 1 8 38 9 39 10 85 11 40 12 84 13
REMARK SMILES IDX 41 14 42 15 43 16 78 17 44 18 83 19 77 20 79 21 45 22 82 23
REMARK SMILES IDX 76 24 75 25 46 27 68 28 53 29 67 30 54 31 57 32 66 33 80 34
REMARK SMILES IDX 55 35 56 36 65 38 81 39 58 40 47 41 48 42 52 43 49 44 51 45
REMARK SMILES IDX 50 46 69 47 70 48 74 49 71 50 73 51 72 52 59 53 60 54 64 55
REMARK SMILES IDX 61 56 63 57 62 58 9 59 10 60 11 61 12 62 13 63 14 64 15 65
REMARK SMILES IDX 16 66 37 67 17 68 19 69 18 70 20 71 21 72 22 73 23 74 36 75
REMARK SMILES IDX 24 76 35 77 25 78 26 79 27 80 28 81 29 82 30 83 34 84 31 85
REMARK SMILES IDX 33 86 32 87
REMARK H PARENT 79 26 57 37
REMARK Flexibility Score: inf
ROOT
ATOM      1  C   UNL A   1      35.691  33.773  33.953  1.00  0.00     0.188 C 
ENDROOT
BRANCH   1   2
ATOM      2  C   UNL A   1      35.360  32.824  32.798  1.00  0.00     0.188 C 
BRANCH   2   3
ATOM      3  O   UNL A   1      34.083  33.144  32.225  1.00  0.00    -0.376 OA
BRANCH   3   4
ATOM      4  C   UNL A   1      34.182  33.735  30.925  1.00  0.00     0.202 C 
BRANCH   4   5
ATOM      5  C   UNL A   1      35.147  33.015  29.974  1.00  0.00     0.261 C 
BRANCH   5   6
ATOM      6  O   UNL A   1      34.461  32.145  29.060  1.00  0.00    -0.460 OA
BRANCH   6   7
ATOM      7  C   UNL A   1      34.896  30.970  28.544  1.00  0.00     0.338 C 
ATOM      8  O   UNL A   1      34.141  30.328  27.817  1.00  0.00    -0.246 OA
BRANCH   7   9
ATOM      9  C   UNL A   1      36.277  30.433  28.764  1.00  0.00     0.060 A 
ATOM     10  C   UNL A   1      36.781  30.009  29.994  1.00  0.00     0.016 A 
ATOM     11  C   UNL A   1      37.100  30.289  27.633  1.00  0.00     0.016 A 
ATOM     12  C   UNL A   1      38.100  29.578  30.124  1.00  0.00     0.010 A 
ATOM     13  C   UNL A   1      38.399  29.776  27.743  1.00  0.00     0.010 A 
ATOM     14  C   UNL A   1      38.917  29.442  29.000  1.00  0.00    -0.014 A 
BRANCH  14  15
ATOM     15  C   UNL A   1      40.318  28.985  29.164  1.00  0.00     0.031 A 
ATOM     16  C   UNL A   1      40.674  27.572  28.804  1.00  0.00     0.074 A 
ATOM     17  C   UNL A   1      41.281  29.862  29.507  1.00  0.00     0.049 A 
ATOM     18  N   UNL A   1      41.831  26.969  28.892  1.00  0.00    -0.248 NA
ATOM     19  C   UNL A   1      39.602  26.744  28.228  1.00  0.00     0.031 C 
ATOM     20  C   UNL A   1      41.078  31.301  29.668  1.00  0.00     0.029 A 
ATOM     21  N   UNL A   1      42.627  29.698  29.720  1.00  0.00    -0.354 N 
ATOM     22  C   UNL A   1      41.628  25.698  28.369  1.00  0.00     0.074 A 
ATOM     23  C   UNL A   1      40.234  25.603  27.997  1.00  0.00     0.031 C 
ATOM     24  C   UNL A   1      42.264  31.893  29.877  1.00  0.00     0.029 A 
ATOM     25  C   UNL A   1      43.292  30.872  29.998  1.00  0.00     0.049 A 
ATOM     26  H   UNL A   1      43.076  28.823  29.678  1.00  0.00     0.167 HD
ATOM     27  C   UNL A   1      42.533  24.706  28.200  1.00  0.00     0.031 A 
ATOM     28  C   UNL A   1      44.576  31.090  30.348  1.00  0.00     0.031 A 
ATOM     29  C   UNL A   1      43.913  24.809  28.585  1.00  0.00     0.049 A 
ATOM     30  C   UNL A   1      45.453  29.873  30.489  1.00  0.00     0.074 A 
ATOM     31  C   UNL A   1      44.912  23.856  28.499  1.00  0.00     0.029 A 
ATOM     32  N   UNL A   1      44.482  25.943  29.142  1.00  0.00    -0.354 N 
ATOM     33  N   UNL A   1      45.245  28.654  30.053  1.00  0.00    -0.248 NA
ATOM     34  C   UNL A   1      46.720  30.045  31.214  1.00  0.00     0.031 C 
ATOM     35  C   UNL A   1      46.076  24.400  29.056  1.00  0.00     0.029 A 
ATOM     36  C   UNL A   1      45.806  25.701  29.455  1.00  0.00     0.049 A 
ATOM     37  H   UNL A   1      44.012  26.795  29.293  1.00  0.00     0.167 HD
ATOM     38  C   UNL A   1      46.383  27.934  30.380  1.00  0.00     0.074 A 
ATOM     39  C   UNL A   1      47.269  28.844  31.078  1.00  0.00     0.031 C 
ATOM     40  C   UNL A   1      46.679  26.638  30.112  1.00  0.00     0.031 A 
BRANCH  27  41
ATOM     41  C   UNL A   1      42.033  23.419  27.616  1.00  0.00    -0.014 A 
ATOM     42  C   UNL A   1      41.442  22.436  28.423  1.00  0.00     0.009 A 
ATOM     43  C   UNL A   1      42.158  23.186  26.238  1.00  0.00     0.009 A 
ATOM     44  C   UNL A   1      41.009  21.231  27.865  1.00  0.00     0.001 A 
ATOM     45  C   UNL A   1      41.710  21.988  25.680  1.00  0.00     0.001 A 
ATOM     46  C   UNL A   1      41.142  21.009  26.494  1.00  0.00     0.000 A 
ENDBRANCH  27  41
BRANCH  28  47
ATOM     47  C   UNL A   1      45.103  32.456  30.666  1.00  0.00    -0.014 A 
ATOM     48  C   UNL A   1      45.791  33.210  29.703  1.00  0.00     0.009 A 
ATOM     49  C   UNL A   1      44.990  33.004  31.955  1.00  0.00     0.009 A 
ATOM     50  C   UNL A   1      46.386  34.435  30.034  1.00  0.00     0.001 A 
ATOM     51  C   UNL A   1      45.552  34.241  32.280  1.00  0.00     0.001 A 
ATOM     52  C   UNL A   1      46.266  34.949  31.323  1.00  0.00     0.000 A 
ENDBRANCH  28  47
BRANCH  40  53
ATOM     53  C   UNL A   1      48.050  26.168  30.489  1.00  0.00    -0.014 A 
ATOM     54  C   UNL A   1      48.325  25.678  31.772  1.00  0.00     0.009 A 
ATOM     55  C   UNL A   1      49.072  26.193  29.528  1.00  0.00     0.009 A 
ATOM     56  C   UNL A   1      49.612  25.244  32.095  1.00  0.00     0.001 A 
ATOM     57  C   UNL A   1      50.351  25.737  29.846  1.00  0.00     0.001 A 
ATOM     58  C   UNL A   1      50.621  25.268  31.131  1.00  0.00     0.000 A 
ENDBRANCH  40  53
ENDBRANCH  14  15
ENDBRANCH   7   9
ENDBRANCH   6   7
ENDBRANCH   5   6
ENDBRANCH   4   5
ENDBRANCH   3   4
ENDBRANCH   2   3
ENDBRANCH   1   2
BRANCH   1  59
ATOM     59  O   UNL A   1      36.099  33.143  35.171  1.00  0.00    -0.376 OA
BRANCH  59  60
ATOM     60  C   UNL A   1      37.486  33.166  35.497  1.00  0.00     0.202 C 
BRANCH  60  61
ATOM     61  C   UNL A   1      38.276  34.378  34.995  1.00  0.00     0.261 C 
BRANCH  61  62
ATOM     62  O   UNL A   1      39.657  34.354  35.393  1.00  0.00    -0.463 OA
BRANCH  62  63
ATOM     63  C   UNL A   1      40.542  34.125  34.384  1.00  0.00     0.310 C 
ATOM     64  O   UNL A   1      40.621  34.775  33.350  1.00  0.00    -0.252 OA
BRANCH  63  65
ATOM     65  C   UNL A   1      41.399  32.912  34.672  1.00  0.00     0.119 C 
ATOM     66  C   UNL A   1      41.519  32.825  36.196  1.00  0.00     0.019 C 
ATOM     67  C   UNL A   1      40.760  31.684  33.988  1.00  0.00     0.134 C 
ATOM     68  C   UNL A   1      41.872  31.428  36.667  1.00  0.00     0.022 C 
ATOM     69  N   UNL A   1      41.073  30.398  34.632  1.00  0.00    -0.342 N 
ATOM     70  C   UNL A   1      40.904  30.429  36.065  1.00  0.00     0.119 C 
BRANCH  69  71
ATOM     71  C   UNL A   1      41.337  29.286  33.855  1.00  0.00     0.225 C 
ATOM     72  O   UNL A   1      40.476  28.400  33.756  1.00  0.00    -0.275 OA
BRANCH  71  73
ATOM     73  C   UNL A   1      42.651  29.069  33.053  1.00  0.00     0.081 C 
ATOM     74  C   UNL A   1      42.982  27.685  32.518  1.00  0.00     0.030 C 
ATOM     75  C   UNL A   1      43.894  29.781  33.546  1.00  0.00     0.030 C 
ATOM     76  C   UNL A   1      44.001  26.854  33.285  1.00  0.00     0.103 C 
ATOM     77  C   UNL A   1      44.780  28.974  34.470  1.00  0.00     0.103 C 
ATOM     78  N   UNL A   1      45.090  27.591  34.034  1.00  0.00    -0.198 NA
BRANCH  78  79
ATOM     79  S   UNL A   1      45.687  26.527  35.291  1.00  0.00     0.243 S 
ATOM     80  O   UNL A   1      47.124  26.443  35.130  1.00  0.00    -0.207 OA
ATOM     81  O   UNL A   1      45.135  27.037  36.532  1.00  0.00    -0.207 OA
BRANCH  79  82
ATOM     82  C   UNL A   1      45.093  24.860  35.095  1.00  0.00     0.082 A 
ATOM     83  C   UNL A   1      45.862  24.002  34.294  1.00  0.00     0.022 A 
ATOM     84  C   UNL A   1      43.807  24.467  35.473  1.00  0.00     0.022 A 
ATOM     85  C   UNL A   1      45.346  22.772  33.881  1.00  0.00     0.001 A 
ATOM     86  C   UNL A   1      43.307  23.220  35.086  1.00  0.00     0.001 A 
ATOM     87  C   UNL A   1      44.071  22.379  34.282  1.00  0.00     0.000 A 
ENDBRANCH  79  82
ENDBRANCH  78  79
ENDBRANCH  71  73
ENDBRANCH  69  71
ENDBRANCH  63  65
ENDBRANCH  62  63
ENDBRANCH  61  62
ENDBRANCH  60  61
ENDBRANCH  59  60
ENDBRANCH   1  59
TORSDOF 21
ENDMDL
