MODEL 1
REMARK VINA RESULT:      -9.5      0.000      0.000
REMARK SMILES Cc1ccc(S(=O)(=O)Nc2ccc(C(=O)CCC(=O)OCCOCCOCCOC(=O)c3ccc(-c4c5nc(c(-c6ccccc6)c6ccc([nH]6)c(-c6ccccc6)c6nc(c(-c7ccccc7)c7ccc4[nH]7)C=C6)C=C5)cc3)cc2)c(C)c1
REMARK SMILES IDX 22 1 21 2 20 3 18 4 19 5 17 6 16 7 14 8 15 9 13 10 10 11
REMARK SMILES IDX 11 12 81 13 12 14 80 15 9 16 6 18 7 19 8 20 5 21 1 22 2 23
REMARK SMILES IDX 3 24 84 25 4 26 82 27 83 28 23 29 24 30 25 31 26 32 27 33
REMARK SMILES IDX 28 34 29 35 30 36 31 37 32 38 33 39 79 40 34 41 78 42 35 43
REMARK SMILES IDX 36 44 37 45 72 46 38 47 77 48 71 49 73 50 39 51 76 52 70 53
REMARK SMILES IDX 69 54 40 56 62 57 47 58 61 59 48 60 51 61 60 62 74 63 49 64
REMARK SMILES IDX 50 65 59 67 75 68 52 69 41 70 42 71 46 72 43 73 45 74 44 75
REMARK SMILES IDX 63 76 64 77 68 78 65 79 67 80 66 81 53 82 54 83 58 84 55 85
REMARK SMILES IDX 57 86 56 87
REMARK H PARENT 9 17 73 55 51 66
REMARK Flexibility Score: inf
ROOT
ATOM      1  C   UNL A   1      34.654  31.149  28.549  1.00  0.00     0.202 C 
ENDROOT
BRANCH   1   2
ATOM      2  C   UNL A   1      34.281  30.358  27.299  1.00  0.00     0.261 C 
BRANCH   2   3
ATOM      3  O   UNL A   1      32.992  30.705  26.780  1.00  0.00    -0.463 OA
BRANCH   3   4
ATOM      4  C   UNL A   1      32.150  29.698  26.462  1.00  0.00     0.306 C 
ATOM      5  O   UNL A   1      31.568  28.986  27.268  1.00  0.00    -0.252 OA
BRANCH   4   6
ATOM      6  C   UNL A   1      31.996  29.561  24.965  1.00  0.00     0.131 C 
BRANCH   6   7
ATOM      7  C   UNL A   1      30.651  30.007  24.380  1.00  0.00     0.093 C 
BRANCH   7   8
ATOM      8  C   UNL A   1      30.015  28.951  23.470  1.00  0.00     0.163 C 
ATOM      9  O   UNL A   1      29.044  29.243  22.772  1.00  0.00    -0.294 OA
BRANCH   8  10
ATOM     10  C   UNL A   1      30.484  27.522  23.481  1.00  0.00     0.018 A 
ATOM     11  C   UNL A   1      30.903  24.749  23.091  1.00  0.00     0.049 A 
ATOM     12  C   UNL A   1      31.612  25.695  22.343  1.00  0.00     0.027 A 
ATOM     13  C   UNL A   1      30.171  25.204  24.173  1.00  0.00     0.027 A 
ATOM     14  C   UNL A   1      31.398  27.074  22.527  1.00  0.00     0.014 A 
ATOM     15  C   UNL A   1      29.977  26.581  24.365  1.00  0.00     0.014 A 
BRANCH  11  16
ATOM     16  N   UNL A   1      31.001  23.381  22.709  1.00  0.00    -0.280 N 
ATOM     17  H   UNL A   1      30.240  23.013  22.204  1.00  0.00     0.180 HD
BRANCH  16  18
ATOM     18  S   UNL A   1      32.269  22.318  23.023  1.00  0.00     0.262 S 
ATOM     19  O   UNL A   1      33.491  22.918  22.524  1.00  0.00    -0.201 OA
ATOM     20  O   UNL A   1      31.812  21.040  22.519  1.00  0.00    -0.201 OA
BRANCH  18  21
ATOM     21  C   UNL A   1      32.481  22.105  24.795  1.00  0.00     0.090 A 
ATOM     22  C   UNL A   1      33.854  22.782  28.820  1.00  0.00     0.044 C 
ATOM     23  C   UNL A   1      33.285  22.404  27.478  1.00  0.00    -0.051 A 
ATOM     24  C   UNL A   1      32.036  22.873  27.055  1.00  0.00     0.005 A 
ATOM     25  C   UNL A   1      34.022  21.601  26.608  1.00  0.00     0.008 A 
ATOM     26  C   UNL A   1      31.644  22.751  25.707  1.00  0.00     0.023 A 
ATOM     27  C   UNL A   1      33.620  21.417  25.271  1.00  0.00    -0.030 A 
ATOM     28  C   UNL A   1      34.378  20.394  24.468  1.00  0.00     0.046 C 
ENDBRANCH  18  21
ENDBRANCH  16  18
ENDBRANCH  11  16
ENDBRANCH   8  10
ENDBRANCH   7   8
ENDBRANCH   6   7
ENDBRANCH   4   6
ENDBRANCH   3   4
ENDBRANCH   2   3
ENDBRANCH   1   2
BRANCH   1  29
ATOM     29  O   UNL A   1      35.495  32.256  28.256  1.00  0.00    -0.376 OA
BRANCH  29  30
ATOM     30  C   UNL A   1      34.804  33.494  28.187  1.00  0.00     0.188 C 
BRANCH  30  31
ATOM     31  C   UNL A   1      34.077  33.853  29.474  1.00  0.00     0.188 C 
BRANCH  31  32
ATOM     32  O   UNL A   1      34.833  34.286  30.596  1.00  0.00    -0.376 OA
BRANCH  32  33
ATOM     33  C   UNL A   1      34.371  33.801  31.864  1.00  0.00     0.202 C 
BRANCH  33  34
ATOM     34  C   UNL A   1      35.144  32.654  32.548  1.00  0.00     0.261 C 
BRANCH  34  35
ATOM     35  O   UNL A   1      36.098  33.120  33.513  1.00  0.00    -0.460 OA
BRANCH  35  36
ATOM     36  C   UNL A   1      37.156  33.809  32.998  1.00  0.00     0.338 C 
ATOM     37  O   UNL A   1      37.566  34.890  33.355  1.00  0.00    -0.246 OA
BRANCH  36  38
ATOM     38  C   UNL A   1      37.939  32.872  32.140  1.00  0.00     0.060 A 
ATOM     39  C   UNL A   1      38.701  31.884  32.796  1.00  0.00     0.016 A 
ATOM     40  C   UNL A   1      37.792  32.838  30.751  1.00  0.00     0.016 A 
ATOM     41  C   UNL A   1      39.337  30.886  32.065  1.00  0.00     0.010 A 
ATOM     42  C   UNL A   1      38.469  31.868  30.012  1.00  0.00     0.010 A 
ATOM     43  C   UNL A   1      39.285  30.929  30.669  1.00  0.00    -0.014 A 
BRANCH  43  44
ATOM     44  C   UNL A   1      40.391  30.298  29.919  1.00  0.00     0.031 A 
ATOM     45  C   UNL A   1      41.607  31.156  29.697  1.00  0.00     0.074 A 
ATOM     46  C   UNL A   1      40.343  29.031  29.484  1.00  0.00     0.049 A 
ATOM     47  N   UNL A   1      42.709  30.893  29.049  1.00  0.00    -0.248 NA
ATOM     48  C   UNL A   1      41.565  32.507  30.287  1.00  0.00     0.031 C 
ATOM     49  C   UNL A   1      39.239  28.097  29.688  1.00  0.00     0.029 A 
ATOM     50  N   UNL A   1      41.265  28.319  28.762  1.00  0.00    -0.354 N 
ATOM     51  C   UNL A   1      43.480  32.044  29.153  1.00  0.00     0.074 A 
ATOM     52  C   UNL A   1      42.710  33.021  29.882  1.00  0.00     0.031 C 
ATOM     53  C   UNL A   1      39.542  26.933  29.083  1.00  0.00     0.029 A 
ATOM     54  C   UNL A   1      40.844  27.057  28.429  1.00  0.00     0.049 A 
ATOM     55  H   UNL A   1      42.146  28.679  28.508  1.00  0.00     0.167 HD
ATOM     56  C   UNL A   1      44.729  32.270  28.689  1.00  0.00     0.031 A 
ATOM     57  C   UNL A   1      41.440  26.126  27.659  1.00  0.00     0.031 A 
ATOM     58  C   UNL A   1      45.470  31.310  27.924  1.00  0.00     0.049 A 
ATOM     59  C   UNL A   1      42.796  26.425  27.071  1.00  0.00     0.074 A 
ATOM     60  C   UNL A   1      46.735  31.427  27.383  1.00  0.00     0.029 A 
ATOM     61  N   UNL A   1      44.996  30.052  27.581  1.00  0.00    -0.354 N 
ATOM     62  N   UNL A   1      43.528  27.508  27.185  1.00  0.00    -0.248 NA
ATOM     63  C   UNL A   1      43.413  25.366  26.261  1.00  0.00     0.031 C 
ATOM     64  C   UNL A   1      47.001  30.262  26.657  1.00  0.00     0.029 A 
ATOM     65  C   UNL A   1      45.933  29.390  26.812  1.00  0.00     0.049 A 
ATOM     66  H   UNL A   1      44.120  29.686  27.845  1.00  0.00     0.167 HD
ATOM     67  C   UNL A   1      44.703  27.252  26.488  1.00  0.00     0.074 A 
ATOM     68  C   UNL A   1      44.588  25.904  25.966  1.00  0.00     0.031 C 
ATOM     69  C   UNL A   1      45.784  28.051  26.298  1.00  0.00     0.031 A 
BRANCH  56  70
ATOM     70  C   UNL A   1      45.314  33.629  28.955  1.00  0.00    -0.014 A 
ATOM     71  C   UNL A   1      45.475  34.574  27.926  1.00  0.00     0.009 A 
ATOM     72  C   UNL A   1      45.757  33.953  30.246  1.00  0.00     0.009 A 
ATOM     73  C   UNL A   1      46.116  35.790  28.174  1.00  0.00     0.001 A 
ATOM     74  C   UNL A   1      46.362  35.185  30.499  1.00  0.00     0.001 A 
ATOM     75  C   UNL A   1      46.556  36.095  29.461  1.00  0.00     0.000 A 
ENDBRANCH  56  70
BRANCH  57  76
ATOM     76  C   UNL A   1      40.745  24.840  27.385  1.00  0.00    -0.014 A 
ATOM     77  C   UNL A   1      39.616  24.790  26.553  1.00  0.00     0.009 A 
ATOM     78  C   UNL A   1      41.221  23.646  27.951  1.00  0.00     0.009 A 
ATOM     79  C   UNL A   1      38.972  23.575  26.306  1.00  0.00     0.001 A 
ATOM     80  C   UNL A   1      40.593  22.429  27.677  1.00  0.00     0.001 A 
ATOM     81  C   UNL A   1      39.464  22.395  26.861  1.00  0.00     0.000 A 
ENDBRANCH  57  76
BRANCH  69  82
ATOM     82  C   UNL A   1      46.942  27.474  25.531  1.00  0.00    -0.014 A 
ATOM     83  C   UNL A   1      47.114  27.724  24.161  1.00  0.00     0.009 A 
ATOM     84  C   UNL A   1      47.904  26.708  26.209  1.00  0.00     0.009 A 
ATOM     85  C   UNL A   1      48.204  27.182  23.477  1.00  0.00     0.001 A 
ATOM     86  C   UNL A   1      49.012  26.199  25.531  1.00  0.00     0.001 A 
ATOM     87  C   UNL A   1      49.155  26.426  24.164  1.00  0.00     0.000 A 
ENDBRANCH  69  82
ENDBRANCH  43  44
ENDBRANCH  36  38
ENDBRANCH  35  36
ENDBRANCH  34  35
ENDBRANCH  33  34
ENDBRANCH  32  33
ENDBRANCH  31  32
ENDBRANCH  30  31
ENDBRANCH  29  30
ENDBRANCH   1  29
TORSDOF 23
ENDMDL
MODEL 2
REMARK VINA RESULT:      -8.8      6.698     11.645
REMARK SMILES Cc1ccc(S(=O)(=O)Nc2ccc(C(=O)CCC(=O)OCCOCCOCCOC(=O)c3ccc(-c4c5nc(c(-c6ccccc6)c6ccc([nH]6)c(-c6ccccc6)c6nc(c(-c7ccccc7)c7ccc4[nH]7)C=C6)C=C5)cc3)cc2)c(C)c1
REMARK SMILES IDX 22 1 21 2 20 3 18 4 19 5 17 6 16 7 14 8 15 9 13 10 10 11
REMARK SMILES IDX 11 12 81 13 12 14 80 15 9 16 6 18 7 19 8 20 5 21 1 22 2 23
REMARK SMILES IDX 3 24 84 25 4 26 82 27 83 28 23 29 24 30 25 31 26 32 27 33
REMARK SMILES IDX 28 34 29 35 30 36 31 37 32 38 33 39 79 40 34 41 78 42 35 43
REMARK SMILES IDX 36 44 37 45 72 46 38 47 77 48 71 49 73 50 39 51 76 52 70 53
REMARK SMILES IDX 69 54 40 56 62 57 47 58 61 59 48 60 51 61 60 62 74 63 49 64
REMARK SMILES IDX 50 65 59 67 75 68 52 69 41 70 42 71 46 72 43 73 45 74 44 75
REMARK SMILES IDX 63 76 64 77 68 78 65 79 67 80 66 81 53 82 54 83 58 84 55 85
REMARK SMILES IDX 57 86 56 87
REMARK H PARENT 9 17 73 55 51 66
REMARK Flexibility Score: inf
ROOT
ATOM      1  C   UNL A   1      40.845  28.544  31.301  1.00  0.00     0.202 C 
ENDROOT
BRANCH   1   2
ATOM      2  C   UNL A   1      41.031  28.036  29.875  1.00  0.00     0.261 C 
BRANCH   2   3
ATOM      3  O   UNL A   1      40.007  27.123  29.467  1.00  0.00    -0.463 OA
BRANCH   3   4
ATOM      4  C   UNL A   1      39.918  26.822  28.153  1.00  0.00     0.306 C 
ATOM      5  O   UNL A   1      39.856  27.640  27.246  1.00  0.00    -0.252 OA
BRANCH   4   6
ATOM      6  C   UNL A   1      39.917  25.328  27.928  1.00  0.00     0.131 C 
BRANCH   6   7
ATOM      7  C   UNL A   1      39.550  24.857  26.516  1.00  0.00     0.093 C 
BRANCH   7   8
ATOM      8  C   UNL A   1      39.191  23.369  26.456  1.00  0.00     0.163 C 
ATOM      9  O   UNL A   1      40.066  22.517  26.608  1.00  0.00    -0.294 OA
BRANCH   8  10
ATOM     10  C   UNL A   1      37.800  22.913  26.110  1.00  0.00     0.018 A 
ATOM     11  C   UNL A   1      35.323  22.282  24.892  1.00  0.00     0.049 A 
ATOM     12  C   UNL A   1      36.356  21.340  24.952  1.00  0.00     0.027 A 
ATOM     13  C   UNL A   1      35.465  23.437  25.640  1.00  0.00     0.027 A 
ATOM     14  C   UNL A   1      37.592  21.655  25.546  1.00  0.00     0.014 A 
ATOM     15  C   UNL A   1      36.693  23.737  26.249  1.00  0.00     0.014 A 
BRANCH  11  16
ATOM     16  N   UNL A   1      34.186  21.982  24.089  1.00  0.00    -0.280 N 
ATOM     17  H   UNL A   1      33.826  21.069  24.165  1.00  0.00     0.180 HD
BRANCH  16  18
ATOM     18  S   UNL A   1      33.384  23.011  23.024  1.00  0.00     0.262 S 
ATOM     19  O   UNL A   1      32.190  22.335  22.558  1.00  0.00    -0.201 OA
ATOM     20  O   UNL A   1      34.404  23.442  22.091  1.00  0.00    -0.201 OA
BRANCH  18  21
ATOM     21  C   UNL A   1      32.839  24.494  23.881  1.00  0.00     0.090 A 
ATOM     22  C   UNL A   1      32.729  27.707  26.746  1.00  0.00     0.044 C 
ATOM     23  C   UNL A   1      32.618  26.654  25.675  1.00  0.00    -0.051 A 
ATOM     24  C   UNL A   1      33.175  26.841  24.405  1.00  0.00     0.005 A 
ATOM     25  C   UNL A   1      31.982  25.443  25.950  1.00  0.00     0.008 A 
ATOM     26  C   UNL A   1      33.314  25.756  23.517  1.00  0.00     0.023 A 
ATOM     27  C   UNL A   1      32.059  24.362  25.051  1.00  0.00    -0.030 A 
ATOM     28  C   UNL A   1      31.194  23.166  25.353  1.00  0.00     0.046 C 
ENDBRANCH  18  21
ENDBRANCH  16  18
ENDBRANCH  11  16
ENDBRANCH   8  10
ENDBRANCH   7   8
ENDBRANCH   6   7
ENDBRANCH   4   6
ENDBRANCH   3   4
ENDBRANCH   2   3
ENDBRANCH   1   2
BRANCH   1  29
ATOM     29  O   UNL A   1      40.585  29.940  31.347  1.00  0.00    -0.376 OA
BRANCH  29  30
ATOM     30  C   UNL A   1      40.572  30.559  30.070  1.00  0.00     0.188 C 
BRANCH  30  31
ATOM     31  C   UNL A   1      39.612  31.737  29.979  1.00  0.00     0.188 C 
BRANCH  31  32
ATOM     32  O   UNL A   1      38.221  31.507  30.148  1.00  0.00    -0.376 OA
BRANCH  32  33
ATOM     33  C   UNL A   1      37.717  30.328  29.506  1.00  0.00     0.202 C 
BRANCH  33  34
ATOM     34  C   UNL A   1      37.104  29.212  30.378  1.00  0.00     0.261 C 
BRANCH  34  35
ATOM     35  O   UNL A   1      36.697  29.674  31.674  1.00  0.00    -0.460 OA
BRANCH  35  36
ATOM     36  C   UNL A   1      37.355  29.107  32.725  1.00  0.00     0.338 C 
ATOM     37  O   UNL A   1      37.695  27.951  32.836  1.00  0.00    -0.246 OA
BRANCH  36  38
ATOM     38  C   UNL A   1      37.888  30.209  33.578  1.00  0.00     0.060 A 
ATOM     39  C   UNL A   1      39.055  29.939  34.322  1.00  0.00     0.016 A 
ATOM     40  C   UNL A   1      37.381  31.509  33.515  1.00  0.00     0.016 A 
ATOM     41  C   UNL A   1      39.693  30.956  35.023  1.00  0.00     0.010 A 
ATOM     42  C   UNL A   1      37.991  32.522  34.256  1.00  0.00     0.010 A 
ATOM     43  C   UNL A   1      39.113  32.228  35.053  1.00  0.00    -0.014 A 
BRANCH  43  44
ATOM     44  C   UNL A   1      39.407  33.091  36.215  1.00  0.00     0.031 A 
ATOM     45  C   UNL A   1      40.502  34.104  36.021  1.00  0.00     0.074 A 
ATOM     46  C   UNL A   1      38.729  33.011  37.370  1.00  0.00     0.049 A 
ATOM     47  N   UNL A   1      41.003  34.967  36.863  1.00  0.00    -0.248 NA
ATOM     48  C   UNL A   1      41.122  34.141  34.683  1.00  0.00     0.031 C 
ATOM     49  C   UNL A   1      37.619  32.104  37.648  1.00  0.00     0.029 A 
ATOM     50  N   UNL A   1      38.897  33.715  38.533  1.00  0.00    -0.354 N 
ATOM     51  C   UNL A   1      41.993  35.638  36.156  1.00  0.00     0.074 A 
ATOM     52  C   UNL A   1      42.057  35.058  34.838  1.00  0.00     0.031 C 
ATOM     53  C   UNL A   1      37.216  32.294  38.919  1.00  0.00     0.029 A 
ATOM     54  C   UNL A   1      38.059  33.313  39.542  1.00  0.00     0.049 A 
ATOM     55  H   UNL A   1      39.554  34.441  38.634  1.00  0.00     0.167 HD
ATOM     56  C   UNL A   1      42.781  36.657  36.565  1.00  0.00     0.031 A 
ATOM     57  C   UNL A   1      38.009  33.711  40.828  1.00  0.00     0.031 A 
ATOM     58  C   UNL A   1      42.744  37.196  37.893  1.00  0.00     0.049 A 
ATOM     59  C   UNL A   1      38.955  34.788  41.296  1.00  0.00     0.074 A 
ATOM     60  C   UNL A   1      43.503  38.216  38.433  1.00  0.00     0.029 A 
ATOM     61  N   UNL A   1      41.902  36.740  38.897  1.00  0.00    -0.354 N 
ATOM     62  N   UNL A   1      39.879  35.431  40.621  1.00  0.00    -0.248 NA
ATOM     63  C   UNL A   1      38.840  35.203  42.701  1.00  0.00     0.031 C 
ATOM     64  C   UNL A   1      43.164  38.334  39.784  1.00  0.00     0.029 A 
ATOM     65  C   UNL A   1      42.139  37.440  40.063  1.00  0.00     0.049 A 
ATOM     66  H   UNL A   1      41.235  36.023  38.793  1.00  0.00     0.167 HD
ATOM     67  C   UNL A   1      40.435  36.346  41.507  1.00  0.00     0.074 A 
ATOM     68  C   UNL A   1      39.733  36.181  42.765  1.00  0.00     0.031 C 
ATOM     69  C   UNL A   1      41.430  37.246  41.304  1.00  0.00     0.031 A 
BRANCH  56  70
ATOM     70  C   UNL A   1      43.775  37.185  35.568  1.00  0.00    -0.014 A 
ATOM     71  C   UNL A   1      45.086  36.681  35.499  1.00  0.00     0.009 A 
ATOM     72  C   UNL A   1      43.411  38.239  34.717  1.00  0.00     0.009 A 
ATOM     73  C   UNL A   1      46.023  37.257  34.639  1.00  0.00     0.001 A 
ATOM     74  C   UNL A   1      44.339  38.787  33.830  1.00  0.00     0.001 A 
ATOM     75  C   UNL A   1      45.647  38.307  33.803  1.00  0.00     0.000 A 
ENDBRANCH  56  70
BRANCH  57  76
ATOM     76  C   UNL A   1      37.045  33.070  41.762  1.00  0.00    -0.014 A 
ATOM     77  C   UNL A   1      35.738  33.561  41.901  1.00  0.00     0.009 A 
ATOM     78  C   UNL A   1      37.430  31.950  42.515  1.00  0.00     0.009 A 
ATOM     79  C   UNL A   1      34.843  32.950  42.784  1.00  0.00     0.001 A 
ATOM     80  C   UNL A   1      36.524  31.324  43.374  1.00  0.00     0.001 A 
ATOM     81  C   UNL A   1      35.233  31.829  43.514  1.00  0.00     0.000 A 
ENDBRANCH  57  76
BRANCH  69  82
ATOM     82  C   UNL A   1      41.789  38.148  42.452  1.00  0.00    -0.014 A 
ATOM     83  C   UNL A   1      42.857  37.855  43.313  1.00  0.00     0.009 A 
ATOM     84  C   UNL A   1      41.072  39.342  42.641  1.00  0.00     0.009 A 
ATOM     85  C   UNL A   1      43.173  38.717  44.365  1.00  0.00     0.001 A 
ATOM     86  C   UNL A   1      41.412  40.219  43.670  1.00  0.00     0.001 A 
ATOM     87  C   UNL A   1      42.454  39.900  44.539  1.00  0.00     0.000 A 
ENDBRANCH  69  82
ENDBRANCH  43  44
ENDBRANCH  36  38
ENDBRANCH  35  36
ENDBRANCH  34  35
ENDBRANCH  33  34
ENDBRANCH  32  33
ENDBRANCH  31  32
ENDBRANCH  30  31
ENDBRANCH  29  30
ENDBRANCH   1  29
TORSDOF 23
ENDMDL
MODEL 3
REMARK VINA RESULT:      -8.8      5.577     11.585
REMARK SMILES Cc1ccc(S(=O)(=O)Nc2ccc(C(=O)CCC(=O)OCCOCCOCCOC(=O)c3ccc(-c4c5nc(c(-c6ccccc6)c6ccc([nH]6)c(-c6ccccc6)c6nc(c(-c7ccccc7)c7ccc4[nH]7)C=C6)C=C5)cc3)cc2)c(C)c1
REMARK SMILES IDX 22 1 21 2 20 3 18 4 19 5 17 6 16 7 14 8 15 9 13 10 10 11
REMARK SMILES IDX 11 12 81 13 12 14 80 15 9 16 6 18 7 19 8 20 5 21 1 22 2 23
REMARK SMILES IDX 3 24 84 25 4 26 82 27 83 28 23 29 24 30 25 31 26 32 27 33
REMARK SMILES IDX 28 34 29 35 30 36 31 37 32 38 33 39 79 40 34 41 78 42 35 43
REMARK SMILES IDX 36 44 37 45 72 46 38 47 77 48 71 49 73 50 39 51 76 52 70 53
REMARK SMILES IDX 69 54 40 56 62 57 47 58 61 59 48 60 51 61 60 62 74 63 49 64
REMARK SMILES IDX 50 65 59 67 75 68 52 69 41 70 42 71 46 72 43 73 45 74 44 75
REMARK SMILES IDX 63 76 64 77 68 78 65 79 67 80 66 81 53 82 54 83 58 84 55 85
REMARK SMILES IDX 57 86 56 87
REMARK H PARENT 9 17 73 55 51 66
REMARK Flexibility Score: inf
ROOT
ATOM      1  C   UNL A   1      33.419  35.608  31.885  1.00  0.00     0.202 C 
ENDROOT
BRANCH   1   2
ATOM      2  C   UNL A   1      34.248  35.503  33.161  1.00  0.00     0.261 C 
BRANCH   2   3
ATOM      3  O   UNL A   1      34.464  34.152  33.580  1.00  0.00    -0.463 OA
BRANCH   3   4
ATOM      4  C   UNL A   1      35.721  33.789  33.915  1.00  0.00     0.306 C 
ATOM      5  O   UNL A   1      36.015  32.834  34.621  1.00  0.00    -0.252 OA
BRANCH   4   6
ATOM      6  C   UNL A   1      36.744  34.710  33.292  1.00  0.00     0.131 C 
BRANCH   6   7
ATOM      7  C   UNL A   1      38.026  34.045  32.775  1.00  0.00     0.093 C 
BRANCH   7   8
ATOM      8  C   UNL A   1      39.242  34.316  33.667  1.00  0.00     0.163 C 
ATOM      9  O   UNL A   1      40.258  34.821  33.187  1.00  0.00    -0.294 OA
BRANCH   8  10
ATOM     10  C   UNL A   1      39.269  33.884  35.107  1.00  0.00     0.018 A 
ATOM     11  C   UNL A   1      39.929  32.981  37.708  1.00  0.00     0.049 A 
ATOM     12  C   UNL A   1      39.908  34.346  37.405  1.00  0.00     0.027 A 
ATOM     13  C   UNL A   1      39.400  32.109  36.774  1.00  0.00     0.027 A 
ATOM     14  C   UNL A   1      39.591  34.798  36.110  1.00  0.00     0.014 A 
ATOM     15  C   UNL A   1      39.066  32.567  35.490  1.00  0.00     0.014 A 
BRANCH  11  16
ATOM     16  N   UNL A   1      40.468  32.580  38.964  1.00  0.00    -0.280 N 
ATOM     17  H   UNL A   1      41.202  31.925  38.935  1.00  0.00     0.180 HD
BRANCH  16  18
ATOM     18  S   UNL A   1      39.991  33.097  40.494  1.00  0.00     0.262 S 
ATOM     19  O   UNL A   1      40.177  34.533  40.561  1.00  0.00    -0.201 OA
ATOM     20  O   UNL A   1      40.683  32.217  41.412  1.00  0.00    -0.201 OA
BRANCH  18  21
ATOM     21  C   UNL A   1      38.238  32.788  40.739  1.00  0.00     0.090 A 
ATOM     22  C   UNL A   1      33.966  33.210  40.403  1.00  0.00     0.044 C 
ATOM     23  C   UNL A   1      35.426  32.927  40.633  1.00  0.00    -0.051 A 
ATOM     24  C   UNL A   1      36.120  31.987  39.863  1.00  0.00     0.005 A 
ATOM     25  C   UNL A   1      36.130  33.637  41.607  1.00  0.00     0.008 A 
ATOM     26  C   UNL A   1      37.528  31.935  39.892  1.00  0.00     0.023 A 
ATOM     27  C   UNL A   1      37.534  33.558  41.693  1.00  0.00    -0.030 A 
ATOM     28  C   UNL A   1      38.179  34.215  42.883  1.00  0.00     0.046 C 
ENDBRANCH  18  21
ENDBRANCH  16  18
ENDBRANCH  11  16
ENDBRANCH   8  10
ENDBRANCH   7   8
ENDBRANCH   6   7
ENDBRANCH   4   6
ENDBRANCH   3   4
ENDBRANCH   2   3
ENDBRANCH   1   2
BRANCH   1  29
ATOM     29  O   UNL A   1      32.861  36.903  31.710  1.00  0.00    -0.376 OA
BRANCH  29  30
ATOM     30  C   UNL A   1      33.071  37.443  30.414  1.00  0.00     0.188 C 
BRANCH  30  31
ATOM     31  C   UNL A   1      33.721  36.463  29.449  1.00  0.00     0.188 C 
BRANCH  31  32
ATOM     32  O   UNL A   1      32.898  35.564  28.719  1.00  0.00    -0.376 OA
BRANCH  32  33
ATOM     33  C   UNL A   1      33.254  34.180  28.841  1.00  0.00     0.202 C 
BRANCH  33  34
ATOM     34  C   UNL A   1      33.700  33.414  27.579  1.00  0.00     0.261 C 
BRANCH  34  35
ATOM     35  O   UNL A   1      34.850  32.585  27.803  1.00  0.00    -0.460 OA
BRANCH  35  36
ATOM     36  C   UNL A   1      34.578  31.279  28.083  1.00  0.00     0.338 C 
ATOM     37  O   UNL A   1      33.540  30.690  27.882  1.00  0.00    -0.246 OA
BRANCH  36  38
ATOM     38  C   UNL A   1      35.871  30.594  28.373  1.00  0.00     0.060 A 
ATOM     39  C   UNL A   1      36.030  30.036  29.657  1.00  0.00     0.016 A 
ATOM     40  C   UNL A   1      36.818  30.342  27.376  1.00  0.00     0.016 A 
ATOM     41  C   UNL A   1      37.143  29.256  29.953  1.00  0.00     0.010 A 
ATOM     42  C   UNL A   1      37.959  29.602  27.684  1.00  0.00     0.010 A 
ATOM     43  C   UNL A   1      38.144  29.109  28.989  1.00  0.00    -0.014 A 
BRANCH  43  44
ATOM     44  C   UNL A   1      39.518  28.837  29.459  1.00  0.00     0.031 A 
ATOM     45  C   UNL A   1      40.123  27.537  29.003  1.00  0.00     0.074 A 
ATOM     46  C   UNL A   1      40.209  29.697  30.221  1.00  0.00     0.049 A 
ATOM     47  N   UNL A   1      41.285  27.012  29.280  1.00  0.00    -0.248 NA
ATOM     48  C   UNL A   1      39.288  26.711  28.110  1.00  0.00     0.031 C 
ATOM     49  C   UNL A   1      39.740  31.004  30.676  1.00  0.00     0.029 A 
ATOM     50  N   UNL A   1      41.467  29.580  30.752  1.00  0.00    -0.354 N 
ATOM     51  C   UNL A   1      41.313  25.800  28.602  1.00  0.00     0.074 A 
ATOM     52  C   UNL A   1      40.043  25.643  27.938  1.00  0.00     0.031 C 
ATOM     53  C   UNL A   1      40.698  31.562  31.441  1.00  0.00     0.029 A 
ATOM     54  C   UNL A   1      41.826  30.638  31.548  1.00  0.00     0.049 A 
ATOM     55  H   UNL A   1      42.056  28.811  30.577  1.00  0.00     0.167 HD
ATOM     56  C   UNL A   1      42.313  24.895  28.528  1.00  0.00     0.031 A 
ATOM     57  C   UNL A   1      42.933  30.815  32.295  1.00  0.00     0.031 A 
ATOM     58  C   UNL A   1      43.556  25.036  29.228  1.00  0.00     0.049 A 
ATOM     59  C   UNL A   1      44.005  29.755  32.274  1.00  0.00     0.074 A 
ATOM     60  C   UNL A   1      44.640  24.180  29.248  1.00  0.00     0.029 A 
ATOM     61  N   UNL A   1      43.870  26.109  30.050  1.00  0.00    -0.354 N 
ATOM     62  N   UNL A   1      44.034  28.618  31.619  1.00  0.00    -0.248 NA
ATOM     63  C   UNL A   1      45.202  30.010  33.086  1.00  0.00     0.031 C 
ATOM     64  C   UNL A   1      45.586  24.705  30.134  1.00  0.00     0.029 A 
ATOM     65  C   UNL A   1      45.122  25.926  30.604  1.00  0.00     0.049 A 
ATOM     66  H   UNL A   1      43.287  26.885  30.215  1.00  0.00     0.167 HD
ATOM     67  C   UNL A   1      45.261  28.036  31.914  1.00  0.00     0.074 A 
ATOM     68  C   UNL A   1      45.952  28.955  32.798  1.00  0.00     0.031 C 
ATOM     69  C   UNL A   1      45.778  26.855  31.491  1.00  0.00     0.031 A 
BRANCH  56  70
ATOM     70  C   UNL A   1      42.051  23.662  27.709  1.00  0.00    -0.014 A 
ATOM     71  C   UNL A   1      41.450  22.521  28.270  1.00  0.00     0.009 A 
ATOM     72  C   UNL A   1      42.456  23.621  26.366  1.00  0.00     0.009 A 
ATOM     73  C   UNL A   1      41.311  21.351  27.520  1.00  0.00     0.001 A 
ATOM     74  C   UNL A   1      42.280  22.463  25.607  1.00  0.00     0.001 A 
ATOM     75  C   UNL A   1      41.723  21.325  26.189  1.00  0.00     0.000 A 
ENDBRANCH  56  70
BRANCH  57  76
ATOM     76  C   UNL A   1      43.067  32.033  33.138  1.00  0.00    -0.014 A 
ATOM     77  C   UNL A   1      43.561  33.232  32.604  1.00  0.00     0.009 A 
ATOM     78  C   UNL A   1      42.687  32.000  34.490  1.00  0.00     0.009 A 
ATOM     79  C   UNL A   1      43.683  34.368  33.409  1.00  0.00     0.001 A 
ATOM     80  C   UNL A   1      42.782  33.146  35.284  1.00  0.00     0.001 A 
ATOM     81  C   UNL A   1      43.288  34.327  34.745  1.00  0.00     0.000 A 
ENDBRANCH  57  76
BRANCH  69  82
ATOM     82  C   UNL A   1      47.170  26.509  31.944  1.00  0.00    -0.014 A 
ATOM     83  C   UNL A   1      48.303  26.929  31.231  1.00  0.00     0.009 A 
ATOM     84  C   UNL A   1      47.346  25.791  33.139  1.00  0.00     0.009 A 
ATOM     85  C   UNL A   1      49.583  26.600  31.682  1.00  0.00     0.001 A 
ATOM     86  C   UNL A   1      48.626  25.495  33.607  1.00  0.00     0.001 A 
ATOM     87  C   UNL A   1      49.743  25.889  32.872  1.00  0.00     0.000 A 
ENDBRANCH  69  82
ENDBRANCH  43  44
ENDBRANCH  36  38
ENDBRANCH  35  36
ENDBRANCH  34  35
ENDBRANCH  33  34
ENDBRANCH  32  33
ENDBRANCH  31  32
ENDBRANCH  30  31
ENDBRANCH  29  30
ENDBRANCH   1  29
TORSDOF 23
ENDMDL
