MODEL 1
REMARK VINA RESULT:      -9.4      0.000      0.000
REMARK SMILES C[NH+](C)Cc1ccccc1[C@H]1[NH2+][C@@H](C(=O)OCCOCCOCCOC(=O)c2ccc(-c3c4nc(c(-c5ccccc5)c5ccc([nH]5)c(-c5ccccc5)c5nc(c(-c6ccccc6)c6ccc3[nH]6)C=C5)C=C4)cc2)C(C)(C)S1
REMARK SMILES IDX 20 1 19 2 18 3 17 4 16 5 14 6 15 7 13 8 11 9 12 10 79 11
REMARK SMILES IDX 76 14 77 15 78 16 10 17 5 18 6 19 7 20 9 21 8 22 4 23 2 24
REMARK SMILES IDX 1 25 3 26 21 28 22 29 23 30 24 31 25 32 26 33 27 34 28 35
REMARK SMILES IDX 29 36 75 37 30 38 74 39 31 40 32 41 33 42 68 43 34 44 73 45
REMARK SMILES IDX 67 46 69 47 35 48 72 49 66 50 65 51 36 53 58 54 43 55 57 56
REMARK SMILES IDX 44 57 47 58 56 59 70 60 45 61 46 62 55 64 71 65 48 66 37 67
REMARK SMILES IDX 38 68 42 69 39 70 41 71 40 72 59 73 60 74 64 75 61 76 63 77
REMARK SMILES IDX 62 78 49 79 50 80 54 81 51 82 53 83 52 84
REMARK H PARENT 12 12 12 13 2 27 69 52 47 63
REMARK Flexibility Score: inf
ROOT
ATOM      1  C   UNL A   1      35.088  31.923  27.755  1.00  0.00     0.188 C 
ENDROOT
BRANCH   1   2
ATOM      2  O   UNL A   1      34.557  30.890  26.931  1.00  0.00    -0.376 OA
BRANCH   2   3
ATOM      3  C   UNL A   1      34.588  29.533  27.354  1.00  0.00     0.202 C 
BRANCH   3   4
ATOM      4  C   UNL A   1      33.275  28.728  27.329  1.00  0.00     0.261 C 
BRANCH   4   5
ATOM      5  O   UNL A   1      33.206  27.560  26.473  1.00  0.00    -0.459 OA
BRANCH   5   6
ATOM      6  C   UNL A   1      31.994  26.943  26.417  1.00  0.00     0.366 C 
ATOM      7  O   UNL A   1      31.103  27.139  27.241  1.00  0.00    -0.245 OA
BRANCH   6   8
ATOM      8  C   UNL A   1      31.849  25.853  25.319  1.00  0.00     0.310 C 
ATOM      9  C   UNL A   1      32.669  23.663  24.765  1.00  0.00     0.275 C 
ATOM     10  N   UNL A   1      32.626  24.686  25.795  1.00  0.00    -0.319 N 
ATOM     11  S   UNL A   1      32.341  24.387  23.150  1.00  0.00    -0.081 SA
ATOM     12  H   UNL A   1      33.575  24.981  26.017  1.00  0.00     0.348 HD
ATOM     13  H   UNL A   1      32.177  24.303  26.627  1.00  0.00     0.348 HD
ATOM     14  C   UNL A   1      32.045  26.095  23.788  1.00  0.00     0.079 C 
ATOM     15  C   UNL A   1      33.165  27.010  23.274  1.00  0.00     0.030 C 
ATOM     16  C   UNL A   1      30.743  26.504  23.078  1.00  0.00     0.030 C 
BRANCH   9  17
ATOM     17  C   UNL A   1      33.942  22.822  24.862  1.00  0.00     0.029 A 
ATOM     18  C   UNL A   1      33.972  21.395  24.995  1.00  0.00     0.016 A 
ATOM     19  C   UNL A   1      35.217  20.751  25.001  1.00  0.00     0.010 A 
ATOM     20  C   UNL A   1      36.408  21.470  24.886  1.00  0.00     0.001 A 
ATOM     21  C   UNL A   1      35.163  23.521  24.746  1.00  0.00     0.011 A 
ATOM     22  C   UNL A   1      36.382  22.852  24.762  1.00  0.00     0.001 A 
BRANCH  18  23
ATOM     23  C   UNL A   1      32.675  20.625  25.139  1.00  0.00     0.299 C 
BRANCH  23  24
ATOM     24  N   UNL A   1      32.450  19.269  24.661  1.00  0.00    -0.336 N 
ATOM     25  C   UNL A   1      32.527  19.061  23.236  1.00  0.00     0.332 C 
ATOM     26  C   UNL A   1      32.961  18.224  25.520  1.00  0.00     0.332 C 
ATOM     27  H   UNL A   1      31.443  19.154  24.778  1.00  0.00     0.347 HD
ENDBRANCH  23  24
ENDBRANCH  18  23
ENDBRANCH   9  17
ENDBRANCH   6   8
ENDBRANCH   5   6
ENDBRANCH   4   5
ENDBRANCH   3   4
ENDBRANCH   2   3
ENDBRANCH   1   2
BRANCH   1  28
ATOM     28  C   UNL A   1      34.192  32.592  28.795  1.00  0.00     0.188 C 
BRANCH  28  29
ATOM     29  O   UNL A   1      34.669  33.836  29.244  1.00  0.00    -0.376 OA
BRANCH  29  30
ATOM     30  C   UNL A   1      34.611  34.136  30.621  1.00  0.00     0.202 C 
BRANCH  30  31
ATOM     31  C   UNL A   1      34.392  32.975  31.602  1.00  0.00     0.261 C 
BRANCH  31  32
ATOM     32  O   UNL A   1      35.504  32.606  32.437  1.00  0.00    -0.460 OA
BRANCH  32  33
ATOM     33  C   UNL A   1      36.641  33.326  32.323  1.00  0.00     0.338 C 
ATOM     34  O   UNL A   1      36.878  34.411  32.839  1.00  0.00    -0.246 OA
BRANCH  33  35
ATOM     35  C   UNL A   1      37.652  32.470  31.664  1.00  0.00     0.060 A 
ATOM     36  C   UNL A   1      38.536  31.720  32.452  1.00  0.00     0.016 A 
ATOM     37  C   UNL A   1      37.723  32.398  30.273  1.00  0.00     0.016 A 
ATOM     38  C   UNL A   1      39.501  30.905  31.859  1.00  0.00     0.010 A 
ATOM     39  C   UNL A   1      38.710  31.609  29.677  1.00  0.00     0.010 A 
ATOM     40  C   UNL A   1      39.619  30.878  30.466  1.00  0.00    -0.014 A 
BRANCH  40  41
ATOM     41  C   UNL A   1      40.803  30.253  29.831  1.00  0.00     0.031 A 
ATOM     42  C   UNL A   1      42.021  31.105  29.604  1.00  0.00     0.074 A 
ATOM     43  C   UNL A   1      40.804  28.960  29.463  1.00  0.00     0.049 A 
ATOM     44  N   UNL A   1      43.119  30.830  28.948  1.00  0.00    -0.248 NA
ATOM     45  C   UNL A   1      41.989  32.455  30.191  1.00  0.00     0.031 C 
ATOM     46  C   UNL A   1      39.720  28.008  29.697  1.00  0.00     0.029 A 
ATOM     47  N   UNL A   1      41.757  28.229  28.796  1.00  0.00    -0.354 N 
ATOM     48  C   UNL A   1      43.895  31.981  29.020  1.00  0.00     0.074 A 
ATOM     49  C   UNL A   1      43.135  32.962  29.764  1.00  0.00     0.031 C 
ATOM     50  C   UNL A   1      40.062  26.821  29.167  1.00  0.00     0.029 A 
ATOM     51  C   UNL A   1      41.364  26.945  28.513  1.00  0.00     0.049 A 
ATOM     52  H   UNL A   1      42.638  28.592  28.546  1.00  0.00     0.167 HD
ATOM     53  C   UNL A   1      45.128  32.202  28.509  1.00  0.00     0.031 A 
ATOM     54  C   UNL A   1      41.969  25.993  27.777  1.00  0.00     0.031 A 
ATOM     55  C   UNL A   1      45.875  31.226  27.762  1.00  0.00     0.049 A 
ATOM     56  C   UNL A   1      43.300  26.292  27.136  1.00  0.00     0.074 A 
ATOM     57  C   UNL A   1      47.136  31.347  27.205  1.00  0.00     0.029 A 
ATOM     58  N   UNL A   1      45.424  29.949  27.464  1.00  0.00    -0.354 N 
ATOM     59  N   UNL A   1      44.024  27.383  27.201  1.00  0.00    -0.248 NA
ATOM     60  C   UNL A   1      43.895  25.225  26.318  1.00  0.00     0.031 C 
ATOM     61  C   UNL A   1      47.420  30.165  26.513  1.00  0.00     0.029 A 
ATOM     62  C   UNL A   1      46.370  29.281  26.705  1.00  0.00     0.049 A 
ATOM     63  H   UNL A   1      44.561  29.573  27.750  1.00  0.00     0.167 HD
ATOM     64  C   UNL A   1      45.176  27.121  26.467  1.00  0.00     0.074 A 
ATOM     65  C   UNL A   1      45.056  25.765  25.973  1.00  0.00     0.031 C 
ATOM     66  C   UNL A   1      46.238  27.928  26.226  1.00  0.00     0.031 A 
BRANCH  53  67
ATOM     67  C   UNL A   1      45.720  33.572  28.696  1.00  0.00    -0.014 A 
ATOM     68  C   UNL A   1      45.409  34.635  27.831  1.00  0.00     0.009 A 
ATOM     69  C   UNL A   1      46.590  33.807  29.772  1.00  0.00     0.009 A 
ATOM     70  C   UNL A   1      45.990  35.891  28.018  1.00  0.00     0.001 A 
ATOM     71  C   UNL A   1      47.142  35.073  29.976  1.00  0.00     0.001 A 
ATOM     72  C   UNL A   1      46.851  36.110  29.092  1.00  0.00     0.000 A 
ENDBRANCH  53  67
BRANCH  54  73
ATOM     73  C   UNL A   1      41.311  24.674  27.572  1.00  0.00    -0.014 A 
ATOM     74  C   UNL A   1      41.781  23.527  28.230  1.00  0.00     0.009 A 
ATOM     75  C   UNL A   1      40.218  24.550  26.698  1.00  0.00     0.009 A 
ATOM     76  C   UNL A   1      41.189  22.283  27.998  1.00  0.00     0.001 A 
ATOM     77  C   UNL A   1      39.606  23.311  26.495  1.00  0.00     0.001 A 
ATOM     78  C   UNL A   1      40.100  22.177  27.136  1.00  0.00     0.000 A 
ENDBRANCH  54  73
BRANCH  66  79
ATOM     79  C   UNL A   1      47.384  27.352  25.440  1.00  0.00    -0.014 A 
ATOM     80  C   UNL A   1      47.477  27.512  24.049  1.00  0.00     0.009 A 
ATOM     81  C   UNL A   1      48.417  26.684  26.117  1.00  0.00     0.009 A 
ATOM     82  C   UNL A   1      48.564  26.983  23.349  1.00  0.00     0.001 A 
ATOM     83  C   UNL A   1      49.519  26.187  25.420  1.00  0.00     0.001 A 
ATOM     84  C   UNL A   1      49.587  26.328  24.035  1.00  0.00     0.000 A 
ENDBRANCH  66  79
ENDBRANCH  40  41
ENDBRANCH  33  35
ENDBRANCH  32  33
ENDBRANCH  31  32
ENDBRANCH  30  31
ENDBRANCH  29  30
ENDBRANCH  28  29
ENDBRANCH   1  28
TORSDOF 20
ENDMDL
MODEL 2
REMARK VINA RESULT:      -9.0      1.246      5.989
REMARK SMILES C[NH+](C)Cc1ccccc1[C@H]1[NH2+][C@@H](C(=O)OCCOCCOCCOC(=O)c2ccc(-c3c4nc(c(-c5ccccc5)c5ccc([nH]5)c(-c5ccccc5)c5nc(c(-c6ccccc6)c6ccc3[nH]6)C=C5)C=C4)cc2)C(C)(C)S1
REMARK SMILES IDX 20 1 19 2 18 3 17 4 16 5 14 6 15 7 13 8 11 9 12 10 79 11
REMARK SMILES IDX 76 14 77 15 78 16 10 17 5 18 6 19 7 20 9 21 8 22 4 23 2 24
REMARK SMILES IDX 1 25 3 26 21 28 22 29 23 30 24 31 25 32 26 33 27 34 28 35
REMARK SMILES IDX 29 36 75 37 30 38 74 39 31 40 32 41 33 42 68 43 34 44 73 45
REMARK SMILES IDX 67 46 69 47 35 48 72 49 66 50 65 51 36 53 58 54 43 55 57 56
REMARK SMILES IDX 44 57 47 58 56 59 70 60 45 61 46 62 55 64 71 65 48 66 37 67
REMARK SMILES IDX 38 68 42 69 39 70 41 71 40 72 59 73 60 74 64 75 61 76 63 77
REMARK SMILES IDX 62 78 49 79 50 80 54 81 51 82 53 83 52 84
REMARK H PARENT 12 12 12 13 2 27 69 52 47 63
REMARK Flexibility Score: inf
ROOT
ATOM      1  C   UNL A   1      34.573  31.916  27.898  1.00  0.00     0.188 C 
ENDROOT
BRANCH   1   2
ATOM      2  O   UNL A   1      33.898  30.808  27.311  1.00  0.00    -0.376 OA
BRANCH   2   3
ATOM      3  C   UNL A   1      34.511  29.526  27.259  1.00  0.00     0.202 C 
BRANCH   3   4
ATOM      4  C   UNL A   1      33.605  28.282  27.208  1.00  0.00     0.261 C 
BRANCH   4   5
ATOM      5  O   UNL A   1      33.292  27.718  25.910  1.00  0.00    -0.459 OA
BRANCH   5   6
ATOM      6  C   UNL A   1      32.210  26.893  25.873  1.00  0.00     0.366 C 
ATOM      7  O   UNL A   1      31.228  27.041  26.598  1.00  0.00    -0.245 OA
BRANCH   6   8
ATOM      8  C   UNL A   1      32.348  25.649  24.951  1.00  0.00     0.310 C 
ATOM      9  C   UNL A   1      33.628  23.625  24.753  1.00  0.00     0.275 C 
ATOM     10  N   UNL A   1      33.323  24.753  25.614  1.00  0.00    -0.319 N 
ATOM     11  S   UNL A   1      33.241  24.022  23.040  1.00  0.00    -0.081 SA
ATOM     12  H   UNL A   1      34.179  25.272  25.807  1.00  0.00     0.348 HD
ATOM     13  H   UNL A   1      32.921  24.409  26.485  1.00  0.00     0.348 HD
ATOM     14  C   UNL A   1      32.567  25.703  23.404  1.00  0.00     0.079 C 
ATOM     15  C   UNL A   1      33.500  26.750  22.779  1.00  0.00     0.030 C 
ATOM     16  C   UNL A   1      31.247  25.721  22.616  1.00  0.00     0.030 C 
BRANCH   9  17
ATOM     17  C   UNL A   1      35.041  23.095  25.001  1.00  0.00     0.029 A 
ATOM     18  C   UNL A   1      35.425  21.717  24.910  1.00  0.00     0.016 A 
ATOM     19  C   UNL A   1      36.774  21.387  25.096  1.00  0.00     0.010 A 
ATOM     20  C   UNL A   1      37.732  22.366  25.368  1.00  0.00     0.001 A 
ATOM     21  C   UNL A   1      36.031  24.062  25.276  1.00  0.00     0.011 A 
ATOM     22  C   UNL A   1      37.362  23.700  25.461  1.00  0.00     0.001 A 
BRANCH  18  23
ATOM     23  C   UNL A   1      34.376  20.660  24.632  1.00  0.00     0.299 C 
BRANCH  23  24
ATOM     24  N   UNL A   1      33.659  19.907  25.650  1.00  0.00    -0.336 N 
ATOM     25  C   UNL A   1      33.296  20.619  26.850  1.00  0.00     0.332 C 
ATOM     26  C   UNL A   1      32.727  18.926  25.143  1.00  0.00     0.332 C 
ATOM     27  H   UNL A   1      34.388  19.309  26.042  1.00  0.00     0.347 HD
ENDBRANCH  23  24
ENDBRANCH  18  23
ENDBRANCH   9  17
ENDBRANCH   6   8
ENDBRANCH   5   6
ENDBRANCH   4   5
ENDBRANCH   3   4
ENDBRANCH   2   3
ENDBRANCH   1   2
BRANCH   1  28
ATOM     28  C   UNL A   1      35.140  31.790  29.310  1.00  0.00     0.188 C 
BRANCH  28  29
ATOM     29  O   UNL A   1      34.310  32.329  30.308  1.00  0.00    -0.376 OA
BRANCH  29  30
ATOM     30  C   UNL A   1      34.861  33.225  31.247  1.00  0.00     0.202 C 
BRANCH  30  31
ATOM     31  C   UNL A   1      35.509  32.637  32.510  1.00  0.00     0.261 C 
BRANCH  31  32
ATOM     32  O   UNL A   1      36.872  32.193  32.400  1.00  0.00    -0.460 OA
BRANCH  32  33
ATOM     33  C   UNL A   1      37.091  30.872  32.225  1.00  0.00     0.338 C 
ATOM     34  O   UNL A   1      36.287  29.965  32.404  1.00  0.00    -0.246 OA
BRANCH  33  35
ATOM     35  C   UNL A   1      38.396  30.717  31.545  1.00  0.00     0.060 A 
ATOM     36  C   UNL A   1      38.490  30.982  30.173  1.00  0.00     0.016 A 
ATOM     37  C   UNL A   1      39.525  30.319  32.260  1.00  0.00     0.016 A 
ATOM     38  C   UNL A   1      39.706  30.844  29.504  1.00  0.00     0.010 A 
ATOM     39  C   UNL A   1      40.736  30.147  31.586  1.00  0.00     0.010 A 
ATOM     40  C   UNL A   1      40.828  30.384  30.200  1.00  0.00    -0.014 A 
BRANCH  40  41
ATOM     41  C   UNL A   1      42.041  29.960  29.463  1.00  0.00     0.031 A 
ATOM     42  C   UNL A   1      42.122  28.537  28.986  1.00  0.00     0.074 A 
ATOM     43  C   UNL A   1      43.051  30.814  29.218  1.00  0.00     0.049 A 
ATOM     44  N   UNL A   1      43.126  27.895  28.447  1.00  0.00    -0.248 NA
ATOM     45  C   UNL A   1      40.904  27.726  29.148  1.00  0.00     0.031 C 
ATOM     46  C   UNL A   1      43.064  32.235  29.558  1.00  0.00     0.029 A 
ATOM     47  N   UNL A   1      44.274  30.595  28.633  1.00  0.00    -0.354 N 
ATOM     48  C   UNL A   1      42.671  26.600  28.233  1.00  0.00     0.074 A 
ATOM     49  C   UNL A   1      41.309  26.541  28.718  1.00  0.00     0.031 C 
ATOM     50  C   UNL A   1      44.245  32.760  29.188  1.00  0.00     0.029 A 
ATOM     51  C   UNL A   1      45.088  31.700  28.637  1.00  0.00     0.049 A 
ATOM     52  H   UNL A   1      44.541  29.728  28.249  1.00  0.00     0.167 HD
ATOM     53  C   UNL A   1      43.329  25.552  27.685  1.00  0.00     0.031 A 
ATOM     54  C   UNL A   1      46.379  31.830  28.272  1.00  0.00     0.031 A 
ATOM     55  C   UNL A   1      44.686  25.613  27.213  1.00  0.00     0.049 A 
ATOM     56  C   UNL A   1      47.123  30.627  27.753  1.00  0.00     0.074 A 
ATOM     57  C   UNL A   1      45.443  24.610  26.635  1.00  0.00     0.029 A 
ATOM     58  N   UNL A   1      45.488  26.742  27.270  1.00  0.00    -0.354 N 
ATOM     59  N   UNL A   1      46.688  29.404  27.560  1.00  0.00    -0.248 NA
ATOM     60  C   UNL A   1      48.537  30.823  27.403  1.00  0.00     0.031 C 
ATOM     61  C   UNL A   1      46.727  25.114  26.403  1.00  0.00     0.029 A 
ATOM     62  C   UNL A   1      46.745  26.452  26.765  1.00  0.00     0.049 A 
ATOM     63  H   UNL A   1      45.208  27.619  27.617  1.00  0.00     0.167 HD
ATOM     64  C   UNL A   1      47.763  28.697  27.031  1.00  0.00     0.074 A 
ATOM     65  C   UNL A   1      48.865  29.630  26.925  1.00  0.00     0.031 C 
ATOM     66  C   UNL A   1      47.830  27.395  26.661  1.00  0.00     0.031 A 
BRANCH  53  67
ATOM     67  C   UNL A   1      42.602  24.236  27.619  1.00  0.00    -0.014 A 
ATOM     68  C   UNL A   1      41.817  23.882  26.510  1.00  0.00     0.009 A 
ATOM     69  C   UNL A   1      42.723  23.327  28.681  1.00  0.00     0.009 A 
ATOM     70  C   UNL A   1      41.137  22.662  26.487  1.00  0.00     0.001 A 
ATOM     71  C   UNL A   1      42.070  22.094  28.640  1.00  0.00     0.001 A 
ATOM     72  C   UNL A   1      41.268  21.768  27.548  1.00  0.00     0.000 A 
ENDBRANCH  53  67
BRANCH  54  73
ATOM     73  C   UNL A   1      47.069  33.141  28.415  1.00  0.00    -0.014 A 
ATOM     74  C   UNL A   1      47.027  34.091  27.384  1.00  0.00     0.009 A 
ATOM     75  C   UNL A   1      47.793  33.442  29.581  1.00  0.00     0.009 A 
ATOM     76  C   UNL A   1      47.715  35.301  27.505  1.00  0.00     0.001 A 
ATOM     77  C   UNL A   1      48.452  34.667  29.713  1.00  0.00     0.001 A 
ATOM     78  C   UNL A   1      48.421  35.590  28.670  1.00  0.00     0.000 A 
ENDBRANCH  54  73
BRANCH  66  79
ATOM     79  C   UNL A   1      49.119  26.910  26.055  1.00  0.00    -0.014 A 
ATOM     80  C   UNL A   1      49.430  27.136  24.706  1.00  0.00     0.009 A 
ATOM     81  C   UNL A   1      50.061  26.262  26.870  1.00  0.00     0.009 A 
ATOM     82  C   UNL A   1      50.644  26.691  24.177  1.00  0.00     0.001 A 
ATOM     83  C   UNL A   1      51.288  25.849  26.347  1.00  0.00     0.001 A 
ATOM     84  C   UNL A   1      51.574  26.055  24.999  1.00  0.00     0.000 A 
ENDBRANCH  66  79
ENDBRANCH  40  41
ENDBRANCH  33  35
ENDBRANCH  32  33
ENDBRANCH  31  32
ENDBRANCH  30  31
ENDBRANCH  29  30
ENDBRANCH  28  29
ENDBRANCH   1  28
TORSDOF 20
ENDMDL
MODEL 3
REMARK VINA RESULT:      -8.9      4.305      9.498
REMARK SMILES C[NH+](C)Cc1ccccc1[C@H]1[NH2+][C@@H](C(=O)OCCOCCOCCOC(=O)c2ccc(-c3c4nc(c(-c5ccccc5)c5ccc([nH]5)c(-c5ccccc5)c5nc(c(-c6ccccc6)c6ccc3[nH]6)C=C5)C=C4)cc2)C(C)(C)S1
REMARK SMILES IDX 20 1 19 2 18 3 17 4 16 5 14 6 15 7 13 8 11 9 12 10 79 11
REMARK SMILES IDX 76 14 77 15 78 16 10 17 5 18 6 19 7 20 9 21 8 22 4 23 2 24
REMARK SMILES IDX 1 25 3 26 21 28 22 29 23 30 24 31 25 32 26 33 27 34 28 35
REMARK SMILES IDX 29 36 75 37 30 38 74 39 31 40 32 41 33 42 68 43 34 44 73 45
REMARK SMILES IDX 67 46 69 47 35 48 72 49 66 50 65 51 36 53 58 54 43 55 57 56
REMARK SMILES IDX 44 57 47 58 56 59 70 60 45 61 46 62 55 64 71 65 48 66 37 67
REMARK SMILES IDX 38 68 42 69 39 70 41 71 40 72 59 73 60 74 64 75 61 76 63 77
REMARK SMILES IDX 62 78 49 79 50 80 54 81 51 82 53 83 52 84
REMARK H PARENT 12 12 12 13 2 27 69 52 47 63
REMARK Flexibility Score: inf
ROOT
ATOM      1  C   UNL A   1      40.478  20.900  26.913  1.00  0.00     0.188 C 
ENDROOT
BRANCH   1   2
ATOM      2  O   UNL A   1      39.487  21.149  25.921  1.00  0.00    -0.376 OA
BRANCH   2   3
ATOM      3  C   UNL A   1      38.934  22.448  25.755  1.00  0.00     0.202 C 
BRANCH   3   4
ATOM      4  C   UNL A   1      37.456  22.668  26.131  1.00  0.00     0.261 C 
BRANCH   4   5
ATOM      5  O   UNL A   1      36.501  22.870  25.060  1.00  0.00    -0.459 OA
BRANCH   5   6
ATOM      6  C   UNL A   1      35.210  23.053  25.450  1.00  0.00     0.366 C 
ATOM      7  O   UNL A   1      34.724  22.508  26.439  1.00  0.00    -0.245 OA
BRANCH   6   8
ATOM      8  C   UNL A   1      34.330  23.890  24.480  1.00  0.00     0.310 C 
ATOM      9  C   UNL A   1      33.428  26.104  24.244  1.00  0.00     0.275 C 
ATOM     10  N   UNL A   1      34.344  25.274  25.005  1.00  0.00    -0.319 N 
ATOM     11  S   UNL A   1      32.201  25.083  23.412  1.00  0.00    -0.081 SA
ATOM     12  H   UNL A   1      34.058  25.267  25.983  1.00  0.00     0.348 HD
ATOM     13  H   UNL A   1      35.287  25.653  24.921  1.00  0.00     0.348 HD
ATOM     14  C   UNL A   1      32.909  23.474  23.978  1.00  0.00     0.079 C 
ATOM     15  C   UNL A   1      31.905  22.805  24.928  1.00  0.00     0.030 C 
ATOM     16  C   UNL A   1      32.954  22.645  22.684  1.00  0.00     0.030 C 
BRANCH   9  17
ATOM     17  C   UNL A   1      32.866  27.245  25.093  1.00  0.00     0.029 A 
ATOM     18  C   UNL A   1      32.082  28.333  24.586  1.00  0.00     0.016 A 
ATOM     19  C   UNL A   1      31.574  29.270  25.496  1.00  0.00     0.010 A 
ATOM     20  C   UNL A   1      31.822  29.162  26.865  1.00  0.00     0.001 A 
ATOM     21  C   UNL A   1      33.097  27.162  26.482  1.00  0.00     0.011 A 
ATOM     22  C   UNL A   1      32.583  28.113  27.358  1.00  0.00     0.001 A 
BRANCH  18  23
ATOM     23  C   UNL A   1      31.835  28.453  23.096  1.00  0.00     0.299 C 
BRANCH  23  24
ATOM     24  N   UNL A   1      30.524  28.550  22.471  1.00  0.00    -0.336 N 
ATOM     25  C   UNL A   1      29.476  27.733  23.030  1.00  0.00     0.332 C 
ATOM     26  C   UNL A   1      30.168  29.868  21.996  1.00  0.00     0.332 C 
ATOM     27  H   UNL A   1      30.657  28.047  21.592  1.00  0.00     0.347 HD
ENDBRANCH  23  24
ENDBRANCH  18  23
ENDBRANCH   9  17
ENDBRANCH   6   8
ENDBRANCH   5   6
ENDBRANCH   4   5
ENDBRANCH   3   4
ENDBRANCH   2   3
ENDBRANCH   1   2
BRANCH   1  28
ATOM     28  C   UNL A   1      41.956  21.014  26.545  1.00  0.00     0.188 C 
BRANCH  28  29
ATOM     29  O   UNL A   1      42.193  21.681  25.331  1.00  0.00    -0.376 OA
BRANCH  29  30
ATOM     30  C   UNL A   1      42.599  23.032  25.358  1.00  0.00     0.202 C 
BRANCH  30  31
ATOM     31  C   UNL A   1      43.917  23.402  24.662  1.00  0.00     0.261 C 
BRANCH  31  32
ATOM     32  O   UNL A   1      44.223  24.802  24.543  1.00  0.00    -0.460 OA
BRANCH  32  33
ATOM     33  C   UNL A   1      45.321  25.262  25.181  1.00  0.00     0.338 C 
ATOM     34  O   UNL A   1      46.481  25.189  24.793  1.00  0.00    -0.246 OA
BRANCH  33  35
ATOM     35  C   UNL A   1      44.867  26.087  26.322  1.00  0.00     0.060 A 
ATOM     36  C   UNL A   1      44.319  25.459  27.449  1.00  0.00     0.016 A 
ATOM     37  C   UNL A   1      44.988  27.475  26.285  1.00  0.00     0.016 A 
ATOM     38  C   UNL A   1      43.881  26.211  28.539  1.00  0.00     0.010 A 
ATOM     39  C   UNL A   1      44.519  28.233  27.361  1.00  0.00     0.010 A 
ATOM     40  C   UNL A   1      43.940  27.607  28.482  1.00  0.00    -0.014 A 
BRANCH  40  41
ATOM     41  C   UNL A   1      43.228  28.425  29.492  1.00  0.00     0.031 A 
ATOM     42  C   UNL A   1      43.920  28.701  30.799  1.00  0.00     0.074 A 
ATOM     43  C   UNL A   1      41.997  28.914  29.262  1.00  0.00     0.049 A 
ATOM     44  N   UNL A   1      43.456  29.266  31.883  1.00  0.00    -0.248 NA
ATOM     45  C   UNL A   1      45.325  28.271  30.894  1.00  0.00     0.031 C 
ATOM     46  C   UNL A   1      41.250  28.785  28.013  1.00  0.00     0.029 A 
ATOM     47  N   UNL A   1      41.152  29.612  30.090  1.00  0.00    -0.354 N 
ATOM     48  C   UNL A   1      44.502  29.234  32.797  1.00  0.00     0.074 A 
ATOM     49  C   UNL A   1      45.616  28.577  32.148  1.00  0.00     0.031 C 
ATOM     50  C   UNL A   1      40.050  29.372  28.161  1.00  0.00     0.029 A 
ATOM     51  C   UNL A   1      39.926  29.869  29.531  1.00  0.00     0.049 A 
ATOM     52  H   UNL A   1      41.403  29.900  30.998  1.00  0.00     0.167 HD
ATOM     53  C   UNL A   1      44.531  29.706  34.065  1.00  0.00     0.031 A 
ATOM     54  C   UNL A   1      38.817  30.409  30.075  1.00  0.00     0.031 A 
ATOM     55  C   UNL A   1      43.418  30.351  34.709  1.00  0.00     0.049 A 
ATOM     56  C   UNL A   1      38.841  30.841  31.518  1.00  0.00     0.074 A 
ATOM     57  C   UNL A   1      43.345  30.870  35.988  1.00  0.00     0.029 A 
ATOM     58  N   UNL A   1      42.180  30.557  34.119  1.00  0.00    -0.354 N 
ATOM     59  N   UNL A   1      39.830  30.802  32.378  1.00  0.00    -0.248 NA
ATOM     60  C   UNL A   1      37.593  31.393  32.064  1.00  0.00     0.031 C 
ATOM     61  C   UNL A   1      42.042  31.333  36.196  1.00  0.00     0.029 A 
ATOM     62  C   UNL A   1      41.326  31.170  35.020  1.00  0.00     0.049 A 
ATOM     63  H   UNL A   1      41.944  30.305  33.198  1.00  0.00     0.167 HD
ATOM     64  C   UNL A   1      39.336  31.357  33.554  1.00  0.00     0.074 A 
ATOM     65  C   UNL A   1      37.962  31.733  33.292  1.00  0.00     0.031 C 
ATOM     66  C   UNL A   1      39.962  31.543  34.741  1.00  0.00     0.031 A 
BRANCH  53  67
ATOM     67  C   UNL A   1      45.794  29.492  34.855  1.00  0.00    -0.014 A 
ATOM     68  C   UNL A   1      45.957  28.380  35.697  1.00  0.00     0.009 A 
ATOM     69  C   UNL A   1      46.847  30.413  34.737  1.00  0.00     0.009 A 
ATOM     70  C   UNL A   1      47.133  28.218  36.434  1.00  0.00     0.001 A 
ATOM     71  C   UNL A   1      48.033  30.230  35.449  1.00  0.00     0.001 A 
ATOM     72  C   UNL A   1      48.171  29.139  36.305  1.00  0.00     0.000 A 
ENDBRANCH  53  67
BRANCH  54  73
ATOM     73  C   UNL A   1      37.575  30.542  29.266  1.00  0.00    -0.014 A 
ATOM     74  C   UNL A   1      36.754  29.431  29.023  1.00  0.00     0.009 A 
ATOM     75  C   UNL A   1      37.215  31.782  28.712  1.00  0.00     0.009 A 
ATOM     76  C   UNL A   1      35.614  29.553  28.225  1.00  0.00     0.001 A 
ATOM     77  C   UNL A   1      36.056  31.908  27.942  1.00  0.00     0.001 A 
ATOM     78  C   UNL A   1      35.263  30.790  27.690  1.00  0.00     0.000 A 
ENDBRANCH  54  73
BRANCH  66  79
ATOM     79  C   UNL A   1      39.191  32.233  35.834  1.00  0.00    -0.014 A 
ATOM     80  C   UNL A   1      38.415  31.513  36.754  1.00  0.00     0.009 A 
ATOM     81  C   UNL A   1      39.291  33.626  35.973  1.00  0.00     0.009 A 
ATOM     82  C   UNL A   1      37.726  32.180  37.770  1.00  0.00     0.001 A 
ATOM     83  C   UNL A   1      38.630  34.286  37.010  1.00  0.00     0.001 A 
ATOM     84  C   UNL A   1      37.840  33.563  37.901  1.00  0.00     0.000 A 
ENDBRANCH  66  79
ENDBRANCH  40  41
ENDBRANCH  33  35
ENDBRANCH  32  33
ENDBRANCH  31  32
ENDBRANCH  30  31
ENDBRANCH  29  30
ENDBRANCH  28  29
ENDBRANCH   1  28
TORSDOF 20
ENDMDL
