MODEL 1
REMARK VINA RESULT:     -11.1      0.000      0.000
REMARK SMILES Cc1cc2c(=O)c3ccccc3oc2c(C(=O)OCCOCCOCCOC(=O)c2ccc(-c3c4nc(c(-c5ccccc5)c5ccc([nH]5)c(-c5ccccc5)c5nc(c(-c6ccccc6)c6ccc3[nH]6)C=C5)C=C4)cc2)c1C
REMARK SMILES IDX 23 1 22 2 21 3 20 4 19 5 18 6 16 7 17 8 15 9 1 10 2 11 3 12
REMARK SMILES IDX 78 13 4 14 79 15 5 16 14 17 6 18 7 19 13 20 8 21 12 22 9 23
REMARK SMILES IDX 11 24 10 25 24 26 25 27 26 28 27 29 28 30 29 31 30 32 31 33
REMARK SMILES IDX 77 34 32 35 76 36 33 37 34 38 35 39 70 40 36 41 75 42 69 43
REMARK SMILES IDX 71 44 37 45 74 46 68 47 67 48 38 50 60 51 45 52 59 53 46 54
REMARK SMILES IDX 49 55 58 56 72 57 47 58 48 59 57 61 73 62 50 63 39 64 40 65
REMARK SMILES IDX 44 66 41 67 43 68 42 69 61 70 62 71 66 72 63 73 65 74 64 75
REMARK SMILES IDX 51 76 52 77 56 78 53 79 55 80 54 81
REMARK H PARENT 71 49 49 60
REMARK Flexibility Score: inf
ROOT
ATOM      1  C   UNL A   1      32.641  22.259  25.837  1.00  0.00     0.188 C 
ENDROOT
BRANCH   1   2
ATOM      2  C   UNL A   1      31.391  22.769  25.085  1.00  0.00     0.188 C 
BRANCH   2   3
ATOM      3  O   UNL A   1      31.527  23.479  23.868  1.00  0.00    -0.376 OA
BRANCH   3   4
ATOM      4  C   UNL A   1      30.573  24.477  23.532  1.00  0.00     0.202 C 
BRANCH   4   5
ATOM      5  C   UNL A   1      30.460  25.760  24.361  1.00  0.00     0.261 C 
BRANCH   5   6
ATOM      6  O   UNL A   1      29.760  26.816  23.686  1.00  0.00    -0.460 OA
BRANCH   6   7
ATOM      7  C   UNL A   1      30.521  27.741  23.050  1.00  0.00     0.342 C 
ATOM      8  O   UNL A   1      31.276  27.527  22.117  1.00  0.00    -0.246 OA
BRANCH   7   9
ATOM      9  C   UNL A   1      30.244  29.109  23.578  1.00  0.00     0.106 A 
ATOM     10  C   UNL A   1      27.654  31.961  23.422  1.00  0.00     0.044 C 
ATOM     11  C   UNL A   1      28.839  31.103  23.772  1.00  0.00    -0.046 A 
ATOM     12  C   UNL A   1      29.688  31.571  24.782  1.00  0.00     0.019 A 
ATOM     13  C   UNL A   1      29.145  29.889  23.112  1.00  0.00    -0.030 A 
ATOM     14  C   UNL A   1      30.814  30.843  25.161  1.00  0.00     0.067 A 
ATOM     15  C   UNL A   1      28.372  29.474  21.882  1.00  0.00     0.046 C 
ATOM     16  C   UNL A   1      31.717  31.406  26.173  1.00  0.00     0.200 A 
ATOM     17  C   UNL A   1      31.095  29.604  24.592  1.00  0.00     0.153 A 
ATOM     18  O   UNL A   1      31.523  32.510  26.666  1.00  0.00    -0.288 OA
ATOM     19  C   UNL A   1      32.860  30.585  26.567  1.00  0.00     0.065 A 
ATOM     20  O   UNL A   1      32.206  28.870  24.953  1.00  0.00    -0.455 OA
ATOM     21  C   UNL A   1      33.738  31.028  27.561  1.00  0.00     0.016 A 
ATOM     22  C   UNL A   1      33.025  29.348  25.950  1.00  0.00     0.138 A 
ATOM     23  C   UNL A   1      34.775  30.201  27.975  1.00  0.00     0.001 A 
ATOM     24  C   UNL A   1      34.069  28.524  26.366  1.00  0.00     0.048 A 
ATOM     25  C   UNL A   1      34.920  28.942  27.396  1.00  0.00     0.004 A 
ENDBRANCH   7   9
ENDBRANCH   6   7
ENDBRANCH   5   6
ENDBRANCH   4   5
ENDBRANCH   3   4
ENDBRANCH   2   3
ENDBRANCH   1   2
BRANCH   1  26
ATOM     26  O   UNL A   1      33.932  22.575  25.368  1.00  0.00    -0.376 OA
BRANCH  26  27
ATOM     27  C   UNL A   1      34.748  21.593  24.753  1.00  0.00     0.202 C 
BRANCH  27  28
ATOM     28  C   UNL A   1      36.032  21.006  25.362  1.00  0.00     0.261 C 
BRANCH  28  29
ATOM     29  O   UNL A   1      37.275  21.500  24.860  1.00  0.00    -0.460 OA
BRANCH  29  30
ATOM     30  C   UNL A   1      38.374  21.124  25.561  1.00  0.00     0.338 C 
ATOM     31  O   UNL A   1      38.891  20.020  25.598  1.00  0.00    -0.246 OA
BRANCH  30  32
ATOM     32  C   UNL A   1      38.988  22.331  26.144  1.00  0.00     0.060 A 
ATOM     33  C   UNL A   1      40.170  22.232  26.876  1.00  0.00     0.016 A 
ATOM     34  C   UNL A   1      38.365  23.574  25.953  1.00  0.00     0.016 A 
ATOM     35  C   UNL A   1      40.756  23.392  27.384  1.00  0.00     0.010 A 
ATOM     36  C   UNL A   1      38.940  24.731  26.482  1.00  0.00     0.010 A 
ATOM     37  C   UNL A   1      40.159  24.648  27.170  1.00  0.00    -0.014 A 
BRANCH  37  38
ATOM     38  C   UNL A   1      40.934  25.876  27.472  1.00  0.00     0.031 A 
ATOM     39  C   UNL A   1      42.177  26.246  26.729  1.00  0.00     0.074 A 
ATOM     40  C   UNL A   1      40.442  26.693  28.421  1.00  0.00     0.049 A 
ATOM     41  N   UNL A   1      42.973  27.268  26.913  1.00  0.00    -0.248 NA
ATOM     42  C   UNL A   1      42.587  25.350  25.644  1.00  0.00     0.031 C 
ATOM     43  C   UNL A   1      39.208  26.451  29.170  1.00  0.00     0.029 A 
ATOM     44  N   UNL A   1      40.876  27.913  28.868  1.00  0.00    -0.354 N 
ATOM     45  C   UNL A   1      44.039  27.086  26.041  1.00  0.00     0.074 A 
ATOM     46  C   UNL A   1      43.734  25.903  25.265  1.00  0.00     0.031 C 
ATOM     47  C   UNL A   1      38.930  27.534  29.909  1.00  0.00     0.029 A 
ATOM     48  C   UNL A   1      39.995  28.518  29.731  1.00  0.00     0.049 A 
ATOM     49  H   UNL A   1      41.733  28.315  28.599  1.00  0.00     0.167 HD
ATOM     50  C   UNL A   1      45.177  27.820  25.951  1.00  0.00     0.031 A 
ATOM     51  C   UNL A   1      40.023  29.741  30.290  1.00  0.00     0.031 A 
ATOM     52  C   UNL A   1      45.373  29.079  26.637  1.00  0.00     0.049 A 
ATOM     53  C   UNL A   1      41.175  30.654  29.986  1.00  0.00     0.074 A 
ATOM     54  C   UNL A   1      46.447  29.950  26.549  1.00  0.00     0.029 A 
ATOM     55  N   UNL A   1      44.451  29.675  27.486  1.00  0.00    -0.354 N 
ATOM     56  N   UNL A   1      42.228  30.428  29.238  1.00  0.00    -0.248 NA
ATOM     57  C   UNL A   1      41.139  31.992  30.589  1.00  0.00     0.031 C 
ATOM     58  C   UNL A   1      46.190  31.054  27.365  1.00  0.00     0.029 A 
ATOM     59  C   UNL A   1      44.923  30.909  27.905  1.00  0.00     0.049 A 
ATOM     60  H   UNL A   1      43.589  29.279  27.752  1.00  0.00     0.167 HD
ATOM     61  C   UNL A   1      42.980  31.594  29.280  1.00  0.00     0.074 A 
ATOM     62  C   UNL A   1      42.237  32.540  30.086  1.00  0.00     0.031 C 
ATOM     63  C   UNL A   1      44.187  31.846  28.717  1.00  0.00     0.031 A 
BRANCH  50  64
ATOM     64  C   UNL A   1      46.336  27.291  25.136  1.00  0.00    -0.014 A 
ATOM     65  C   UNL A   1      47.096  26.223  25.655  1.00  0.00     0.009 A 
ATOM     66  C   UNL A   1      46.760  27.887  23.942  1.00  0.00     0.009 A 
ATOM     67  C   UNL A   1      48.258  25.785  25.017  1.00  0.00     0.001 A 
ATOM     68  C   UNL A   1      47.899  27.414  23.276  1.00  0.00     0.001 A 
ATOM     69  C   UNL A   1      48.654  26.378  23.821  1.00  0.00     0.000 A 
ENDBRANCH  50  64
BRANCH  51  70
ATOM     70  C   UNL A   1      38.871  30.183  31.116  1.00  0.00    -0.014 A 
ATOM     71  C   UNL A   1      38.875  30.013  32.510  1.00  0.00     0.009 A 
ATOM     72  C   UNL A   1      37.720  30.696  30.500  1.00  0.00     0.009 A 
ATOM     73  C   UNL A   1      37.739  30.314  33.263  1.00  0.00     0.001 A 
ATOM     74  C   UNL A   1      36.599  31.033  31.260  1.00  0.00     0.001 A 
ATOM     75  C   UNL A   1      36.604  30.828  32.638  1.00  0.00     0.000 A 
ENDBRANCH  51  70
BRANCH  63  76
ATOM     76  C   UNL A   1      44.798  33.202  28.949  1.00  0.00    -0.014 A 
ATOM     77  C   UNL A   1      45.602  33.424  30.079  1.00  0.00     0.009 A 
ATOM     78  C   UNL A   1      44.521  34.280  28.093  1.00  0.00     0.009 A 
ATOM     79  C   UNL A   1      46.114  34.694  30.347  1.00  0.00     0.001 A 
ATOM     80  C   UNL A   1      45.064  35.542  28.345  1.00  0.00     0.001 A 
ATOM     81  C   UNL A   1      45.853  35.750  29.476  1.00  0.00     0.000 A 
ENDBRANCH  63  76
ENDBRANCH  37  38
ENDBRANCH  30  32
ENDBRANCH  29  30
ENDBRANCH  28  29
ENDBRANCH  27  28
ENDBRANCH  26  27
ENDBRANCH   1  26
TORSDOF 17
ENDMDL
MODEL 2
REMARK VINA RESULT:     -11.1      2.055      7.879
REMARK SMILES Cc1cc2c(=O)c3ccccc3oc2c(C(=O)OCCOCCOCCOC(=O)c2ccc(-c3c4nc(c(-c5ccccc5)c5ccc([nH]5)c(-c5ccccc5)c5nc(c(-c6ccccc6)c6ccc3[nH]6)C=C5)C=C4)cc2)c1C
REMARK SMILES IDX 23 1 22 2 21 3 20 4 19 5 18 6 16 7 17 8 15 9 1 10 2 11 3 12
REMARK SMILES IDX 78 13 4 14 79 15 5 16 14 17 6 18 7 19 13 20 8 21 12 22 9 23
REMARK SMILES IDX 11 24 10 25 24 26 25 27 26 28 27 29 28 30 29 31 30 32 31 33
REMARK SMILES IDX 77 34 32 35 76 36 33 37 34 38 35 39 70 40 36 41 75 42 69 43
REMARK SMILES IDX 71 44 37 45 74 46 68 47 67 48 38 50 60 51 45 52 59 53 46 54
REMARK SMILES IDX 49 55 58 56 72 57 47 58 48 59 57 61 73 62 50 63 39 64 40 65
REMARK SMILES IDX 44 66 41 67 43 68 42 69 61 70 62 71 66 72 63 73 65 74 64 75
REMARK SMILES IDX 51 76 52 77 56 78 53 79 55 80 54 81
REMARK H PARENT 71 49 49 60
REMARK Flexibility Score: inf
ROOT
ATOM      1  C   UNL A   1      33.275  34.515  28.451  1.00  0.00     0.188 C 
ENDROOT
BRANCH   1   2
ATOM      2  C   UNL A   1      33.215  33.089  27.860  1.00  0.00     0.188 C 
BRANCH   2   3
ATOM      3  O   UNL A   1      34.295  32.192  28.039  1.00  0.00    -0.376 OA
BRANCH   3   4
ATOM      4  C   UNL A   1      34.076  30.797  27.893  1.00  0.00     0.202 C 
BRANCH   4   5
ATOM      5  C   UNL A   1      34.879  29.982  26.874  1.00  0.00     0.261 C 
BRANCH   5   6
ATOM      6  O   UNL A   1      34.667  28.566  26.980  1.00  0.00    -0.460 OA
BRANCH   6   7
ATOM      7  C   UNL A   1      33.385  28.135  26.885  1.00  0.00     0.342 C 
ATOM      8  O   UNL A   1      32.583  28.065  27.802  1.00  0.00    -0.246 OA
BRANCH   7   9
ATOM      9  C   UNL A   1      33.029  27.839  25.466  1.00  0.00     0.106 A 
ATOM     10  C   UNL A   1      31.276  29.368  22.390  1.00  0.00     0.044 C 
ATOM     11  C   UNL A   1      32.048  28.463  23.313  1.00  0.00    -0.046 A 
ATOM     12  C   UNL A   1      32.596  27.302  22.756  1.00  0.00     0.019 A 
ATOM     13  C   UNL A   1      32.207  28.714  24.697  1.00  0.00    -0.030 A 
ATOM     14  C   UNL A   1      33.316  26.405  23.543  1.00  0.00     0.067 A 
ATOM     15  C   UNL A   1      31.449  29.841  25.360  1.00  0.00     0.046 C 
ATOM     16  C   UNL A   1      33.809  25.163  22.934  1.00  0.00     0.200 A 
ATOM     17  C   UNL A   1      33.564  26.666  24.887  1.00  0.00     0.153 A 
ATOM     18  O   UNL A   1      33.576  24.882  21.766  1.00  0.00    -0.288 OA
ATOM     19  C   UNL A   1      34.595  24.277  23.790  1.00  0.00     0.065 A 
ATOM     20  O   UNL A   1      34.273  25.789  25.683  1.00  0.00    -0.455 OA
ATOM     21  C   UNL A   1      35.144  23.099  23.272  1.00  0.00     0.016 A 
ATOM     22  C   UNL A   1      34.804  24.655  25.114  1.00  0.00     0.138 A 
ATOM     23  C   UNL A   1      35.950  22.308  24.080  1.00  0.00     0.001 A 
ATOM     24  C   UNL A   1      35.610  23.855  25.921  1.00  0.00     0.048 A 
ATOM     25  C   UNL A   1      36.203  22.702  25.392  1.00  0.00     0.004 A 
ENDBRANCH   7   9
ENDBRANCH   6   7
ENDBRANCH   5   6
ENDBRANCH   4   5
ENDBRANCH   3   4
ENDBRANCH   2   3
ENDBRANCH   1   2
BRANCH   1  26
ATOM     26  O   UNL A   1      32.801  34.767  29.754  1.00  0.00    -0.376 OA
BRANCH  26  27
ATOM     27  C   UNL A   1      33.697  34.932  30.839  1.00  0.00     0.202 C 
BRANCH  27  28
ATOM     28  C   UNL A   1      35.004  34.145  31.031  1.00  0.00     0.261 C 
BRANCH  28  29
ATOM     29  O   UNL A   1      34.888  32.752  31.325  1.00  0.00    -0.460 OA
BRANCH  29  30
ATOM     30  C   UNL A   1      35.739  32.286  32.273  1.00  0.00     0.338 C 
ATOM     31  O   UNL A   1      35.589  32.313  33.484  1.00  0.00    -0.246 OA
BRANCH  30  32
ATOM     32  C   UNL A   1      36.822  31.546  31.602  1.00  0.00     0.060 A 
ATOM     33  C   UNL A   1      36.886  31.503  30.211  1.00  0.00     0.016 A 
ATOM     34  C   UNL A   1      37.783  30.885  32.384  1.00  0.00     0.016 A 
ATOM     35  C   UNL A   1      37.942  30.831  29.597  1.00  0.00     0.010 A 
ATOM     36  C   UNL A   1      38.827  30.193  31.768  1.00  0.00     0.010 A 
ATOM     37  C   UNL A   1      38.931  30.194  30.369  1.00  0.00    -0.014 A 
BRANCH  37  38
ATOM     38  C   UNL A   1      40.176  29.734  29.710  1.00  0.00     0.031 A 
ATOM     39  C   UNL A   1      40.287  28.405  29.035  1.00  0.00     0.074 A 
ATOM     40  C   UNL A   1      41.213  30.592  29.690  1.00  0.00     0.049 A 
ATOM     41  N   UNL A   1      41.324  27.860  28.453  1.00  0.00    -0.248 NA
ATOM     42  C   UNL A   1      39.079  27.574  29.017  1.00  0.00     0.031 C 
ATOM     43  C   UNL A   1      41.193  31.935  30.274  1.00  0.00     0.029 A 
ATOM     44  N   UNL A   1      42.449  30.495  29.108  1.00  0.00    -0.354 N 
ATOM     45  C   UNL A   1      40.932  26.577  28.092  1.00  0.00     0.074 A 
ATOM     46  C   UNL A   1      39.531  26.466  28.439  1.00  0.00     0.031 C 
ATOM     47  C   UNL A   1      42.321  32.572  29.934  1.00  0.00     0.029 A 
ATOM     48  C   UNL A   1      43.165  31.665  29.161  1.00  0.00     0.049 A 
ATOM     49  H   UNL A   1      42.788  29.669  28.693  1.00  0.00     0.167 HD
ATOM     50  C   UNL A   1      41.699  25.586  27.570  1.00  0.00     0.031 A 
ATOM     51  C   UNL A   1      44.355  31.983  28.620  1.00  0.00     0.031 A 
ATOM     52  C   UNL A   1      43.052  25.788  27.098  1.00  0.00     0.049 A 
ATOM     53  C   UNL A   1      45.093  30.947  27.823  1.00  0.00     0.074 A 
ATOM     54  C   UNL A   1      43.889  24.880  26.469  1.00  0.00     0.029 A 
ATOM     55  N   UNL A   1      43.741  26.991  27.146  1.00  0.00    -0.354 N 
ATOM     56  N   UNL A   1      44.755  29.705  27.575  1.00  0.00    -0.248 NA
ATOM     57  C   UNL A   1      46.368  31.358  27.220  1.00  0.00     0.031 C 
ATOM     58  C   UNL A   1      45.091  25.523  26.166  1.00  0.00     0.029 A 
ATOM     59  C   UNL A   1      44.978  26.852  26.536  1.00  0.00     0.049 A 
ATOM     60  H   UNL A   1      43.401  27.821  27.552  1.00  0.00     0.167 HD
ATOM     61  C   UNL A   1      45.773  29.184  26.789  1.00  0.00     0.074 A 
ATOM     62  C   UNL A   1      46.715  30.260  26.560  1.00  0.00     0.031 C 
ATOM     63  C   UNL A   1      45.920  27.922  26.319  1.00  0.00     0.031 A 
BRANCH  50  64
ATOM     64  C   UNL A   1      41.151  24.179  27.512  1.00  0.00    -0.014 A 
ATOM     65  C   UNL A   1      41.792  23.172  28.261  1.00  0.00     0.009 A 
ATOM     66  C   UNL A   1      40.104  23.804  26.660  1.00  0.00     0.009 A 
ATOM     67  C   UNL A   1      41.420  21.831  28.139  1.00  0.00     0.001 A 
ATOM     68  C   UNL A   1      39.698  22.466  26.577  1.00  0.00     0.001 A 
ATOM     69  C   UNL A   1      40.366  21.481  27.302  1.00  0.00     0.000 A 
ENDBRANCH  50  64
BRANCH  51  70
ATOM     70  C   UNL A   1      44.857  33.375  28.750  1.00  0.00    -0.014 A 
ATOM     71  C   UNL A   1      44.635  34.320  27.736  1.00  0.00     0.009 A 
ATOM     72  C   UNL A   1      45.643  33.739  29.854  1.00  0.00     0.009 A 
ATOM     73  C   UNL A   1      45.217  35.587  27.808  1.00  0.00     0.001 A 
ATOM     74  C   UNL A   1      46.191  35.019  29.943  1.00  0.00     0.001 A 
ATOM     75  C   UNL A   1      45.990  35.937  28.914  1.00  0.00     0.000 A 
ENDBRANCH  51  70
BRANCH  63  76
ATOM     76  C   UNL A   1      47.150  27.617  25.506  1.00  0.00    -0.014 A 
ATOM     77  C   UNL A   1      47.113  27.739  24.107  1.00  0.00     0.009 A 
ATOM     78  C   UNL A   1      48.322  27.137  26.112  1.00  0.00     0.009 A 
ATOM     79  C   UNL A   1      48.221  27.389  23.334  1.00  0.00     0.001 A 
ATOM     80  C   UNL A   1      49.441  26.821  25.338  1.00  0.00     0.001 A 
ATOM     81  C   UNL A   1      49.387  26.939  23.950  1.00  0.00     0.000 A 
ENDBRANCH  63  76
ENDBRANCH  37  38
ENDBRANCH  30  32
ENDBRANCH  29  30
ENDBRANCH  28  29
ENDBRANCH  27  28
ENDBRANCH  26  27
ENDBRANCH   1  26
TORSDOF 17
ENDMDL
MODEL 3
REMARK VINA RESULT:     -11.0      2.199      8.030
REMARK SMILES Cc1cc2c(=O)c3ccccc3oc2c(C(=O)OCCOCCOCCOC(=O)c2ccc(-c3c4nc(c(-c5ccccc5)c5ccc([nH]5)c(-c5ccccc5)c5nc(c(-c6ccccc6)c6ccc3[nH]6)C=C5)C=C4)cc2)c1C
REMARK SMILES IDX 23 1 22 2 21 3 20 4 19 5 18 6 16 7 17 8 15 9 1 10 2 11 3 12
REMARK SMILES IDX 78 13 4 14 79 15 5 16 14 17 6 18 7 19 13 20 8 21 12 22 9 23
REMARK SMILES IDX 11 24 10 25 24 26 25 27 26 28 27 29 28 30 29 31 30 32 31 33
REMARK SMILES IDX 77 34 32 35 76 36 33 37 34 38 35 39 70 40 36 41 75 42 69 43
REMARK SMILES IDX 71 44 37 45 74 46 68 47 67 48 38 50 60 51 45 52 59 53 46 54
REMARK SMILES IDX 49 55 58 56 72 57 47 58 48 59 57 61 73 62 50 63 39 64 40 65
REMARK SMILES IDX 44 66 41 67 43 68 42 69 61 70 62 71 66 72 63 73 65 74 64 75
REMARK SMILES IDX 51 76 52 77 56 78 53 79 55 80 54 81
REMARK H PARENT 71 49 49 60
REMARK Flexibility Score: inf
ROOT
ATOM      1  C   UNL A   1      34.069  34.840  28.823  1.00  0.00     0.188 C 
ENDROOT
BRANCH   1   2
ATOM      2  C   UNL A   1      34.800  33.710  28.063  1.00  0.00     0.188 C 
BRANCH   2   3
ATOM      3  O   UNL A   1      34.455  32.356  28.287  1.00  0.00    -0.376 OA
BRANCH   3   4
ATOM      4  C   UNL A   1      35.147  31.334  27.583  1.00  0.00     0.202 C 
BRANCH   4   5
ATOM      5  C   UNL A   1      34.797  29.860  27.801  1.00  0.00     0.261 C 
BRANCH   5   6
ATOM      6  O   UNL A   1      34.461  29.166  26.590  1.00  0.00    -0.460 OA
BRANCH   6   7
ATOM      7  C   UNL A   1      33.387  28.341  26.639  1.00  0.00     0.342 C 
ATOM      8  O   UNL A   1      32.788  28.005  27.647  1.00  0.00    -0.246 OA
BRANCH   7   9
ATOM      9  C   UNL A   1      32.949  27.958  25.265  1.00  0.00     0.106 A 
ATOM     10  C   UNL A   1      30.939  29.259  22.241  1.00  0.00     0.044 C 
ATOM     11  C   UNL A   1      31.805  28.432  23.155  1.00  0.00    -0.046 A 
ATOM     12  C   UNL A   1      32.358  27.262  22.622  1.00  0.00     0.019 A 
ATOM     13  C   UNL A   1      32.045  28.762  24.510  1.00  0.00    -0.030 A 
ATOM     14  C   UNL A   1      33.162  26.434  23.402  1.00  0.00     0.067 A 
ATOM     15  C   UNL A   1      31.290  29.895  25.164  1.00  0.00     0.046 C 
ATOM     16  C   UNL A   1      33.661  25.179  22.825  1.00  0.00     0.200 A 
ATOM     17  C   UNL A   1      33.488  26.775  24.711  1.00  0.00     0.153 A 
ATOM     18  O   UNL A   1      33.361  24.828  21.691  1.00  0.00    -0.288 OA
ATOM     19  C   UNL A   1      34.534  24.367  23.669  1.00  0.00     0.065 A 
ATOM     20  O   UNL A   1      34.282  25.967  25.500  1.00  0.00    -0.455 OA
ATOM     21  C   UNL A   1      35.092  23.183  23.175  1.00  0.00     0.016 A 
ATOM     22  C   UNL A   1      34.816  24.823  24.955  1.00  0.00     0.138 A 
ATOM     23  C   UNL A   1      35.980  22.465  23.966  1.00  0.00     0.001 A 
ATOM     24  C   UNL A   1      35.704  24.095  25.745  1.00  0.00     0.048 A 
ATOM     25  C   UNL A   1      36.304  22.937  25.236  1.00  0.00     0.004 A 
ENDBRANCH   7   9
ENDBRANCH   6   7
ENDBRANCH   5   6
ENDBRANCH   4   5
ENDBRANCH   3   4
ENDBRANCH   2   3
ENDBRANCH   1   2
BRANCH   1  26
ATOM     26  O   UNL A   1      33.251  34.539  29.930  1.00  0.00    -0.376 OA
BRANCH  26  27
ATOM     27  C   UNL A   1      33.641  34.893  31.246  1.00  0.00     0.202 C 
BRANCH  27  28
ATOM     28  C   UNL A   1      34.453  33.997  32.195  1.00  0.00     0.261 C 
BRANCH  28  29
ATOM     29  O   UNL A   1      35.473  33.185  31.611  1.00  0.00    -0.460 OA
BRANCH  29  30
ATOM     30  C   UNL A   1      36.190  32.436  32.485  1.00  0.00     0.338 C 
ATOM     31  O   UNL A   1      35.943  32.224  33.661  1.00  0.00    -0.246 OA
BRANCH  30  32
ATOM     32  C   UNL A   1      37.249  31.734  31.737  1.00  0.00     0.060 A 
ATOM     33  C   UNL A   1      37.296  31.815  30.346  1.00  0.00     0.016 A 
ATOM     34  C   UNL A   1      38.202  30.985  32.444  1.00  0.00     0.016 A 
ATOM     35  C   UNL A   1      38.330  31.178  29.661  1.00  0.00     0.010 A 
ATOM     36  C   UNL A   1      39.223  30.328  31.755  1.00  0.00     0.010 A 
ATOM     37  C   UNL A   1      39.311  30.452  30.360  1.00  0.00    -0.014 A 
BRANCH  37  38
ATOM     38  C   UNL A   1      40.539  30.025  29.647  1.00  0.00     0.031 A 
ATOM     39  C   UNL A   1      41.762  30.881  29.566  1.00  0.00     0.074 A 
ATOM     40  C   UNL A   1      40.537  28.792  29.107  1.00  0.00     0.049 A 
ATOM     41  N   UNL A   1      42.890  30.649  28.944  1.00  0.00    -0.248 NA
ATOM     42  C   UNL A   1      41.712  32.167  30.267  1.00  0.00     0.031 C 
ATOM     43  C   UNL A   1      39.414  27.856  29.174  1.00  0.00     0.029 A 
ATOM     44  N   UNL A   1      41.522  28.093  28.461  1.00  0.00    -0.354 N 
ATOM     45  C   UNL A   1      43.649  31.804  29.084  1.00  0.00     0.074 A 
ATOM     46  C   UNL A   1      42.885  32.695  29.932  1.00  0.00     0.031 C 
ATOM     47  C   UNL A   1      39.806  26.673  28.683  1.00  0.00     0.029 A 
ATOM     48  C   UNL A   1      41.185  26.785  28.215  1.00  0.00     0.049 A 
ATOM     49  H   UNL A   1      42.385  28.489  28.200  1.00  0.00     0.167 HD
ATOM     50  C   UNL A   1      44.844  32.091  28.508  1.00  0.00     0.031 A 
ATOM     51  C   UNL A   1      41.915  25.779  27.700  1.00  0.00     0.031 A 
ATOM     52  C   UNL A   1      45.642  31.117  27.795  1.00  0.00     0.049 A 
ATOM     53  C   UNL A   1      43.334  26.045  27.290  1.00  0.00     0.074 A 
ATOM     54  C   UNL A   1      46.906  31.273  27.250  1.00  0.00     0.029 A 
ATOM     55  N   UNL A   1      45.282  29.794  27.583  1.00  0.00    -0.354 N 
ATOM     56  N   UNL A   1      44.007  27.169  27.336  1.00  0.00    -0.248 NA
ATOM     57  C   UNL A   1      44.100  24.904  26.772  1.00  0.00     0.031 C 
ATOM     58  C   UNL A   1      47.297  30.057  26.683  1.00  0.00     0.029 A 
ATOM     59  C   UNL A   1      46.308  29.122  26.939  1.00  0.00     0.049 A 
ATOM     60  H   UNL A   1      44.423  29.392  27.850  1.00  0.00     0.167 HD
ATOM     61  C   UNL A   1      45.273  26.874  26.852  1.00  0.00     0.074 A 
ATOM     62  C   UNL A   1      45.290  25.453  26.567  1.00  0.00     0.031 C 
ATOM     63  C   UNL A   1      46.319  27.710  26.645  1.00  0.00     0.031 A 
BRANCH  50  64
ATOM     64  C   UNL A   1      45.369  33.508  28.560  1.00  0.00    -0.014 A 
ATOM     65  C   UNL A   1      44.945  34.422  27.573  1.00  0.00     0.009 A 
ATOM     66  C   UNL A   1      46.344  33.926  29.474  1.00  0.00     0.009 A 
ATOM     67  C   UNL A   1      45.500  35.700  27.485  1.00  0.00     0.001 A 
ATOM     68  C   UNL A   1      46.864  35.225  29.415  1.00  0.00     0.001 A 
ATOM     69  C   UNL A   1      46.455  36.104  28.414  1.00  0.00     0.000 A 
ENDBRANCH  50  64
BRANCH  51  70
ATOM     70  C   UNL A   1      41.324  24.418  27.639  1.00  0.00    -0.014 A 
ATOM     71  C   UNL A   1      41.828  23.376  28.433  1.00  0.00     0.009 A 
ATOM     72  C   UNL A   1      40.308  24.133  26.714  1.00  0.00     0.009 A 
ATOM     73  C   UNL A   1      41.352  22.072  28.278  1.00  0.00     0.001 A 
ATOM     74  C   UNL A   1      39.806  22.837  26.589  1.00  0.00     0.001 A 
ATOM     75  C   UNL A   1      40.338  21.806  27.360  1.00  0.00     0.000 A 
ENDBRANCH  51  70
BRANCH  63  76
ATOM     76  C   UNL A   1      47.583  27.123  26.077  1.00  0.00    -0.014 A 
ATOM     77  C   UNL A   1      48.591  26.662  26.939  1.00  0.00     0.009 A 
ATOM     78  C   UNL A   1      47.812  27.092  24.692  1.00  0.00     0.009 A 
ATOM     79  C   UNL A   1      49.799  26.185  26.429  1.00  0.00     0.001 A 
ATOM     80  C   UNL A   1      49.007  26.581  24.183  1.00  0.00     0.001 A 
ATOM     81  C   UNL A   1      50.003  26.135  25.051  1.00  0.00     0.000 A 
ENDBRANCH  63  76
ENDBRANCH  37  38
ENDBRANCH  30  32
ENDBRANCH  29  30
ENDBRANCH  28  29
ENDBRANCH  27  28
ENDBRANCH  26  27
ENDBRANCH   1  26
TORSDOF 17
ENDMDL
