MODEL 1
REMARK VINA RESULT:     -10.6      0.000      0.000
REMARK SMILES CCn1nc(-c2cccnc2)c2cc(C(=O)OCCOCCOCCOC(=O)c3ccc(-c4c5nc(c(-c6ccccc6)c6ccc([nH]6)c(-c6ccccc6)c6nc(c(-c7ccccc7)c7ccc4[nH]7)C=C6)C=C5)cc3)sc21
REMARK SMILES IDX 22 1 21 2 20 3 19 4 18 5 17 6 15 7 16 8 14 9 3 10 4 11 78 12
REMARK SMILES IDX 5 13 12 14 77 15 13 16 2 17 1 18 6 19 7 20 11 21 8 22 10 23
REMARK SMILES IDX 9 24 23 25 24 26 25 27 26 28 27 29 28 30 29 31 30 32 76 33
REMARK SMILES IDX 31 34 75 35 32 36 33 37 34 38 69 39 35 40 74 41 68 42 70 43
REMARK SMILES IDX 36 44 73 45 67 46 66 47 37 49 59 50 44 51 58 52 45 53 48 54
REMARK SMILES IDX 57 55 71 56 46 57 47 58 56 60 72 61 49 62 38 63 39 64 43 65
REMARK SMILES IDX 40 66 42 67 41 68 60 69 61 70 65 71 62 72 64 73 63 74 50 75
REMARK SMILES IDX 51 76 55 77 52 78 54 79 53 80
REMARK H PARENT 70 48 48 59
REMARK Flexibility Score: inf
ROOT
ATOM      1  C   UNL A   1      42.621  18.476  26.186  1.00  0.00     0.188 C 
ENDROOT
BRANCH   1   2
ATOM      2  C   UNL A   1      41.621  19.583  26.591  1.00  0.00     0.188 C 
BRANCH   2   3
ATOM      3  O   UNL A   1      41.858  20.947  26.258  1.00  0.00    -0.376 OA
BRANCH   3   4
ATOM      4  C   UNL A   1      40.760  21.843  26.129  1.00  0.00     0.202 C 
BRANCH   4   5
ATOM      5  C   UNL A   1      39.333  21.344  26.421  1.00  0.00     0.261 C 
BRANCH   5   6
ATOM      6  O   UNL A   1      38.395  21.474  25.339  1.00  0.00    -0.459 OA
BRANCH   6   7
ATOM      7  C   UNL A   1      37.479  22.475  25.439  1.00  0.00     0.348 C 
ATOM      8  O   UNL A   1      37.756  23.649  25.701  1.00  0.00    -0.245 OA
BRANCH   7   9
ATOM      9  C   UNL A   1      36.159  22.030  25.029  1.00  0.00     0.115 A 
ATOM     10  N   UNL A   1      32.621  21.697  23.799  1.00  0.00    -0.254 N 
ATOM     11  N   UNL A   1      32.274  20.377  23.865  1.00  0.00    -0.171 NA
ATOM     12  C   UNL A   1      33.878  21.903  24.250  1.00  0.00     0.122 A 
ATOM     13  C   UNL A   1      33.360  19.756  24.389  1.00  0.00     0.103 A 
ATOM     14  C   UNL A   1      34.352  20.710  24.616  1.00  0.00     0.040 A 
ATOM     15  S   UNL A   1      34.962  23.151  24.414  1.00  0.00    -0.109 S 
ATOM     16  C   UNL A   1      35.672  20.716  25.059  1.00  0.00     0.040 A 
BRANCH  10  17
ATOM     17  C   UNL A   1      31.712  22.644  23.192  1.00  0.00     0.142 C 
ATOM     18  C   UNL A   1      31.219  23.700  24.166  1.00  0.00     0.029 C 
ENDBRANCH  10  17
BRANCH  13  19
ATOM     19  C   UNL A   1      33.376  18.319  24.569  1.00  0.00     0.021 A 
ATOM     20  C   UNL A   1      32.711  17.735  25.648  1.00  0.00     0.013 A 
ATOM     21  C   UNL A   1      34.077  17.481  23.712  1.00  0.00     0.121 A 
ATOM     22  C   UNL A   1      32.767  16.355  25.828  1.00  0.00     0.021 A 
ATOM     23  N   UNL A   1      34.145  16.133  23.857  1.00  0.00    -0.264 NA
ATOM     24  C   UNL A   1      33.493  15.604  24.916  1.00  0.00     0.111 A 
ENDBRANCH  13  19
ENDBRANCH   7   9
ENDBRANCH   6   7
ENDBRANCH   5   6
ENDBRANCH   4   5
ENDBRANCH   3   4
ENDBRANCH   2   3
ENDBRANCH   1   2
BRANCH   1  25
ATOM     25  O   UNL A   1      43.351  18.745  24.998  1.00  0.00    -0.376 OA
BRANCH  25  26
ATOM     26  C   UNL A   1      44.768  18.763  25.102  1.00  0.00     0.202 C 
BRANCH  26  27
ATOM     27  C   UNL A   1      45.508  19.739  24.185  1.00  0.00     0.261 C 
BRANCH  27  28
ATOM     28  O   UNL A   1      44.814  20.954  23.935  1.00  0.00    -0.460 OA
BRANCH  28  29
ATOM     29  C   UNL A   1      45.406  22.072  24.382  1.00  0.00     0.338 C 
ATOM     30  O   UNL A   1      46.544  22.455  24.126  1.00  0.00    -0.246 OA
BRANCH  29  31
ATOM     31  C   UNL A   1      44.485  22.759  25.296  1.00  0.00     0.060 A 
ATOM     32  C   UNL A   1      43.553  23.629  24.730  1.00  0.00     0.016 A 
ATOM     33  C   UNL A   1      44.740  22.742  26.678  1.00  0.00     0.016 A 
ATOM     34  C   UNL A   1      43.075  24.663  25.504  1.00  0.00     0.010 A 
ATOM     35  C   UNL A   1      44.275  23.783  27.447  1.00  0.00     0.010 A 
ATOM     36  C   UNL A   1      43.551  24.789  26.812  1.00  0.00    -0.014 A 
BRANCH  36  37
ATOM     37  C   UNL A   1      43.426  26.090  27.431  1.00  0.00     0.031 A 
ATOM     38  C   UNL A   1      44.506  27.050  27.159  1.00  0.00     0.074 A 
ATOM     39  C   UNL A   1      42.338  26.404  28.161  1.00  0.00     0.049 A 
ATOM     40  N   UNL A   1      45.317  27.592  28.004  1.00  0.00    -0.248 NA
ATOM     41  C   UNL A   1      44.753  27.397  25.753  1.00  0.00     0.031 C 
ATOM     42  C   UNL A   1      41.073  25.664  28.242  1.00  0.00     0.029 A 
ATOM     43  N   UNL A   1      42.095  27.524  28.894  1.00  0.00    -0.354 N 
ATOM     44  C   UNL A   1      46.075  28.486  27.261  1.00  0.00     0.074 A 
ATOM     45  C   UNL A   1      45.785  28.229  25.872  1.00  0.00     0.031 C 
ATOM     46  C   UNL A   1      40.130  26.463  28.787  1.00  0.00     0.029 A 
ATOM     47  C   UNL A   1      40.758  27.703  29.209  1.00  0.00     0.049 A 
ATOM     48  H   UNL A   1      42.803  28.150  29.173  1.00  0.00     0.167 HD
ATOM     49  C   UNL A   1      46.700  29.546  27.836  1.00  0.00     0.031 A 
ATOM     50  C   UNL A   1      40.193  28.827  29.703  1.00  0.00     0.031 A 
ATOM     51  C   UNL A   1      46.859  29.397  29.257  1.00  0.00     0.049 A 
ATOM     52  C   UNL A   1      41.263  29.670  30.282  1.00  0.00     0.074 A 
ATOM     53  C   UNL A   1      47.516  28.507  30.082  1.00  0.00     0.029 A 
ATOM     54  N   UNL A   1      45.990  30.093  30.059  1.00  0.00    -0.354 N 
ATOM     55  N   UNL A   1      41.929  29.362  31.357  1.00  0.00    -0.248 NA
ATOM     56  C   UNL A   1      41.855  30.715  29.463  1.00  0.00     0.031 C 
ATOM     57  C   UNL A   1      46.722  28.427  31.263  1.00  0.00     0.029 A 
ATOM     58  C   UNL A   1      45.625  29.277  31.099  1.00  0.00     0.049 A 
ATOM     59  H   UNL A   1      45.683  31.017  29.914  1.00  0.00     0.167 HD
ATOM     60  C   UNL A   1      43.204  29.861  31.140  1.00  0.00     0.074 A 
ATOM     61  C   UNL A   1      43.056  30.804  30.039  1.00  0.00     0.031 C 
ATOM     62  C   UNL A   1      44.299  29.248  31.681  1.00  0.00     0.031 A 
BRANCH  49  63
ATOM     63  C   UNL A   1      46.794  30.881  27.151  1.00  0.00    -0.014 A 
ATOM     64  C   UNL A   1      48.032  31.541  27.098  1.00  0.00     0.009 A 
ATOM     65  C   UNL A   1      45.655  31.632  26.792  1.00  0.00     0.009 A 
ATOM     66  C   UNL A   1      48.117  32.891  26.735  1.00  0.00     0.001 A 
ATOM     67  C   UNL A   1      45.741  32.963  26.385  1.00  0.00     0.001 A 
ATOM     68  C   UNL A   1      46.972  33.599  26.378  1.00  0.00     0.000 A 
ENDBRANCH  49  63
BRANCH  50  69
ATOM     69  C   UNL A   1      38.836  29.338  29.430  1.00  0.00    -0.014 A 
ATOM     70  C   UNL A   1      38.466  29.752  28.143  1.00  0.00     0.009 A 
ATOM     71  C   UNL A   1      37.818  29.185  30.391  1.00  0.00     0.009 A 
ATOM     72  C   UNL A   1      37.121  29.976  27.824  1.00  0.00     0.001 A 
ATOM     73  C   UNL A   1      36.478  29.414  30.074  1.00  0.00     0.001 A 
ATOM     74  C   UNL A   1      36.128  29.796  28.784  1.00  0.00     0.000 A 
ENDBRANCH  50  69
BRANCH  62  75
ATOM     75  C   UNL A   1      44.060  28.234  32.772  1.00  0.00    -0.014 A 
ATOM     76  C   UNL A   1      43.887  26.864  32.509  1.00  0.00     0.009 A 
ATOM     77  C   UNL A   1      44.136  28.652  34.109  1.00  0.00     0.009 A 
ATOM     78  C   UNL A   1      43.754  25.944  33.554  1.00  0.00     0.001 A 
ATOM     79  C   UNL A   1      44.024  27.729  35.153  1.00  0.00     0.001 A 
ATOM     80  C   UNL A   1      43.825  26.378  34.875  1.00  0.00     0.000 A 
ENDBRANCH  62  75
ENDBRANCH  36  37
ENDBRANCH  29  31
ENDBRANCH  28  29
ENDBRANCH  27  28
ENDBRANCH  26  27
ENDBRANCH  25  26
ENDBRANCH   1  25
TORSDOF 19
ENDMDL
MODEL 2
REMARK VINA RESULT:     -10.3      3.650      8.197
REMARK SMILES CCn1nc(-c2cccnc2)c2cc(C(=O)OCCOCCOCCOC(=O)c3ccc(-c4c5nc(c(-c6ccccc6)c6ccc([nH]6)c(-c6ccccc6)c6nc(c(-c7ccccc7)c7ccc4[nH]7)C=C6)C=C5)cc3)sc21
REMARK SMILES IDX 22 1 21 2 20 3 19 4 18 5 17 6 15 7 16 8 14 9 3 10 4 11 78 12
REMARK SMILES IDX 5 13 12 14 77 15 13 16 2 17 1 18 6 19 7 20 11 21 8 22 10 23
REMARK SMILES IDX 9 24 23 25 24 26 25 27 26 28 27 29 28 30 29 31 30 32 76 33
REMARK SMILES IDX 31 34 75 35 32 36 33 37 34 38 69 39 35 40 74 41 68 42 70 43
REMARK SMILES IDX 36 44 73 45 67 46 66 47 37 49 59 50 44 51 58 52 45 53 48 54
REMARK SMILES IDX 57 55 71 56 46 57 47 58 56 60 72 61 49 62 38 63 39 64 43 65
REMARK SMILES IDX 40 66 42 67 41 68 60 69 61 70 65 71 62 72 64 73 63 74 50 75
REMARK SMILES IDX 51 76 55 77 52 78 54 79 53 80
REMARK H PARENT 70 48 48 59
REMARK Flexibility Score: inf
ROOT
ATOM      1  C   UNL A   1      31.526  29.394  25.481  1.00  0.00     0.188 C 
ENDROOT
BRANCH   1   2
ATOM      2  C   UNL A   1      31.749  28.552  24.205  1.00  0.00     0.188 C 
BRANCH   2   3
ATOM      3  O   UNL A   1      30.746  27.662  23.725  1.00  0.00    -0.376 OA
BRANCH   3   4
ATOM      4  C   UNL A   1      30.480  26.453  24.427  1.00  0.00     0.202 C 
BRANCH   4   5
ATOM      5  C   UNL A   1      31.639  25.493  24.754  1.00  0.00     0.261 C 
BRANCH   5   6
ATOM      6  O   UNL A   1      31.944  25.339  26.150  1.00  0.00    -0.459 OA
BRANCH   6   7
ATOM      7  C   UNL A   1      31.815  24.089  26.672  1.00  0.00     0.348 C 
ATOM      8  O   UNL A   1      30.816  23.687  27.277  1.00  0.00    -0.245 OA
BRANCH   7   9
ATOM      9  C   UNL A   1      32.920  23.233  26.282  1.00  0.00     0.115 A 
ATOM     10  N   UNL A   1      36.249  21.707  25.424  1.00  0.00    -0.254 N 
ATOM     11  N   UNL A   1      36.036  20.405  25.069  1.00  0.00    -0.171 NA
ATOM     12  C   UNL A   1      35.091  22.335  25.725  1.00  0.00     0.122 A 
ATOM     13  C   UNL A   1      34.693  20.237  25.144  1.00  0.00     0.103 A 
ATOM     14  C   UNL A   1      34.116  21.437  25.561  1.00  0.00     0.040 A 
ATOM     15  S   UNL A   1      34.572  23.816  26.270  1.00  0.00    -0.109 S 
ATOM     16  C   UNL A   1      32.841  21.891  25.883  1.00  0.00     0.040 A 
BRANCH  10  17
ATOM     17  C   UNL A   1      37.603  22.203  25.541  1.00  0.00     0.142 C 
ATOM     18  C   UNL A   1      37.667  23.704  25.761  1.00  0.00     0.029 C 
ENDBRANCH  10  17
BRANCH  13  19
ATOM     19  C   UNL A   1      34.092  18.947  24.873  1.00  0.00     0.021 A 
ATOM     20  C   UNL A   1      34.831  17.941  24.248  1.00  0.00     0.013 A 
ATOM     21  C   UNL A   1      32.765  18.678  25.180  1.00  0.00     0.121 A 
ATOM     22  C   UNL A   1      34.227  16.719  23.962  1.00  0.00     0.021 A 
ATOM     23  N   UNL A   1      32.151  17.496  24.919  1.00  0.00    -0.264 NA
ATOM     24  C   UNL A   1      32.897  16.548  24.310  1.00  0.00     0.111 A 
ENDBRANCH  13  19
ENDBRANCH   7   9
ENDBRANCH   6   7
ENDBRANCH   5   6
ENDBRANCH   4   5
ENDBRANCH   3   4
ENDBRANCH   2   3
ENDBRANCH   1   2
BRANCH   1  25
ATOM     25  O   UNL A   1      31.819  28.717  26.694  1.00  0.00    -0.376 OA
BRANCH  25  26
ATOM     26  C   UNL A   1      33.155  28.796  27.171  1.00  0.00     0.202 C 
BRANCH  26  27
ATOM     27  C   UNL A   1      33.905  30.100  26.892  1.00  0.00     0.261 C 
BRANCH  27  28
ATOM     28  O   UNL A   1      35.278  30.078  27.255  1.00  0.00    -0.460 OA
BRANCH  28  29
ATOM     29  C   UNL A   1      35.743  31.181  27.864  1.00  0.00     0.338 C 
ATOM     30  O   UNL A   1      35.484  32.345  27.575  1.00  0.00    -0.246 OA
BRANCH  29  31
ATOM     31  C   UNL A   1      36.682  30.776  28.917  1.00  0.00     0.060 A 
ATOM     32  C   UNL A   1      37.938  31.384  28.922  1.00  0.00     0.016 A 
ATOM     33  C   UNL A   1      36.409  29.632  29.686  1.00  0.00     0.016 A 
ATOM     34  C   UNL A   1      38.991  30.696  29.482  1.00  0.00     0.010 A 
ATOM     35  C   UNL A   1      37.463  28.937  30.232  1.00  0.00     0.010 A 
ATOM     36  C   UNL A   1      38.749  29.426  30.011  1.00  0.00    -0.014 A 
BRANCH  36  37
ATOM     37  C   UNL A   1      39.889  28.547  30.151  1.00  0.00     0.031 A 
ATOM     38  C   UNL A   1      40.471  28.439  31.498  1.00  0.00     0.074 A 
ATOM     39  C   UNL A   1      40.337  27.828  29.103  1.00  0.00     0.049 A 
ATOM     40  N   UNL A   1      41.662  28.763  31.875  1.00  0.00    -0.248 NA
ATOM     41  C   UNL A   1      39.585  27.972  32.572  1.00  0.00     0.031 C 
ATOM     42  C   UNL A   1      39.664  27.609  27.817  1.00  0.00     0.029 A 
ATOM     43  N   UNL A   1      41.443  27.039  29.018  1.00  0.00    -0.354 N 
ATOM     44  C   UNL A   1      41.739  28.380  33.207  1.00  0.00     0.074 A 
ATOM     45  C   UNL A   1      40.402  28.029  33.621  1.00  0.00     0.031 C 
ATOM     46  C   UNL A   1      40.255  26.573  27.182  1.00  0.00     0.029 A 
ATOM     47  C   UNL A   1      41.416  26.158  27.950  1.00  0.00     0.049 A 
ATOM     48  H   UNL A   1      42.191  27.090  29.657  1.00  0.00     0.167 HD
ATOM     49  C   UNL A   1      42.928  28.135  33.815  1.00  0.00     0.031 A 
ATOM     50  C   UNL A   1      42.240  25.104  27.758  1.00  0.00     0.031 A 
ATOM     51  C   UNL A   1      44.042  28.713  33.114  1.00  0.00     0.049 A 
ATOM     52  C   UNL A   1      43.445  25.297  28.595  1.00  0.00     0.074 A 
ATOM     53  C   UNL A   1      44.431  29.993  32.776  1.00  0.00     0.029 A 
ATOM     54  N   UNL A   1      44.808  27.866  32.352  1.00  0.00    -0.354 N 
ATOM     55  N   UNL A   1      44.339  26.217  28.381  1.00  0.00    -0.248 NA
ATOM     56  C   UNL A   1      43.492  24.680  29.912  1.00  0.00     0.031 C 
ATOM     57  C   UNL A   1      45.121  29.864  31.535  1.00  0.00     0.029 A 
ATOM     58  C   UNL A   1      45.121  28.512  31.185  1.00  0.00     0.049 A 
ATOM     59  H   UNL A   1      45.085  26.954  32.601  1.00  0.00     0.167 HD
ATOM     60  C   UNL A   1      44.780  26.585  29.643  1.00  0.00     0.074 A 
ATOM     61  C   UNL A   1      44.339  25.511  30.524  1.00  0.00     0.031 C 
ATOM     62  C   UNL A   1      45.205  27.859  29.894  1.00  0.00     0.031 A 
BRANCH  49  63
ATOM     63  C   UNL A   1      43.094  27.029  34.820  1.00  0.00    -0.014 A 
ATOM     64  C   UNL A   1      43.529  27.340  36.118  1.00  0.00     0.009 A 
ATOM     65  C   UNL A   1      43.095  25.666  34.456  1.00  0.00     0.009 A 
ATOM     66  C   UNL A   1      43.971  26.338  36.992  1.00  0.00     0.001 A 
ATOM     67  C   UNL A   1      43.490  24.662  35.339  1.00  0.00     0.001 A 
ATOM     68  C   UNL A   1      43.949  25.001  36.602  1.00  0.00     0.000 A 
ENDBRANCH  49  63
BRANCH  50  69
ATOM     69  C   UNL A   1      41.904  23.811  27.130  1.00  0.00    -0.014 A 
ATOM     70  C   UNL A   1      42.675  23.297  26.079  1.00  0.00     0.009 A 
ATOM     71  C   UNL A   1      40.962  22.957  27.735  1.00  0.00     0.009 A 
ATOM     72  C   UNL A   1      42.528  21.966  25.670  1.00  0.00     0.001 A 
ATOM     73  C   UNL A   1      40.810  21.632  27.323  1.00  0.00     0.001 A 
ATOM     74  C   UNL A   1      41.605  21.132  26.299  1.00  0.00     0.000 A 
ENDBRANCH  50  69
BRANCH  62  75
ATOM     75  C   UNL A   1      45.493  28.743  28.706  1.00  0.00    -0.014 A 
ATOM     76  C   UNL A   1      46.763  28.819  28.108  1.00  0.00     0.009 A 
ATOM     77  C   UNL A   1      44.427  29.421  28.095  1.00  0.00     0.009 A 
ATOM     78  C   UNL A   1      46.969  29.583  26.955  1.00  0.00     0.001 A 
ATOM     79  C   UNL A   1      44.629  30.167  26.930  1.00  0.00     0.001 A 
ATOM     80  C   UNL A   1      45.900  30.254  26.366  1.00  0.00     0.000 A 
ENDBRANCH  62  75
ENDBRANCH  36  37
ENDBRANCH  29  31
ENDBRANCH  28  29
ENDBRANCH  27  28
ENDBRANCH  26  27
ENDBRANCH  25  26
ENDBRANCH   1  25
TORSDOF 19
ENDMDL
MODEL 3
REMARK VINA RESULT:     -10.2      3.662      8.561
REMARK SMILES CCn1nc(-c2cccnc2)c2cc(C(=O)OCCOCCOCCOC(=O)c3ccc(-c4c5nc(c(-c6ccccc6)c6ccc([nH]6)c(-c6ccccc6)c6nc(c(-c7ccccc7)c7ccc4[nH]7)C=C6)C=C5)cc3)sc21
REMARK SMILES IDX 22 1 21 2 20 3 19 4 18 5 17 6 15 7 16 8 14 9 3 10 4 11 78 12
REMARK SMILES IDX 5 13 12 14 77 15 13 16 2 17 1 18 6 19 7 20 11 21 8 22 10 23
REMARK SMILES IDX 9 24 23 25 24 26 25 27 26 28 27 29 28 30 29 31 30 32 76 33
REMARK SMILES IDX 31 34 75 35 32 36 33 37 34 38 69 39 35 40 74 41 68 42 70 43
REMARK SMILES IDX 36 44 73 45 67 46 66 47 37 49 59 50 44 51 58 52 45 53 48 54
REMARK SMILES IDX 57 55 71 56 46 57 47 58 56 60 72 61 49 62 38 63 39 64 43 65
REMARK SMILES IDX 40 66 42 67 41 68 60 69 61 70 65 71 62 72 64 73 63 74 50 75
REMARK SMILES IDX 51 76 55 77 52 78 54 79 53 80
REMARK H PARENT 70 48 48 59
REMARK Flexibility Score: inf
ROOT
ATOM      1  C   UNL A   1      31.844  29.846  25.249  1.00  0.00     0.188 C 
ENDROOT
BRANCH   1   2
ATOM      2  C   UNL A   1      31.682  28.314  25.122  1.00  0.00     0.188 C 
BRANCH   2   3
ATOM      3  O   UNL A   1      30.403  27.724  24.915  1.00  0.00    -0.376 OA
BRANCH   3   4
ATOM      4  C   UNL A   1      30.145  27.001  23.717  1.00  0.00     0.202 C 
BRANCH   4   5
ATOM      5  C   UNL A   1      31.225  26.933  22.622  1.00  0.00     0.261 C 
BRANCH   5   6
ATOM      6  O   UNL A   1      31.461  25.631  22.062  1.00  0.00    -0.459 OA
BRANCH   6   7
ATOM      7  C   UNL A   1      32.759  25.285  21.839  1.00  0.00     0.348 C 
ATOM      8  O   UNL A   1      33.555  25.959  21.179  1.00  0.00    -0.245 OA
BRANCH   7   9
ATOM      9  C   UNL A   1      33.138  24.119  22.615  1.00  0.00     0.115 A 
ATOM     10  N   UNL A   1      33.373  20.800  24.369  1.00  0.00    -0.254 N 
ATOM     11  N   UNL A   1      34.571  20.752  25.023  1.00  0.00    -0.171 NA
ATOM     12  C   UNL A   1      33.201  21.979  23.731  1.00  0.00     0.122 A 
ATOM     13  C   UNL A   1      35.148  21.955  24.783  1.00  0.00     0.103 A 
ATOM     14  C   UNL A   1      34.295  22.706  23.973  1.00  0.00     0.040 A 
ATOM     15  S   UNL A   1      32.097  22.715  22.732  1.00  0.00    -0.109 S 
ATOM     16  C   UNL A   1      34.325  23.946  23.342  1.00  0.00     0.040 A 
BRANCH  10  17
ATOM     17  C   UNL A   1      32.528  19.626  24.339  1.00  0.00     0.142 C 
ATOM     18  C   UNL A   1      32.904  18.598  25.392  1.00  0.00     0.029 C 
ENDBRANCH  10  17
BRANCH  13  19
ATOM     19  C   UNL A   1      36.470  22.257  25.292  1.00  0.00     0.021 A 
ATOM     20  C   UNL A   1      36.776  23.540  25.748  1.00  0.00     0.013 A 
ATOM     21  C   UNL A   1      37.484  21.308  25.307  1.00  0.00     0.121 A 
ATOM     22  C   UNL A   1      38.062  23.823  26.199  1.00  0.00     0.021 A 
ATOM     23  N   UNL A   1      38.744  21.552  25.747  1.00  0.00    -0.264 NA
ATOM     24  C   UNL A   1      39.004  22.806  26.176  1.00  0.00     0.111 A 
ENDBRANCH  13  19
ENDBRANCH   7   9
ENDBRANCH   6   7
ENDBRANCH   5   6
ENDBRANCH   4   5
ENDBRANCH   3   4
ENDBRANCH   2   3
ENDBRANCH   1   2
BRANCH   1  25
ATOM     25  O   UNL A   1      32.324  30.287  26.511  1.00  0.00    -0.376 OA
BRANCH  25  26
ATOM     26  C   UNL A   1      33.593  29.799  26.924  1.00  0.00     0.202 C 
BRANCH  26  27
ATOM     27  C   UNL A   1      34.548  30.820  27.545  1.00  0.00     0.261 C 
BRANCH  27  28
ATOM     28  O   UNL A   1      35.126  30.413  28.777  1.00  0.00    -0.460 OA
BRANCH  28  29
ATOM     29  C   UNL A   1      36.117  31.187  29.247  1.00  0.00     0.338 C 
ATOM     30  O   UNL A   1      35.998  32.220  29.899  1.00  0.00    -0.246 OA
BRANCH  29  31
ATOM     31  C   UNL A   1      37.400  30.631  28.800  1.00  0.00     0.060 A 
ATOM     32  C   UNL A   1      37.372  29.384  28.174  1.00  0.00     0.016 A 
ATOM     33  C   UNL A   1      38.600  31.209  29.249  1.00  0.00     0.016 A 
ATOM     34  C   UNL A   1      38.502  28.599  28.239  1.00  0.00     0.010 A 
ATOM     35  C   UNL A   1      39.723  30.420  29.327  1.00  0.00     0.010 A 
ATOM     36  C   UNL A   1      39.614  29.089  28.929  1.00  0.00    -0.014 A 
BRANCH  36  37
ATOM     37  C   UNL A   1      40.579  28.116  29.391  1.00  0.00     0.031 A 
ATOM     38  C   UNL A   1      40.849  28.097  30.836  1.00  0.00     0.074 A 
ATOM     39  C   UNL A   1      41.139  27.241  28.532  1.00  0.00     0.049 A 
ATOM     40  N   UNL A   1      41.968  28.332  31.436  1.00  0.00    -0.248 NA
ATOM     41  C   UNL A   1      39.708  27.849  31.726  1.00  0.00     0.031 C 
ATOM     42  C   UNL A   1      40.725  26.953  27.154  1.00  0.00     0.029 A 
ATOM     43  N   UNL A   1      42.128  26.335  28.760  1.00  0.00    -0.354 N 
ATOM     44  C   UNL A   1      41.717  28.094  32.781  1.00  0.00     0.074 A 
ATOM     45  C   UNL A   1      40.290  27.936  32.920  1.00  0.00     0.031 C 
ATOM     46  C   UNL A   1      41.297  25.796  26.755  1.00  0.00     0.029 A 
ATOM     47  C   UNL A   1      42.211  25.348  27.792  1.00  0.00     0.049 A 
ATOM     48  H   UNL A   1      42.728  26.377  29.540  1.00  0.00     0.167 HD
ATOM     49  C   UNL A   1      42.714  27.794  33.653  1.00  0.00     0.031 A 
ATOM     50  C   UNL A   1      42.916  24.198  27.876  1.00  0.00     0.031 A 
ATOM     51  C   UNL A   1      44.013  28.168  33.167  1.00  0.00     0.049 A 
ATOM     52  C   UNL A   1      43.935  24.353  28.937  1.00  0.00     0.074 A 
ATOM     53  C   UNL A   1      44.624  29.354  32.813  1.00  0.00     0.029 A 
ATOM     54  N   UNL A   1      44.806  27.165  32.667  1.00  0.00    -0.354 N 
ATOM     55  N   UNL A   1      44.964  25.144  28.846  1.00  0.00    -0.248 NA
ATOM     56  C   UNL A   1      43.629  23.885  30.280  1.00  0.00     0.031 C 
ATOM     57  C   UNL A   1      45.534  29.016  31.769  1.00  0.00     0.029 A 
ATOM     58  C   UNL A   1      45.434  27.640  31.545  1.00  0.00     0.049 A 
ATOM     59  H   UNL A   1      44.906  26.263  33.048  1.00  0.00     0.167 HD
ATOM     60  C   UNL A   1      45.177  25.601  30.138  1.00  0.00     0.074 A 
ATOM     61  C   UNL A   1      44.430  24.684  30.989  1.00  0.00     0.031 C 
ATOM     62  C   UNL A   1      45.700  26.843  30.365  1.00  0.00     0.031 A 
BRANCH  49  63
ATOM     63  C   UNL A   1      42.525  26.795  34.762  1.00  0.00    -0.014 A 
ATOM     64  C   UNL A   1      42.660  25.426  34.484  1.00  0.00     0.009 A 
ATOM     65  C   UNL A   1      41.957  27.141  36.006  1.00  0.00     0.009 A 
ATOM     66  C   UNL A   1      42.219  24.457  35.394  1.00  0.00     0.001 A 
ATOM     67  C   UNL A   1      41.560  26.179  36.934  1.00  0.00     0.001 A 
ATOM     68  C   UNL A   1      41.672  24.834  36.617  1.00  0.00     0.000 A 
ENDBRANCH  49  63
BRANCH  50  69
ATOM     69  C   UNL A   1      42.555  22.886  27.303  1.00  0.00    -0.014 A 
ATOM     70  C   UNL A   1      43.172  22.413  26.137  1.00  0.00     0.009 A 
ATOM     71  C   UNL A   1      41.774  21.982  28.049  1.00  0.00     0.009 A 
ATOM     72  C   UNL A   1      43.035  21.074  25.749  1.00  0.00     0.001 A 
ATOM     73  C   UNL A   1      41.632  20.649  27.659  1.00  0.00     0.001 A 
ATOM     74  C   UNL A   1      42.276  20.191  26.515  1.00  0.00     0.000 A 
ENDBRANCH  50  69
BRANCH  62  75
ATOM     75  C   UNL A   1      46.338  27.553  29.197  1.00  0.00    -0.014 A 
ATOM     76  C   UNL A   1      45.643  28.479  28.401  1.00  0.00     0.009 A 
ATOM     77  C   UNL A   1      47.712  27.378  28.970  1.00  0.00     0.009 A 
ATOM     78  C   UNL A   1      46.294  29.181  27.381  1.00  0.00     0.001 A 
ATOM     79  C   UNL A   1      48.367  28.095  27.964  1.00  0.00     0.001 A 
ATOM     80  C   UNL A   1      47.656  28.990  27.166  1.00  0.00     0.000 A 
ENDBRANCH  62  75
ENDBRANCH  36  37
ENDBRANCH  29  31
ENDBRANCH  28  29
ENDBRANCH  27  28
ENDBRANCH  26  27
ENDBRANCH  25  26
ENDBRANCH   1  25
TORSDOF 19
ENDMDL
