MODEL 1
REMARK VINA RESULT:     -12.2      0.000      0.000
REMARK SMILES O=C(OCCOCCOCCOC(=O)[C@H]1Cc2[nH]cnc2CN1C(=O)c1ccncc1Cl)c1ccc(-c2c3nc(c(-c4ccccc4)c4ccc([nH]4)c(-c4ccccc4)c4nc(c(-c5ccccc5)c5ccc2[nH]5)C=C4)C=C3)cc1
REMARK SMILES IDX 7 1 6 2 5 3 4 4 3 5 2 6 1 7 33 8 34 9 80 10 35 11 79 12
REMARK SMILES IDX 36 13 37 14 38 15 73 16 39 17 78 18 72 19 74 20 40 21 77 22
REMARK SMILES IDX 71 23 70 24 41 26 63 27 48 28 62 29 49 30 52 31 61 32 75 33
REMARK SMILES IDX 50 34 51 35 60 37 76 38 53 39 42 40 43 41 47 42 44 43 46 44
REMARK SMILES IDX 45 45 64 46 65 47 69 48 66 49 68 50 67 51 54 52 55 53 59 54
REMARK SMILES IDX 56 55 58 56 57 57 8 58 9 59 10 60 11 61 12 62 13 63 14 64
REMARK SMILES IDX 15 65 16 66 23 67 17 68 22 69 18 70 21 71 19 72 20 74 24 75
REMARK SMILES IDX 25 76 26 77 27 78 31 79 28 80 30 81 32 82 29 83
REMARK H PARENT 74 25 52 36 18 73
REMARK Flexibility Score: inf
ROOT
ATOM      1  C   UNL A   1      37.552  19.295  24.998  1.00  0.00     0.188 C 
ENDROOT
BRANCH   1   2
ATOM      2  O   UNL A   1      39.114  18.918  25.363  1.00  0.00    -0.376 OA
BRANCH   2   3
ATOM      3  C   UNL A   1      40.751  19.811  26.140  1.00  0.00     0.202 C 
BRANCH   3   4
ATOM      4  C   UNL A   1      42.429  19.455  26.066  1.00  0.00     0.261 C 
BRANCH   4   5
ATOM      5  O   UNL A   1      43.293  19.323  24.891  1.00  0.00    -0.460 OA
BRANCH   5   6
ATOM      6  C   UNL A   1      44.526  19.804  24.644  1.00  0.00     0.338 C 
ATOM      7  O   UNL A   1      45.419  19.100  24.183  1.00  0.00    -0.246 OA
BRANCH   6   8
ATOM      8  C   UNL A   1      44.798  21.223  24.878  1.00  0.00     0.060 A 
ATOM      9  C   UNL A   1      45.666  21.620  25.885  1.00  0.00     0.016 A 
ATOM     10  C   UNL A   1      44.022  22.152  24.144  1.00  0.00     0.016 A 
ATOM     11  C   UNL A   1      45.622  22.934  26.276  1.00  0.00     0.010 A 
ATOM     12  C   UNL A   1      44.013  23.476  24.506  1.00  0.00     0.010 A 
ATOM     13  C   UNL A   1      44.726  23.809  25.642  1.00  0.00    -0.014 A 
BRANCH  13  14
ATOM     14  C   UNL A   1      44.469  25.049  26.327  1.00  0.00     0.031 A 
ATOM     15  C   UNL A   1      45.588  26.003  26.252  1.00  0.00     0.074 A 
ATOM     16  C   UNL A   1      43.369  25.174  27.088  1.00  0.00     0.049 A 
ATOM     17  N   UNL A   1      46.470  26.223  27.167  1.00  0.00    -0.248 NA
ATOM     18  C   UNL A   1      45.884  26.612  24.949  1.00  0.00     0.031 C 
ATOM     19  C   UNL A   1      42.131  24.385  27.078  1.00  0.00     0.029 A 
ATOM     20  N   UNL A   1      43.120  26.108  28.033  1.00  0.00    -0.354 N 
ATOM     21  C   UNL A   1      47.349  27.147  26.619  1.00  0.00     0.074 A 
ATOM     22  C   UNL A   1      47.044  27.214  25.212  1.00  0.00     0.031 C 
ATOM     23  C   UNL A   1      41.185  25.035  27.795  1.00  0.00     0.029 A 
ATOM     24  C   UNL A   1      41.798  26.189  28.432  1.00  0.00     0.049 A 
ATOM     25  H   UNL A   1      43.824  26.684  28.407  1.00  0.00     0.167 HD
ATOM     26  C   UNL A   1      48.078  27.970  27.417  1.00  0.00     0.031 A 
ATOM     27  C   UNL A   1      41.259  27.201  29.154  1.00  0.00     0.031 A 
ATOM     28  C   UNL A   1      48.167  27.463  28.764  1.00  0.00     0.049 A 
ATOM     29  C   UNL A   1      42.383  27.880  29.856  1.00  0.00     0.074 A 
ATOM     30  C   UNL A   1      48.718  26.334  29.336  1.00  0.00     0.029 A 
ATOM     31  N   UNL A   1      47.271  27.959  29.683  1.00  0.00    -0.354 N 
ATOM     32  N   UNL A   1      43.071  27.305  30.804  1.00  0.00    -0.248 NA
ATOM     33  C   UNL A   1      43.068  28.965  29.164  1.00  0.00     0.031 C 
ATOM     34  C   UNL A   1      47.793  25.947  30.349  1.00  0.00     0.029 A 
ATOM     35  C   UNL A   1      46.769  26.895  30.390  1.00  0.00     0.049 A 
ATOM     36  H   UNL A   1      47.032  28.905  29.811  1.00  0.00     0.167 HD
ATOM     37  C   UNL A   1      44.393  27.651  30.553  1.00  0.00     0.074 A 
ATOM     38  C   UNL A   1      44.321  28.736  29.573  1.00  0.00     0.031 C 
ATOM     39  C   UNL A   1      45.426  26.839  30.928  1.00  0.00     0.031 A 
BRANCH  26  40
ATOM     40  C   UNL A   1      48.288  29.424  27.084  1.00  0.00    -0.014 A 
ATOM     41  C   UNL A   1      49.574  29.970  27.234  1.00  0.00     0.009 A 
ATOM     42  C   UNL A   1      47.227  30.336  26.922  1.00  0.00     0.009 A 
ATOM     43  C   UNL A   1      49.767  31.354  27.317  1.00  0.00     0.001 A 
ATOM     44  C   UNL A   1      47.421  31.717  26.968  1.00  0.00     0.001 A 
ATOM     45  C   UNL A   1      48.688  32.225  27.198  1.00  0.00     0.000 A 
ENDBRANCH  26  40
BRANCH  27  46
ATOM     46  C   UNL A   1      39.948  27.842  28.899  1.00  0.00    -0.014 A 
ATOM     47  C   UNL A   1      38.978  27.947  29.906  1.00  0.00     0.009 A 
ATOM     48  C   UNL A   1      39.744  28.584  27.717  1.00  0.00     0.009 A 
ATOM     49  C   UNL A   1      37.860  28.781  29.741  1.00  0.00     0.001 A 
ATOM     50  C   UNL A   1      38.630  29.413  27.553  1.00  0.00     0.001 A 
ATOM     51  C   UNL A   1      37.693  29.520  28.572  1.00  0.00     0.000 A 
ENDBRANCH  27  46
BRANCH  39  52
ATOM     52  C   UNL A   1      45.107  25.635  31.780  1.00  0.00    -0.014 A 
ATOM     53  C   UNL A   1      45.106  25.673  33.188  1.00  0.00     0.009 A 
ATOM     54  C   UNL A   1      44.608  24.490  31.145  1.00  0.00     0.009 A 
ATOM     55  C   UNL A   1      44.632  24.585  33.932  1.00  0.00     0.001 A 
ATOM     56  C   UNL A   1      44.119  23.412  31.887  1.00  0.00     0.001 A 
ATOM     57  C   UNL A   1      44.133  23.459  33.280  1.00  0.00     0.000 A 
ENDBRANCH  39  52
ENDBRANCH  13  14
ENDBRANCH   6   8
ENDBRANCH   5   6
ENDBRANCH   4   5
ENDBRANCH   3   4
ENDBRANCH   2   3
ENDBRANCH   1   2
BRANCH   1  58
ATOM     58  C   UNL A   1      36.933  20.700  25.045  1.00  0.00     0.188 C 
BRANCH  58  59
ATOM     59  O   UNL A   1      37.597  21.804  24.502  1.00  0.00    -0.376 OA
BRANCH  59  60
ATOM     60  C   UNL A   1      36.751  22.818  23.995  1.00  0.00     0.202 C 
BRANCH  60  61
ATOM     61  C   UNL A   1      36.151  23.813  25.010  1.00  0.00     0.261 C 
BRANCH  61  62
ATOM     62  O   UNL A   1      34.951  24.504  24.554  1.00  0.00    -0.462 OA
BRANCH  62  63
ATOM     63  C   UNL A   1      33.811  24.311  25.249  1.00  0.00     0.329 C 
ATOM     64  O   UNL A   1      33.522  23.230  25.763  1.00  0.00    -0.250 OA
BRANCH  63  65
ATOM     65  C   UNL A   1      32.948  25.570  25.540  1.00  0.00     0.201 C 
ATOM     66  C   UNL A   1      33.862  26.826  25.296  1.00  0.00     0.093 C 
ATOM     67  N   UNL A   1      31.493  25.958  25.304  1.00  0.00    -0.318 N 
ATOM     68  C   UNL A   1      33.288  27.952  26.071  1.00  0.00     0.042 A 
ATOM     69  C   UNL A   1      30.973  26.919  26.331  1.00  0.00     0.179 C 
ATOM     70  N   UNL A   1      33.910  29.075  26.526  1.00  0.00    -0.348 N 
ATOM     71  C   UNL A   1      31.992  28.010  26.533  1.00  0.00     0.081 A 
ATOM     72  C   UNL A   1      32.979  29.761  27.261  1.00  0.00     0.197 A 
ATOM     73  H   UNL A   1      34.843  29.341  26.359  1.00  0.00     0.167 HD
ATOM     74  N   UNL A   1      31.811  29.149  27.275  1.00  0.00    -0.240 NA
BRANCH  67  75
ATOM     75  C   UNL A   1      30.713  25.893  24.154  1.00  0.00     0.256 C 
ATOM     76  O   UNL A   1      30.570  24.882  23.466  1.00  0.00    -0.269 OA
BRANCH  75  77
ATOM     77  C   UNL A   1      29.982  27.034  23.646  1.00  0.00     0.061 A 
ATOM     78  C   UNL A   1      28.179  27.050  23.755  1.00  0.00     0.035 A 
ATOM     79  C   UNL A   1      30.817  28.332  22.783  1.00  0.00     0.072 A 
ATOM     80  C   UNL A   1      27.300  28.532  23.134  1.00  0.00     0.112 A 
ATOM     81  C   UNL A   1      29.897  29.701  22.161  1.00  0.00     0.132 A 
ATOM     82  Cl  UNL A   1      32.508  28.238  22.459  1.00  0.00    -0.082 Cl
ATOM     83  N   UNL A   1      28.156  29.811  22.296  1.00  0.00    -0.263 NA
ENDBRANCH  75  77
ENDBRANCH  67  75
ENDBRANCH  63  65
ENDBRANCH  62  63
ENDBRANCH  61  62
ENDBRANCH  60  61
ENDBRANCH  59  60
ENDBRANCH  58  59
ENDBRANCH   1  58
TORSDOF 19
ENDMDL
MODEL 2
REMARK VINA RESULT:     -12.0      5.228     10.537
REMARK SMILES O=C(OCCOCCOCCOC(=O)[C@H]1Cc2[nH]cnc2CN1C(=O)c1ccncc1Cl)c1ccc(-c2c3nc(c(-c4ccccc4)c4ccc([nH]4)c(-c4ccccc4)c4nc(c(-c5ccccc5)c5ccc2[nH]5)C=C4)C=C3)cc1
REMARK SMILES IDX 7 1 6 2 5 3 4 4 3 5 2 6 1 7 33 8 34 9 80 10 35 11 79 12
REMARK SMILES IDX 36 13 37 14 38 15 73 16 39 17 78 18 72 19 74 20 40 21 77 22
REMARK SMILES IDX 71 23 70 24 41 26 63 27 48 28 62 29 49 30 52 31 61 32 75 33
REMARK SMILES IDX 50 34 51 35 60 37 76 38 53 39 42 40 43 41 47 42 44 43 46 44
REMARK SMILES IDX 45 45 64 46 65 47 69 48 66 49 68 50 67 51 54 52 55 53 59 54
REMARK SMILES IDX 56 55 58 56 57 57 8 58 9 59 10 60 11 61 12 62 13 63 14 64
REMARK SMILES IDX 15 65 16 66 23 67 17 68 22 69 18 70 21 71 19 72 20 74 24 75
REMARK SMILES IDX 25 76 26 77 27 78 31 79 28 80 30 81 32 82 29 83
REMARK H PARENT 74 25 52 36 18 73
REMARK Flexibility Score: inf
ROOT
ATOM      1  C   UNL A   1      35.176  32.703  27.844  1.00  0.00     0.188 C 
ENDROOT
BRANCH   1   2
ATOM      2  O   UNL A   1      34.524  34.191  27.574  1.00  0.00    -0.376 OA
BRANCH   2   3
ATOM      3  C   UNL A   1      33.778  35.740  28.635  1.00  0.00     0.202 C 
BRANCH   3   4
ATOM      4  C   UNL A   1      32.913  35.841  30.115  1.00  0.00     0.261 C 
BRANCH   4   5
ATOM      5  O   UNL A   1      33.112  35.086  31.353  1.00  0.00    -0.460 OA
BRANCH   5   6
ATOM      6  C   UNL A   1      33.825  35.375  32.458  1.00  0.00     0.338 C 
ATOM      7  O   UNL A   1      33.581  36.358  33.151  1.00  0.00    -0.246 OA
BRANCH   6   8
ATOM      8  C   UNL A   1      34.888  34.462  32.879  1.00  0.00     0.060 A 
ATOM      9  C   UNL A   1      36.149  34.943  33.202  1.00  0.00     0.016 A 
ATOM     10  C   UNL A   1      34.614  33.076  32.787  1.00  0.00     0.016 A 
ATOM     11  C   UNL A   1      37.177  34.038  33.257  1.00  0.00     0.010 A 
ATOM     12  C   UNL A   1      35.636  32.165  32.889  1.00  0.00     0.010 A 
ATOM     13  C   UNL A   1      36.912  32.683  33.003  1.00  0.00    -0.014 A 
BRANCH  13  14
ATOM     14  C   UNL A   1      38.060  31.862  32.719  1.00  0.00     0.031 A 
ATOM     15  C   UNL A   1      38.975  31.717  33.863  1.00  0.00     0.074 A 
ATOM     16  C   UNL A   1      38.293  31.457  31.459  1.00  0.00     0.049 A 
ATOM     17  N   UNL A   1      40.073  32.366  34.053  1.00  0.00    -0.248 NA
ATOM     18  C   UNL A   1      38.514  30.932  35.015  1.00  0.00     0.031 C 
ATOM     19  C   UNL A   1      37.375  31.382  30.316  1.00  0.00     0.029 A 
ATOM     20  N   UNL A   1      39.445  30.968  30.948  1.00  0.00    -0.354 N 
ATOM     21  C   UNL A   1      40.547  31.938  35.284  1.00  0.00     0.074 A 
ATOM     22  C   UNL A   1      39.474  31.200  35.900  1.00  0.00     0.031 C 
ATOM     23  C   UNL A   1      37.948  30.647  29.335  1.00  0.00     0.029 A 
ATOM     24  C   UNL A   1      39.315  30.342  29.722  1.00  0.00     0.049 A 
ATOM     25  H   UNL A   1      40.309  31.051  31.413  1.00  0.00     0.167 HD
ATOM     26  C   UNL A   1      41.873  32.006  35.581  1.00  0.00     0.031 A 
ATOM     27  C   UNL A   1      40.253  29.555  29.140  1.00  0.00     0.031 A 
ATOM     28  C   UNL A   1      42.562  32.938  34.723  1.00  0.00     0.049 A 
ATOM     29  C   UNL A   1      41.560  29.909  29.759  1.00  0.00     0.074 A 
ATOM     30  C   UNL A   1      42.484  34.301  34.518  1.00  0.00     0.029 A 
ATOM     31  N   UNL A   1      43.203  32.422  33.621  1.00  0.00    -0.354 N 
ATOM     32  N   UNL A   1      42.134  31.067  29.578  1.00  0.00    -0.248 NA
ATOM     33  C   UNL A   1      41.960  29.202  30.969  1.00  0.00     0.031 C 
ATOM     34  C   UNL A   1      42.650  34.471  33.113  1.00  0.00     0.029 A 
ATOM     35  C   UNL A   1      42.891  33.218  32.547  1.00  0.00     0.049 A 
ATOM     36  H   UNL A   1      43.781  31.625  33.604  1.00  0.00     0.167 HD
ATOM     37  C   UNL A   1      42.628  31.425  30.827  1.00  0.00     0.074 A 
ATOM     38  C   UNL A   1      42.555  30.202  31.628  1.00  0.00     0.031 C 
ATOM     39  C   UNL A   1      42.770  32.735  31.188  1.00  0.00     0.031 A 
BRANCH  26  40
ATOM     40  C   UNL A   1      42.584  30.897  36.310  1.00  0.00    -0.014 A 
ATOM     41  C   UNL A   1      43.568  31.235  37.253  1.00  0.00     0.009 A 
ATOM     42  C   UNL A   1      42.542  29.552  35.893  1.00  0.00     0.009 A 
ATOM     43  C   UNL A   1      44.517  30.297  37.677  1.00  0.00     0.001 A 
ATOM     44  C   UNL A   1      43.463  28.606  36.341  1.00  0.00     0.001 A 
ATOM     45  C   UNL A   1      44.472  28.987  37.209  1.00  0.00     0.000 A 
ENDBRANCH  26  40
BRANCH  27  46
ATOM     46  C   UNL A   1      39.995  28.269  28.452  1.00  0.00    -0.014 A 
ATOM     47  C   UNL A   1      40.532  27.998  27.186  1.00  0.00     0.009 A 
ATOM     48  C   UNL A   1      39.419  27.193  29.159  1.00  0.00     0.009 A 
ATOM     49  C   UNL A   1      40.511  26.696  26.660  1.00  0.00     0.001 A 
ATOM     50  C   UNL A   1      39.396  25.898  28.636  1.00  0.00     0.001 A 
ATOM     51  C   UNL A   1      39.954  25.647  27.389  1.00  0.00     0.000 A 
ENDBRANCH  27  46
BRANCH  39  52
ATOM     52  C   UNL A   1      42.542  33.790  30.132  1.00  0.00    -0.014 A 
ATOM     53  C   UNL A   1      41.264  34.285  29.810  1.00  0.00     0.009 A 
ATOM     54  C   UNL A   1      43.662  34.435  29.590  1.00  0.00     0.009 A 
ATOM     55  C   UNL A   1      41.119  35.386  28.956  1.00  0.00     0.001 A 
ATOM     56  C   UNL A   1      43.517  35.543  28.752  1.00  0.00     0.001 A 
ATOM     57  C   UNL A   1      42.246  36.017  28.434  1.00  0.00     0.000 A 
ENDBRANCH  39  52
ENDBRANCH  13  14
ENDBRANCH   6   8
ENDBRANCH   5   6
ENDBRANCH   4   5
ENDBRANCH   3   4
ENDBRANCH   2   3
ENDBRANCH   1   2
BRANCH   1  58
ATOM     58  C   UNL A   1      34.388  31.420  28.152  1.00  0.00     0.188 C 
BRANCH  58  59
ATOM     59  O   UNL A   1      33.895  30.609  27.126  1.00  0.00    -0.376 OA
BRANCH  59  60
ATOM     60  C   UNL A   1      32.568  30.896  26.726  1.00  0.00     0.202 C 
BRANCH  60  61
ATOM     61  C   UNL A   1      31.939  29.983  25.653  1.00  0.00     0.261 C 
BRANCH  61  62
ATOM     62  O   UNL A   1      31.863  28.574  26.015  1.00  0.00    -0.462 OA
BRANCH  62  63
ATOM     63  C   UNL A   1      32.756  27.731  25.456  1.00  0.00     0.329 C 
ATOM     64  O   UNL A   1      33.732  28.127  24.818  1.00  0.00    -0.250 OA
BRANCH  63  65
ATOM     65  C   UNL A   1      32.609  26.224  25.804  1.00  0.00     0.201 C 
ATOM     66  C   UNL A   1      31.163  25.785  25.366  1.00  0.00     0.093 C 
ATOM     67  N   UNL A   1      33.532  25.013  25.765  1.00  0.00    -0.318 N 
ATOM     68  C   UNL A   1      30.802  24.586  26.158  1.00  0.00     0.042 A 
ATOM     69  C   UNL A   1      33.194  23.988  26.806  1.00  0.00     0.179 C 
ATOM     70  N   UNL A   1      29.564  24.107  26.459  1.00  0.00    -0.348 N 
ATOM     71  C   UNL A   1      31.703  23.766  26.800  1.00  0.00     0.081 A 
ATOM     72  C   UNL A   1      29.756  23.032  27.287  1.00  0.00     0.197 A 
ATOM     73  H   UNL A   1      28.701  24.463  26.145  1.00  0.00     0.167 HD
ATOM     74  N   UNL A   1      31.035  22.796  27.502  1.00  0.00    -0.240 NA
BRANCH  67  75
ATOM     75  C   UNL A   1      34.345  24.526  24.745  1.00  0.00     0.256 C 
ATOM     76  O   UNL A   1      34.339  24.949  23.589  1.00  0.00    -0.269 OA
BRANCH  75  77
ATOM     77  C   UNL A   1      35.291  23.451  24.953  1.00  0.00     0.061 A 
ATOM     78  C   UNL A   1      36.994  23.848  25.410  1.00  0.00     0.035 A 
ATOM     79  C   UNL A   1      34.846  21.774  24.612  1.00  0.00     0.072 A 
ATOM     80  C   UNL A   1      38.145  22.454  25.699  1.00  0.00     0.112 A 
ATOM     81  C   UNL A   1      36.026  20.489  24.858  1.00  0.00     0.132 A 
ATOM     82  Cl  UNL A   1      33.301  21.382  23.954  1.00  0.00    -0.082 Cl
ATOM     83  N   UNL A   1      37.671  20.799  25.368  1.00  0.00    -0.263 NA
ENDBRANCH  75  77
ENDBRANCH  67  75
ENDBRANCH  63  65
ENDBRANCH  62  63
ENDBRANCH  61  62
ENDBRANCH  60  61
ENDBRANCH  59  60
ENDBRANCH  58  59
ENDBRANCH   1  58
TORSDOF 19
ENDMDL
MODEL 3
REMARK VINA RESULT:     -11.7      2.024      5.621
REMARK SMILES O=C(OCCOCCOCCOC(=O)[C@H]1Cc2[nH]cnc2CN1C(=O)c1ccncc1Cl)c1ccc(-c2c3nc(c(-c4ccccc4)c4ccc([nH]4)c(-c4ccccc4)c4nc(c(-c5ccccc5)c5ccc2[nH]5)C=C4)C=C3)cc1
REMARK SMILES IDX 7 1 6 2 5 3 4 4 3 5 2 6 1 7 33 8 34 9 80 10 35 11 79 12
REMARK SMILES IDX 36 13 37 14 38 15 73 16 39 17 78 18 72 19 74 20 40 21 77 22
REMARK SMILES IDX 71 23 70 24 41 26 63 27 48 28 62 29 49 30 52 31 61 32 75 33
REMARK SMILES IDX 50 34 51 35 60 37 76 38 53 39 42 40 43 41 47 42 44 43 46 44
REMARK SMILES IDX 45 45 64 46 65 47 69 48 66 49 68 50 67 51 54 52 55 53 59 54
REMARK SMILES IDX 56 55 58 56 57 57 8 58 9 59 10 60 11 61 12 62 13 63 14 64
REMARK SMILES IDX 15 65 16 66 23 67 17 68 22 69 18 70 21 71 19 72 20 74 24 75
REMARK SMILES IDX 25 76 26 77 27 78 31 79 28 80 30 81 32 82 29 83
REMARK H PARENT 74 25 52 36 18 73
REMARK Flexibility Score: inf
ROOT
ATOM      1  C   UNL A   1      33.860  20.337  25.009  1.00  0.00     0.188 C 
ENDROOT
BRANCH   1   2
ATOM      2  O   UNL A   1      35.278  21.157  25.182  1.00  0.00    -0.376 OA
BRANCH   2   3
ATOM      3  C   UNL A   1      37.238  20.910  24.759  1.00  0.00     0.202 C 
BRANCH   3   4
ATOM      4  C   UNL A   1      38.270  19.538  24.734  1.00  0.00     0.261 C 
BRANCH   4   5
ATOM      5  O   UNL A   1      39.299  19.140  25.697  1.00  0.00    -0.460 OA
BRANCH   5   6
ATOM      6  C   UNL A   1      40.573  19.549  25.846  1.00  0.00     0.338 C 
ATOM      7  O   UNL A   1      41.524  18.796  25.659  1.00  0.00    -0.246 OA
BRANCH   6   8
ATOM      8  C   UNL A   1      40.837  20.947  26.187  1.00  0.00     0.060 A 
ATOM      9  C   UNL A   1      42.127  21.456  26.138  1.00  0.00     0.016 A 
ATOM     10  C   UNL A   1      39.754  21.693  26.712  1.00  0.00     0.016 A 
ATOM     11  C   UNL A   1      42.363  22.645  26.780  1.00  0.00     0.010 A 
ATOM     12  C   UNL A   1      39.983  22.905  27.314  1.00  0.00     0.010 A 
ATOM     13  C   UNL A   1      41.304  23.292  27.435  1.00  0.00    -0.014 A 
BRANCH  13  14
ATOM     14  C   UNL A   1      41.680  24.315  28.377  1.00  0.00     0.031 A 
ATOM     15  C   UNL A   1      40.902  25.556  28.236  1.00  0.00     0.074 A 
ATOM     16  C   UNL A   1      42.765  24.140  29.151  1.00  0.00     0.049 A 
ATOM     17  N   UNL A   1      41.278  26.632  27.631  1.00  0.00    -0.248 NA
ATOM     18  C   UNL A   1      39.483  25.523  28.612  1.00  0.00     0.031 C 
ATOM     19  C   UNL A   1      43.474  22.904  29.501  1.00  0.00     0.029 A 
ATOM     20  N   UNL A   1      43.445  25.082  29.842  1.00  0.00    -0.354 N 
ATOM     21  C   UNL A   1      40.195  27.496  27.705  1.00  0.00     0.074 A 
ATOM     22  C   UNL A   1      39.076  26.708  28.157  1.00  0.00     0.031 C 
ATOM     23  C   UNL A   1      44.318  23.154  30.529  1.00  0.00     0.029 A 
ATOM     24  C   UNL A   1      44.317  24.583  30.794  1.00  0.00     0.049 A 
ATOM     25  H   UNL A   1      43.330  26.045  29.681  1.00  0.00     0.167 HD
ATOM     26  C   UNL A   1      40.373  28.842  27.639  1.00  0.00     0.031 A 
ATOM     27  C   UNL A   1      44.902  25.309  31.777  1.00  0.00     0.031 A 
ATOM     28  C   UNL A   1      41.645  29.181  27.049  1.00  0.00     0.049 A 
ATOM     29  C   UNL A   1      44.872  26.733  31.341  1.00  0.00     0.074 A 
ATOM     30  C   UNL A   1      42.215  28.991  25.806  1.00  0.00     0.029 A 
ATOM     31  N   UNL A   1      42.686  29.448  27.909  1.00  0.00    -0.354 N 
ATOM     32  N   UNL A   1      45.567  27.174  30.328  1.00  0.00    -0.248 NA
ATOM     33  C   UNL A   1      43.700  27.530  31.682  1.00  0.00     0.031 C 
ATOM     34  C   UNL A   1      43.581  28.685  26.071  1.00  0.00     0.029 A 
ATOM     35  C   UNL A   1      43.789  28.775  27.449  1.00  0.00     0.049 A 
ATOM     36  H   UNL A   1      42.646  30.018  28.711  1.00  0.00     0.167 HD
ATOM     37  C   UNL A   1      44.711  28.033  29.649  1.00  0.00     0.074 A 
ATOM     38  C   UNL A   1      43.600  28.270  30.572  1.00  0.00     0.031 C 
ATOM     39  C   UNL A   1      44.827  28.237  28.303  1.00  0.00     0.031 A 
BRANCH  26  40
ATOM     40  C   UNL A   1      39.613  29.792  28.526  1.00  0.00    -0.014 A 
ATOM     41  C   UNL A   1      40.134  30.090  29.795  1.00  0.00     0.009 A 
ATOM     42  C   UNL A   1      38.274  30.161  28.288  1.00  0.00     0.009 A 
ATOM     43  C   UNL A   1      39.326  30.637  30.799  1.00  0.00     0.001 A 
ATOM     44  C   UNL A   1      37.476  30.739  29.275  1.00  0.00     0.001 A 
ATOM     45  C   UNL A   1      37.993  30.947  30.542  1.00  0.00     0.000 A 
ENDBRANCH  26  40
BRANCH  27  46
ATOM     46  C   UNL A   1      45.051  24.889  33.189  1.00  0.00    -0.014 A 
ATOM     47  C   UNL A   1      43.941  24.758  34.034  1.00  0.00     0.009 A 
ATOM     48  C   UNL A   1      46.281  24.368  33.644  1.00  0.00     0.009 A 
ATOM     49  C   UNL A   1      44.054  24.111  35.275  1.00  0.00     0.001 A 
ATOM     50  C   UNL A   1      46.394  23.725  34.879  1.00  0.00     0.001 A 
ATOM     51  C   UNL A   1      45.276  23.586  35.691  1.00  0.00     0.000 A 
ENDBRANCH  27  46
BRANCH  39  52
ATOM     52  C   UNL A   1      46.019  27.640  27.596  1.00  0.00    -0.014 A 
ATOM     53  C   UNL A   1      46.063  26.298  27.170  1.00  0.00     0.009 A 
ATOM     54  C   UNL A   1      47.040  28.504  27.178  1.00  0.00     0.009 A 
ATOM     55  C   UNL A   1      47.111  25.838  26.363  1.00  0.00     0.001 A 
ATOM     56  C   UNL A   1      48.076  28.049  26.359  1.00  0.00     0.001 A 
ATOM     57  C   UNL A   1      48.112  26.717  25.953  1.00  0.00     0.000 A 
ENDBRANCH  39  52
ENDBRANCH  13  14
ENDBRANCH   6   8
ENDBRANCH   5   6
ENDBRANCH   4   5
ENDBRANCH   3   4
ENDBRANCH   2   3
ENDBRANCH   1   2
BRANCH   1  58
ATOM     58  C   UNL A   1      32.501  20.957  24.650  1.00  0.00     0.188 C 
BRANCH  58  59
ATOM     59  O   UNL A   1      32.330  22.343  24.592  1.00  0.00    -0.376 OA
BRANCH  59  60
ATOM     60  C   UNL A   1      32.294  22.885  23.286  1.00  0.00     0.202 C 
BRANCH  60  61
ATOM     61  C   UNL A   1      33.640  23.301  22.655  1.00  0.00     0.261 C 
BRANCH  61  62
ATOM     62  O   UNL A   1      34.000  24.700  22.849  1.00  0.00    -0.462 OA
BRANCH  62  63
ATOM     63  C   UNL A   1      34.130  25.147  24.115  1.00  0.00     0.329 C 
ATOM     64  O   UNL A   1      35.016  24.749  24.871  1.00  0.00    -0.250 OA
BRANCH  63  65
ATOM     65  C   UNL A   1      33.221  26.335  24.534  1.00  0.00     0.201 C 
ATOM     66  C   UNL A   1      34.100  27.638  24.471  1.00  0.00     0.093 C 
ATOM     67  N   UNL A   1      31.760  26.707  24.308  1.00  0.00    -0.318 N 
ATOM     68  C   UNL A   1      33.472  28.642  25.362  1.00  0.00     0.042 A 
ATOM     69  C   UNL A   1      31.185  27.519  25.430  1.00  0.00     0.179 C 
ATOM     70  N   UNL A   1      34.046  29.718  25.968  1.00  0.00    -0.348 N 
ATOM     71  C   UNL A   1      32.164  28.606  25.792  1.00  0.00     0.081 A 
ATOM     72  C   UNL A   1      33.077  30.280  26.756  1.00  0.00     0.197 A 
ATOM     73  H   UNL A   1      34.975  30.029  25.862  1.00  0.00     0.167 HD
ATOM     74  N   UNL A   1      31.929  29.638  26.662  1.00  0.00    -0.240 NA
BRANCH  67  75
ATOM     75  C   UNL A   1      31.010  26.762  23.137  1.00  0.00     0.256 C 
ATOM     76  O   UNL A   1      31.098  25.950  22.216  1.00  0.00    -0.269 OA
BRANCH  75  77
ATOM     77  C   UNL A   1      30.038  27.804  22.886  1.00  0.00     0.061 A 
ATOM     78  C   UNL A   1      30.590  29.383  22.201  1.00  0.00     0.035 A 
ATOM     79  C   UNL A   1      28.353  27.610  23.386  1.00  0.00     0.072 A 
ATOM     80  C   UNL A   1      29.319  30.657  21.864  1.00  0.00     0.112 A 
ATOM     81  C   UNL A   1      27.197  28.904  23.083  1.00  0.00     0.132 A 
ATOM     82  Cl  UNL A   1      27.840  26.209  24.251  1.00  0.00    -0.082 Cl
ATOM     83  N   UNL A   1      27.652  30.430  22.358  1.00  0.00    -0.263 NA
ENDBRANCH  75  77
ENDBRANCH  67  75
ENDBRANCH  63  65
ENDBRANCH  62  63
ENDBRANCH  61  62
ENDBRANCH  60  61
ENDBRANCH  59  60
ENDBRANCH  58  59
ENDBRANCH   1  58
TORSDOF 19
ENDMDL
