MODEL 1
REMARK VINA RESULT:     -10.6      0.000      0.000
REMARK SMILES CC(=O)c1nnn(-c2ccc(C(=O)OCCOCCOCCOC(=O)c3ccc(-c4c5nc(c(-c6ccccc6)c6ccc([nH]6)c(-c6ccccc6)c6nc(c(-c7ccccc7)c7ccc4[nH]7)C=C6)C=C5)cc3)cc2)c1C
REMARK SMILES IDX 18 1 17 2 16 3 15 4 14 5 12 6 13 7 11 8 8 9 9 10 75 11 10 12
REMARK SMILES IDX 74 13 7 14 4 15 5 16 76 17 6 18 77 19 2 20 1 21 3 22 19 23
REMARK SMILES IDX 20 24 21 25 22 26 23 27 24 28 25 29 26 30 27 31 73 32 28 33
REMARK SMILES IDX 72 34 29 35 30 36 31 37 66 38 32 39 71 40 65 41 67 42 33 43
REMARK SMILES IDX 70 44 64 45 63 46 34 48 56 49 41 50 55 51 42 52 45 53 54 54
REMARK SMILES IDX 68 55 43 56 44 57 53 59 69 60 46 61 35 62 36 63 40 64 37 65
REMARK SMILES IDX 39 66 38 67 57 68 58 69 62 70 59 71 61 72 60 73 47 74 48 75
REMARK SMILES IDX 52 76 49 77 51 78 50 79
REMARK H PARENT 67 47 45 58
REMARK Flexibility Score: inf
ROOT
ATOM      1  C   UNL A   1      32.122  30.554  26.945  1.00  0.00     0.188 C 
ENDROOT
BRANCH   1   2
ATOM      2  O   UNL A   1      31.767  30.448  25.586  1.00  0.00    -0.376 OA
BRANCH   2   3
ATOM      3  C   UNL A   1      31.541  29.169  25.012  1.00  0.00     0.202 C 
BRANCH   3   4
ATOM      4  C   UNL A   1      32.615  28.068  24.857  1.00  0.00     0.261 C 
BRANCH   4   5
ATOM      5  O   UNL A   1      32.961  27.308  26.014  1.00  0.00    -0.460 OA
BRANCH   5   6
ATOM      6  C   UNL A   1      32.006  26.484  26.499  1.00  0.00     0.338 C 
ATOM      7  O   UNL A   1      31.069  26.795  27.224  1.00  0.00    -0.246 OA
BRANCH   6   8
ATOM      8  C   UNL A   1      32.146  25.145  25.890  1.00  0.00     0.060 A 
ATOM      9  C   UNL A   1      32.342  22.546  24.934  1.00  0.00     0.067 A 
ATOM     10  C   UNL A   1      31.076  23.084  25.181  1.00  0.00     0.029 A 
ATOM     11  C   UNL A   1      33.492  23.340  25.029  1.00  0.00     0.029 A 
ATOM     12  C   UNL A   1      30.986  24.379  25.691  1.00  0.00     0.018 A 
ATOM     13  C   UNL A   1      33.395  24.647  25.503  1.00  0.00     0.018 A 
BRANCH   9  14
ATOM     14  N   UNL A   1      32.467  21.149  24.771  1.00  0.00    -0.217 N 
ATOM     15  C   UNL A   1      32.715  19.150  23.931  1.00  0.00     0.151 A 
ATOM     16  N   UNL A   1      32.984  19.111  25.275  1.00  0.00    -0.126 NA
ATOM     17  C   UNL A   1      32.399  20.451  23.571  1.00  0.00     0.073 A 
ATOM     18  N   UNL A   1      32.935  20.348  25.748  1.00  0.00    -0.061 NA
ATOM     19  C   UNL A   1      32.158  21.102  22.260  1.00  0.00     0.069 C 
BRANCH  15  20
ATOM     20  C   UNL A   1      32.853  17.970  23.089  1.00  0.00     0.181 C 
ATOM     21  C   UNL A   1      34.029  17.057  23.338  1.00  0.00     0.095 C 
ATOM     22  O   UNL A   1      32.026  17.698  22.219  1.00  0.00    -0.293 OA
ENDBRANCH  15  20
ENDBRANCH   9  14
ENDBRANCH   6   8
ENDBRANCH   5   6
ENDBRANCH   4   5
ENDBRANCH   3   4
ENDBRANCH   2   3
ENDBRANCH   1   2
BRANCH   1  23
ATOM     23  C   UNL A   1      33.625  30.800  27.200  1.00  0.00     0.188 C 
BRANCH  23  24
ATOM     24  O   UNL A   1      34.090  31.655  28.238  1.00  0.00    -0.376 OA
BRANCH  24  25
ATOM     25  C   UNL A   1      35.388  31.537  28.806  1.00  0.00     0.202 C 
BRANCH  25  26
ATOM     26  C   UNL A   1      36.494  32.562  28.548  1.00  0.00     0.261 C 
BRANCH  26  27
ATOM     27  O   UNL A   1      37.799  32.072  28.787  1.00  0.00    -0.460 OA
BRANCH  27  28
ATOM     28  C   UNL A   1      38.502  32.799  29.669  1.00  0.00     0.338 C 
ATOM     29  O   UNL A   1      38.467  34.017  29.825  1.00  0.00    -0.246 OA
BRANCH  28  30
ATOM     30  C   UNL A   1      39.374  31.914  30.443  1.00  0.00     0.060 A 
ATOM     31  C   UNL A   1      40.737  31.969  30.139  1.00  0.00     0.016 A 
ATOM     32  C   UNL A   1      38.816  30.873  31.199  1.00  0.00     0.016 A 
ATOM     33  C   UNL A   1      41.484  30.832  30.323  1.00  0.00     0.010 A 
ATOM     34  C   UNL A   1      39.558  29.731  31.368  1.00  0.00     0.010 A 
ATOM     35  C   UNL A   1      40.835  29.696  30.807  1.00  0.00    -0.014 A 
BRANCH  35  36
ATOM     36  C   UNL A   1      41.436  28.417  30.493  1.00  0.00     0.031 A 
ATOM     37  C   UNL A   1      42.301  27.828  31.523  1.00  0.00     0.074 A 
ATOM     38  C   UNL A   1      41.108  27.781  29.353  1.00  0.00     0.049 A 
ATOM     39  N   UNL A   1      43.549  27.515  31.424  1.00  0.00    -0.248 NA
ATOM     40  C   UNL A   1      41.716  27.623  32.855  1.00  0.00     0.031 C 
ATOM     41  C   UNL A   1      40.025  28.118  28.420  1.00  0.00     0.029 A 
ATOM     42  N   UNL A   1      41.590  26.608  28.862  1.00  0.00    -0.354 N 
ATOM     43  C   UNL A   1      43.876  26.921  32.634  1.00  0.00     0.074 A 
ATOM     44  C   UNL A   1      42.762  27.141  33.522  1.00  0.00     0.031 C 
ATOM     45  C   UNL A   1      39.781  27.051  27.629  1.00  0.00     0.029 A 
ATOM     46  C   UNL A   1      40.761  26.018  27.921  1.00  0.00     0.049 A 
ATOM     47  H   UNL A   1      42.446  26.214  29.148  1.00  0.00     0.167 HD
ATOM     48  C   UNL A   1      44.938  26.085  32.763  1.00  0.00     0.031 A 
ATOM     49  C   UNL A   1      40.816  24.736  27.493  1.00  0.00     0.031 A 
ATOM     50  C   UNL A   1      45.873  26.198  31.678  1.00  0.00     0.049 A 
ATOM     51  C   UNL A   1      42.144  24.187  27.852  1.00  0.00     0.074 A 
ATOM     52  C   UNL A   1      46.650  27.216  31.163  1.00  0.00     0.029 A 
ATOM     53  N   UNL A   1      45.861  25.211  30.723  1.00  0.00    -0.354 N 
ATOM     54  N   UNL A   1      43.260  24.555  27.290  1.00  0.00    -0.248 NA
ATOM     55  C   UNL A   1      42.290  23.496  29.125  1.00  0.00     0.031 C 
ATOM     56  C   UNL A   1      46.699  26.978  29.760  1.00  0.00     0.029 A 
ATOM     57  C   UNL A   1      45.960  25.822  29.501  1.00  0.00     0.049 A 
ATOM     58  H   UNL A   1      45.794  24.243  30.887  1.00  0.00     0.167 HD
ATOM     59  C   UNL A   1      44.200  24.527  28.312  1.00  0.00     0.074 A 
ATOM     60  C   UNL A   1      43.579  23.747  29.375  1.00  0.00     0.031 C 
ATOM     61  C   UNL A   1      45.269  25.378  28.309  1.00  0.00     0.031 A 
BRANCH  48  62
ATOM     62  C   UNL A   1      44.922  24.909  33.698  1.00  0.00    -0.014 A 
ATOM     63  C   UNL A   1      46.137  24.402  34.180  1.00  0.00     0.009 A 
ATOM     64  C   UNL A   1      43.769  24.128  33.914  1.00  0.00     0.009 A 
ATOM     65  C   UNL A   1      46.196  23.159  34.822  1.00  0.00     0.001 A 
ATOM     66  C   UNL A   1      43.816  22.912  34.596  1.00  0.00     0.001 A 
ATOM     67  C   UNL A   1      45.035  22.418  35.032  1.00  0.00     0.000 A 
ENDBRANCH  48  62
BRANCH  49  68
ATOM     68  C   UNL A   1      39.691  23.890  27.048  1.00  0.00    -0.014 A 
ATOM     69  C   UNL A   1      38.459  24.456  26.692  1.00  0.00     0.009 A 
ATOM     70  C   UNL A   1      39.897  22.527  26.751  1.00  0.00     0.009 A 
ATOM     71  C   UNL A   1      37.480  23.691  26.046  1.00  0.00     0.001 A 
ATOM     72  C   UNL A   1      38.917  21.762  26.116  1.00  0.00     0.001 A 
ATOM     73  C   UNL A   1      37.711  22.348  25.752  1.00  0.00     0.000 A 
ENDBRANCH  49  68
BRANCH  61  74
ATOM     74  C   UNL A   1      45.547  26.152  27.043  1.00  0.00    -0.014 A 
ATOM     75  C   UNL A   1      45.000  27.425  26.804  1.00  0.00     0.009 A 
ATOM     76  C   UNL A   1      46.498  25.655  26.140  1.00  0.00     0.009 A 
ATOM     77  C   UNL A   1      45.366  28.162  25.674  1.00  0.00     0.001 A 
ATOM     78  C   UNL A   1      46.880  26.402  25.023  1.00  0.00     0.001 A 
ATOM     79  C   UNL A   1      46.310  27.651  24.786  1.00  0.00     0.000 A 
ENDBRANCH  61  74
ENDBRANCH  35  36
ENDBRANCH  28  30
ENDBRANCH  27  28
ENDBRANCH  26  27
ENDBRANCH  25  26
ENDBRANCH  24  25
ENDBRANCH  23  24
ENDBRANCH   1  23
TORSDOF 19
ENDMDL
MODEL 2
REMARK VINA RESULT:     -10.6      3.632      8.417
REMARK SMILES CC(=O)c1nnn(-c2ccc(C(=O)OCCOCCOCCOC(=O)c3ccc(-c4c5nc(c(-c6ccccc6)c6ccc([nH]6)c(-c6ccccc6)c6nc(c(-c7ccccc7)c7ccc4[nH]7)C=C6)C=C5)cc3)cc2)c1C
REMARK SMILES IDX 18 1 17 2 16 3 15 4 14 5 12 6 13 7 11 8 8 9 9 10 75 11 10 12
REMARK SMILES IDX 74 13 7 14 4 15 5 16 76 17 6 18 77 19 2 20 1 21 3 22 19 23
REMARK SMILES IDX 20 24 21 25 22 26 23 27 24 28 25 29 26 30 27 31 73 32 28 33
REMARK SMILES IDX 72 34 29 35 30 36 31 37 66 38 32 39 71 40 65 41 67 42 33 43
REMARK SMILES IDX 70 44 64 45 63 46 34 48 56 49 41 50 55 51 42 52 45 53 54 54
REMARK SMILES IDX 68 55 43 56 44 57 53 59 69 60 46 61 35 62 36 63 40 64 37 65
REMARK SMILES IDX 39 66 38 67 57 68 58 69 62 70 59 71 61 72 60 73 47 74 48 75
REMARK SMILES IDX 52 76 49 77 51 78 50 79
REMARK H PARENT 67 47 45 58
REMARK Flexibility Score: inf
ROOT
ATOM      1  C   UNL A   1      38.428  20.995  25.432  1.00  0.00     0.188 C 
ENDROOT
BRANCH   1   2
ATOM      2  O   UNL A   1      37.345  21.778  24.986  1.00  0.00    -0.376 OA
BRANCH   2   3
ATOM      3  C   UNL A   1      36.030  21.483  25.431  1.00  0.00     0.202 C 
BRANCH   3   4
ATOM      4  C   UNL A   1      35.161  20.316  24.908  1.00  0.00     0.261 C 
BRANCH   4   5
ATOM      5  O   UNL A   1      33.978  19.988  25.637  1.00  0.00    -0.460 OA
BRANCH   5   6
ATOM      6  C   UNL A   1      32.804  20.342  25.069  1.00  0.00     0.338 C 
ATOM      7  O   UNL A   1      32.059  19.622  24.417  1.00  0.00    -0.246 OA
BRANCH   6   8
ATOM      8  C   UNL A   1      32.441  21.712  25.487  1.00  0.00     0.060 A 
ATOM      9  C   UNL A   1      31.913  24.359  26.140  1.00  0.00     0.067 A 
ATOM     10  C   UNL A   1      31.583  23.896  24.863  1.00  0.00     0.029 A 
ATOM     11  C   UNL A   1      32.372  23.477  27.128  1.00  0.00     0.029 A 
ATOM     12  C   UNL A   1      31.880  22.574  24.531  1.00  0.00     0.018 A 
ATOM     13  C   UNL A   1      32.632  22.147  26.804  1.00  0.00     0.018 A 
BRANCH   9  14
ATOM     14  N   UNL A   1      31.957  25.751  26.368  1.00  0.00    -0.217 N 
ATOM     15  C   UNL A   1      32.471  27.871  26.304  1.00  0.00     0.151 A 
ATOM     16  N   UNL A   1      31.221  27.727  26.851  1.00  0.00    -0.126 NA
ATOM     17  C   UNL A   1      32.963  26.620  25.964  1.00  0.00     0.073 A 
ATOM     18  N   UNL A   1      30.880  26.447  26.783  1.00  0.00    -0.061 NA
ATOM     19  C   UNL A   1      34.176  26.182  25.232  1.00  0.00     0.069 C 
BRANCH  15  20
ATOM     20  C   UNL A   1      33.060  29.184  26.082  1.00  0.00     0.181 C 
ATOM     21  C   UNL A   1      33.760  29.850  27.242  1.00  0.00     0.095 C 
ATOM     22  O   UNL A   1      33.022  29.731  24.980  1.00  0.00    -0.293 OA
ENDBRANCH  15  20
ENDBRANCH   9  14
ENDBRANCH   6   8
ENDBRANCH   5   6
ENDBRANCH   4   5
ENDBRANCH   3   4
ENDBRANCH   2   3
ENDBRANCH   1   2
BRANCH   1  23
ATOM     23  C   UNL A   1      39.546  21.790  26.142  1.00  0.00     0.188 C 
BRANCH  23  24
ATOM     24  O   UNL A   1      40.822  21.225  26.419  1.00  0.00    -0.376 OA
BRANCH  24  25
ATOM     25  C   UNL A   1      41.010  19.837  26.666  1.00  0.00     0.202 C 
BRANCH  25  26
ATOM     26  C   UNL A   1      42.307  19.108  26.315  1.00  0.00     0.261 C 
BRANCH  26  27
ATOM     27  O   UNL A   1      42.806  19.409  25.026  1.00  0.00    -0.460 OA
BRANCH  27  28
ATOM     28  C   UNL A   1      44.146  19.437  24.953  1.00  0.00     0.338 C 
ATOM     29  O   UNL A   1      44.915  18.481  25.017  1.00  0.00    -0.246 OA
BRANCH  28  30
ATOM     30  C   UNL A   1      44.595  20.822  24.802  1.00  0.00     0.060 A 
ATOM     31  C   UNL A   1      45.804  21.152  25.422  1.00  0.00     0.016 A 
ATOM     32  C   UNL A   1      43.701  21.798  24.338  1.00  0.00     0.016 A 
ATOM     33  C   UNL A   1      45.975  22.443  25.856  1.00  0.00     0.010 A 
ATOM     34  C   UNL A   1      43.864  23.085  24.785  1.00  0.00     0.010 A 
ATOM     35  C   UNL A   1      44.932  23.346  25.644  1.00  0.00    -0.014 A 
BRANCH  35  36
ATOM     36  C   UNL A   1      44.864  24.484  26.534  1.00  0.00     0.031 A 
ATOM     37  C   UNL A   1      46.013  25.398  26.520  1.00  0.00     0.074 A 
ATOM     38  C   UNL A   1      43.743  24.720  27.242  1.00  0.00     0.049 A 
ATOM     39  N   UNL A   1      46.787  25.712  27.504  1.00  0.00    -0.248 NA
ATOM     40  C   UNL A   1      46.388  25.986  25.227  1.00  0.00     0.031 C 
ATOM     41  C   UNL A   1      42.437  24.067  27.091  1.00  0.00     0.029 A 
ATOM     42  N   UNL A   1      43.501  25.699  28.154  1.00  0.00    -0.354 N 
ATOM     43  C   UNL A   1      47.657  26.666  26.997  1.00  0.00     0.074 A 
ATOM     44  C   UNL A   1      47.463  26.692  25.569  1.00  0.00     0.031 C 
ATOM     45  C   UNL A   1      41.496  24.824  27.699  1.00  0.00     0.029 A 
ATOM     46  C   UNL A   1      42.152  25.933  28.371  1.00  0.00     0.049 A 
ATOM     47  H   UNL A   1      44.215  26.195  28.616  1.00  0.00     0.167 HD
ATOM     48  C   UNL A   1      48.316  27.541  27.800  1.00  0.00     0.031 A 
ATOM     49  C   UNL A   1      41.612  27.019  28.971  1.00  0.00     0.031 A 
ATOM     50  C   UNL A   1      48.333  27.131  29.176  1.00  0.00     0.049 A 
ATOM     51  C   UNL A   1      42.680  27.703  29.735  1.00  0.00     0.074 A 
ATOM     52  C   UNL A   1      48.816  26.033  29.861  1.00  0.00     0.029 A 
ATOM     53  N   UNL A   1      47.477  27.769  30.040  1.00  0.00    -0.354 N 
ATOM     54  N   UNL A   1      43.225  27.221  30.815  1.00  0.00    -0.248 NA
ATOM     55  C   UNL A   1      43.435  28.761  29.080  1.00  0.00     0.031 C 
ATOM     56  C   UNL A   1      47.898  25.824  30.929  1.00  0.00     0.029 A 
ATOM     57  C   UNL A   1      46.915  26.811  30.843  1.00  0.00     0.049 A 
ATOM     58  H   UNL A   1      47.301  28.737  30.077  1.00  0.00     0.167 HD
ATOM     59  C   UNL A   1      44.558  27.602  30.743  1.00  0.00     0.074 A 
ATOM     60  C   UNL A   1      44.597  28.651  29.731  1.00  0.00     0.031 C 
ATOM     61  C   UNL A   1      45.542  26.835  31.300  1.00  0.00     0.031 A 
BRANCH  48  62
ATOM     62  C   UNL A   1      48.620  28.948  27.371  1.00  0.00    -0.014 A 
ATOM     63  C   UNL A   1      49.954  29.331  27.175  1.00  0.00     0.009 A 
ATOM     64  C   UNL A   1      47.655  29.975  27.402  1.00  0.00     0.009 A 
ATOM     65  C   UNL A   1      50.306  30.680  27.046  1.00  0.00     0.001 A 
ATOM     66  C   UNL A   1      47.996  31.316  27.226  1.00  0.00     0.001 A 
ATOM     67  C   UNL A   1      49.327  31.670  27.069  1.00  0.00     0.000 A 
ENDBRANCH  48  62
BRANCH  49  68
ATOM     68  C   UNL A   1      40.302  27.640  28.689  1.00  0.00    -0.014 A 
ATOM     69  C   UNL A   1      39.279  27.631  29.647  1.00  0.00     0.009 A 
ATOM     70  C   UNL A   1      40.128  28.453  27.551  1.00  0.00     0.009 A 
ATOM     71  C   UNL A   1      38.134  28.420  29.479  1.00  0.00     0.001 A 
ATOM     72  C   UNL A   1      38.982  29.232  27.378  1.00  0.00     0.001 A 
ATOM     73  C   UNL A   1      37.989  29.225  28.350  1.00  0.00     0.000 A 
ENDBRANCH  49  68
BRANCH  61  74
ATOM     74  C   UNL A   1      45.121  25.716  32.222  1.00  0.00    -0.014 A 
ATOM     75  C   UNL A   1      44.630  24.489  31.742  1.00  0.00     0.009 A 
ATOM     76  C   UNL A   1      45.366  25.843  33.597  1.00  0.00     0.009 A 
ATOM     77  C   UNL A   1      44.356  23.434  32.616  1.00  0.00     0.001 A 
ATOM     78  C   UNL A   1      45.112  24.780  34.468  1.00  0.00     0.001 A 
ATOM     79  C   UNL A   1      44.601  23.580  33.980  1.00  0.00     0.000 A 
ENDBRANCH  61  74
ENDBRANCH  35  36
ENDBRANCH  28  30
ENDBRANCH  27  28
ENDBRANCH  26  27
ENDBRANCH  25  26
ENDBRANCH  24  25
ENDBRANCH  23  24
ENDBRANCH   1  23
TORSDOF 19
ENDMDL
MODEL 3
REMARK VINA RESULT:     -10.5      3.819      6.067
REMARK SMILES CC(=O)c1nnn(-c2ccc(C(=O)OCCOCCOCCOC(=O)c3ccc(-c4c5nc(c(-c6ccccc6)c6ccc([nH]6)c(-c6ccccc6)c6nc(c(-c7ccccc7)c7ccc4[nH]7)C=C6)C=C5)cc3)cc2)c1C
REMARK SMILES IDX 18 1 17 2 16 3 15 4 14 5 12 6 13 7 11 8 8 9 9 10 75 11 10 12
REMARK SMILES IDX 74 13 7 14 4 15 5 16 76 17 6 18 77 19 2 20 1 21 3 22 19 23
REMARK SMILES IDX 20 24 21 25 22 26 23 27 24 28 25 29 26 30 27 31 73 32 28 33
REMARK SMILES IDX 72 34 29 35 30 36 31 37 66 38 32 39 71 40 65 41 67 42 33 43
REMARK SMILES IDX 70 44 64 45 63 46 34 48 56 49 41 50 55 51 42 52 45 53 54 54
REMARK SMILES IDX 68 55 43 56 44 57 53 59 69 60 46 61 35 62 36 63 40 64 37 65
REMARK SMILES IDX 39 66 38 67 57 68 58 69 62 70 59 71 61 72 60 73 47 74 48 75
REMARK SMILES IDX 52 76 49 77 51 78 50 79
REMARK H PARENT 67 47 45 58
REMARK Flexibility Score: inf
ROOT
ATOM      1  C   UNL A   1      33.236  31.720  27.559  1.00  0.00     0.188 C 
ENDROOT
BRANCH   1   2
ATOM      2  O   UNL A   1      33.479  30.689  26.631  1.00  0.00    -0.376 OA
BRANCH   2   3
ATOM      3  C   UNL A   1      32.789  29.454  26.751  1.00  0.00     0.202 C 
BRANCH   3   4
ATOM      4  C   UNL A   1      33.468  28.068  26.844  1.00  0.00     0.261 C 
BRANCH   4   5
ATOM      5  O   UNL A   1      33.064  27.064  25.913  1.00  0.00    -0.460 OA
BRANCH   5   6
ATOM      6  C   UNL A   1      32.114  26.201  26.336  1.00  0.00     0.338 C 
ATOM      7  O   UNL A   1      31.008  26.486  26.776  1.00  0.00    -0.246 OA
BRANCH   6   8
ATOM      8  C   UNL A   1      32.532  24.815  26.038  1.00  0.00     0.060 A 
ATOM      9  C   UNL A   1      33.130  22.188  25.366  1.00  0.00     0.067 A 
ATOM     10  C   UNL A   1      33.149  23.165  24.366  1.00  0.00     0.029 A 
ATOM     11  C   UNL A   1      32.953  22.539  26.711  1.00  0.00     0.029 A 
ATOM     12  C   UNL A   1      32.815  24.477  24.705  1.00  0.00     0.018 A 
ATOM     13  C   UNL A   1      32.659  23.858  27.051  1.00  0.00     0.018 A 
BRANCH   9  14
ATOM     14  N   UNL A   1      33.106  20.829  24.987  1.00  0.00    -0.217 N 
ATOM     15  C   UNL A   1      33.656  18.761  24.561  1.00  0.00     0.151 A 
ATOM     16  N   UNL A   1      32.293  18.848  24.682  1.00  0.00    -0.126 NA
ATOM     17  C   UNL A   1      34.211  20.014  24.772  1.00  0.00     0.073 A 
ATOM     18  N   UNL A   1      31.984  20.084  25.047  1.00  0.00    -0.061 NA
ATOM     19  C   UNL A   1      35.610  20.486  24.896  1.00  0.00     0.069 C 
BRANCH  15  20
ATOM     20  C   UNL A   1      34.323  17.487  24.330  1.00  0.00     0.181 C 
ATOM     21  C   UNL A   1      34.121  16.815  22.993  1.00  0.00     0.095 C 
ATOM     22  O   UNL A   1      35.054  16.977  25.179  1.00  0.00    -0.293 OA
ENDBRANCH  15  20
ENDBRANCH   9  14
ENDBRANCH   6   8
ENDBRANCH   5   6
ENDBRANCH   4   5
ENDBRANCH   3   4
ENDBRANCH   2   3
ENDBRANCH   1   2
BRANCH   1  23
ATOM     23  C   UNL A   1      34.369  31.941  28.585  1.00  0.00     0.188 C 
BRANCH  23  24
ATOM     24  O   UNL A   1      34.678  33.226  29.111  1.00  0.00    -0.376 OA
BRANCH  24  25
ATOM     25  C   UNL A   1      34.082  34.420  28.620  1.00  0.00     0.202 C 
BRANCH  25  26
ATOM     26  C   UNL A   1      33.235  35.340  29.501  1.00  0.00     0.261 C 
BRANCH  26  27
ATOM     27  O   UNL A   1      33.848  35.686  30.728  1.00  0.00    -0.460 OA
BRANCH  27  28
ATOM     28  C   UNL A   1      33.257  35.145  31.805  1.00  0.00     0.338 C 
ATOM     29  O   UNL A   1      32.064  35.185  32.097  1.00  0.00    -0.246 OA
BRANCH  28  30
ATOM     30  C   UNL A   1      34.268  34.493  32.637  1.00  0.00     0.060 A 
ATOM     31  C   UNL A   1      35.325  35.297  33.072  1.00  0.00     0.016 A 
ATOM     32  C   UNL A   1      34.314  33.093  32.709  1.00  0.00     0.016 A 
ATOM     33  C   UNL A   1      36.543  34.701  33.287  1.00  0.00     0.010 A 
ATOM     34  C   UNL A   1      35.535  32.498  32.908  1.00  0.00     0.010 A 
ATOM     35  C   UNL A   1      36.645  33.328  33.064  1.00  0.00    -0.014 A 
BRANCH  35  36
ATOM     36  C   UNL A   1      37.962  32.813  32.756  1.00  0.00     0.031 A 
ATOM     37  C   UNL A   1      38.932  32.791  33.859  1.00  0.00     0.074 A 
ATOM     38  C   UNL A   1      38.215  32.289  31.542  1.00  0.00     0.049 A 
ATOM     39  N   UNL A   1      40.075  33.387  33.920  1.00  0.00    -0.248 NA
ATOM     40  C   UNL A   1      38.547  32.066  35.077  1.00  0.00     0.031 C 
ATOM     41  C   UNL A   1      37.245  31.968  30.488  1.00  0.00     0.029 A 
ATOM     42  N   UNL A   1      39.385  31.801  31.050  1.00  0.00    -0.354 N 
ATOM     43  C   UNL A   1      40.635  32.984  35.123  1.00  0.00     0.074 A 
ATOM     44  C   UNL A   1      39.603  32.294  35.855  1.00  0.00     0.031 C 
ATOM     45  C   UNL A   1      37.823  31.128  29.601  1.00  0.00     0.029 A 
ATOM     46  C   UNL A   1      39.221  30.957  29.964  1.00  0.00     0.049 A 
ATOM     47  H   UNL A   1      40.265  32.026  31.430  1.00  0.00     0.167 HD
ATOM     48  C   UNL A   1      41.973  33.036  35.349  1.00  0.00     0.031 A 
ATOM     49  C   UNL A   1      40.142  30.101  29.466  1.00  0.00     0.031 A 
ATOM     50  C   UNL A   1      42.664  33.885  34.419  1.00  0.00     0.049 A 
ATOM     51  C   UNL A   1      41.472  30.506  29.975  1.00  0.00     0.074 A 
ATOM     52  C   UNL A   1      42.598  35.224  34.088  1.00  0.00     0.029 A 
ATOM     53  N   UNL A   1      43.372  33.281  33.410  1.00  0.00    -0.354 N 
ATOM     54  N   UNL A   1      42.094  31.589  29.604  1.00  0.00    -0.248 NA
ATOM     55  C   UNL A   1      41.957  29.905  31.208  1.00  0.00     0.031 C 
ATOM     56  C   UNL A   1      42.884  35.281  32.694  1.00  0.00     0.029 A 
ATOM     57  C   UNL A   1      43.119  33.976  32.257  1.00  0.00     0.049 A 
ATOM     58  H   UNL A   1      43.956  32.493  33.500  1.00  0.00     0.167 HD
ATOM     59  C   UNL A   1      42.746  32.034  30.746  1.00  0.00     0.074 A 
ATOM     60  C   UNL A   1      42.734  30.896  31.657  1.00  0.00     0.031 C 
ATOM     61  C   UNL A   1      42.976  33.365  30.952  1.00  0.00     0.031 A 
BRANCH  48  62
ATOM     62  C   UNL A   1      42.683  32.016  36.193  1.00  0.00    -0.014 A 
ATOM     63  C   UNL A   1      43.351  32.433  37.353  1.00  0.00     0.009 A 
ATOM     64  C   UNL A   1      42.928  30.701  35.748  1.00  0.00     0.009 A 
ATOM     65  C   UNL A   1      44.245  31.583  38.016  1.00  0.00     0.001 A 
ATOM     66  C   UNL A   1      43.780  29.835  36.433  1.00  0.00     0.001 A 
ATOM     67  C   UNL A   1      44.456  30.285  37.557  1.00  0.00     0.000 A 
ENDBRANCH  48  62
BRANCH  49  68
ATOM     68  C   UNL A   1      39.896  28.801  28.810  1.00  0.00    -0.014 A 
ATOM     69  C   UNL A   1      40.405  28.530  27.533  1.00  0.00     0.009 A 
ATOM     70  C   UNL A   1      39.345  27.727  29.538  1.00  0.00     0.009 A 
ATOM     71  C   UNL A   1      40.381  27.229  27.014  1.00  0.00     0.001 A 
ATOM     72  C   UNL A   1      39.312  26.432  29.017  1.00  0.00     0.001 A 
ATOM     73  C   UNL A   1      39.842  26.180  27.758  1.00  0.00     0.000 A 
ENDBRANCH  49  68
BRANCH  61  74
ATOM     74  C   UNL A   1      42.751  34.304  29.792  1.00  0.00    -0.014 A 
ATOM     75  C   UNL A   1      41.491  34.863  29.509  1.00  0.00     0.009 A 
ATOM     76  C   UNL A   1      43.858  34.755  29.059  1.00  0.00     0.009 A 
ATOM     77  C   UNL A   1      41.339  35.815  28.498  1.00  0.00     0.001 A 
ATOM     78  C   UNL A   1      43.709  35.723  28.063  1.00  0.00     0.001 A 
ATOM     79  C   UNL A   1      42.450  36.248  27.778  1.00  0.00     0.000 A 
ENDBRANCH  61  74
ENDBRANCH  35  36
ENDBRANCH  28  30
ENDBRANCH  27  28
ENDBRANCH  26  27
ENDBRANCH  25  26
ENDBRANCH  24  25
ENDBRANCH  23  24
ENDBRANCH   1  23
TORSDOF 19
ENDMDL
