MODEL 1
REMARK VINA RESULT:      -9.0      0.000      0.000
REMARK SMILES C#CCN(CC(=O)OCCOCCOCCOC(=O)c1ccc(-c2c3nc(c(-c4ccccc4)c4ccc([nH]4)c(-c4ccccc4)c4nc(c(-c5ccccc5)c5ccc2[nH]5)C=C4)C=C3)cc1)C(=O)N(C)[C@H](C)c1cccs1
REMARK SMILES IDX 11 1 10 2 9 3 8 4 6 5 7 6 5 7 4 8 3 9 2 10 1 11 68 12 69 13
REMARK SMILES IDX 70 14 71 15 72 16 73 17 74 18 75 19 78 20 76 21 77 22 12 23
REMARK SMILES IDX 13 24 14 25 15 26 16 27 17 28 18 29 19 30 20 31 21 32 67 33
REMARK SMILES IDX 22 34 66 35 23 36 24 37 25 38 60 39 26 40 65 41 59 42 61 43
REMARK SMILES IDX 27 44 64 45 58 46 57 47 28 49 50 50 35 51 49 52 36 53 39 54
REMARK SMILES IDX 48 55 62 56 37 57 38 58 47 60 63 61 40 62 29 63 30 64 34 65
REMARK SMILES IDX 31 66 33 67 32 68 51 69 52 70 56 71 53 72 55 73 54 74 41 75
REMARK SMILES IDX 42 76 46 77 43 78 45 79 44 80
REMARK H PARENT 61 48 39 59
REMARK Flexibility Score: inf
ROOT
ATOM      1  O   UNL A   1      34.130  31.612  27.531  1.00  0.00    -0.376 OA
ENDROOT
BRANCH   1   2
ATOM      2  C   UNL A   1      32.862  30.998  27.316  1.00  0.00     0.202 C 
BRANCH   2   3
ATOM      3  C   UNL A   1      32.687  30.371  25.929  1.00  0.00     0.261 C 
BRANCH   3   4
ATOM      4  O   UNL A   1      32.367  28.962  25.999  1.00  0.00    -0.462 OA
BRANCH   4   5
ATOM      5  C   UNL A   1      33.339  28.116  25.575  1.00  0.00     0.325 C 
ATOM      6  O   UNL A   1      33.983  27.374  26.313  1.00  0.00    -0.250 OA
BRANCH   5   7
ATOM      7  C   UNL A   1      33.437  27.988  24.049  1.00  0.00     0.245 C 
BRANCH   7   8
ATOM      8  N   UNL A   1      32.684  26.979  23.293  1.00  0.00    -0.302 N 
BRANCH   8   9
ATOM      9  C   UNL A   1      31.230  27.035  23.367  1.00  0.00     0.211 C 
BRANCH   9  10
ATOM     10  C   UNL A   1      30.762  28.335  22.732  1.00  0.00    -0.085 C 
ATOM     11  C   UNL A   1      30.361  29.449  22.187  1.00  0.00     0.006 C 
ENDBRANCH   9  10
ENDBRANCH   8   9
BRANCH   8  12
ATOM     12  C   UNL A   1      33.191  25.864  22.646  1.00  0.00     0.321 C 
ATOM     13  O   UNL A   1      33.654  26.004  21.517  1.00  0.00    -0.248 OA
BRANCH  12  14
ATOM     14  N   UNL A   1      33.305  24.687  23.387  1.00  0.00    -0.320 N 
ATOM     15  C   UNL A   1      32.820  24.608  24.758  1.00  0.00     0.149 C 
BRANCH  14  16
ATOM     16  C   UNL A   1      33.868  23.414  22.829  1.00  0.00     0.124 C 
ATOM     17  C   UNL A   1      32.776  22.365  22.519  1.00  0.00     0.037 C 
BRANCH  16  18
ATOM     18  C   UNL A   1      34.989  22.730  23.588  1.00  0.00     0.027 A 
ATOM     19  C   UNL A   1      36.348  22.846  23.347  1.00  0.00     0.017 A 
ATOM     20  S   UNL A   1      34.689  21.536  24.794  1.00  0.00    -0.147 S 
ATOM     21  C   UNL A   1      37.136  22.013  24.190  1.00  0.00     0.012 A 
ATOM     22  C   UNL A   1      36.358  21.267  25.043  1.00  0.00     0.065 A 
ENDBRANCH  16  18
ENDBRANCH  14  16
ENDBRANCH  12  14
ENDBRANCH   8  12
ENDBRANCH   7   8
ENDBRANCH   5   7
ENDBRANCH   4   5
ENDBRANCH   3   4
ENDBRANCH   2   3
ENDBRANCH   1   2
BRANCH   1  23
ATOM     23  C   UNL A   1      34.503  31.897  28.880  1.00  0.00     0.188 C 
BRANCH  23  24
ATOM     24  C   UNL A   1      34.639  33.366  29.299  1.00  0.00     0.188 C 
BRANCH  24  25
ATOM     25  O   UNL A   1      33.574  34.159  28.782  1.00  0.00    -0.376 OA
BRANCH  25  26
ATOM     26  C   UNL A   1      33.861  35.557  28.800  1.00  0.00     0.202 C 
BRANCH  26  27
ATOM     27  C   UNL A   1      32.740  36.262  29.552  1.00  0.00     0.261 C 
BRANCH  27  28
ATOM     28  O   UNL A   1      33.219  36.729  30.829  1.00  0.00    -0.460 OA
BRANCH  28  29
ATOM     29  C   UNL A   1      32.745  36.064  31.901  1.00  0.00     0.338 C 
ATOM     30  O   UNL A   1      31.616  36.103  32.359  1.00  0.00    -0.246 OA
BRANCH  29  31
ATOM     31  C   UNL A   1      33.826  35.276  32.513  1.00  0.00     0.060 A 
ATOM     32  C   UNL A   1      35.157  35.703  32.475  1.00  0.00     0.016 A 
ATOM     33  C   UNL A   1      33.500  34.027  33.036  1.00  0.00     0.016 A 
ATOM     34  C   UNL A   1      36.175  34.843  32.901  1.00  0.00     0.010 A 
ATOM     35  C   UNL A   1      34.511  33.195  33.512  1.00  0.00     0.010 A 
ATOM     36  C   UNL A   1      35.859  33.582  33.420  1.00  0.00    -0.014 A 
BRANCH  36  37
ATOM     37  C   UNL A   1      36.892  32.611  33.859  1.00  0.00     0.031 A 
ATOM     38  C   UNL A   1      37.605  32.834  35.161  1.00  0.00     0.074 A 
ATOM     39  C   UNL A   1      37.267  31.596  33.061  1.00  0.00     0.049 A 
ATOM     40  N   UNL A   1      38.771  32.394  35.551  1.00  0.00    -0.248 NA
ATOM     41  C   UNL A   1      36.906  33.669  36.152  1.00  0.00     0.031 C 
ATOM     42  C   UNL A   1      36.599  31.190  31.825  1.00  0.00     0.029 A 
ATOM     43  N   UNL A   1      38.345  30.750  33.157  1.00  0.00    -0.354 N 
ATOM     44  C   UNL A   1      38.974  32.941  36.813  1.00  0.00     0.074 A 
ATOM     45  C   UNL A   1      37.798  33.723  37.131  1.00  0.00     0.031 C 
ATOM     46  C   UNL A   1      37.298  30.193  31.261  1.00  0.00     0.029 A 
ATOM     47  C   UNL A   1      38.511  29.966  32.041  1.00  0.00     0.049 A 
ATOM     48  H   UNL A   1      38.936  30.709  33.943  1.00  0.00     0.167 HD
ATOM     49  C   UNL A   1      40.059  32.820  37.613  1.00  0.00     0.031 A 
ATOM     50  C   UNL A   1      39.561  29.226  31.638  1.00  0.00     0.031 A 
ATOM     51  C   UNL A   1      41.226  32.048  37.276  1.00  0.00     0.049 A 
ATOM     52  C   UNL A   1      40.812  29.206  32.469  1.00  0.00     0.074 A 
ATOM     53  C   UNL A   1      42.399  31.893  37.993  1.00  0.00     0.029 A 
ATOM     54  N   UNL A   1      41.361  31.300  36.118  1.00  0.00    -0.354 N 
ATOM     55  N   UNL A   1      41.050  29.802  33.613  1.00  0.00    -0.248 NA
ATOM     56  C   UNL A   1      41.947  28.438  31.940  1.00  0.00     0.031 C 
ATOM     57  C   UNL A   1      43.261  31.080  37.248  1.00  0.00     0.029 A 
ATOM     58  C   UNL A   1      42.604  30.694  36.090  1.00  0.00     0.049 A 
ATOM     59  H   UNL A   1      40.674  31.211  35.418  1.00  0.00     0.167 HD
ATOM     60  C   UNL A   1      42.357  29.472  33.946  1.00  0.00     0.074 A 
ATOM     61  C   UNL A   1      42.858  28.616  32.889  1.00  0.00     0.031 C 
ATOM     62  C   UNL A   1      43.079  29.844  35.030  1.00  0.00     0.031 A 
BRANCH  49  63
ATOM     63  C   UNL A   1      40.065  33.601  38.896  1.00  0.00    -0.014 A 
ATOM     64  C   UNL A   1      39.600  33.044  40.096  1.00  0.00     0.009 A 
ATOM     65  C   UNL A   1      40.574  34.910  38.902  1.00  0.00     0.009 A 
ATOM     66  C   UNL A   1      39.624  33.796  41.275  1.00  0.00     0.001 A 
ATOM     67  C   UNL A   1      40.614  35.649  40.085  1.00  0.00     0.001 A 
ATOM     68  C   UNL A   1      40.133  35.093  41.269  1.00  0.00     0.000 A 
ENDBRANCH  49  63
BRANCH  50  69
ATOM     69  C   UNL A   1      39.501  28.532  30.326  1.00  0.00    -0.014 A 
ATOM     70  C   UNL A   1      39.865  29.198  29.148  1.00  0.00     0.009 A 
ATOM     71  C   UNL A   1      39.118  27.181  30.254  1.00  0.00     0.009 A 
ATOM     72  C   UNL A   1      39.850  28.523  27.924  1.00  0.00     0.001 A 
ATOM     73  C   UNL A   1      39.131  26.503  29.034  1.00  0.00     0.001 A 
ATOM     74  C   UNL A   1      39.493  27.176  27.870  1.00  0.00     0.000 A 
ENDBRANCH  50  69
BRANCH  62  75
ATOM     75  C   UNL A   1      44.470  29.296  35.150  1.00  0.00    -0.014 A 
ATOM     76  C   UNL A   1      44.711  28.059  35.764  1.00  0.00     0.009 A 
ATOM     77  C   UNL A   1      45.545  30.004  34.589  1.00  0.00     0.009 A 
ATOM     78  C   UNL A   1      46.010  27.548  35.830  1.00  0.00     0.001 A 
ATOM     79  C   UNL A   1      46.837  29.483  34.641  1.00  0.00     0.001 A 
ATOM     80  C   UNL A   1      47.070  28.258  35.265  1.00  0.00     0.000 A 
ENDBRANCH  62  75
ENDBRANCH  36  37
ENDBRANCH  29  31
ENDBRANCH  28  29
ENDBRANCH  27  28
ENDBRANCH  26  27
ENDBRANCH  25  26
ENDBRANCH  24  25
ENDBRANCH  23  24
ENDBRANCH   1  23
TORSDOF 24
ENDMDL
MODEL 2
REMARK VINA RESULT:      -8.4      5.329      7.662
REMARK SMILES C#CCN(CC(=O)OCCOCCOCCOC(=O)c1ccc(-c2c3nc(c(-c4ccccc4)c4ccc([nH]4)c(-c4ccccc4)c4nc(c(-c5ccccc5)c5ccc2[nH]5)C=C4)C=C3)cc1)C(=O)N(C)[C@H](C)c1cccs1
REMARK SMILES IDX 11 1 10 2 9 3 8 4 6 5 7 6 5 7 4 8 3 9 2 10 1 11 68 12 69 13
REMARK SMILES IDX 70 14 71 15 72 16 73 17 74 18 75 19 78 20 76 21 77 22 12 23
REMARK SMILES IDX 13 24 14 25 15 26 16 27 17 28 18 29 19 30 20 31 21 32 67 33
REMARK SMILES IDX 22 34 66 35 23 36 24 37 25 38 60 39 26 40 65 41 59 42 61 43
REMARK SMILES IDX 27 44 64 45 58 46 57 47 28 49 50 50 35 51 49 52 36 53 39 54
REMARK SMILES IDX 48 55 62 56 37 57 38 58 47 60 63 61 40 62 29 63 30 64 34 65
REMARK SMILES IDX 31 66 33 67 32 68 51 69 52 70 56 71 53 72 55 73 54 74 41 75
REMARK SMILES IDX 42 76 46 77 43 78 45 79 44 80
REMARK H PARENT 61 48 39 59
REMARK Flexibility Score: inf
ROOT
ATOM      1  O   UNL A   1      31.030  29.208  22.650  1.00  0.00    -0.376 OA
ENDROOT
BRANCH   1   2
ATOM      2  C   UNL A   1      31.689  28.099  22.045  1.00  0.00     0.202 C 
BRANCH   2   3
ATOM      3  C   UNL A   1      32.080  26.984  23.019  1.00  0.00     0.261 C 
BRANCH   3   4
ATOM      4  O   UNL A   1      31.518  25.705  22.644  1.00  0.00    -0.462 OA
BRANCH   4   5
ATOM      5  C   UNL A   1      30.654  25.157  23.536  1.00  0.00     0.325 C 
ATOM      6  O   UNL A   1      29.657  25.725  23.975  1.00  0.00    -0.250 OA
BRANCH   5   7
ATOM      7  C   UNL A   1      30.895  23.666  23.806  1.00  0.00     0.245 C 
BRANCH   7   8
ATOM      8  N   UNL A   1      31.605  23.187  25.000  1.00  0.00    -0.302 N 
BRANCH   8   9
ATOM      9  C   UNL A   1      31.064  22.013  25.673  1.00  0.00     0.211 C 
BRANCH   9  10
ATOM     10  C   UNL A   1      29.981  22.463  26.638  1.00  0.00    -0.085 C 
ATOM     11  C   UNL A   1      29.051  22.850  27.468  1.00  0.00     0.006 C 
ENDBRANCH   9  10
ENDBRANCH   8   9
BRANCH   8  12
ATOM     12  C   UNL A   1      32.640  23.817  25.671  1.00  0.00     0.321 C 
ATOM     13  O   UNL A   1      32.481  24.983  26.025  1.00  0.00    -0.248 OA
BRANCH  12  14
ATOM     14  N   UNL A   1      33.728  23.033  26.058  1.00  0.00    -0.320 N 
ATOM     15  C   UNL A   1      33.897  22.606  27.439  1.00  0.00     0.149 C 
BRANCH  14  16
ATOM     16  C   UNL A   1      34.758  22.525  25.095  1.00  0.00     0.124 C 
ATOM     17  C   UNL A   1      34.503  21.063  24.665  1.00  0.00     0.037 C 
BRANCH  16  18
ATOM     18  C   UNL A   1      36.222  22.666  25.468  1.00  0.00     0.027 A 
ATOM     19  C   UNL A   1      36.882  23.831  25.819  1.00  0.00     0.017 A 
ATOM     20  S   UNL A   1      37.336  21.358  25.331  1.00  0.00    -0.147 S 
ATOM     21  C   UNL A   1      38.275  23.638  26.039  1.00  0.00     0.012 A 
ATOM     22  C   UNL A   1      38.649  22.331  25.833  1.00  0.00     0.065 A 
ENDBRANCH  16  18
ENDBRANCH  14  16
ENDBRANCH  12  14
ENDBRANCH   8  12
ENDBRANCH   7   8
ENDBRANCH   5   7
ENDBRANCH   4   5
ENDBRANCH   3   4
ENDBRANCH   2   3
ENDBRANCH   1   2
BRANCH   1  23
ATOM     23  C   UNL A   1      30.674  29.090  24.028  1.00  0.00     0.188 C 
BRANCH  23  24
ATOM     24  C   UNL A   1      31.352  30.026  25.035  1.00  0.00     0.188 C 
BRANCH  24  25
ATOM     25  O   UNL A   1      31.674  29.346  26.246  1.00  0.00    -0.376 OA
BRANCH  25  26
ATOM     26  C   UNL A   1      32.264  30.201  27.225  1.00  0.00     0.202 C 
BRANCH  26  27
ATOM     27  C   UNL A   1      33.715  30.442  26.832  1.00  0.00     0.261 C 
BRANCH  27  28
ATOM     28  O   UNL A   1      34.597  29.780  27.761  1.00  0.00    -0.460 OA
BRANCH  28  29
ATOM     29  C   UNL A   1      35.492  30.579  28.374  1.00  0.00     0.338 C 
ATOM     30  O   UNL A   1      35.342  31.740  28.712  1.00  0.00    -0.246 OA
BRANCH  29  31
ATOM     31  C   UNL A   1      36.759  29.853  28.558  1.00  0.00     0.060 A 
ATOM     32  C   UNL A   1      37.100  29.271  29.783  1.00  0.00     0.016 A 
ATOM     33  C   UNL A   1      37.666  29.858  27.502  1.00  0.00     0.016 A 
ATOM     34  C   UNL A   1      38.385  28.753  29.972  1.00  0.00     0.010 A 
ATOM     35  C   UNL A   1      38.927  29.291  27.675  1.00  0.00     0.010 A 
ATOM     36  C   UNL A   1      39.309  28.762  28.920  1.00  0.00    -0.014 A 
BRANCH  36  37
ATOM     37  C   UNL A   1      40.697  28.258  29.063  1.00  0.00     0.031 A 
ATOM     38  C   UNL A   1      41.803  29.227  29.366  1.00  0.00     0.074 A 
ATOM     39  C   UNL A   1      40.991  26.967  28.826  1.00  0.00     0.049 A 
ATOM     40  N   UNL A   1      43.085  29.116  29.139  1.00  0.00    -0.248 NA
ATOM     41  C   UNL A   1      41.405  30.491  30.006  1.00  0.00     0.031 C 
ATOM     42  C   UNL A   1      40.018  25.894  28.628  1.00  0.00     0.029 A 
ATOM     43  N   UNL A   1      42.209  26.355  28.662  1.00  0.00    -0.354 N 
ATOM     44  C   UNL A   1      43.644  30.317  29.560  1.00  0.00     0.074 A 
ATOM     45  C   UNL A   1      42.564  31.130  30.078  1.00  0.00     0.031 C 
ATOM     46  C   UNL A   1      40.675  24.760  28.340  1.00  0.00     0.029 A 
ATOM     47  C   UNL A   1      42.101  25.055  28.232  1.00  0.00     0.049 A 
ATOM     48  H   UNL A   1      43.069  26.801  28.835  1.00  0.00     0.167 HD
ATOM     49  C   UNL A   1      44.938  30.709  29.488  1.00  0.00     0.031 A 
ATOM     50  C   UNL A   1      43.025  24.223  27.713  1.00  0.00     0.031 A 
ATOM     51  C   UNL A   1      45.998  29.893  28.959  1.00  0.00     0.049 A 
ATOM     52  C   UNL A   1      44.430  24.715  27.514  1.00  0.00     0.074 A 
ATOM     53  C   UNL A   1      47.336  30.207  28.799  1.00  0.00     0.029 A 
ATOM     54  N   UNL A   1      45.832  28.595  28.502  1.00  0.00    -0.354 N 
ATOM     55  N   UNL A   1      44.945  25.883  27.814  1.00  0.00    -0.248 NA
ATOM     56  C   UNL A   1      45.373  23.784  26.878  1.00  0.00     0.031 C 
ATOM     57  C   UNL A   1      47.973  29.109  28.208  1.00  0.00     0.029 A 
ATOM     58  C   UNL A   1      47.039  28.099  28.044  1.00  0.00     0.049 A 
ATOM     59  H   UNL A   1      44.982  28.099  28.505  1.00  0.00     0.167 HD
ATOM     60  C   UNL A   1      46.273  25.825  27.414  1.00  0.00     0.074 A 
ATOM     61  C   UNL A   1      46.488  24.504  26.859  1.00  0.00     0.031 C 
ATOM     62  C   UNL A   1      47.230  26.781  27.499  1.00  0.00     0.031 A 
BRANCH  49  63
ATOM     63  C   UNL A   1      45.263  32.108  29.926  1.00  0.00    -0.014 A 
ATOM     64  C   UNL A   1      45.650  32.395  31.242  1.00  0.00     0.009 A 
ATOM     65  C   UNL A   1      45.208  33.152  28.988  1.00  0.00     0.009 A 
ATOM     66  C   UNL A   1      45.952  33.708  31.616  1.00  0.00     0.001 A 
ATOM     67  C   UNL A   1      45.530  34.458  29.360  1.00  0.00     0.001 A 
ATOM     68  C   UNL A   1      45.895  34.735  30.676  1.00  0.00     0.000 A 
ENDBRANCH  49  63
BRANCH  50  69
ATOM     69  C   UNL A   1      42.610  22.875  27.248  1.00  0.00    -0.014 A 
ATOM     70  C   UNL A   1      42.570  22.573  25.880  1.00  0.00     0.009 A 
ATOM     71  C   UNL A   1      42.293  21.870  28.177  1.00  0.00     0.009 A 
ATOM     72  C   UNL A   1      42.223  21.288  25.452  1.00  0.00     0.001 A 
ATOM     73  C   UNL A   1      41.975  20.581  27.747  1.00  0.00     0.001 A 
ATOM     74  C   UNL A   1      41.937  20.292  26.386  1.00  0.00     0.000 A 
ENDBRANCH  50  69
BRANCH  62  75
ATOM     75  C   UNL A   1      48.605  26.419  27.019  1.00  0.00    -0.014 A 
ATOM     76  C   UNL A   1      49.509  25.746  27.852  1.00  0.00     0.009 A 
ATOM     77  C   UNL A   1      48.976  26.710  25.697  1.00  0.00     0.009 A 
ATOM     78  C   UNL A   1      50.770  25.384  27.372  1.00  0.00     0.001 A 
ATOM     79  C   UNL A   1      50.228  26.331  25.216  1.00  0.00     0.001 A 
ATOM     80  C   UNL A   1      51.127  25.673  26.055  1.00  0.00     0.000 A 
ENDBRANCH  62  75
ENDBRANCH  36  37
ENDBRANCH  29  31
ENDBRANCH  28  29
ENDBRANCH  27  28
ENDBRANCH  26  27
ENDBRANCH  25  26
ENDBRANCH  24  25
ENDBRANCH  23  24
ENDBRANCH   1  23
TORSDOF 24
ENDMDL
MODEL 3
REMARK VINA RESULT:      -8.4      4.080      9.356
REMARK SMILES C#CCN(CC(=O)OCCOCCOCCOC(=O)c1ccc(-c2c3nc(c(-c4ccccc4)c4ccc([nH]4)c(-c4ccccc4)c4nc(c(-c5ccccc5)c5ccc2[nH]5)C=C4)C=C3)cc1)C(=O)N(C)[C@H](C)c1cccs1
REMARK SMILES IDX 11 1 10 2 9 3 8 4 6 5 7 6 5 7 4 8 3 9 2 10 1 11 68 12 69 13
REMARK SMILES IDX 70 14 71 15 72 16 73 17 74 18 75 19 78 20 76 21 77 22 12 23
REMARK SMILES IDX 13 24 14 25 15 26 16 27 17 28 18 29 19 30 20 31 21 32 67 33
REMARK SMILES IDX 22 34 66 35 23 36 24 37 25 38 60 39 26 40 65 41 59 42 61 43
REMARK SMILES IDX 27 44 64 45 58 46 57 47 28 49 50 50 35 51 49 52 36 53 39 54
REMARK SMILES IDX 48 55 62 56 37 57 38 58 47 60 63 61 40 62 29 63 30 64 34 65
REMARK SMILES IDX 31 66 33 67 32 68 51 69 52 70 56 71 53 72 55 73 54 74 41 75
REMARK SMILES IDX 42 76 46 77 43 78 45 79 44 80
REMARK H PARENT 61 48 39 59
REMARK Flexibility Score: inf
ROOT
ATOM      1  O   UNL A   1      39.834  20.844  25.791  1.00  0.00    -0.376 OA
ENDROOT
BRANCH   1   2
ATOM      2  C   UNL A   1      38.892  21.883  26.047  1.00  0.00     0.202 C 
BRANCH   2   3
ATOM      3  C   UNL A   1      37.625  21.816  25.189  1.00  0.00     0.261 C 
BRANCH   3   4
ATOM      4  O   UNL A   1      36.776  22.973  25.372  1.00  0.00    -0.462 OA
BRANCH   4   5
ATOM      5  C   UNL A   1      35.490  22.832  24.963  1.00  0.00     0.325 C 
ATOM      6  O   UNL A   1      34.825  21.810  25.109  1.00  0.00    -0.250 OA
BRANCH   5   7
ATOM      7  C   UNL A   1      34.839  24.135  24.483  1.00  0.00     0.245 C 
BRANCH   7   8
ATOM      8  N   UNL A   1      33.524  24.163  23.828  1.00  0.00    -0.302 N 
BRANCH   8   9
ATOM      9  C   UNL A   1      33.495  24.446  22.399  1.00  0.00     0.211 C 
BRANCH   9  10
ATOM     10  C   UNL A   1      33.565  25.951  22.200  1.00  0.00    -0.085 C 
ATOM     11  C   UNL A   1      33.624  27.243  22.030  1.00  0.00     0.006 C 
ENDBRANCH   9  10
ENDBRANCH   8   9
BRANCH   8  12
ATOM     12  C   UNL A   1      32.281  24.121  24.438  1.00  0.00     0.321 C 
ATOM     13  O   UNL A   1      31.512  23.213  24.133  1.00  0.00    -0.248 OA
BRANCH  12  14
ATOM     14  N   UNL A   1      32.051  25.008  25.491  1.00  0.00    -0.320 N 
ATOM     15  C   UNL A   1      31.666  24.530  26.811  1.00  0.00     0.149 C 
BRANCH  14  16
ATOM     16  C   UNL A   1      32.235  26.491  25.371  1.00  0.00     0.124 C 
ATOM     17  C   UNL A   1      32.448  27.177  26.739  1.00  0.00     0.037 C 
BRANCH  16  18
ATOM     18  C   UNL A   1      31.201  27.283  24.593  1.00  0.00     0.027 A 
ATOM     19  C   UNL A   1      30.219  26.775  23.759  1.00  0.00     0.017 A 
ATOM     20  S   UNL A   1      31.230  29.005  24.515  1.00  0.00    -0.147 S 
ATOM     21  C   UNL A   1      29.456  27.790  23.115  1.00  0.00     0.012 A 
ATOM     22  C   UNL A   1      29.885  29.049  23.460  1.00  0.00     0.065 A 
ENDBRANCH  16  18
ENDBRANCH  14  16
ENDBRANCH  12  14
ENDBRANCH   8  12
ENDBRANCH   7   8
ENDBRANCH   5   7
ENDBRANCH   4   5
ENDBRANCH   3   4
ENDBRANCH   2   3
ENDBRANCH   1   2
BRANCH   1  23
ATOM     23  C   UNL A   1      40.354  20.135  26.915  1.00  0.00     0.188 C 
BRANCH  23  24
ATOM     24  C   UNL A   1      41.773  19.564  26.821  1.00  0.00     0.188 C 
BRANCH  24  25
ATOM     25  O   UNL A   1      42.189  19.417  25.465  1.00  0.00    -0.376 OA
BRANCH  25  26
ATOM     26  C   UNL A   1      43.577  19.688  25.275  1.00  0.00     0.202 C 
BRANCH  26  27
ATOM     27  C   UNL A   1      43.861  21.092  25.792  1.00  0.00     0.261 C 
BRANCH  27  28
ATOM     28  O   UNL A   1      42.809  21.991  25.387  1.00  0.00    -0.460 OA
BRANCH  28  29
ATOM     29  C   UNL A   1      43.216  23.218  25.005  1.00  0.00     0.338 C 
ATOM     30  O   UNL A   1      43.739  23.531  23.950  1.00  0.00    -0.246 OA
BRANCH  29  31
ATOM     31  C   UNL A   1      42.979  24.179  26.093  1.00  0.00     0.060 A 
ATOM     32  C   UNL A   1      41.923  24.019  26.996  1.00  0.00     0.016 A 
ATOM     33  C   UNL A   1      43.774  25.323  26.132  1.00  0.00     0.016 A 
ATOM     34  C   UNL A   1      41.619  25.044  27.898  1.00  0.00     0.010 A 
ATOM     35  C   UNL A   1      43.503  26.317  27.068  1.00  0.00     0.010 A 
ATOM     36  C   UNL A   1      42.405  26.202  27.939  1.00  0.00    -0.014 A 
BRANCH  36  37
ATOM     37  C   UNL A   1      42.117  27.339  28.847  1.00  0.00     0.031 A 
ATOM     38  C   UNL A   1      42.949  27.521  30.084  1.00  0.00     0.074 A 
ATOM     39  C   UNL A   1      41.061  28.144  28.632  1.00  0.00     0.049 A 
ATOM     40  N   UNL A   1      42.657  28.145  31.193  1.00  0.00    -0.248 NA
ATOM     41  C   UNL A   1      44.288  26.911  30.063  1.00  0.00     0.031 C 
ATOM     42  C   UNL A   1      40.232  28.159  27.429  1.00  0.00     0.029 A 
ATOM     43  N   UNL A   1      40.480  29.076  29.457  1.00  0.00    -0.354 N 
ATOM     44  C   UNL A   1      43.753  27.961  32.027  1.00  0.00     0.074 A 
ATOM     45  C   UNL A   1      44.726  27.187  31.284  1.00  0.00     0.031 C 
ATOM     46  C   UNL A   1      39.230  29.034  27.603  1.00  0.00     0.029 A 
ATOM     47  C   UNL A   1      39.292  29.558  28.964  1.00  0.00     0.049 A 
ATOM     48  H   UNL A   1      40.874  29.368  30.310  1.00  0.00     0.167 HD
ATOM     49  C   UNL A   1      43.913  28.376  33.305  1.00  0.00     0.031 A 
ATOM     50  C   UNL A   1      38.312  30.258  29.568  1.00  0.00     0.031 A 
ATOM     51  C   UNL A   1      42.930  29.134  34.033  1.00  0.00     0.049 A 
ATOM     52  C   UNL A   1      38.440  30.599  31.025  1.00  0.00     0.074 A 
ATOM     53  C   UNL A   1      42.970  29.569  35.347  1.00  0.00     0.029 A 
ATOM     54  N   UNL A   1      41.726  29.568  33.503  1.00  0.00    -0.354 N 
ATOM     55  N   UNL A   1      39.428  30.340  31.848  1.00  0.00    -0.248 NA
ATOM     56  C   UNL A   1      37.307  31.301  31.643  1.00  0.00     0.031 C 
ATOM     57  C   UNL A   1      41.770  30.235  35.621  1.00  0.00     0.029 A 
ATOM     58  C   UNL A   1      41.006  30.252  34.466  1.00  0.00     0.049 A 
ATOM     59  H   UNL A   1      41.428  29.415  32.577  1.00  0.00     0.167 HD
ATOM     60  C   UNL A   1      39.041  30.857  33.077  1.00  0.00     0.074 A 
ATOM     61  C   UNL A   1      37.733  31.452  32.891  1.00  0.00     0.031 C 
ATOM     62  C   UNL A   1      39.708  30.839  34.257  1.00  0.00     0.031 A 
BRANCH  49  63
ATOM     63  C   UNL A   1      45.164  27.955  34.019  1.00  0.00    -0.014 A 
ATOM     64  C   UNL A   1      45.238  26.742  34.720  1.00  0.00     0.009 A 
ATOM     65  C   UNL A   1      46.300  28.780  33.962  1.00  0.00     0.009 A 
ATOM     66  C   UNL A   1      46.420  26.377  35.370  1.00  0.00     0.001 A 
ATOM     67  C   UNL A   1      47.484  28.401  34.594  1.00  0.00     0.001 A 
ATOM     68  C   UNL A   1      47.541  27.203  35.304  1.00  0.00     0.000 A 
ENDBRANCH  49  63
BRANCH  50  69
ATOM     69  C   UNL A   1      37.078  30.584  28.809  1.00  0.00    -0.014 A 
ATOM     70  C   UNL A   1      36.192  29.571  28.417  1.00  0.00     0.009 A 
ATOM     71  C   UNL A   1      36.759  31.920  28.512  1.00  0.00     0.009 A 
ATOM     72  C   UNL A   1      35.010  29.891  27.744  1.00  0.00     0.001 A 
ATOM     73  C   UNL A   1      35.564  32.238  27.864  1.00  0.00     0.001 A 
ATOM     74  C   UNL A   1      34.692  31.223  27.479  1.00  0.00     0.000 A 
ENDBRANCH  50  69
BRANCH  62  75
ATOM     75  C   UNL A   1      39.056  31.518  35.424  1.00  0.00    -0.014 A 
ATOM     76  C   UNL A   1      38.244  30.805  36.317  1.00  0.00     0.009 A 
ATOM     77  C   UNL A   1      39.307  32.879  35.662  1.00  0.00     0.009 A 
ATOM     78  C   UNL A   1      37.678  31.449  37.419  1.00  0.00     0.001 A 
ATOM     79  C   UNL A   1      38.755  33.514  36.774  1.00  0.00     0.001 A 
ATOM     80  C   UNL A   1      37.937  32.801  37.650  1.00  0.00     0.000 A 
ENDBRANCH  62  75
ENDBRANCH  36  37
ENDBRANCH  29  31
ENDBRANCH  28  29
ENDBRANCH  27  28
ENDBRANCH  26  27
ENDBRANCH  25  26
ENDBRANCH  24  25
ENDBRANCH  23  24
ENDBRANCH   1  23
TORSDOF 24
ENDMDL
