MODEL 1
REMARK VINA RESULT:     -11.0      0.000      0.000
REMARK SMILES Cc1ccnc(C(=O)c2[nH]c3cc(F)ccc3c2CC(=O)OCCOCCOCCOC(=O)c2ccc(-c3c4nc(c(-c5ccccc5)c5ccc([nH]5)c(-c5ccccc5)c5nc(c(-c6ccccc6)c6ccc3[nH]6)C=C5)C=C4)cc2)c1
REMARK SMILES IDX 26 1 25 2 24 3 23 4 22 5 20 6 21 7 19 8 18 9 9 10 10 11
REMARK SMILES IDX 11 12 17 14 12 15 16 16 13 17 15 18 14 19 7 20 8 21 6 22
REMARK SMILES IDX 1 23 2 24 3 25 82 26 4 27 5 28 27 29 28 30 29 31 30 32 31 33
REMARK SMILES IDX 32 34 33 35 34 36 35 37 81 38 36 39 80 40 37 41 38 42 39 43
REMARK SMILES IDX 74 44 40 45 79 46 73 47 75 48 41 49 78 50 72 51 71 52 42 54
REMARK SMILES IDX 64 55 49 56 63 57 50 58 53 59 62 60 76 61 51 62 52 63 61 65
REMARK SMILES IDX 77 66 54 67 43 68 44 69 48 70 45 71 47 72 46 73 65 74 66 75
REMARK SMILES IDX 70 76 67 77 69 78 68 79 55 80 56 81 60 82 57 83 59 84 58 85
REMARK H PARENT 10 13 75 53 53 64
REMARK Flexibility Score: inf
ROOT
ATOM      1  C   UNL A   1      33.684  27.949  22.405  1.00  0.00     0.188 C 
ENDROOT
BRANCH   1   2
ATOM      2  O   UNL A   1      33.907  26.730  21.706  1.00  0.00    -0.376 OA
BRANCH   2   3
ATOM      3  C   UNL A   1      32.878  25.749  21.744  1.00  0.00     0.202 C 
BRANCH   3   4
ATOM      4  C   UNL A   1      33.171  24.530  22.619  1.00  0.00     0.261 C 
BRANCH   4   5
ATOM      5  O   UNL A   1      34.169  24.803  23.630  1.00  0.00    -0.463 OA
BRANCH   5   6
ATOM      6  C   UNL A   1      33.697  24.924  24.896  1.00  0.00     0.310 C 
ATOM      7  O   UNL A   1      32.656  25.519  25.172  1.00  0.00    -0.252 OA
BRANCH   6   8
ATOM      8  C   UNL A   1      34.506  24.258  25.990  1.00  0.00     0.161 C 
BRANCH   8   9
ATOM      9  C   UNL A   1      35.445  23.114  25.686  1.00  0.00     0.000 A 
ATOM     10  C   UNL A   1      35.110  21.773  25.447  1.00  0.00     0.093 A 
ATOM     11  N   UNL A   1      36.287  21.092  25.236  1.00  0.00    -0.351 N 
ATOM     12  C   UNL A   1      37.355  21.855  25.635  1.00  0.00     0.049 A 
ATOM     13  H   UNL A   1      36.353  20.186  24.856  1.00  0.00     0.167 HD
ATOM     14  C   UNL A   1      36.869  23.139  25.880  1.00  0.00     0.004 A 
ATOM     15  C   UNL A   1      38.696  21.497  25.816  1.00  0.00     0.066 A 
ATOM     16  C   UNL A   1      37.777  24.123  26.330  1.00  0.00     0.013 A 
ATOM     17  C   UNL A   1      39.550  22.479  26.308  1.00  0.00     0.125 A 
ATOM     18  C   UNL A   1      39.113  23.773  26.560  1.00  0.00     0.040 A 
ATOM     19  F   UNL A   1      40.827  22.160  26.564  1.00  0.00    -0.207 F 
BRANCH  10  20
ATOM     20  C   UNL A   1      33.796  21.154  25.416  1.00  0.00     0.227 C 
ATOM     21  O   UNL A   1      32.914  21.418  26.231  1.00  0.00    -0.285 OA
BRANCH  20  22
ATOM     22  C   UNL A   1      33.495  20.121  24.382  1.00  0.00     0.113 A 
ATOM     23  C   UNL A   1      33.940  16.412  23.795  1.00  0.00     0.044 C 
ATOM     24  C   UNL A   1      33.493  17.838  23.664  1.00  0.00    -0.047 A 
ATOM     25  C   UNL A   1      32.499  18.181  22.744  1.00  0.00     0.023 A 
ATOM     26  C   UNL A   1      33.989  18.829  24.519  1.00  0.00     0.036 A 
ATOM     27  C   UNL A   1      32.108  19.506  22.651  1.00  0.00     0.112 A 
ATOM     28  N   UNL A   1      32.607  20.491  23.429  1.00  0.00    -0.253 NA
ENDBRANCH  20  22
ENDBRANCH  10  20
ENDBRANCH   8   9
ENDBRANCH   6   8
ENDBRANCH   5   6
ENDBRANCH   4   5
ENDBRANCH   3   4
ENDBRANCH   2   3
ENDBRANCH   1   2
BRANCH   1  29
ATOM     29  C   UNL A   1      32.229  28.384  22.680  1.00  0.00     0.188 C 
BRANCH  29  30
ATOM     30  O   UNL A   1      31.790  28.491  24.029  1.00  0.00    -0.376 OA
BRANCH  30  31
ATOM     31  C   UNL A   1      32.579  29.289  24.903  1.00  0.00     0.202 C 
BRANCH  31  32
ATOM     32  C   UNL A   1      31.760  30.185  25.825  1.00  0.00     0.261 C 
BRANCH  32  33
ATOM     33  O   UNL A   1      32.374  30.259  27.125  1.00  0.00    -0.460 OA
BRANCH  33  34
ATOM     34  C   UNL A   1      33.123  31.367  27.313  1.00  0.00     0.338 C 
ATOM     35  O   UNL A   1      32.726  32.522  27.319  1.00  0.00    -0.246 OA
BRANCH  34  36
ATOM     36  C   UNL A   1      34.544  31.029  27.543  1.00  0.00     0.060 A 
ATOM     37  C   UNL A   1      34.944  29.704  27.673  1.00  0.00     0.016 A 
ATOM     38  C   UNL A   1      35.428  32.049  27.885  1.00  0.00     0.016 A 
ATOM     39  C   UNL A   1      36.148  29.395  28.311  1.00  0.00     0.010 A 
ATOM     40  C   UNL A   1      36.679  31.737  28.430  1.00  0.00     0.010 A 
ATOM     41  C   UNL A   1      37.022  30.406  28.729  1.00  0.00    -0.014 A 
BRANCH  41  42
ATOM     42  C   UNL A   1      38.215  30.091  29.573  1.00  0.00     0.031 A 
ATOM     43  C   UNL A   1      39.352  29.265  29.006  1.00  0.00     0.074 A 
ATOM     44  C   UNL A   1      38.335  30.578  30.825  1.00  0.00     0.049 A 
ATOM     45  N   UNL A   1      40.396  28.759  29.617  1.00  0.00    -0.248 NA
ATOM     46  C   UNL A   1      39.313  28.975  27.563  1.00  0.00     0.031 C 
ATOM     47  C   UNL A   1      37.382  31.468  31.489  1.00  0.00     0.029 A 
ATOM     48  N   UNL A   1      39.325  30.397  31.762  1.00  0.00    -0.354 N 
ATOM     49  C   UNL A   1      41.111  28.063  28.647  1.00  0.00     0.074 A 
ATOM     50  C   UNL A   1      40.381  28.203  27.406  1.00  0.00     0.031 C 
ATOM     51  C   UNL A   1      37.851  31.785  32.705  1.00  0.00     0.029 A 
ATOM     52  C   UNL A   1      39.082  31.043  32.950  1.00  0.00     0.049 A 
ATOM     53  H   UNL A   1      40.132  29.857  31.598  1.00  0.00     0.167 HD
ATOM     54  C   UNL A   1      42.267  27.367  28.773  1.00  0.00     0.031 A 
ATOM     55  C   UNL A   1      39.737  31.006  34.128  1.00  0.00     0.031 A 
ATOM     56  C   UNL A   1      43.007  27.222  29.998  1.00  0.00     0.049 A 
ATOM     57  C   UNL A   1      40.948  30.128  34.272  1.00  0.00     0.074 A 
ATOM     58  C   UNL A   1      44.164  26.496  30.228  1.00  0.00     0.029 A 
ATOM     59  N   UNL A   1      42.670  27.822  31.200  1.00  0.00    -0.354 N 
ATOM     60  N   UNL A   1      41.563  29.409  33.367  1.00  0.00    -0.248 NA
ATOM     61  C   UNL A   1      41.541  30.043  35.615  1.00  0.00     0.031 C 
ATOM     62  C   UNL A   1      44.499  26.617  31.581  1.00  0.00     0.029 A 
ATOM     63  C   UNL A   1      43.583  27.465  32.180  1.00  0.00     0.049 A 
ATOM     64  H   UNL A   1      41.895  28.413  31.339  1.00  0.00     0.167 HD
ATOM     65  C   UNL A   1      42.619  28.794  34.027  1.00  0.00     0.074 A 
ATOM     66  C   UNL A   1      42.582  29.253  35.400  1.00  0.00     0.031 C 
ATOM     67  C   UNL A   1      43.532  27.917  33.544  1.00  0.00     0.031 A 
BRANCH  54  68
ATOM     68  C   UNL A   1      42.792  26.659  27.554  1.00  0.00    -0.014 A 
ATOM     69  C   UNL A   1      42.370  25.363  27.220  1.00  0.00     0.009 A 
ATOM     70  C   UNL A   1      43.672  27.330  26.688  1.00  0.00     0.009 A 
ATOM     71  C   UNL A   1      42.833  24.748  26.055  1.00  0.00     0.001 A 
ATOM     72  C   UNL A   1      44.114  26.723  25.513  1.00  0.00     0.001 A 
ATOM     73  C   UNL A   1      43.698  25.430  25.199  1.00  0.00     0.000 A 
ENDBRANCH  54  68
BRANCH  55  74
ATOM     74  C   UNL A   1      39.210  31.754  35.301  1.00  0.00    -0.014 A 
ATOM     75  C   UNL A   1      38.346  31.139  36.220  1.00  0.00     0.009 A 
ATOM     76  C   UNL A   1      39.542  33.107  35.486  1.00  0.00     0.009 A 
ATOM     77  C   UNL A   1      37.807  31.870  37.283  1.00  0.00     0.001 A 
ATOM     78  C   UNL A   1      39.034  33.823  36.571  1.00  0.00     0.001 A 
ATOM     79  C   UNL A   1      38.158  33.208  37.461  1.00  0.00     0.000 A 
ENDBRANCH  55  74
BRANCH  67  80
ATOM     80  C   UNL A   1      44.577  27.426  34.506  1.00  0.00    -0.014 A 
ATOM     81  C   UNL A   1      45.816  28.077  34.629  1.00  0.00     0.009 A 
ATOM     82  C   UNL A   1      44.325  26.290  35.290  1.00  0.00     0.009 A 
ATOM     83  C   UNL A   1      46.799  27.567  35.478  1.00  0.00     0.001 A 
ATOM     84  C   UNL A   1      45.299  25.801  36.161  1.00  0.00     0.001 A 
ATOM     85  C   UNL A   1      46.540  26.431  36.244  1.00  0.00     0.000 A 
ENDBRANCH  67  80
ENDBRANCH  41  42
ENDBRANCH  34  36
ENDBRANCH  33  34
ENDBRANCH  32  33
ENDBRANCH  31  32
ENDBRANCH  30  31
ENDBRANCH  29  30
ENDBRANCH   1  29
TORSDOF 20
ENDMDL
MODEL 2
REMARK VINA RESULT:     -10.7      2.561      4.278
REMARK SMILES Cc1ccnc(C(=O)c2[nH]c3cc(F)ccc3c2CC(=O)OCCOCCOCCOC(=O)c2ccc(-c3c4nc(c(-c5ccccc5)c5ccc([nH]5)c(-c5ccccc5)c5nc(c(-c6ccccc6)c6ccc3[nH]6)C=C5)C=C4)cc2)c1
REMARK SMILES IDX 26 1 25 2 24 3 23 4 22 5 20 6 21 7 19 8 18 9 9 10 10 11
REMARK SMILES IDX 11 12 17 14 12 15 16 16 13 17 15 18 14 19 7 20 8 21 6 22
REMARK SMILES IDX 1 23 2 24 3 25 82 26 4 27 5 28 27 29 28 30 29 31 30 32 31 33
REMARK SMILES IDX 32 34 33 35 34 36 35 37 81 38 36 39 80 40 37 41 38 42 39 43
REMARK SMILES IDX 74 44 40 45 79 46 73 47 75 48 41 49 78 50 72 51 71 52 42 54
REMARK SMILES IDX 64 55 49 56 63 57 50 58 53 59 62 60 76 61 51 62 52 63 61 65
REMARK SMILES IDX 77 66 54 67 43 68 44 69 48 70 45 71 47 72 46 73 65 74 66 75
REMARK SMILES IDX 70 76 67 77 69 78 68 79 55 80 56 81 60 82 57 83 59 84 58 85
REMARK H PARENT 10 13 75 53 53 64
REMARK Flexibility Score: inf
ROOT
ATOM      1  C   UNL A   1      29.766  28.125  23.598  1.00  0.00     0.188 C 
ENDROOT
BRANCH   1   2
ATOM      2  O   UNL A   1      30.142  26.854  23.079  1.00  0.00    -0.376 OA
BRANCH   2   3
ATOM      3  C   UNL A   1      31.341  26.779  22.318  1.00  0.00     0.202 C 
BRANCH   3   4
ATOM      4  C   UNL A   1      31.787  25.367  21.939  1.00  0.00     0.261 C 
BRANCH   4   5
ATOM      5  O   UNL A   1      33.065  25.017  22.520  1.00  0.00    -0.463 OA
BRANCH   5   6
ATOM      6  C   UNL A   1      33.344  23.690  22.556  1.00  0.00     0.310 C 
ATOM      7  O   UNL A   1      34.297  23.186  21.961  1.00  0.00    -0.252 OA
BRANCH   6   8
ATOM      8  C   UNL A   1      32.430  22.826  23.399  1.00  0.00     0.161 C 
BRANCH   8   9
ATOM      9  C   UNL A   1      32.968  21.661  24.197  1.00  0.00     0.000 A 
ATOM     10  C   UNL A   1      33.897  21.699  25.246  1.00  0.00     0.093 A 
ATOM     11  N   UNL A   1      34.102  20.401  25.656  1.00  0.00    -0.351 N 
ATOM     12  C   UNL A   1      33.598  19.526  24.727  1.00  0.00     0.049 A 
ATOM     13  H   UNL A   1      34.546  20.138  26.494  1.00  0.00     0.167 HD
ATOM     14  C   UNL A   1      32.846  20.277  23.825  1.00  0.00     0.004 A 
ATOM     15  C   UNL A   1      33.774  18.143  24.611  1.00  0.00     0.066 A 
ATOM     16  C   UNL A   1      32.231  19.607  22.746  1.00  0.00     0.013 A 
ATOM     17  C   UNL A   1      33.195  17.523  23.507  1.00  0.00     0.125 A 
ATOM     18  C   UNL A   1      32.433  18.230  22.586  1.00  0.00     0.040 A 
ATOM     19  F   UNL A   1      33.399  16.212  23.317  1.00  0.00    -0.207 F 
BRANCH  10  20
ATOM     20  C   UNL A   1      34.559  22.851  25.836  1.00  0.00     0.227 C 
ATOM     21  O   UNL A   1      35.741  22.841  26.173  1.00  0.00    -0.285 OA
BRANCH  20  22
ATOM     22  C   UNL A   1      33.779  24.097  26.090  1.00  0.00     0.113 A 
ATOM     23  C   UNL A   1      33.845  27.772  25.202  1.00  0.00     0.044 C 
ATOM     24  C   UNL A   1      33.404  26.429  25.704  1.00  0.00    -0.047 A 
ATOM     25  C   UNL A   1      32.089  26.237  26.135  1.00  0.00     0.023 A 
ATOM     26  C   UNL A   1      34.265  25.326  25.661  1.00  0.00     0.036 A 
ATOM     27  C   UNL A   1      31.714  24.984  26.589  1.00  0.00     0.112 A 
ATOM     28  N   UNL A   1      32.540  23.916  26.606  1.00  0.00    -0.253 NA
ENDBRANCH  20  22
ENDBRANCH  10  20
ENDBRANCH   8   9
ENDBRANCH   6   8
ENDBRANCH   5   6
ENDBRANCH   4   5
ENDBRANCH   3   4
ENDBRANCH   2   3
ENDBRANCH   1   2
BRANCH   1  29
ATOM     29  C   UNL A   1      30.853  29.210  23.743  1.00  0.00     0.188 C 
BRANCH  29  30
ATOM     30  O   UNL A   1      30.671  30.236  24.712  1.00  0.00    -0.376 OA
BRANCH  30  31
ATOM     31  C   UNL A   1      31.667  30.356  25.720  1.00  0.00     0.202 C 
BRANCH  31  32
ATOM     32  C   UNL A   1      31.555  31.633  26.546  1.00  0.00     0.261 C 
BRANCH  32  33
ATOM     33  O   UNL A   1      32.676  31.748  27.442  1.00  0.00    -0.460 OA
BRANCH  33  34
ATOM     34  C   UNL A   1      32.949  33.017  27.816  1.00  0.00     0.338 C 
ATOM     35  O   UNL A   1      32.241  33.996  27.636  1.00  0.00    -0.246 OA
BRANCH  34  36
ATOM     36  C   UNL A   1      34.246  33.109  28.518  1.00  0.00     0.060 A 
ATOM     37  C   UNL A   1      35.354  33.665  27.889  1.00  0.00     0.016 A 
ATOM     38  C   UNL A   1      34.414  32.404  29.708  1.00  0.00     0.016 A 
ATOM     39  C   UNL A   1      36.641  33.366  28.344  1.00  0.00     0.010 A 
ATOM     40  C   UNL A   1      35.700  32.192  30.219  1.00  0.00     0.010 A 
ATOM     41  C   UNL A   1      36.837  32.598  29.498  1.00  0.00    -0.014 A 
BRANCH  41  42
ATOM     42  C   UNL A   1      38.201  32.121  29.882  1.00  0.00     0.031 A 
ATOM     43  C   UNL A   1      38.719  30.795  29.364  1.00  0.00     0.074 A 
ATOM     44  C   UNL A   1      39.019  32.879  30.642  1.00  0.00     0.049 A 
ATOM     45  N   UNL A   1      39.804  30.138  29.699  1.00  0.00    -0.248 NA
ATOM     46  C   UNL A   1      37.915  30.120  28.331  1.00  0.00     0.031 C 
ATOM     47  C   UNL A   1      38.717  34.221  31.142  1.00  0.00     0.029 A 
ATOM     48  N   UNL A   1      40.284  32.626  31.119  1.00  0.00    -0.354 N 
ATOM     49  C   UNL A   1      39.790  28.964  28.952  1.00  0.00     0.074 A 
ATOM     50  C   UNL A   1      38.587  28.991  28.150  1.00  0.00     0.031 C 
ATOM     51  C   UNL A   1      39.778  34.686  31.818  1.00  0.00     0.029 A 
ATOM     52  C   UNL A   1      40.794  33.642  31.890  1.00  0.00     0.049 A 
ATOM     53  H   UNL A   1      40.777  31.796  30.925  1.00  0.00     0.167 HD
ATOM     54  C   UNL A   1      40.693  27.953  28.934  1.00  0.00     0.031 A 
ATOM     55  C   UNL A   1      41.922  33.715  32.623  1.00  0.00     0.031 A 
ATOM     56  C   UNL A   1      41.896  27.914  29.723  1.00  0.00     0.049 A 
ATOM     57  C   UNL A   1      42.843  32.529  32.681  1.00  0.00     0.074 A 
ATOM     58  C   UNL A   1      42.844  26.907  29.803  1.00  0.00     0.029 A 
ATOM     59  N   UNL A   1      42.323  28.930  30.562  1.00  0.00    -0.354 N 
ATOM     60  N   UNL A   1      42.774  31.393  32.034  1.00  0.00    -0.248 NA
ATOM     61  C   UNL A   1      43.992  32.634  33.593  1.00  0.00     0.031 C 
ATOM     62  C   UNL A   1      43.820  27.294  30.728  1.00  0.00     0.029 A 
ATOM     63  C   UNL A   1      43.510  28.565  31.179  1.00  0.00     0.049 A 
ATOM     64  H   UNL A   1      41.854  29.784  30.700  1.00  0.00     0.167 HD
ATOM     65  C   UNL A   1      43.871  30.652  32.453  1.00  0.00     0.074 A 
ATOM     66  C   UNL A   1      44.610  31.481  33.381  1.00  0.00     0.031 C 
ATOM     67  C   UNL A   1      44.230  29.391  32.109  1.00  0.00     0.031 A 
BRANCH  54  68
ATOM     68  C   UNL A   1      40.393  26.766  28.060  1.00  0.00    -0.014 A 
ATOM     69  C   UNL A   1      40.962  26.633  26.784  1.00  0.00     0.009 A 
ATOM     70  C   UNL A   1      39.582  25.730  28.552  1.00  0.00     0.009 A 
ATOM     71  C   UNL A   1      40.710  25.496  26.014  1.00  0.00     0.001 A 
ATOM     72  C   UNL A   1      39.350  24.585  27.790  1.00  0.00     0.001 A 
ATOM     73  C   UNL A   1      39.910  24.471  26.519  1.00  0.00     0.000 A 
ENDBRANCH  54  68
BRANCH  55  74
ATOM     74  C   UNL A   1      42.205  34.924  33.443  1.00  0.00    -0.014 A 
ATOM     75  C   UNL A   1      41.682  35.056  34.739  1.00  0.00     0.009 A 
ATOM     76  C   UNL A   1      42.974  35.975  32.914  1.00  0.00     0.009 A 
ATOM     77  C   UNL A   1      41.902  36.223  35.475  1.00  0.00     0.001 A 
ATOM     78  C   UNL A   1      43.225  37.122  33.667  1.00  0.00     0.001 A 
ATOM     79  C   UNL A   1      42.679  37.251  34.942  1.00  0.00     0.000 A 
ENDBRANCH  55  74
BRANCH  67  80
ATOM     80  C   UNL A   1      45.492  28.854  32.723  1.00  0.00    -0.014 A 
ATOM     81  C   UNL A   1      46.742  29.061  32.116  1.00  0.00     0.009 A 
ATOM     82  C   UNL A   1      45.430  28.120  33.918  1.00  0.00     0.009 A 
ATOM     83  C   UNL A   1      47.895  28.497  32.665  1.00  0.00     0.001 A 
ATOM     84  C   UNL A   1      46.589  27.584  34.480  1.00  0.00     0.001 A 
ATOM     85  C   UNL A   1      47.817  27.760  33.846  1.00  0.00     0.000 A 
ENDBRANCH  67  80
ENDBRANCH  41  42
ENDBRANCH  34  36
ENDBRANCH  33  34
ENDBRANCH  32  33
ENDBRANCH  31  32
ENDBRANCH  30  31
ENDBRANCH  29  30
ENDBRANCH   1  29
TORSDOF 20
ENDMDL
MODEL 3
REMARK VINA RESULT:     -10.7      1.660      3.509
REMARK SMILES Cc1ccnc(C(=O)c2[nH]c3cc(F)ccc3c2CC(=O)OCCOCCOCCOC(=O)c2ccc(-c3c4nc(c(-c5ccccc5)c5ccc([nH]5)c(-c5ccccc5)c5nc(c(-c6ccccc6)c6ccc3[nH]6)C=C5)C=C4)cc2)c1
REMARK SMILES IDX 26 1 25 2 24 3 23 4 22 5 20 6 21 7 19 8 18 9 9 10 10 11
REMARK SMILES IDX 11 12 17 14 12 15 16 16 13 17 15 18 14 19 7 20 8 21 6 22
REMARK SMILES IDX 1 23 2 24 3 25 82 26 4 27 5 28 27 29 28 30 29 31 30 32 31 33
REMARK SMILES IDX 32 34 33 35 34 36 35 37 81 38 36 39 80 40 37 41 38 42 39 43
REMARK SMILES IDX 74 44 40 45 79 46 73 47 75 48 41 49 78 50 72 51 71 52 42 54
REMARK SMILES IDX 64 55 49 56 63 57 50 58 53 59 62 60 76 61 51 62 52 63 61 65
REMARK SMILES IDX 77 66 54 67 43 68 44 69 48 70 45 71 47 72 46 73 65 74 66 75
REMARK SMILES IDX 70 76 67 77 69 78 68 79 55 80 56 81 60 82 57 83 59 84 58 85
REMARK H PARENT 10 13 75 53 53 64
REMARK Flexibility Score: inf
ROOT
ATOM      1  C   UNL A   1      30.275  28.146  23.640  1.00  0.00     0.188 C 
ENDROOT
BRANCH   1   2
ATOM      2  O   UNL A   1      29.920  26.807  23.310  1.00  0.00    -0.376 OA
BRANCH   2   3
ATOM      3  C   UNL A   1      30.635  25.757  23.949  1.00  0.00     0.202 C 
BRANCH   3   4
ATOM      4  C   UNL A   1      30.611  24.413  23.221  1.00  0.00     0.261 C 
BRANCH   4   5
ATOM      5  O   UNL A   1      30.948  23.307  24.091  1.00  0.00    -0.463 OA
BRANCH   5   6
ATOM      6  C   UNL A   1      32.163  22.746  23.873  1.00  0.00     0.310 C 
ATOM      7  O   UNL A   1      32.636  22.580  22.749  1.00  0.00    -0.252 OA
BRANCH   6   8
ATOM      8  C   UNL A   1      32.955  22.342  25.099  1.00  0.00     0.161 C 
BRANCH   8   9
ATOM      9  C   UNL A   1      33.962  21.216  25.047  1.00  0.00     0.000 A 
ATOM     10  C   UNL A   1      35.339  21.311  24.801  1.00  0.00     0.093 A 
ATOM     11  N   UNL A   1      35.846  20.031  24.830  1.00  0.00    -0.351 N 
ATOM     12  C   UNL A   1      34.826  19.115  24.770  1.00  0.00     0.049 A 
ATOM     13  H   UNL A   1      36.803  19.806  24.886  1.00  0.00     0.167 HD
ATOM     14  C   UNL A   1      33.636  19.819  24.948  1.00  0.00     0.004 A 
ATOM     15  C   UNL A   1      34.874  17.734  24.550  1.00  0.00     0.066 A 
ATOM     16  C   UNL A   1      32.421  19.100  24.906  1.00  0.00     0.013 A 
ATOM     17  C   UNL A   1      33.655  17.067  24.464  1.00  0.00     0.125 A 
ATOM     18  C   UNL A   1      32.445  17.725  24.641  1.00  0.00     0.040 A 
ATOM     19  F   UNL A   1      33.651  15.757  24.183  1.00  0.00    -0.207 F 
BRANCH  10  20
ATOM     20  C   UNL A   1      36.141  22.496  24.551  1.00  0.00     0.227 C 
ATOM     21  O   UNL A   1      35.807  23.373  23.756  1.00  0.00    -0.285 OA
BRANCH  20  22
ATOM     22  C   UNL A   1      37.448  22.660  25.251  1.00  0.00     0.113 A 
ATOM     23  C   UNL A   1      39.119  24.967  27.739  1.00  0.00     0.044 C 
ATOM     24  C   UNL A   1      38.825  23.800  26.843  1.00  0.00    -0.047 A 
ATOM     25  C   UNL A   1      39.628  22.658  26.889  1.00  0.00     0.023 A 
ATOM     26  C   UNL A   1      37.694  23.794  26.018  1.00  0.00     0.036 A 
ATOM     27  C   UNL A   1      39.328  21.598  26.051  1.00  0.00     0.112 A 
ATOM     28  N   UNL A   1      38.272  21.587  25.208  1.00  0.00    -0.253 NA
ENDBRANCH  20  22
ENDBRANCH  10  20
ENDBRANCH   8   9
ENDBRANCH   6   8
ENDBRANCH   5   6
ENDBRANCH   4   5
ENDBRANCH   3   4
ENDBRANCH   2   3
ENDBRANCH   1   2
BRANCH   1  29
ATOM     29  C   UNL A   1      31.763  28.549  23.571  1.00  0.00     0.188 C 
BRANCH  29  30
ATOM     30  O   UNL A   1      32.480  28.731  24.787  1.00  0.00    -0.376 OA
BRANCH  30  31
ATOM     31  C   UNL A   1      31.721  28.733  25.989  1.00  0.00     0.202 C 
BRANCH  31  32
ATOM     32  C   UNL A   1      31.904  29.993  26.829  1.00  0.00     0.261 C 
BRANCH  32  33
ATOM     33  O   UNL A   1      33.031  30.751  26.355  1.00  0.00    -0.460 OA
BRANCH  33  34
ATOM     34  C   UNL A   1      33.606  31.525  27.302  1.00  0.00     0.338 C 
ATOM     35  O   UNL A   1      33.080  32.446  27.906  1.00  0.00    -0.246 OA
BRANCH  34  36
ATOM     36  C   UNL A   1      35.002  31.115  27.563  1.00  0.00     0.060 A 
ATOM     37  C   UNL A   1      35.335  29.770  27.680  1.00  0.00     0.016 A 
ATOM     38  C   UNL A   1      35.924  32.086  27.948  1.00  0.00     0.016 A 
ATOM     39  C   UNL A   1      36.505  29.392  28.344  1.00  0.00     0.010 A 
ATOM     40  C   UNL A   1      37.143  31.704  28.521  1.00  0.00     0.010 A 
ATOM     41  C   UNL A   1      37.413  30.354  28.804  1.00  0.00    -0.014 A 
BRANCH  41  42
ATOM     42  C   UNL A   1      38.567  29.967  29.674  1.00  0.00     0.031 A 
ATOM     43  C   UNL A   1      39.705  29.142  29.107  1.00  0.00     0.074 A 
ATOM     44  C   UNL A   1      38.651  30.387  30.953  1.00  0.00     0.049 A 
ATOM     45  N   UNL A   1      40.713  28.580  29.729  1.00  0.00    -0.248 NA
ATOM     46  C   UNL A   1      39.714  28.925  27.651  1.00  0.00     0.031 C 
ATOM     47  C   UNL A   1      37.694  31.267  31.626  1.00  0.00     0.029 A 
ATOM     48  N   UNL A   1      39.600  30.135  31.915  1.00  0.00    -0.354 N 
ATOM     49  C   UNL A   1      41.447  27.916  28.752  1.00  0.00     0.074 A 
ATOM     50  C   UNL A   1      40.768  28.136  27.494  1.00  0.00     0.031 C 
ATOM     51  C   UNL A   1      38.124  31.511  32.873  1.00  0.00     0.029 A 
ATOM     52  C   UNL A   1      39.327  30.727  33.125  1.00  0.00     0.049 A 
ATOM     53  H   UNL A   1      40.400  29.584  31.753  1.00  0.00     0.167 HD
ATOM     54  C   UNL A   1      42.582  27.185  28.885  1.00  0.00     0.031 A 
ATOM     55  C   UNL A   1      39.936  30.615  34.322  1.00  0.00     0.031 A 
ATOM     56  C   UNL A   1      43.271  26.961  30.128  1.00  0.00     0.049 A 
ATOM     57  C   UNL A   1      41.120  29.700  34.465  1.00  0.00     0.074 A 
ATOM     58  C   UNL A   1      44.402  26.196  30.362  1.00  0.00     0.029 A 
ATOM     59  N   UNL A   1      42.903  27.509  31.345  1.00  0.00    -0.354 N 
ATOM     60  N   UNL A   1      41.753  29.013  33.548  1.00  0.00    -0.248 NA
ATOM     61  C   UNL A   1      41.660  29.534  35.823  1.00  0.00     0.031 C 
ATOM     62  C   UNL A   1      44.688  26.241  31.731  1.00  0.00     0.029 A 
ATOM     63  C   UNL A   1      43.770  27.081  32.338  1.00  0.00     0.049 A 
ATOM     64  H   UNL A   1      42.137  28.111  31.485  1.00  0.00     0.167 HD
ATOM     65  C   UNL A   1      42.768  28.339  34.214  1.00  0.00     0.074 A 
ATOM     66  C   UNL A   1      42.690  28.730  35.606  1.00  0.00     0.031 C 
ATOM     67  C   UNL A   1      43.678  27.464  33.720  1.00  0.00     0.031 A 
BRANCH  54  68
ATOM     68  C   UNL A   1      43.136  26.526  27.651  1.00  0.00    -0.014 A 
ATOM     69  C   UNL A   1      42.623  25.309  27.178  1.00  0.00     0.009 A 
ATOM     70  C   UNL A   1      44.142  27.172  26.913  1.00  0.00     0.009 A 
ATOM     71  C   UNL A   1      43.119  24.744  26.001  1.00  0.00     0.001 A 
ATOM     72  C   UNL A   1      44.619  26.617  25.726  1.00  0.00     0.001 A 
ATOM     73  C   UNL A   1      44.111  25.401  25.273  1.00  0.00     0.000 A 
ENDBRANCH  54  68
BRANCH  55  74
ATOM     74  C   UNL A   1      39.383  31.317  35.512  1.00  0.00    -0.014 A 
ATOM     75  C   UNL A   1      39.957  32.510  35.976  1.00  0.00     0.009 A 
ATOM     76  C   UNL A   1      38.295  30.771  36.214  1.00  0.00     0.009 A 
ATOM     77  C   UNL A   1      39.470  33.127  37.132  1.00  0.00     0.001 A 
ATOM     78  C   UNL A   1      37.785  31.410  37.344  1.00  0.00     0.001 A 
ATOM     79  C   UNL A   1      38.380  32.580  37.810  1.00  0.00     0.000 A 
ENDBRANCH  55  74
BRANCH  67  80
ATOM     80  C   UNL A   1      44.674  26.901  34.694  1.00  0.00    -0.014 A 
ATOM     81  C   UNL A   1      44.421  25.702  35.382  1.00  0.00     0.009 A 
ATOM     82  C   UNL A   1      45.876  27.584  34.938  1.00  0.00     0.009 A 
ATOM     83  C   UNL A   1      45.327  25.229  36.332  1.00  0.00     0.001 A 
ATOM     84  C   UNL A   1      46.794  27.091  35.867  1.00  0.00     0.001 A 
ATOM     85  C   UNL A   1      46.512  25.923  36.573  1.00  0.00     0.000 A 
ENDBRANCH  67  80
ENDBRANCH  41  42
ENDBRANCH  34  36
ENDBRANCH  33  34
ENDBRANCH  32  33
ENDBRANCH  31  32
ENDBRANCH  30  31
ENDBRANCH  29  30
ENDBRANCH   1  29
TORSDOF 20
ENDMDL
