MODEL 1
REMARK VINA RESULT:     -10.0      0.000      0.000
REMARK SMILES O=C(OCCOCCOCCOC(=O)c1cccc(-c2cc(NCc3ccccn3)nc3[nH]ccc23)c1)c1ccc(-c2c3nc(c(-c4ccccc4)c4ccc([nH]4)c(-c4ccccc4)c4nc(c(-c5ccccc5)c5ccc2[nH]5)C=C4)C=C3)cc1
REMARK SMILES IDX 8 1 7 2 6 3 5 4 4 5 3 6 2 7 1 8 38 9 39 10 85 11 40 12 84 13
REMARK SMILES IDX 41 14 42 15 43 16 78 17 44 18 83 19 77 20 79 21 45 22 82 23
REMARK SMILES IDX 76 24 75 25 46 27 68 28 53 29 67 30 54 31 57 32 66 33 80 34
REMARK SMILES IDX 55 35 56 36 65 38 81 39 58 40 47 41 48 42 52 43 49 44 51 45
REMARK SMILES IDX 50 46 69 47 70 48 74 49 71 50 73 51 72 52 59 53 60 54 64 55
REMARK SMILES IDX 61 56 63 57 62 58 9 59 10 60 11 61 12 62 13 63 14 64 15 65
REMARK SMILES IDX 16 66 37 67 17 68 19 69 18 70 20 71 21 72 36 73 22 74 32 75
REMARK SMILES IDX 35 76 31 77 33 78 34 79 23 81 24 83 25 84 26 85 30 86 27 87
REMARK SMILES IDX 29 88 28 89
REMARK H PARENT 79 26 57 37 33 80 23 82
REMARK Flexibility Score: inf
ROOT
ATOM      1  C   UNL A   1      36.998  29.165  28.254  1.00  0.00     0.188 C 
ENDROOT
BRANCH   1   2
ATOM      2  C   UNL A   1      38.479  29.376  27.922  1.00  0.00     0.188 C 
BRANCH   2   3
ATOM      3  O   UNL A   1      39.163  28.124  27.768  1.00  0.00    -0.376 OA
BRANCH   3   4
ATOM      4  C   UNL A   1      39.240  27.361  28.977  1.00  0.00     0.202 C 
BRANCH   4   5
ATOM      5  C   UNL A   1      39.424  25.855  28.754  1.00  0.00     0.261 C 
BRANCH   5   6
ATOM      6  O   UNL A   1      39.978  25.569  27.459  1.00  0.00    -0.460 OA
BRANCH   6   7
ATOM      7  C   UNL A   1      41.187  25.027  27.170  1.00  0.00     0.338 C 
ATOM      8  O   UNL A   1      41.249  23.825  26.913  1.00  0.00    -0.246 OA
BRANCH   7   9
ATOM      9  C   UNL A   1      42.452  25.821  27.075  1.00  0.00     0.060 A 
ATOM     10  C   UNL A   1      43.244  26.207  28.156  1.00  0.00     0.016 A 
ATOM     11  C   UNL A   1      42.896  26.156  25.784  1.00  0.00     0.016 A 
ATOM     12  C   UNL A   1      44.356  27.027  27.979  1.00  0.00     0.010 A 
ATOM     13  C   UNL A   1      44.053  26.922  25.593  1.00  0.00     0.010 A 
ATOM     14  C   UNL A   1      44.760  27.407  26.698  1.00  0.00    -0.014 A 
BRANCH  14  15
ATOM     15  C   UNL A   1      45.826  28.427  26.552  1.00  0.00     0.031 A 
ATOM     16  C   UNL A   1      45.449  29.881  26.668  1.00  0.00     0.074 A 
ATOM     17  C   UNL A   1      47.120  28.063  26.478  1.00  0.00     0.049 A 
ATOM     18  N   UNL A   1      46.201  30.946  26.562  1.00  0.00    -0.248 NA
ATOM     19  C   UNL A   1      44.037  30.174  26.973  1.00  0.00     0.031 C 
ATOM     20  C   UNL A   1      47.627  26.689  26.522  1.00  0.00     0.029 A 
ATOM     21  N   UNL A   1      48.254  28.829  26.411  1.00  0.00    -0.354 N 
ATOM     22  C   UNL A   1      45.354  32.028  26.779  1.00  0.00     0.074 A 
ATOM     23  C   UNL A   1      44.029  31.498  26.998  1.00  0.00     0.031 C 
ATOM     24  C   UNL A   1      48.971  26.715  26.562  1.00  0.00     0.029 A 
ATOM     25  C   UNL A   1      49.418  28.099  26.464  1.00  0.00     0.049 A 
ATOM     26  H   UNL A   1      48.238  29.811  26.331  1.00  0.00     0.167 HD
ATOM     27  C   UNL A   1      45.657  33.348  26.805  1.00  0.00     0.031 A 
ATOM     28  C   UNL A   1      50.696  28.516  26.416  1.00  0.00     0.031 A 
ATOM     29  C   UNL A   1      46.974  33.872  26.579  1.00  0.00     0.049 A 
ATOM     30  C   UNL A   1      50.958  29.970  26.155  1.00  0.00     0.074 A 
ATOM     31  C   UNL A   1      47.392  35.190  26.535  1.00  0.00     0.029 A 
ATOM     32  N   UNL A   1      48.094  33.088  26.359  1.00  0.00    -0.354 N 
ATOM     33  N   UNL A   1      50.135  30.987  26.226  1.00  0.00    -0.248 NA
ATOM     34  C   UNL A   1      52.324  30.318  25.741  1.00  0.00     0.031 C 
ATOM     35  C   UNL A   1      48.761  35.203  26.244  1.00  0.00     0.029 A 
ATOM     36  C   UNL A   1      49.199  33.892  26.150  1.00  0.00     0.049 A 
ATOM     37  H   UNL A   1      48.102  32.103  26.354  1.00  0.00     0.167 HD
ATOM     38  C   UNL A   1      50.894  32.102  25.905  1.00  0.00     0.074 A 
ATOM     39  C   UNL A   1      52.236  31.634  25.620  1.00  0.00     0.031 C 
ATOM     40  C   UNL A   1      50.520  33.402  25.870  1.00  0.00     0.031 A 
BRANCH  27  41
ATOM     41  C   UNL A   1      44.524  34.305  27.039  1.00  0.00    -0.014 A 
ATOM     42  C   UNL A   1      44.159  34.699  28.335  1.00  0.00     0.009 A 
ATOM     43  C   UNL A   1      43.808  34.813  25.944  1.00  0.00     0.009 A 
ATOM     44  C   UNL A   1      43.075  35.558  28.532  1.00  0.00     0.001 A 
ATOM     45  C   UNL A   1      42.739  35.688  26.143  1.00  0.00     0.001 A 
ATOM     46  C   UNL A   1      42.368  36.053  27.437  1.00  0.00     0.000 A 
ENDBRANCH  27  41
BRANCH  28  47
ATOM     47  C   UNL A   1      51.845  27.581  26.506  1.00  0.00    -0.014 A 
ATOM     48  C   UNL A   1      52.323  26.920  25.364  1.00  0.00     0.009 A 
ATOM     49  C   UNL A   1      52.380  27.243  27.754  1.00  0.00     0.009 A 
ATOM     50  C   UNL A   1      53.303  25.929  25.478  1.00  0.00     0.001 A 
ATOM     51  C   UNL A   1      53.367  26.262  27.863  1.00  0.00     0.001 A 
ATOM     52  C   UNL A   1      53.826  25.603  26.727  1.00  0.00     0.000 A 
ENDBRANCH  28  47
BRANCH  40  53
ATOM     53  C   UNL A   1      51.602  34.398  25.592  1.00  0.00    -0.014 A 
ATOM     54  C   UNL A   1      52.411  34.905  26.618  1.00  0.00     0.009 A 
ATOM     55  C   UNL A   1      51.800  34.839  24.275  1.00  0.00     0.009 A 
ATOM     56  C   UNL A   1      53.386  35.862  26.330  1.00  0.00     0.001 A 
ATOM     57  C   UNL A   1      52.788  35.779  23.988  1.00  0.00     0.001 A 
ATOM     58  C   UNL A   1      53.574  36.295  25.017  1.00  0.00     0.000 A 
ENDBRANCH  40  53
ENDBRANCH  14  15
ENDBRANCH   7   9
ENDBRANCH   6   7
ENDBRANCH   5   6
ENDBRANCH   4   5
ENDBRANCH   3   4
ENDBRANCH   2   3
ENDBRANCH   1   2
BRANCH   1  59
ATOM     59  O   UNL A   1      36.084  29.521  27.216  1.00  0.00    -0.376 OA
BRANCH  59  60
ATOM     60  C   UNL A   1      34.866  30.150  27.612  1.00  0.00     0.202 C 
BRANCH  60  61
ATOM     61  C   UNL A   1      33.598  29.301  27.505  1.00  0.00     0.261 C 
BRANCH  61  62
ATOM     62  O   UNL A   1      33.731  28.163  26.631  1.00  0.00    -0.460 OA
BRANCH  62  63
ATOM     63  C   UNL A   1      33.070  28.291  25.461  1.00  0.00     0.338 C 
ATOM     64  O   UNL A   1      32.116  29.032  25.230  1.00  0.00    -0.246 OA
BRANCH  63  65
ATOM     65  C   UNL A   1      33.539  27.346  24.436  1.00  0.00     0.060 A 
ATOM     66  C   UNL A   1      33.305  27.515  23.075  1.00  0.00     0.016 A 
ATOM     67  C   UNL A   1      34.027  26.129  24.920  1.00  0.00     0.024 A 
ATOM     68  C   UNL A   1      33.509  26.433  22.218  1.00  0.00     0.002 A 
ATOM     69  C   UNL A   1      34.190  25.006  24.091  1.00  0.00    -0.017 A 
ATOM     70  C   UNL A   1      33.918  25.189  22.726  1.00  0.00     0.009 A 
BRANCH  69  71
ATOM     71  C   UNL A   1      34.515  23.697  24.694  1.00  0.00    -0.004 A 
ATOM     72  C   UNL A   1      33.536  22.685  24.808  1.00  0.00     0.056 A 
ATOM     73  C   UNL A   1      35.786  23.358  25.204  1.00  0.00     0.027 A 
ATOM     74  C   UNL A   1      33.790  21.457  25.414  1.00  0.00     0.129 A 
ATOM     75  C   UNL A   1      35.941  22.068  25.712  1.00  0.00     0.140 A 
ATOM     76  C   UNL A   1      37.042  24.007  25.405  1.00  0.00     0.030 A 
ATOM     77  N   UNL A   1      35.007  21.110  25.853  1.00  0.00    -0.213 NA
ATOM     78  N   UNL A   1      37.242  21.913  26.105  1.00  0.00    -0.346 N 
ATOM     79  C   UNL A   1      37.919  23.094  25.951  1.00  0.00     0.085 A 
ATOM     80  H   UNL A   1      37.635  21.077  26.447  1.00  0.00     0.167 HD
BRANCH  74  81
ATOM     81  N   UNL A   1      32.694  20.633  25.620  1.00  0.00    -0.364 N 
ATOM     82  H   UNL A   1      32.280  20.596  26.513  1.00  0.00     0.162 HD
BRANCH  81  83
ATOM     83  C   UNL A   1      32.141  19.820  24.550  1.00  0.00     0.170 C 
BRANCH  83  84
ATOM     84  C   UNL A   1      32.659  18.385  24.579  1.00  0.00     0.059 A 
ATOM     85  C   UNL A   1      33.419  17.848  23.536  1.00  0.00     0.026 A 
ATOM     86  N   UNL A   1      32.392  17.665  25.703  1.00  0.00    -0.259 NA
ATOM     87  C   UNL A   1      33.887  16.538  23.633  1.00  0.00     0.004 A 
ATOM     88  C   UNL A   1      32.861  16.398  25.769  1.00  0.00     0.111 A 
ATOM     89  C   UNL A   1      33.604  15.796  24.771  1.00  0.00     0.020 A 
ENDBRANCH  83  84
ENDBRANCH  81  83
ENDBRANCH  74  81
ENDBRANCH  69  71
ENDBRANCH  63  65
ENDBRANCH  62  63
ENDBRANCH  61  62
ENDBRANCH  60  61
ENDBRANCH  59  60
ENDBRANCH   1  59
TORSDOF 21
ENDMDL
MODEL 2
REMARK VINA RESULT:      -9.5      8.594     12.545
REMARK SMILES O=C(OCCOCCOCCOC(=O)c1cccc(-c2cc(NCc3ccccn3)nc3[nH]ccc23)c1)c1ccc(-c2c3nc(c(-c4ccccc4)c4ccc([nH]4)c(-c4ccccc4)c4nc(c(-c5ccccc5)c5ccc2[nH]5)C=C4)C=C3)cc1
REMARK SMILES IDX 8 1 7 2 6 3 5 4 4 5 3 6 2 7 1 8 38 9 39 10 85 11 40 12 84 13
REMARK SMILES IDX 41 14 42 15 43 16 78 17 44 18 83 19 77 20 79 21 45 22 82 23
REMARK SMILES IDX 76 24 75 25 46 27 68 28 53 29 67 30 54 31 57 32 66 33 80 34
REMARK SMILES IDX 55 35 56 36 65 38 81 39 58 40 47 41 48 42 52 43 49 44 51 45
REMARK SMILES IDX 50 46 69 47 70 48 74 49 71 50 73 51 72 52 59 53 60 54 64 55
REMARK SMILES IDX 61 56 63 57 62 58 9 59 10 60 11 61 12 62 13 63 14 64 15 65
REMARK SMILES IDX 16 66 37 67 17 68 19 69 18 70 20 71 21 72 36 73 22 74 32 75
REMARK SMILES IDX 35 76 31 77 33 78 34 79 23 81 24 83 25 84 26 85 30 86 27 87
REMARK SMILES IDX 29 88 28 89
REMARK H PARENT 79 26 57 37 33 80 23 82
REMARK Flexibility Score: inf
ROOT
ATOM      1  C   UNL A   1      33.329  28.426  27.057  1.00  0.00     0.188 C 
ENDROOT
BRANCH   1   2
ATOM      2  C   UNL A   1      34.405  29.515  27.105  1.00  0.00     0.188 C 
BRANCH   2   3
ATOM      3  O   UNL A   1      34.001  30.614  27.934  1.00  0.00    -0.376 OA
BRANCH   3   4
ATOM      4  C   UNL A   1      35.097  31.312  28.534  1.00  0.00     0.202 C 
BRANCH   4   5
ATOM      5  C   UNL A   1      34.678  32.505  29.401  1.00  0.00     0.261 C 
BRANCH   5   6
ATOM      6  O   UNL A   1      34.754  32.201  30.804  1.00  0.00    -0.460 OA
BRANCH   6   7
ATOM      7  C   UNL A   1      34.595  33.050  31.850  1.00  0.00     0.338 C 
ATOM      8  O   UNL A   1      33.629  33.813  31.848  1.00  0.00    -0.246 OA
BRANCH   7   9
ATOM      9  C   UNL A   1      35.487  33.066  33.050  1.00  0.00     0.060 A 
ATOM     10  C   UNL A   1      35.371  33.944  34.128  1.00  0.00     0.016 A 
ATOM     11  C   UNL A   1      36.490  32.083  33.111  1.00  0.00     0.016 A 
ATOM     12  C   UNL A   1      36.307  33.948  35.160  1.00  0.00     0.010 A 
ATOM     13  C   UNL A   1      37.394  32.035  34.181  1.00  0.00     0.010 A 
ATOM     14  C   UNL A   1      37.337  33.006  35.186  1.00  0.00    -0.014 A 
BRANCH  14  15
ATOM     15  C   UNL A   1      38.421  33.152  36.186  1.00  0.00     0.031 A 
ATOM     16  C   UNL A   1      39.628  33.978  35.822  1.00  0.00     0.074 A 
ATOM     17  C   UNL A   1      38.264  32.694  37.442  1.00  0.00     0.049 A 
ATOM     18  N   UNL A   1      40.702  34.235  36.523  1.00  0.00    -0.248 NA
ATOM     19  C   UNL A   1      39.608  34.627  34.498  1.00  0.00     0.031 C 
ATOM     20  C   UNL A   1      37.072  32.021  37.965  1.00  0.00     0.029 A 
ATOM     21  N   UNL A   1      39.094  32.782  38.529  1.00  0.00    -0.354 N 
ATOM     22  C   UNL A   1      41.483  35.064  35.724  1.00  0.00     0.074 A 
ATOM     23  C   UNL A   1      40.776  35.249  34.479  1.00  0.00     0.031 C 
ATOM     24  C   UNL A   1      37.217  31.830  39.288  1.00  0.00     0.029 A 
ATOM     25  C   UNL A   1      38.540  32.293  39.688  1.00  0.00     0.049 A 
ATOM     26  H   UNL A   1      40.003  33.159  38.484  1.00  0.00     0.167 HD
ATOM     27  C   UNL A   1      42.680  35.631  36.009  1.00  0.00     0.031 A 
ATOM     28  C   UNL A   1      39.066  32.214  40.924  1.00  0.00     0.031 A 
ATOM     29  C   UNL A   1      43.383  35.438  37.246  1.00  0.00     0.049 A 
ATOM     30  C   UNL A   1      40.505  32.598  41.108  1.00  0.00     0.074 A 
ATOM     31  C   UNL A   1      44.621  35.923  37.629  1.00  0.00     0.029 A 
ATOM     32  N   UNL A   1      42.897  34.693  38.307  1.00  0.00    -0.354 N 
ATOM     33  N   UNL A   1      41.295  33.266  40.305  1.00  0.00    -0.248 NA
ATOM     34  C   UNL A   1      41.139  32.153  42.356  1.00  0.00     0.031 C 
ATOM     35  C   UNL A   1      44.903  35.432  38.909  1.00  0.00     0.029 A 
ATOM     36  C   UNL A   1      43.821  34.679  39.335  1.00  0.00     0.049 A 
ATOM     37  H   UNL A   1      42.023  34.241  38.327  1.00  0.00     0.167 HD
ATOM     38  C   UNL A   1      42.509  33.356  40.968  1.00  0.00     0.074 A 
ATOM     39  C   UNL A   1      42.357  32.658  42.229  1.00  0.00     0.031 C 
ATOM     40  C   UNL A   1      43.645  33.980  40.578  1.00  0.00     0.031 A 
BRANCH  27  41
ATOM     41  C   UNL A   1      43.312  36.469  34.936  1.00  0.00    -0.014 A 
ATOM     42  C   UNL A   1      43.057  37.845  34.841  1.00  0.00     0.009 A 
ATOM     43  C   UNL A   1      44.170  35.867  34.002  1.00  0.00     0.009 A 
ATOM     44  C   UNL A   1      43.624  38.597  33.809  1.00  0.00     0.001 A 
ATOM     45  C   UNL A   1      44.752  36.626  32.985  1.00  0.00     0.001 A 
ATOM     46  C   UNL A   1      44.472  37.988  32.884  1.00  0.00     0.000 A 
ENDBRANCH  27  41
BRANCH  28  47
ATOM     47  C   UNL A   1      38.312  31.667  42.079  1.00  0.00    -0.014 A 
ATOM     48  C   UNL A   1      37.611  32.519  42.947  1.00  0.00     0.009 A 
ATOM     49  C   UNL A   1      38.403  30.308  42.397  1.00  0.00     0.009 A 
ATOM     50  C   UNL A   1      37.031  32.017  44.116  1.00  0.00     0.001 A 
ATOM     51  C   UNL A   1      37.811  29.807  43.559  1.00  0.00     0.001 A 
ATOM     52  C   UNL A   1      37.129  30.661  44.419  1.00  0.00     0.000 A 
ENDBRANCH  28  47
BRANCH  40  53
ATOM     53  C   UNL A   1      44.767  33.997  41.567  1.00  0.00    -0.014 A 
ATOM     54  C   UNL A   1      45.759  33.007  41.566  1.00  0.00     0.009 A 
ATOM     55  C   UNL A   1      44.819  35.025  42.521  1.00  0.00     0.009 A 
ATOM     56  C   UNL A   1      46.771  33.031  42.527  1.00  0.00     0.001 A 
ATOM     57  C   UNL A   1      45.843  35.057  43.466  1.00  0.00     0.001 A 
ATOM     58  C   UNL A   1      46.813  34.056  43.473  1.00  0.00     0.000 A 
ENDBRANCH  40  53
ENDBRANCH  14  15
ENDBRANCH   7   9
ENDBRANCH   6   7
ENDBRANCH   5   6
ENDBRANCH   4   5
ENDBRANCH   3   4
ENDBRANCH   2   3
ENDBRANCH   1   2
BRANCH   1  59
ATOM     59  O   UNL A   1      33.231  27.719  25.820  1.00  0.00    -0.376 OA
BRANCH  59  60
ATOM     60  C   UNL A   1      32.664  28.422  24.715  1.00  0.00     0.202 C 
BRANCH  60  61
ATOM     61  C   UNL A   1      33.506  28.471  23.437  1.00  0.00     0.261 C 
BRANCH  61  62
ATOM     62  O   UNL A   1      34.076  27.201  23.067  1.00  0.00    -0.460 OA
BRANCH  62  63
ATOM     63  C   UNL A   1      33.416  26.574  22.070  1.00  0.00     0.338 C 
ATOM     64  O   UNL A   1      33.274  26.973  20.915  1.00  0.00    -0.246 OA
BRANCH  63  65
ATOM     65  C   UNL A   1      32.749  25.342  22.515  1.00  0.00     0.060 A 
ATOM     66  C   UNL A   1      31.392  25.272  22.817  1.00  0.00     0.016 A 
ATOM     67  C   UNL A   1      33.601  24.289  22.861  1.00  0.00     0.024 A 
ATOM     68  C   UNL A   1      30.915  24.164  23.518  1.00  0.00     0.002 A 
ATOM     69  C   UNL A   1      33.161  23.187  23.615  1.00  0.00    -0.017 A 
ATOM     70  C   UNL A   1      31.794  23.152  23.935  1.00  0.00     0.009 A 
BRANCH  69  71
ATOM     71  C   UNL A   1      34.147  22.210  24.119  1.00  0.00    -0.004 A 
ATOM     72  C   UNL A   1      35.483  22.592  24.375  1.00  0.00     0.056 A 
ATOM     73  C   UNL A   1      33.855  20.853  24.370  1.00  0.00     0.027 A 
ATOM     74  C   UNL A   1      36.454  21.689  24.804  1.00  0.00     0.129 A 
ATOM     75  C   UNL A   1      34.890  20.066  24.877  1.00  0.00     0.140 A 
ATOM     76  C   UNL A   1      32.742  19.974  24.208  1.00  0.00     0.030 A 
ATOM     77  N   UNL A   1      36.172  20.412  25.092  1.00  0.00    -0.213 NA
ATOM     78  N   UNL A   1      34.401  18.808  25.103  1.00  0.00    -0.346 N 
ATOM     79  C   UNL A   1      33.103  18.727  24.675  1.00  0.00     0.085 A 
ATOM     80  H   UNL A   1      34.908  18.070  25.513  1.00  0.00     0.167 HD
BRANCH  74  81
ATOM     81  N   UNL A   1      37.759  22.157  24.837  1.00  0.00    -0.364 N 
ATOM     82  H   UNL A   1      38.074  22.757  24.123  1.00  0.00     0.162 HD
BRANCH  81  83
ATOM     83  C   UNL A   1      38.673  21.783  25.902  1.00  0.00     0.170 C 
BRANCH  83  84
ATOM     84  C   UNL A   1      39.377  22.988  26.520  1.00  0.00     0.059 A 
ATOM     85  C   UNL A   1      38.682  24.138  26.905  1.00  0.00     0.026 A 
ATOM     86  N   UNL A   1      40.716  22.867  26.731  1.00  0.00    -0.259 NA
ATOM     87  C   UNL A   1      39.378  25.196  27.489  1.00  0.00     0.004 A 
ATOM     88  C   UNL A   1      41.363  23.909  27.301  1.00  0.00     0.111 A 
ATOM     89  C   UNL A   1      40.745  25.082  27.693  1.00  0.00     0.020 A 
ENDBRANCH  83  84
ENDBRANCH  81  83
ENDBRANCH  74  81
ENDBRANCH  69  71
ENDBRANCH  63  65
ENDBRANCH  62  63
ENDBRANCH  61  62
ENDBRANCH  60  61
ENDBRANCH  59  60
ENDBRANCH   1  59
TORSDOF 21
ENDMDL
MODEL 3
REMARK VINA RESULT:      -9.3      6.685     12.874
REMARK SMILES O=C(OCCOCCOCCOC(=O)c1cccc(-c2cc(NCc3ccccn3)nc3[nH]ccc23)c1)c1ccc(-c2c3nc(c(-c4ccccc4)c4ccc([nH]4)c(-c4ccccc4)c4nc(c(-c5ccccc5)c5ccc2[nH]5)C=C4)C=C3)cc1
REMARK SMILES IDX 8 1 7 2 6 3 5 4 4 5 3 6 2 7 1 8 38 9 39 10 85 11 40 12 84 13
REMARK SMILES IDX 41 14 42 15 43 16 78 17 44 18 83 19 77 20 79 21 45 22 82 23
REMARK SMILES IDX 76 24 75 25 46 27 68 28 53 29 67 30 54 31 57 32 66 33 80 34
REMARK SMILES IDX 55 35 56 36 65 38 81 39 58 40 47 41 48 42 52 43 49 44 51 45
REMARK SMILES IDX 50 46 69 47 70 48 74 49 71 50 73 51 72 52 59 53 60 54 64 55
REMARK SMILES IDX 61 56 63 57 62 58 9 59 10 60 11 61 12 62 13 63 14 64 15 65
REMARK SMILES IDX 16 66 37 67 17 68 19 69 18 70 20 71 21 72 36 73 22 74 32 75
REMARK SMILES IDX 35 76 31 77 33 78 34 79 23 81 24 83 25 84 26 85 30 86 27 87
REMARK SMILES IDX 29 88 28 89
REMARK H PARENT 79 26 57 37 33 80 23 82
REMARK Flexibility Score: inf
ROOT
ATOM      1  C   UNL A   1      50.866  23.760  34.450  1.00  0.00     0.188 C 
ENDROOT
BRANCH   1   2
ATOM      2  C   UNL A   1      49.660  22.858  34.738  1.00  0.00     0.188 C 
BRANCH   2   3
ATOM      3  O   UNL A   1      48.562  23.610  35.273  1.00  0.00    -0.376 OA
BRANCH   3   4
ATOM      4  C   UNL A   1      47.687  22.833  36.099  1.00  0.00     0.202 C 
BRANCH   4   5
ATOM      5  C   UNL A   1      47.045  23.625  37.245  1.00  0.00     0.261 C 
BRANCH   5   6
ATOM      6  O   UNL A   1      46.865  25.010  36.904  1.00  0.00    -0.460 OA
BRANCH   6   7
ATOM      7  C   UNL A   1      45.807  25.808  37.192  1.00  0.00     0.338 C 
ATOM      8  O   UNL A   1      45.585  26.091  38.369  1.00  0.00    -0.246 OA
BRANCH   7   9
ATOM      9  C   UNL A   1      44.928  26.429  36.153  1.00  0.00     0.060 A 
ATOM     10  C   UNL A   1      45.257  27.542  35.379  1.00  0.00     0.016 A 
ATOM     11  C   UNL A   1      43.692  25.804  35.909  1.00  0.00     0.016 A 
ATOM     12  C   UNL A   1      44.336  28.109  34.501  1.00  0.00     0.010 A 
ATOM     13  C   UNL A   1      42.787  26.328  34.977  1.00  0.00     0.010 A 
ATOM     14  C   UNL A   1      43.087  27.518  34.306  1.00  0.00    -0.014 A 
BRANCH  14  15
ATOM     15  C   UNL A   1      42.063  28.243  33.516  1.00  0.00     0.031 A 
ATOM     16  C   UNL A   1      41.277  29.336  34.192  1.00  0.00     0.074 A 
ATOM     17  C   UNL A   1      41.949  28.042  32.190  1.00  0.00     0.049 A 
ATOM     18  N   UNL A   1      40.325  30.094  33.711  1.00  0.00    -0.248 NA
ATOM     19  C   UNL A   1      41.631  29.635  35.591  1.00  0.00     0.031 C 
ATOM     20  C   UNL A   1      42.767  27.127  31.389  1.00  0.00     0.029 A 
ATOM     21  N   UNL A   1      41.133  28.644  31.268  1.00  0.00    -0.354 N 
ATOM     22  C   UNL A   1      39.965  30.949  34.747  1.00  0.00     0.074 A 
ATOM     23  C   UNL A   1      40.779  30.604  35.889  1.00  0.00     0.031 C 
ATOM     24  C   UNL A   1      42.466  27.289  30.088  1.00  0.00     0.029 A 
ATOM     25  C   UNL A   1      41.381  28.256  29.973  1.00  0.00     0.049 A 
ATOM     26  H   UNL A   1      40.433  29.294  31.511  1.00  0.00     0.167 HD
ATOM     27  C   UNL A   1      39.044  31.942  34.744  1.00  0.00     0.031 A 
ATOM     28  C   UNL A   1      40.775  28.633  28.833  1.00  0.00     0.031 A 
ATOM     29  C   UNL A   1      38.231  32.278  33.609  1.00  0.00     0.049 A 
ATOM     30  C   UNL A   1      39.570  29.522  28.931  1.00  0.00     0.074 A 
ATOM     31  C   UNL A   1      37.235  33.231  33.502  1.00  0.00     0.029 A 
ATOM     32  N   UNL A   1      38.330  31.658  32.374  1.00  0.00    -0.354 N 
ATOM     33  N   UNL A   1      39.143  30.232  29.945  1.00  0.00    -0.248 NA
ATOM     34  C   UNL A   1      38.727  29.605  27.731  1.00  0.00     0.031 C 
ATOM     35  C   UNL A   1      36.700  33.157  32.210  1.00  0.00     0.029 A 
ATOM     36  C   UNL A   1      37.394  32.188  31.506  1.00  0.00     0.049 A 
ATOM     37  H   UNL A   1      38.972  30.947  32.148  1.00  0.00     0.167 HD
ATOM     38  C   UNL A   1      38.002  30.877  29.493  1.00  0.00     0.074 A 
ATOM     39  C   UNL A   1      37.794  30.460  28.121  1.00  0.00     0.031 C 
ATOM     40  C   UNL A   1      37.209  31.757  30.148  1.00  0.00     0.031 A 
BRANCH  27  41
ATOM     41  C   UNL A   1      38.845  32.694  36.028  1.00  0.00    -0.014 A 
ATOM     42  C   UNL A   1      39.534  33.889  36.287  1.00  0.00     0.009 A 
ATOM     43  C   UNL A   1      37.959  32.193  36.995  1.00  0.00     0.009 A 
ATOM     44  C   UNL A   1      39.364  34.550  37.507  1.00  0.00     0.001 A 
ATOM     45  C   UNL A   1      37.777  32.868  38.203  1.00  0.00     0.001 A 
ATOM     46  C   UNL A   1      38.485  34.041  38.461  1.00  0.00     0.000 A 
ENDBRANCH  27  41
BRANCH  28  47
ATOM     47  C   UNL A   1      41.188  28.122  27.502  1.00  0.00    -0.014 A 
ATOM     48  C   UNL A   1      40.893  26.805  27.117  1.00  0.00     0.009 A 
ATOM     49  C   UNL A   1      41.996  28.903  26.669  1.00  0.00     0.009 A 
ATOM     50  C   UNL A   1      41.414  26.281  25.929  1.00  0.00     0.001 A 
ATOM     51  C   UNL A   1      42.504  28.381  25.478  1.00  0.00     0.001 A 
ATOM     52  C   UNL A   1      42.216  27.071  25.109  1.00  0.00     0.000 A 
ENDBRANCH  28  47
BRANCH  40  53
ATOM     53  C   UNL A   1      36.103  32.375  29.352  1.00  0.00    -0.014 A 
ATOM     54  C   UNL A   1      36.273  33.598  28.689  1.00  0.00     0.009 A 
ATOM     55  C   UNL A   1      34.866  31.715  29.278  1.00  0.00     0.009 A 
ATOM     56  C   UNL A   1      35.208  34.165  27.987  1.00  0.00     0.001 A 
ATOM     57  C   UNL A   1      33.812  32.275  28.558  1.00  0.00     0.001 A 
ATOM     58  C   UNL A   1      33.982  33.503  27.921  1.00  0.00     0.000 A 
ENDBRANCH  40  53
ENDBRANCH  14  15
ENDBRANCH   7   9
ENDBRANCH   6   7
ENDBRANCH   5   6
ENDBRANCH   4   5
ENDBRANCH   3   4
ENDBRANCH   2   3
ENDBRANCH   1   2
BRANCH   1  59
ATOM     59  O   UNL A   1      50.603  24.876  33.597  1.00  0.00    -0.376 OA
BRANCH  59  60
ATOM     60  C   UNL A   1      50.128  24.588  32.283  1.00  0.00     0.202 C 
BRANCH  60  61
ATOM     61  C   UNL A   1      49.737  25.794  31.425  1.00  0.00     0.261 C 
BRANCH  61  62
ATOM     62  O   UNL A   1      48.424  25.690  30.840  1.00  0.00    -0.460 OA
BRANCH  62  63
ATOM     63  C   UNL A   1      47.451  26.273  31.571  1.00  0.00     0.338 C 
ATOM     64  O   UNL A   1      47.568  27.249  32.311  1.00  0.00    -0.246 OA
BRANCH  63  65
ATOM     65  C   UNL A   1      46.172  25.551  31.493  1.00  0.00     0.060 A 
ATOM     66  C   UNL A   1      45.594  24.899  32.579  1.00  0.00     0.016 A 
ATOM     67  C   UNL A   1      45.677  25.342  30.202  1.00  0.00     0.024 A 
ATOM     68  C   UNL A   1      44.558  23.994  32.345  1.00  0.00     0.002 A 
ATOM     69  C   UNL A   1      44.674  24.397  29.930  1.00  0.00    -0.017 A 
ATOM     70  C   UNL A   1      44.126  23.727  31.035  1.00  0.00     0.009 A 
BRANCH  69  71
ATOM     71  C   UNL A   1      44.336  24.078  28.528  1.00  0.00    -0.004 A 
ATOM     72  C   UNL A   1      45.182  24.474  27.468  1.00  0.00     0.056 A 
ATOM     73  C   UNL A   1      43.172  23.385  28.135  1.00  0.00     0.027 A 
ATOM     74  C   UNL A   1      44.875  24.236  26.131  1.00  0.00     0.129 A 
ATOM     75  C   UNL A   1      43.014  23.133  26.772  1.00  0.00     0.140 A 
ATOM     76  C   UNL A   1      42.002  22.861  28.764  1.00  0.00     0.030 A 
ATOM     77  N   UNL A   1      43.797  23.533  25.754  1.00  0.00    -0.213 NA
ATOM     78  N   UNL A   1      41.865  22.410  26.598  1.00  0.00    -0.346 N 
ATOM     79  C   UNL A   1      41.223  22.261  27.798  1.00  0.00     0.085 A 
ATOM     80  H   UNL A   1      41.548  22.051  25.738  1.00  0.00     0.167 HD
BRANCH  74  81
ATOM     81  N   UNL A   1      45.698  24.838  25.192  1.00  0.00    -0.364 N 
ATOM     82  H   UNL A   1      46.096  24.289  24.478  1.00  0.00     0.162 HD
BRANCH  81  83
ATOM     83  C   UNL A   1      45.988  26.261  25.237  1.00  0.00     0.170 C 
BRANCH  83  84
ATOM     84  C   UNL A   1      47.486  26.552  25.242  1.00  0.00     0.059 A 
ATOM     85  C   UNL A   1      48.277  26.403  24.099  1.00  0.00     0.026 A 
ATOM     86  N   UNL A   1      48.009  27.023  26.408  1.00  0.00    -0.259 NA
ATOM     87  C   UNL A   1      49.636  26.711  24.161  1.00  0.00     0.004 A 
ATOM     88  C   UNL A   1      49.329  27.315  26.436  1.00  0.00     0.111 A 
ATOM     89  C   UNL A   1      50.175  27.176  25.352  1.00  0.00     0.020 A 
ENDBRANCH  83  84
ENDBRANCH  81  83
ENDBRANCH  74  81
ENDBRANCH  69  71
ENDBRANCH  63  65
ENDBRANCH  62  63
ENDBRANCH  61  62
ENDBRANCH  60  61
ENDBRANCH  59  60
ENDBRANCH   1  59
TORSDOF 21
ENDMDL
