MODEL 1
REMARK VINA RESULT:     -10.6      0.000      0.000
REMARK SMILES O=C(CSc1nc(O)cc(=O)[nH]1)Nc1cccc(C(=O)OCCOCCOCCOC(=O)c2ccc(-c3c4nc(c(-c5ccccc5)c5ccc([nH]5)c(-c5ccccc5)c5nc(c(-c6ccccc6)c6ccc3[nH]6)C=C5)C=C4)cc2)c1
REMARK SMILES IDX 24 1 23 2 22 3 21 4 19 5 20 6 18 7 14 8 15 9 81 10 16 11
REMARK SMILES IDX 17 12 13 13 1 14 2 15 3 17 4 18 5 19 6 20 12 21 7 22 10 23
REMARK SMILES IDX 9 25 11 26 8 27 25 29 26 30 27 31 28 32 29 33 30 34 31 35
REMARK SMILES IDX 32 36 33 37 34 38 80 39 35 40 79 41 36 42 37 43 38 44 73 45
REMARK SMILES IDX 39 46 78 47 72 48 74 49 40 50 77 51 71 52 70 53 41 55 63 56
REMARK SMILES IDX 48 57 62 58 49 59 52 60 61 61 75 62 50 63 51 64 60 66 76 67
REMARK SMILES IDX 53 68 42 69 43 70 47 71 44 72 46 73 45 74 64 75 65 76 69 77
REMARK SMILES IDX 66 78 68 79 67 80 54 81 55 82 59 83 56 84 58 85 57 86
REMARK H PARENT 13 16 12 24 8 28 74 54 52 65
REMARK Flexibility Score: inf
ROOT
ATOM      1  O   UNL A   1      39.322  21.806  25.950  1.00  0.00    -0.376 OA
ENDROOT
BRANCH   1   2
ATOM      2  C   UNL A   1      38.187  21.142  25.421  1.00  0.00     0.202 C 
BRANCH   2   3
ATOM      3  C   UNL A   1      36.801  21.795  25.293  1.00  0.00     0.261 C 
BRANCH   3   4
ATOM      4  O   UNL A   1      35.678  20.935  25.506  1.00  0.00    -0.460 OA
BRANCH   4   5
ATOM      5  C   UNL A   1      34.605  21.506  26.119  1.00  0.00     0.338 C 
ATOM      6  O   UNL A   1      34.483  21.770  27.296  1.00  0.00    -0.246 OA
BRANCH   5   7
ATOM      7  C   UNL A   1      33.670  21.978  25.073  1.00  0.00     0.062 A 
ATOM      8  C   UNL A   1      32.192  23.673  24.182  1.00  0.00     0.042 A 
ATOM      9  C   UNL A   1      31.765  22.766  23.203  1.00  0.00     0.026 A 
ATOM     10  C   UNL A   1      33.113  23.254  25.145  1.00  0.00     0.041 A 
ATOM     11  C   UNL A   1      32.330  21.489  23.127  1.00  0.00     0.003 A 
ATOM     12  C   UNL A   1      33.302  21.101  24.048  1.00  0.00     0.016 A 
BRANCH   8  13
ATOM     13  N   UNL A   1      31.685  24.987  24.151  1.00  0.00    -0.325 N 
ATOM     14  O   UNL A   1      33.677  26.156  23.854  1.00  0.00    -0.274 OA
ATOM     15  C   UNL A   1      32.458  26.134  24.004  1.00  0.00     0.234 C 
ATOM     16  H   UNL A   1      30.711  25.103  24.240  1.00  0.00     0.169 HD
BRANCH  15  17
ATOM     17  C   UNL A   1      31.672  27.430  24.054  1.00  0.00     0.178 C 
BRANCH  17  18
ATOM     18  S   UNL A   1      31.161  27.978  22.403  1.00  0.00    -0.078 SA
BRANCH  18  19
ATOM     19  C   UNL A   1      29.708  28.841  22.807  1.00  0.00     0.172 A 
ATOM     20  N   UNL A   1      28.534  28.309  22.757  1.00  0.00    -0.189 NA
ATOM     21  N   UNL A   1      29.963  30.129  23.147  1.00  0.00    -0.301 N 
ATOM     22  C   UNL A   1      27.495  29.142  23.072  1.00  0.00     0.218 A 
ATOM     23  C   UNL A   1      28.966  30.990  23.479  1.00  0.00     0.255 A 
ATOM     24  H   UNL A   1      30.895  30.448  23.154  1.00  0.00     0.172 HD
ATOM     25  C   UNL A   1      27.615  30.424  23.426  1.00  0.00     0.139 A 
ATOM     26  O   UNL A   1      29.173  32.155  23.790  1.00  0.00    -0.269 OA
BRANCH  22  27
ATOM     27  O   UNL A   1      26.244  28.587  22.995  1.00  0.00    -0.493 OA
ATOM     28  H   UNL A   1      25.967  28.163  22.206  1.00  0.00     0.295 HD
ENDBRANCH  22  27
ENDBRANCH  18  19
ENDBRANCH  17  18
ENDBRANCH  15  17
ENDBRANCH   8  13
ENDBRANCH   5   7
ENDBRANCH   4   5
ENDBRANCH   3   4
ENDBRANCH   2   3
ENDBRANCH   1   2
BRANCH   1  29
ATOM     29  C   UNL A   1      40.340  21.082  26.609  1.00  0.00     0.188 C 
BRANCH  29  30
ATOM     30  C   UNL A   1      40.809  19.717  26.063  1.00  0.00     0.188 C 
BRANCH  30  31
ATOM     31  O   UNL A   1      42.056  19.633  25.419  1.00  0.00    -0.376 OA
BRANCH  31  32
ATOM     32  C   UNL A   1      43.193  20.290  25.951  1.00  0.00     0.202 C 
BRANCH  32  33
ATOM     33  C   UNL A   1      43.942  21.473  25.305  1.00  0.00     0.261 C 
BRANCH  33  34
ATOM     34  O   UNL A   1      44.230  22.617  26.112  1.00  0.00    -0.460 OA
BRANCH  34  35
ATOM     35  C   UNL A   1      44.136  23.814  25.481  1.00  0.00     0.338 C 
ATOM     36  O   UNL A   1      44.417  24.068  24.324  1.00  0.00    -0.246 OA
BRANCH  35  37
ATOM     37  C   UNL A   1      43.458  24.771  26.374  1.00  0.00     0.060 A 
ATOM     38  C   UNL A   1      43.883  26.107  26.381  1.00  0.00     0.016 A 
ATOM     39  C   UNL A   1      42.438  24.345  27.226  1.00  0.00     0.016 A 
ATOM     40  C   UNL A   1      43.296  27.022  27.255  1.00  0.00     0.010 A 
ATOM     41  C   UNL A   1      41.868  25.258  28.116  1.00  0.00     0.010 A 
ATOM     42  C   UNL A   1      42.310  26.594  28.153  1.00  0.00    -0.014 A 
BRANCH  42  43
ATOM     43  C   UNL A   1      41.846  27.494  29.236  1.00  0.00     0.031 A 
ATOM     44  C   UNL A   1      42.568  27.472  30.554  1.00  0.00     0.074 A 
ATOM     45  C   UNL A   1      40.798  28.317  29.055  1.00  0.00     0.049 A 
ATOM     46  N   UNL A   1      42.291  28.108  31.664  1.00  0.00    -0.248 NA
ATOM     47  C   UNL A   1      43.763  26.616  30.632  1.00  0.00     0.031 C 
ATOM     48  C   UNL A   1      40.045  28.471  27.813  1.00  0.00     0.029 A 
ATOM     49  N   UNL A   1      40.179  29.170  29.936  1.00  0.00    -0.354 N 
ATOM     50  C   UNL A   1      43.265  27.716  32.575  1.00  0.00     0.074 A 
ATOM     51  C   UNL A   1      44.125  26.771  31.896  1.00  0.00     0.031 C 
ATOM     52  C   UNL A   1      39.053  29.358  28.014  1.00  0.00     0.029 A 
ATOM     53  C   UNL A   1      39.078  29.797  29.408  1.00  0.00     0.049 A 
ATOM     54  H   UNL A   1      40.495  29.319  30.856  1.00  0.00     0.167 HD
ATOM     55  C   UNL A   1      43.430  28.108  33.860  1.00  0.00     0.031 A 
ATOM     56  C   UNL A   1      38.174  30.609  29.992  1.00  0.00     0.031 A 
ATOM     57  C   UNL A   1      42.561  29.031  34.542  1.00  0.00     0.049 A 
ATOM     58  C   UNL A   1      38.324  30.956  31.452  1.00  0.00     0.074 A 
ATOM     59  C   UNL A   1      42.653  29.501  35.842  1.00  0.00     0.029 A 
ATOM     60  N   UNL A   1      41.434  29.614  33.985  1.00  0.00    -0.354 N 
ATOM     61  N   UNL A   1      39.262  30.601  32.296  1.00  0.00    -0.248 NA
ATOM     62  C   UNL A   1      37.289  31.823  32.035  1.00  0.00     0.031 C 
ATOM     63  C   UNL A   1      41.544  30.315  36.090  1.00  0.00     0.029 A 
ATOM     64  C   UNL A   1      40.803  30.414  34.924  1.00  0.00     0.049 A 
ATOM     65  H   UNL A   1      41.127  29.481  33.059  1.00  0.00     0.167 HD
ATOM     66  C   UNL A   1      38.949  31.229  33.497  1.00  0.00     0.074 A 
ATOM     67  C   UNL A   1      37.744  31.997  33.267  1.00  0.00     0.031 C 
ATOM     68  C   UNL A   1      39.605  31.176  34.684  1.00  0.00     0.031 A 
BRANCH  55  69
ATOM     69  C   UNL A   1      44.571  27.502  34.629  1.00  0.00    -0.014 A 
ATOM     70  C   UNL A   1      44.401  26.343  35.403  1.00  0.00     0.009 A 
ATOM     71  C   UNL A   1      45.846  28.083  34.550  1.00  0.00     0.009 A 
ATOM     72  C   UNL A   1      45.477  25.801  36.111  1.00  0.00     0.001 A 
ATOM     73  C   UNL A   1      46.927  27.520  35.232  1.00  0.00     0.001 A 
ATOM     74  C   UNL A   1      46.739  26.386  36.019  1.00  0.00     0.000 A 
ENDBRANCH  55  69
BRANCH  56  75
ATOM     75  C   UNL A   1      37.022  31.133  29.209  1.00  0.00    -0.014 A 
ATOM     76  C   UNL A   1      35.918  30.315  28.924  1.00  0.00     0.009 A 
ATOM     77  C   UNL A   1      37.036  32.446  28.715  1.00  0.00     0.009 A 
ATOM     78  C   UNL A   1      34.865  30.792  28.139  1.00  0.00     0.001 A 
ATOM     79  C   UNL A   1      35.967  32.932  27.958  1.00  0.00     0.001 A 
ATOM     80  C   UNL A   1      34.889  32.102  27.661  1.00  0.00     0.000 A 
ENDBRANCH  56  75
BRANCH  68  81
ATOM     81  C   UNL A   1      39.064  32.011  35.814  1.00  0.00    -0.014 A 
ATOM     82  C   UNL A   1      39.316  33.389  35.898  1.00  0.00     0.009 A 
ATOM     83  C   UNL A   1      38.250  31.411  36.788  1.00  0.00     0.009 A 
ATOM     84  C   UNL A   1      38.795  34.140  36.954  1.00  0.00     0.001 A 
ATOM     85  C   UNL A   1      37.700  32.170  37.823  1.00  0.00     0.001 A 
ATOM     86  C   UNL A   1      37.983  33.532  37.911  1.00  0.00     0.000 A 
ENDBRANCH  68  81
ENDBRANCH  42  43
ENDBRANCH  35  37
ENDBRANCH  34  35
ENDBRANCH  33  34
ENDBRANCH  32  33
ENDBRANCH  31  32
ENDBRANCH  30  31
ENDBRANCH  29  30
ENDBRANCH   1  29
TORSDOF 22
ENDMDL
MODEL 2
REMARK VINA RESULT:     -10.4      4.406     10.723
REMARK SMILES O=C(CSc1nc(O)cc(=O)[nH]1)Nc1cccc(C(=O)OCCOCCOCCOC(=O)c2ccc(-c3c4nc(c(-c5ccccc5)c5ccc([nH]5)c(-c5ccccc5)c5nc(c(-c6ccccc6)c6ccc3[nH]6)C=C5)C=C4)cc2)c1
REMARK SMILES IDX 24 1 23 2 22 3 21 4 19 5 20 6 18 7 14 8 15 9 81 10 16 11
REMARK SMILES IDX 17 12 13 13 1 14 2 15 3 17 4 18 5 19 6 20 12 21 7 22 10 23
REMARK SMILES IDX 9 25 11 26 8 27 25 29 26 30 27 31 28 32 29 33 30 34 31 35
REMARK SMILES IDX 32 36 33 37 34 38 80 39 35 40 79 41 36 42 37 43 38 44 73 45
REMARK SMILES IDX 39 46 78 47 72 48 74 49 40 50 77 51 71 52 70 53 41 55 63 56
REMARK SMILES IDX 48 57 62 58 49 59 52 60 61 61 75 62 50 63 51 64 60 66 76 67
REMARK SMILES IDX 53 68 42 69 43 70 47 71 44 72 46 73 45 74 64 75 65 76 69 77
REMARK SMILES IDX 66 78 68 79 67 80 54 81 55 82 59 83 56 84 58 85 57 86
REMARK H PARENT 13 16 12 24 8 28 74 54 52 65
REMARK Flexibility Score: inf
ROOT
ATOM      1  O   UNL A   1      32.495  36.255  29.776  1.00  0.00    -0.376 OA
ENDROOT
BRANCH   1   2
ATOM      2  C   UNL A   1      33.636  36.313  28.936  1.00  0.00     0.202 C 
BRANCH   2   3
ATOM      3  C   UNL A   1      34.267  35.079  28.270  1.00  0.00     0.261 C 
BRANCH   3   4
ATOM      4  O   UNL A   1      33.793  33.808  28.722  1.00  0.00    -0.460 OA
BRANCH   4   5
ATOM      5  C   UNL A   1      32.988  33.135  27.856  1.00  0.00     0.338 C 
ATOM      6  O   UNL A   1      32.047  33.576  27.231  1.00  0.00    -0.246 OA
BRANCH   5   7
ATOM      7  C   UNL A   1      33.583  31.802  27.608  1.00  0.00     0.062 A 
ATOM      8  C   UNL A   1      33.351  29.482  26.969  1.00  0.00     0.042 A 
ATOM      9  C   UNL A   1      34.683  29.260  27.342  1.00  0.00     0.026 A 
ATOM     10  C   UNL A   1      32.793  30.748  27.150  1.00  0.00     0.041 A 
ATOM     11  C   UNL A   1      35.476  30.319  27.796  1.00  0.00     0.003 A 
ATOM     12  C   UNL A   1      34.933  31.598  27.907  1.00  0.00     0.016 A 
BRANCH   8  13
ATOM     13  N   UNL A   1      32.622  28.415  26.406  1.00  0.00    -0.325 N 
ATOM     14  O   UNL A   1      33.015  28.834  24.149  1.00  0.00    -0.274 OA
ATOM     15  C   UNL A   1      32.493  28.173  25.042  1.00  0.00     0.234 C 
ATOM     16  H   UNL A   1      32.171  27.794  27.023  1.00  0.00     0.169 HD
BRANCH  15  17
ATOM     17  C   UNL A   1      31.611  26.988  24.698  1.00  0.00     0.178 C 
BRANCH  17  18
ATOM     18  S   UNL A   1      30.706  26.372  26.145  1.00  0.00    -0.078 SA
BRANCH  18  19
ATOM     19  C   UNL A   1      31.263  24.727  26.170  1.00  0.00     0.172 A 
ATOM     20  N   UNL A   1      31.630  24.123  27.249  1.00  0.00    -0.189 NA
ATOM     21  N   UNL A   1      31.289  24.183  24.928  1.00  0.00    -0.301 N 
ATOM     22  C   UNL A   1      32.077  22.840  27.083  1.00  0.00     0.218 A 
ATOM     23  C   UNL A   1      31.713  22.910  24.715  1.00  0.00     0.255 A 
ATOM     24  H   UNL A   1      30.991  24.724  24.160  1.00  0.00     0.172 HD
ATOM     25  C   UNL A   1      32.147  22.192  25.917  1.00  0.00     0.139 A 
ATOM     26  O   UNL A   1      31.743  22.399  23.604  1.00  0.00    -0.269 OA
BRANCH  22  27
ATOM     27  O   UNL A   1      32.493  22.203  28.224  1.00  0.00    -0.493 OA
ATOM     28  H   UNL A   1      32.493  21.267  28.265  1.00  0.00     0.295 HD
ENDBRANCH  22  27
ENDBRANCH  18  19
ENDBRANCH  17  18
ENDBRANCH  15  17
ENDBRANCH   8  13
ENDBRANCH   5   7
ENDBRANCH   4   5
ENDBRANCH   3   4
ENDBRANCH   2   3
ENDBRANCH   1   2
BRANCH   1  29
ATOM     29  C   UNL A   1      32.631  36.302  31.181  1.00  0.00     0.188 C 
BRANCH  29  30
ATOM     30  C   UNL A   1      33.654  37.253  31.838  1.00  0.00     0.188 C 
BRANCH  30  31
ATOM     31  O   UNL A   1      34.346  36.822  32.984  1.00  0.00    -0.376 OA
BRANCH  31  32
ATOM     32  C   UNL A   1      34.423  35.446  33.310  1.00  0.00     0.202 C 
BRANCH  32  33
ATOM     33  C   UNL A   1      35.694  34.685  33.741  1.00  0.00     0.261 C 
BRANCH  33  34
ATOM     34  O   UNL A   1      35.649  33.257  33.785  1.00  0.00    -0.460 OA
BRANCH  34  35
ATOM     35  C   UNL A   1      35.185  32.655  32.662  1.00  0.00     0.338 C 
ATOM     36  O   UNL A   1      34.054  32.695  32.210  1.00  0.00    -0.246 OA
BRANCH  35  37
ATOM     37  C   UNL A   1      36.321  32.058  31.937  1.00  0.00     0.060 A 
ATOM     38  C   UNL A   1      37.096  31.083  32.579  1.00  0.00     0.016 A 
ATOM     39  C   UNL A   1      36.642  32.488  30.648  1.00  0.00     0.016 A 
ATOM     40  C   UNL A   1      38.210  30.542  31.937  1.00  0.00     0.010 A 
ATOM     41  C   UNL A   1      37.771  31.961  30.017  1.00  0.00     0.010 A 
ATOM     42  C   UNL A   1      38.574  31.005  30.666  1.00  0.00    -0.014 A 
BRANCH  42  43
ATOM     43  C   UNL A   1      39.875  30.610  30.074  1.00  0.00     0.031 A 
ATOM     44  C   UNL A   1      39.995  29.257  29.430  1.00  0.00     0.074 A 
ATOM     45  C   UNL A   1      40.935  31.436  30.108  1.00  0.00     0.049 A 
ATOM     46  N   UNL A   1      41.049  28.669  28.923  1.00  0.00    -0.248 NA
ATOM     47  C   UNL A   1      38.761  28.459  29.348  1.00  0.00     0.031 C 
ATOM     48  C   UNL A   1      40.938  32.791  30.656  1.00  0.00     0.029 A 
ATOM     49  N   UNL A   1      42.225  31.241  29.680  1.00  0.00    -0.354 N 
ATOM     50  C   UNL A   1      40.608  27.428  28.478  1.00  0.00     0.074 A 
ATOM     51  C   UNL A   1      39.200  27.338  28.796  1.00  0.00     0.031 C 
ATOM     52  C   UNL A   1      42.177  33.302  30.544  1.00  0.00     0.029 A 
ATOM     53  C   UNL A   1      43.060  32.296  29.956  1.00  0.00     0.049 A 
ATOM     54  H   UNL A   1      42.523  30.424  29.218  1.00  0.00     0.167 HD
ATOM     55  C   UNL A   1      41.313  26.450  27.860  1.00  0.00     0.031 A 
ATOM     56  C   UNL A   1      44.391  32.423  29.784  1.00  0.00     0.031 A 
ATOM     57  C   UNL A   1      42.719  26.530  27.563  1.00  0.00     0.049 A 
ATOM     58  C   UNL A   1      45.172  31.283  29.181  1.00  0.00     0.074 A 
ATOM     59  C   UNL A   1      43.520  25.597  26.928  1.00  0.00     0.029 A 
ATOM     60  N   UNL A   1      43.536  27.600  27.894  1.00  0.00    -0.354 N 
ATOM     61  N   UNL A   1      44.742  30.125  28.741  1.00  0.00    -0.248 NA
ATOM     62  C   UNL A   1      46.623  31.474  29.046  1.00  0.00     0.031 C 
ATOM     63  C   UNL A   1      44.834  26.073  26.934  1.00  0.00     0.029 A 
ATOM     64  C   UNL A   1      44.840  27.335  27.506  1.00  0.00     0.049 A 
ATOM     65  H   UNL A   1      43.236  28.425  28.340  1.00  0.00     0.167 HD
ATOM     66  C   UNL A   1      45.863  29.467  28.247  1.00  0.00     0.074 A 
ATOM     67  C   UNL A   1      46.988  30.360  28.428  1.00  0.00     0.031 C 
ATOM     68  C   UNL A   1      45.951  28.233  27.689  1.00  0.00     0.031 A 
BRANCH  55  69
ATOM     69  C   UNL A   1      40.580  25.187  27.503  1.00  0.00    -0.014 A 
ATOM     70  C   UNL A   1      39.457  25.204  26.661  1.00  0.00     0.009 A 
ATOM     71  C   UNL A   1      41.041  23.955  27.993  1.00  0.00     0.009 A 
ATOM     72  C   UNL A   1      38.791  24.017  26.346  1.00  0.00     0.001 A 
ATOM     73  C   UNL A   1      40.394  22.767  27.650  1.00  0.00     0.001 A 
ATOM     74  C   UNL A   1      39.263  22.800  26.836  1.00  0.00     0.000 A 
ENDBRANCH  55  69
BRANCH  56  75
ATOM     75  C   UNL A   1      45.086  33.666  30.214  1.00  0.00    -0.014 A 
ATOM     76  C   UNL A   1      45.633  33.773  31.501  1.00  0.00     0.009 A 
ATOM     77  C   UNL A   1      45.177  34.766  29.347  1.00  0.00     0.009 A 
ATOM     78  C   UNL A   1      46.234  34.963  31.921  1.00  0.00     0.001 A 
ATOM     79  C   UNL A   1      45.807  35.944  29.757  1.00  0.00     0.001 A 
ATOM     80  C   UNL A   1      46.325  36.045  31.046  1.00  0.00     0.000 A 
ENDBRANCH  56  75
BRANCH  68  81
ATOM     81  C   UNL A   1      47.300  27.793  27.186  1.00  0.00    -0.014 A 
ATOM     82  C   UNL A   1      48.231  27.163  28.027  1.00  0.00     0.009 A 
ATOM     83  C   UNL A   1      47.626  27.975  25.832  1.00  0.00     0.009 A 
ATOM     84  C   UNL A   1      49.473  26.759  27.530  1.00  0.00     0.001 A 
ATOM     85  C   UNL A   1      48.853  27.538  25.329  1.00  0.00     0.001 A 
ATOM     86  C   UNL A   1      49.779  26.941  26.182  1.00  0.00     0.000 A 
ENDBRANCH  68  81
ENDBRANCH  42  43
ENDBRANCH  35  37
ENDBRANCH  34  35
ENDBRANCH  33  34
ENDBRANCH  32  33
ENDBRANCH  31  32
ENDBRANCH  30  31
ENDBRANCH  29  30
ENDBRANCH   1  29
TORSDOF 22
ENDMDL
MODEL 3
REMARK VINA RESULT:     -10.4      4.455     10.549
REMARK SMILES O=C(CSc1nc(O)cc(=O)[nH]1)Nc1cccc(C(=O)OCCOCCOCCOC(=O)c2ccc(-c3c4nc(c(-c5ccccc5)c5ccc([nH]5)c(-c5ccccc5)c5nc(c(-c6ccccc6)c6ccc3[nH]6)C=C5)C=C4)cc2)c1
REMARK SMILES IDX 24 1 23 2 22 3 21 4 19 5 20 6 18 7 14 8 15 9 81 10 16 11
REMARK SMILES IDX 17 12 13 13 1 14 2 15 3 17 4 18 5 19 6 20 12 21 7 22 10 23
REMARK SMILES IDX 9 25 11 26 8 27 25 29 26 30 27 31 28 32 29 33 30 34 31 35
REMARK SMILES IDX 32 36 33 37 34 38 80 39 35 40 79 41 36 42 37 43 38 44 73 45
REMARK SMILES IDX 39 46 78 47 72 48 74 49 40 50 77 51 71 52 70 53 41 55 63 56
REMARK SMILES IDX 48 57 62 58 49 59 52 60 61 61 75 62 50 63 51 64 60 66 76 67
REMARK SMILES IDX 53 68 42 69 43 70 47 71 44 72 46 73 45 74 64 75 65 76 69 77
REMARK SMILES IDX 66 78 68 79 67 80 54 81 55 82 59 83 56 84 58 85 57 86
REMARK H PARENT 13 16 12 24 8 28 74 54 52 65
REMARK Flexibility Score: inf
ROOT
ATOM      1  O   UNL A   1      32.800  35.278  30.626  1.00  0.00    -0.376 OA
ENDROOT
BRANCH   1   2
ATOM      2  C   UNL A   1      32.900  35.608  29.251  1.00  0.00     0.202 C 
BRANCH   2   3
ATOM      3  C   UNL A   1      33.689  34.771  28.230  1.00  0.00     0.261 C 
BRANCH   3   4
ATOM      4  O   UNL A   1      33.620  33.352  28.391  1.00  0.00    -0.460 OA
BRANCH   4   5
ATOM      5  C   UNL A   1      32.714  32.711  27.602  1.00  0.00     0.338 C 
ATOM      6  O   UNL A   1      31.727  33.184  27.081  1.00  0.00    -0.246 OA
BRANCH   5   7
ATOM      7  C   UNL A   1      33.247  31.369  27.279  1.00  0.00     0.062 A 
ATOM      8  C   UNL A   1      33.007  29.211  26.215  1.00  0.00     0.042 A 
ATOM      9  C   UNL A   1      34.178  28.781  26.852  1.00  0.00     0.026 A 
ATOM     10  C   UNL A   1      32.522  30.494  26.472  1.00  0.00     0.041 A 
ATOM     11  C   UNL A   1      34.909  29.661  27.657  1.00  0.00     0.003 A 
ATOM     12  C   UNL A   1      34.457  30.965  27.852  1.00  0.00     0.016 A 
BRANCH   8  13
ATOM     13  N   UNL A   1      32.365  28.332  25.320  1.00  0.00    -0.325 N 
ATOM     14  O   UNL A   1      34.130  26.877  24.883  1.00  0.00    -0.274 OA
ATOM     15  C   UNL A   1      32.969  27.239  24.708  1.00  0.00     0.234 C 
ATOM     16  H   UNL A   1      31.417  28.503  25.113  1.00  0.00     0.169 HD
BRANCH  15  17
ATOM     17  C   UNL A   1      32.071  26.484  23.746  1.00  0.00     0.178 C 
BRANCH  17  18
ATOM     18  S   UNL A   1      30.362  26.391  24.346  1.00  0.00    -0.078 SA
BRANCH  18  19
ATOM     19  C   UNL A   1      29.642  27.658  23.399  1.00  0.00     0.172 A 
ATOM     20  N   UNL A   1      30.326  28.465  22.662  1.00  0.00    -0.189 NA
ATOM     21  N   UNL A   1      28.296  27.704  23.559  1.00  0.00    -0.301 N 
ATOM     22  C   UNL A   1      29.603  29.428  22.013  1.00  0.00     0.218 A 
ATOM     23  C   UNL A   1      27.534  28.635  22.926  1.00  0.00     0.255 A 
ATOM     24  H   UNL A   1      27.859  27.046  24.148  1.00  0.00     0.172 HD
ATOM     25  C   UNL A   1      28.278  29.576  22.084  1.00  0.00     0.139 A 
ATOM     26  O   UNL A   1      26.318  28.694  23.054  1.00  0.00    -0.269 OA
BRANCH  22  27
ATOM     27  O   UNL A   1      30.330  30.304  21.249  1.00  0.00    -0.493 OA
ATOM     28  H   UNL A   1      30.741  31.045  21.648  1.00  0.00     0.295 HD
ENDBRANCH  22  27
ENDBRANCH  18  19
ENDBRANCH  17  18
ENDBRANCH  15  17
ENDBRANCH   8  13
ENDBRANCH   5   7
ENDBRANCH   4   5
ENDBRANCH   3   4
ENDBRANCH   2   3
ENDBRANCH   1   2
BRANCH   1  29
ATOM     29  C   UNL A   1      33.936  35.323  31.463  1.00  0.00     0.188 C 
BRANCH  29  30
ATOM     30  C   UNL A   1      33.970  36.258  32.690  1.00  0.00     0.188 C 
BRANCH  30  31
ATOM     31  O   UNL A   1      34.865  35.977  33.737  1.00  0.00    -0.376 OA
BRANCH  31  32
ATOM     32  C   UNL A   1      35.637  34.790  33.732  1.00  0.00     0.202 C 
BRANCH  32  33
ATOM     33  C   UNL A   1      35.101  33.358  33.939  1.00  0.00     0.261 C 
BRANCH  33  34
ATOM     34  O   UNL A   1      35.814  32.273  33.341  1.00  0.00    -0.460 OA
BRANCH  34  35
ATOM     35  C   UNL A   1      36.981  31.939  33.945  1.00  0.00     0.338 C 
ATOM     36  O   UNL A   1      37.236  31.967  35.136  1.00  0.00    -0.246 OA
BRANCH  35  37
ATOM     37  C   UNL A   1      37.884  31.347  32.942  1.00  0.00     0.060 A 
ATOM     38  C   UNL A   1      39.093  30.782  33.371  1.00  0.00     0.016 A 
ATOM     39  C   UNL A   1      37.559  31.387  31.586  1.00  0.00     0.016 A 
ATOM     40  C   UNL A   1      39.992  30.265  32.438  1.00  0.00     0.010 A 
ATOM     41  C   UNL A   1      38.472  30.889  30.652  1.00  0.00     0.010 A 
ATOM     42  C   UNL A   1      39.702  30.349  31.071  1.00  0.00    -0.014 A 
BRANCH  42  43
ATOM     43  C   UNL A   1      40.741  30.016  30.066  1.00  0.00     0.031 A 
ATOM     44  C   UNL A   1      40.651  28.702  29.341  1.00  0.00     0.074 A 
ATOM     45  C   UNL A   1      41.750  30.864  29.802  1.00  0.00     0.049 A 
ATOM     46  N   UNL A   1      41.485  28.166  28.486  1.00  0.00    -0.248 NA
ATOM     47  C   UNL A   1      39.461  27.881  29.619  1.00  0.00     0.031 C 
ATOM     48  C   UNL A   1      41.924  32.187  30.396  1.00  0.00     0.029 A 
ATOM     49  N   UNL A   1      42.831  30.722  28.967  1.00  0.00    -0.354 N 
ATOM     50  C   UNL A   1      40.929  26.941  28.138  1.00  0.00     0.074 A 
ATOM     51  C   UNL A   1      39.701  26.802  28.890  1.00  0.00     0.031 C 
ATOM     52  C   UNL A   1      43.057  32.732  29.918  1.00  0.00     0.029 A 
ATOM     53  C   UNL A   1      43.705  31.780  29.018  1.00  0.00     0.049 A 
ATOM     54  H   UNL A   1      42.967  29.937  28.388  1.00  0.00     0.167 HD
ATOM     55  C   UNL A   1      41.399  26.014  27.269  1.00  0.00     0.031 A 
ATOM     56  C   UNL A   1      44.907  31.946  28.431  1.00  0.00     0.031 A 
ATOM     57  C   UNL A   1      42.632  26.142  26.537  1.00  0.00     0.049 A 
ATOM     58  C   UNL A   1      45.455  30.858  27.542  1.00  0.00     0.074 A 
ATOM     59  C   UNL A   1      43.187  25.263  25.624  1.00  0.00     0.029 A 
ATOM     60  N   UNL A   1      43.507  27.211  26.646  1.00  0.00    -0.354 N 
ATOM     61  N   UNL A   1      44.911  29.715  27.199  1.00  0.00    -0.248 NA
ATOM     62  C   UNL A   1      46.783  31.090  26.954  1.00  0.00     0.031 C 
ATOM     63  C   UNL A   1      44.429  25.769  25.230  1.00  0.00     0.029 A 
ATOM     64  C   UNL A   1      44.614  26.998  25.840  1.00  0.00     0.049 A 
ATOM     65  H   UNL A   1      43.364  28.004  27.212  1.00  0.00     0.167 HD
ATOM     66  C   UNL A   1      45.813  29.111  26.331  1.00  0.00     0.074 A 
ATOM     67  C   UNL A   1      46.931  30.019  26.188  1.00  0.00     0.031 C 
ATOM     68  C   UNL A   1      45.720  27.910  25.705  1.00  0.00     0.031 A 
BRANCH  55  69
ATOM     69  C   UNL A   1      40.596  24.755  27.098  1.00  0.00    -0.014 A 
ATOM     70  C   UNL A   1      39.403  24.741  26.358  1.00  0.00     0.009 A 
ATOM     71  C   UNL A   1      41.059  23.554  27.659  1.00  0.00     0.009 A 
ATOM     72  C   UNL A   1      38.673  23.558  26.215  1.00  0.00     0.001 A 
ATOM     73  C   UNL A   1      40.344  22.368  27.488  1.00  0.00     0.001 A 
ATOM     74  C   UNL A   1      39.147  22.373  26.775  1.00  0.00     0.000 A 
ENDBRANCH  55  69
BRANCH  56  75
ATOM     75  C   UNL A   1      45.698  33.181  28.682  1.00  0.00    -0.014 A 
ATOM     76  C   UNL A   1      46.586  33.254  29.766  1.00  0.00     0.009 A 
ATOM     77  C   UNL A   1      45.546  34.305  27.856  1.00  0.00     0.009 A 
ATOM     78  C   UNL A   1      47.284  34.435  30.033  1.00  0.00     0.001 A 
ATOM     79  C   UNL A   1      46.268  35.474  28.105  1.00  0.00     0.001 A 
ATOM     80  C   UNL A   1      47.128  35.542  29.199  1.00  0.00     0.000 A 
ENDBRANCH  56  75
BRANCH  68  81
ATOM     81  C   UNL A   1      46.834  27.530  24.766  1.00  0.00    -0.014 A 
ATOM     82  C   UNL A   1      47.779  26.547  25.104  1.00  0.00     0.009 A 
ATOM     83  C   UNL A   1      46.911  28.136  23.502  1.00  0.00     0.009 A 
ATOM     84  C   UNL A   1      48.798  26.209  24.209  1.00  0.00     0.001 A 
ATOM     85  C   UNL A   1      47.908  27.771  22.595  1.00  0.00     0.001 A 
ATOM     86  C   UNL A   1      48.857  26.816  22.955  1.00  0.00     0.000 A 
ENDBRANCH  68  81
ENDBRANCH  42  43
ENDBRANCH  35  37
ENDBRANCH  34  35
ENDBRANCH  33  34
ENDBRANCH  32  33
ENDBRANCH  31  32
ENDBRANCH  30  31
ENDBRANCH  29  30
ENDBRANCH   1  29
TORSDOF 22
ENDMDL
