MODEL 1
REMARK VINA RESULT:     -10.6      0.000      0.000
REMARK SMILES CC1(C)S[C@H]2[C@H](NC(=O)[C@H](NN3CCNC3=O)c3ccccc3)C(=O)N2[C@H]1C(=O)OCCOCCOCCOC(=O)c1ccc(-c2c3nc(c(-c4ccccc4)c4ccc([nH]4)c(-c4ccccc4)c4nc(c(-c5ccccc5)c5ccc2[nH]5)C=C4)C=C3)cc1
REMARK SMILES IDX 34 1 33 2 32 3 31 4 30 5 28 6 29 7 27 8 1 9 2 10 3 11 4 12
REMARK SMILES IDX 5 13 26 14 6 15 24 16 25 17 7 18 8 19 9 21 10 22 18 23 19 24
REMARK SMILES IDX 23 25 20 26 22 27 21 28 11 29 12 31 13 32 16 33 14 34 15 35
REMARK SMILES IDX 17 36 35 38 36 39 37 40 38 41 39 42 40 43 41 44 42 45 43 46
REMARK SMILES IDX 89 47 44 48 88 49 45 50 46 51 47 52 82 53 48 54 87 55 81 56
REMARK SMILES IDX 83 57 49 58 86 59 80 60 79 61 50 63 72 64 57 65 71 66 58 67
REMARK SMILES IDX 61 68 70 69 84 70 59 71 60 72 69 74 85 75 62 76 51 77 52 78
REMARK SMILES IDX 56 79 53 80 55 81 54 82 73 83 74 84 78 85 75 86 77 87 76 88
REMARK SMILES IDX 63 89 64 90 68 91 65 92 67 93 66 94
REMARK H PARENT 7 20 11 30 15 37 83 62 61 73
REMARK Flexibility Score: inf
ROOT
ATOM      1  C   UNL A   1      34.332  31.833  27.760  1.00  0.00     0.188 C 
ENDROOT
BRANCH   1   2
ATOM      2  O   UNL A   1      35.242  30.773  28.033  1.00  0.00    -0.376 OA
BRANCH   2   3
ATOM      3  C   UNL A   1      34.964  29.460  27.562  1.00  0.00     0.202 C 
BRANCH   3   4
ATOM      4  C   UNL A   1      33.537  29.212  27.072  1.00  0.00     0.261 C 
BRANCH   4   5
ATOM      5  O   UNL A   1      33.411  29.110  25.638  1.00  0.00    -0.462 OA
BRANCH   5   6
ATOM      6  C   UNL A   1      32.149  29.181  25.147  1.00  0.00     0.330 C 
ATOM      7  O   UNL A   1      31.292  29.964  25.546  1.00  0.00    -0.250 OA
BRANCH   6   8
ATOM      8  C   UNL A   1      31.826  28.069  24.144  1.00  0.00     0.212 C 
ATOM      9  C   UNL A   1      33.372  28.186  22.103  1.00  0.00     0.026 C 
ATOM     10  C   UNL A   1      32.895  27.341  23.293  1.00  0.00     0.044 C 
ATOM     11  C   UNL A   1      34.102  26.705  23.995  1.00  0.00     0.026 C 
ATOM     12  S   UNL A   1      31.936  25.909  22.558  1.00  0.00    -0.125 SA
ATOM     13  C   UNL A   1      30.719  25.852  23.924  1.00  0.00     0.176 C 
ATOM     14  N   UNL A   1      30.923  27.071  24.710  1.00  0.00    -0.311 N 
ATOM     15  C   UNL A   1      31.213  25.055  25.151  1.00  0.00     0.205 C 
ATOM     16  C   UNL A   1      31.145  26.404  25.876  1.00  0.00     0.250 C 
ATOM     17  O   UNL A   1      31.417  26.802  26.988  1.00  0.00    -0.272 OA
BRANCH  15  18
ATOM     18  N   UNL A   1      30.357  23.955  25.605  1.00  0.00    -0.340 N 
ATOM     19  C   UNL A   1      30.744  22.650  25.812  1.00  0.00     0.244 C 
ATOM     20  H   UNL A   1      29.412  24.170  25.779  1.00  0.00     0.164 HD
ATOM     21  O   UNL A   1      29.889  21.879  26.256  1.00  0.00    -0.273 OA
BRANCH  19  22
ATOM     22  C   UNL A   1      32.229  22.240  25.529  1.00  0.00     0.194 C 
BRANCH  22  23
ATOM     23  C   UNL A   1      32.365  20.917  24.759  1.00  0.00    -0.020 A 
ATOM     24  C   UNL A   1      32.644  19.698  25.405  1.00  0.00     0.006 A 
ATOM     25  C   UNL A   1      32.245  20.890  23.357  1.00  0.00     0.006 A 
ATOM     26  C   UNL A   1      32.717  18.498  24.689  1.00  0.00     0.000 A 
ATOM     27  C   UNL A   1      32.283  19.687  22.647  1.00  0.00     0.000 A 
ATOM     28  C   UNL A   1      32.512  18.489  23.314  1.00  0.00     0.000 A 
ENDBRANCH  22  23
BRANCH  22  29
ATOM     29  N   UNL A   1      32.931  23.442  24.992  1.00  0.00    -0.213 NA
ATOM     30  H   UNL A   1      32.656  24.248  25.553  1.00  0.00     0.149 HD
BRANCH  29  31
ATOM     31  N   UNL A   1      34.323  23.356  25.007  1.00  0.00    -0.257 N 
ATOM     32  C   UNL A   1      35.141  23.249  26.186  1.00  0.00     0.163 C 
ATOM     33  C   UNL A   1      35.096  23.291  23.835  1.00  0.00     0.331 C 
ATOM     34  C   UNL A   1      36.530  23.569  25.642  1.00  0.00     0.141 C 
ATOM     35  N   UNL A   1      36.425  23.326  24.224  1.00  0.00    -0.335 N 
ATOM     36  O   UNL A   1      34.686  23.264  22.686  1.00  0.00    -0.247 OA
ATOM     37  H   UNL A   1      37.192  23.203  23.618  1.00  0.00     0.165 HD
ENDBRANCH  29  31
ENDBRANCH  22  29
ENDBRANCH  19  22
ENDBRANCH  15  18
ENDBRANCH   6   8
ENDBRANCH   5   6
ENDBRANCH   4   5
ENDBRANCH   3   4
ENDBRANCH   2   3
ENDBRANCH   1   2
BRANCH   1  38
ATOM     38  C   UNL A   1      34.554  33.191  28.423  1.00  0.00     0.188 C 
BRANCH  38  39
ATOM     39  O   UNL A   1      33.346  33.868  28.726  1.00  0.00    -0.376 OA
BRANCH  39  40
ATOM     40  C   UNL A   1      33.457  35.281  28.831  1.00  0.00     0.202 C 
BRANCH  40  41
ATOM     41  C   UNL A   1      32.906  35.751  30.179  1.00  0.00     0.261 C 
BRANCH  41  42
ATOM     42  O   UNL A   1      33.032  34.776  31.232  1.00  0.00    -0.460 OA
BRANCH  42  43
ATOM     43  C   UNL A   1      33.934  35.047  32.204  1.00  0.00     0.338 C 
ATOM     44  O   UNL A   1      33.800  35.814  33.139  1.00  0.00    -0.246 OA
BRANCH  43  45
ATOM     45  C   UNL A   1      35.048  34.083  32.072  1.00  0.00     0.060 A 
ATOM     46  C   UNL A   1      34.931  32.827  32.683  1.00  0.00     0.016 A 
ATOM     47  C   UNL A   1      36.198  34.418  31.355  1.00  0.00     0.016 A 
ATOM     48  C   UNL A   1      35.982  31.912  32.604  1.00  0.00     0.010 A 
ATOM     49  C   UNL A   1      37.256  33.512  31.293  1.00  0.00     0.010 A 
ATOM     50  C   UNL A   1      37.165  32.267  31.941  1.00  0.00    -0.014 A 
BRANCH  50  51
ATOM     51  C   UNL A   1      38.386  31.442  32.090  1.00  0.00     0.031 A 
ATOM     52  C   UNL A   1      39.340  31.783  33.202  1.00  0.00     0.074 A 
ATOM     53  C   UNL A   1      38.652  30.419  31.259  1.00  0.00     0.049 A 
ATOM     54  N   UNL A   1      40.518  31.280  33.469  1.00  0.00    -0.248 NA
ATOM     55  C   UNL A   1      38.904  32.833  34.137  1.00  0.00     0.031 C 
ATOM     56  C   UNL A   1      37.785  29.947  30.183  1.00  0.00     0.029 A 
ATOM     57  N   UNL A   1      39.750  29.597  31.195  1.00  0.00    -0.354 N 
ATOM     58  C   UNL A   1      40.962  31.951  34.600  1.00  0.00     0.074 A 
ATOM     59  C   UNL A   1      39.943  32.914  34.955  1.00  0.00     0.031 C 
ATOM     60  C   UNL A   1      38.389  28.920  29.557  1.00  0.00     0.029 A 
ATOM     61  C   UNL A   1      39.700  28.693  30.163  1.00  0.00     0.049 A 
ATOM     62  H   UNL A   1      40.502  29.651  31.828  1.00  0.00     0.167 HD
ATOM     63  C   UNL A   1      42.116  31.783  35.288  1.00  0.00     0.031 A 
ATOM     64  C   UNL A   1      40.621  27.805  29.743  1.00  0.00     0.031 A 
ATOM     65  C   UNL A   1      43.146  30.850  34.924  1.00  0.00     0.049 A 
ATOM     66  C   UNL A   1      41.946  27.716  30.456  1.00  0.00     0.074 A 
ATOM     67  C   UNL A   1      44.366  30.629  35.538  1.00  0.00     0.029 A 
ATOM     68  N   UNL A   1      43.076  29.986  33.845  1.00  0.00    -0.354 N 
ATOM     69  N   UNL A   1      42.361  28.363  31.518  1.00  0.00    -0.248 NA
ATOM     70  C   UNL A   1      42.931  26.770  29.908  1.00  0.00     0.031 C 
ATOM     71  C   UNL A   1      45.052  29.654  34.806  1.00  0.00     0.029 A 
ATOM     72  C   UNL A   1      44.237  29.237  33.766  1.00  0.00     0.049 A 
ATOM     73  H   UNL A   1      42.314  29.914  33.225  1.00  0.00     0.167 HD
ATOM     74  C   UNL A   1      43.638  27.881  31.781  1.00  0.00     0.074 A 
ATOM     75  C   UNL A   1      43.926  26.880  30.777  1.00  0.00     0.031 C 
ATOM     76  C   UNL A   1      44.499  28.235  32.768  1.00  0.00     0.031 A 
BRANCH  63  77
ATOM     77  C   UNL A   1      42.328  32.654  36.490  1.00  0.00    -0.014 A 
ATOM     78  C   UNL A   1      41.943  32.226  37.770  1.00  0.00     0.009 A 
ATOM     79  C   UNL A   1      42.938  33.910  36.344  1.00  0.00     0.009 A 
ATOM     80  C   UNL A   1      42.139  33.051  38.878  1.00  0.00     0.001 A 
ATOM     81  C   UNL A   1      43.154  34.723  37.459  1.00  0.00     0.001 A 
ATOM     82  C   UNL A   1      42.747  34.297  38.722  1.00  0.00     0.000 A 
ENDBRANCH  63  77
BRANCH  64  83
ATOM     83  C   UNL A   1      40.356  26.940  28.562  1.00  0.00    -0.014 A 
ATOM     84  C   UNL A   1      39.633  25.746  28.700  1.00  0.00     0.009 A 
ATOM     85  C   UNL A   1      40.877  27.275  27.302  1.00  0.00     0.009 A 
ATOM     86  C   UNL A   1      39.463  24.889  27.609  1.00  0.00     0.001 A 
ATOM     87  C   UNL A   1      40.683  26.431  26.207  1.00  0.00     0.001 A 
ATOM     88  C   UNL A   1      39.987  25.233  26.364  1.00  0.00     0.000 A 
ENDBRANCH  64  83
BRANCH  76  89
ATOM     89  C   UNL A   1      45.806  27.499  32.841  1.00  0.00    -0.014 A 
ATOM     90  C   UNL A   1      46.964  28.004  32.231  1.00  0.00     0.009 A 
ATOM     91  C   UNL A   1      45.886  26.303  33.573  1.00  0.00     0.009 A 
ATOM     92  C   UNL A   1      48.171  27.309  32.328  1.00  0.00     0.001 A 
ATOM     93  C   UNL A   1      47.099  25.625  33.690  1.00  0.00     0.001 A 
ATOM     94  C   UNL A   1      48.238  26.123  33.061  1.00  0.00     0.000 A 
ENDBRANCH  76  89
ENDBRANCH  50  51
ENDBRANCH  43  45
ENDBRANCH  42  43
ENDBRANCH  41  42
ENDBRANCH  40  41
ENDBRANCH  39  40
ENDBRANCH  38  39
ENDBRANCH   1  38
TORSDOF 22
ENDMDL
MODEL 2
REMARK VINA RESULT:     -10.3      1.935      6.097
REMARK SMILES CC1(C)S[C@H]2[C@H](NC(=O)[C@H](NN3CCNC3=O)c3ccccc3)C(=O)N2[C@H]1C(=O)OCCOCCOCCOC(=O)c1ccc(-c2c3nc(c(-c4ccccc4)c4ccc([nH]4)c(-c4ccccc4)c4nc(c(-c5ccccc5)c5ccc2[nH]5)C=C4)C=C3)cc1
REMARK SMILES IDX 34 1 33 2 32 3 31 4 30 5 28 6 29 7 27 8 1 9 2 10 3 11 4 12
REMARK SMILES IDX 5 13 26 14 6 15 24 16 25 17 7 18 8 19 9 21 10 22 18 23 19 24
REMARK SMILES IDX 23 25 20 26 22 27 21 28 11 29 12 31 13 32 16 33 14 34 15 35
REMARK SMILES IDX 17 36 35 38 36 39 37 40 38 41 39 42 40 43 41 44 42 45 43 46
REMARK SMILES IDX 89 47 44 48 88 49 45 50 46 51 47 52 82 53 48 54 87 55 81 56
REMARK SMILES IDX 83 57 49 58 86 59 80 60 79 61 50 63 72 64 57 65 71 66 58 67
REMARK SMILES IDX 61 68 70 69 84 70 59 71 60 72 69 74 85 75 62 76 51 77 52 78
REMARK SMILES IDX 56 79 53 80 55 81 54 82 73 83 74 84 78 85 75 86 77 87 76 88
REMARK SMILES IDX 63 89 64 90 68 91 65 92 67 93 66 94
REMARK H PARENT 7 20 11 30 15 37 83 62 61 73
REMARK Flexibility Score: inf
ROOT
ATOM      1  C   UNL A   1      34.071  31.690  27.591  1.00  0.00     0.188 C 
ENDROOT
BRANCH   1   2
ATOM      2  O   UNL A   1      32.687  31.385  27.465  1.00  0.00    -0.376 OA
BRANCH   2   3
ATOM      3  C   UNL A   1      32.200  30.771  26.278  1.00  0.00     0.202 C 
BRANCH   3   4
ATOM      4  C   UNL A   1      32.356  29.252  26.197  1.00  0.00     0.261 C 
BRANCH   4   5
ATOM      5  O   UNL A   1      33.411  28.811  25.317  1.00  0.00    -0.462 OA
BRANCH   5   6
ATOM      6  C   UNL A   1      33.068  27.862  24.410  1.00  0.00     0.330 C 
ATOM      7  O   UNL A   1      33.463  27.836  23.248  1.00  0.00    -0.250 OA
BRANCH   6   8
ATOM      8  C   UNL A   1      31.992  26.897  24.921  1.00  0.00     0.212 C 
ATOM      9  C   UNL A   1      29.973  26.844  23.344  1.00  0.00     0.026 C 
ATOM     10  C   UNL A   1      31.102  26.032  23.995  1.00  0.00     0.044 C 
ATOM     11  C   UNL A   1      31.768  25.134  22.945  1.00  0.00     0.026 C 
ATOM     12  S   UNL A   1      30.270  24.860  25.197  1.00  0.00    -0.125 SA
ATOM     13  C   UNL A   1      31.622  24.952  26.427  1.00  0.00     0.176 C 
ATOM     14  N   UNL A   1      32.487  26.058  26.007  1.00  0.00    -0.311 N 
ATOM     15  C   UNL A   1      32.797  24.000  26.116  1.00  0.00     0.205 C 
ATOM     16  C   UNL A   1      33.608  25.288  25.939  1.00  0.00     0.250 C 
ATOM     17  O   UNL A   1      34.745  25.556  25.616  1.00  0.00    -0.272 OA
BRANCH  15  18
ATOM     18  N   UNL A   1      33.174  23.058  27.175  1.00  0.00    -0.340 N 
ATOM     19  C   UNL A   1      33.557  21.747  27.003  1.00  0.00     0.244 C 
ATOM     20  H   UNL A   1      33.150  23.396  28.099  1.00  0.00     0.164 HD
ATOM     21  O   UNL A   1      33.897  21.129  28.016  1.00  0.00    -0.273 OA
BRANCH  19  22
ATOM     22  C   UNL A   1      33.592  21.144  25.559  1.00  0.00     0.194 C 
BRANCH  22  23
ATOM     23  C   UNL A   1      34.745  21.680  24.697  1.00  0.00    -0.020 A 
ATOM     24  C   UNL A   1      34.536  22.589  23.644  1.00  0.00     0.006 A 
ATOM     25  C   UNL A   1      36.066  21.245  24.919  1.00  0.00     0.006 A 
ATOM     26  C   UNL A   1      35.606  23.100  22.902  1.00  0.00     0.000 A 
ATOM     27  C   UNL A   1      37.139  21.782  24.201  1.00  0.00     0.000 A 
ATOM     28  C   UNL A   1      36.909  22.717  23.197  1.00  0.00     0.000 A 
ENDBRANCH  22  23
BRANCH  22  29
ATOM     29  N   UNL A   1      33.439  19.665  25.687  1.00  0.00    -0.213 NA
ATOM     30  H   UNL A   1      32.624  19.479  26.272  1.00  0.00     0.149 HD
BRANCH  29  31
ATOM     31  N   UNL A   1      33.268  18.991  24.477  1.00  0.00    -0.257 N 
ATOM     32  C   UNL A   1      32.250  19.273  23.500  1.00  0.00     0.163 C 
ATOM     33  C   UNL A   1      34.142  17.984  24.036  1.00  0.00     0.331 C 
ATOM     34  C   UNL A   1      32.305  18.033  22.614  1.00  0.00     0.141 C 
ATOM     35  N   UNL A   1      33.609  17.470  22.864  1.00  0.00    -0.335 N 
ATOM     36  O   UNL A   1      35.152  17.590  24.597  1.00  0.00    -0.247 OA
ATOM     37  H   UNL A   1      34.057  16.813  22.284  1.00  0.00     0.165 HD
ENDBRANCH  29  31
ENDBRANCH  22  29
ENDBRANCH  19  22
ENDBRANCH  15  18
ENDBRANCH   6   8
ENDBRANCH   5   6
ENDBRANCH   4   5
ENDBRANCH   3   4
ENDBRANCH   2   3
ENDBRANCH   1   2
BRANCH   1  38
ATOM     38  C   UNL A   1      34.530  32.611  28.719  1.00  0.00     0.188 C 
BRANCH  38  39
ATOM     39  O   UNL A   1      33.487  33.422  29.235  1.00  0.00    -0.376 OA
BRANCH  39  40
ATOM     40  C   UNL A   1      33.471  34.759  28.753  1.00  0.00     0.202 C 
BRANCH  40  41
ATOM     41  C   UNL A   1      32.741  35.665  29.748  1.00  0.00     0.261 C 
BRANCH  41  42
ATOM     42  O   UNL A   1      33.534  36.029  30.895  1.00  0.00    -0.460 OA
BRANCH  42  43
ATOM     43  C   UNL A   1      33.409  35.247  31.992  1.00  0.00     0.338 C 
ATOM     44  O   UNL A   1      32.410  35.082  32.668  1.00  0.00    -0.246 OA
BRANCH  43  45
ATOM     45  C   UNL A   1      34.641  34.438  32.118  1.00  0.00     0.060 A 
ATOM     46  C   UNL A   1      34.593  33.242  32.846  1.00  0.00     0.016 A 
ATOM     47  C   UNL A   1      35.832  34.860  31.525  1.00  0.00     0.016 A 
ATOM     48  C   UNL A   1      35.749  32.478  33.009  1.00  0.00     0.010 A 
ATOM     49  C   UNL A   1      36.992  34.107  31.706  1.00  0.00     0.010 A 
ATOM     50  C   UNL A   1      36.963  32.929  32.473  1.00  0.00    -0.014 A 
BRANCH  50  51
ATOM     51  C   UNL A   1      38.242  32.298  32.873  1.00  0.00     0.031 A 
ATOM     52  C   UNL A   1      38.815  31.231  31.982  1.00  0.00     0.074 A 
ATOM     53  C   UNL A   1      38.880  32.652  34.002  1.00  0.00     0.049 A 
ATOM     54  N   UNL A   1      39.857  30.464  32.170  1.00  0.00    -0.248 NA
ATOM     55  C   UNL A   1      38.116  31.001  30.706  1.00  0.00     0.031 C 
ATOM     56  C   UNL A   1      38.466  33.710  34.920  1.00  0.00     0.029 A 
ATOM     57  N   UNL A   1      40.020  32.139  34.569  1.00  0.00    -0.354 N 
ATOM     58  C   UNL A   1      39.938  29.661  31.039  1.00  0.00     0.074 A 
ATOM     59  C   UNL A   1      38.828  30.015  30.182  1.00  0.00     0.031 C 
ATOM     60  C   UNL A   1      39.338  33.763  35.944  1.00  0.00     0.029 A 
ATOM     61  C   UNL A   1      40.344  32.716  35.772  1.00  0.00     0.049 A 
ATOM     62  H   UNL A   1      40.555  31.425  34.153  1.00  0.00     0.167 HD
ATOM     63  C   UNL A   1      40.856  28.713  30.735  1.00  0.00     0.031 A 
ATOM     64  C   UNL A   1      41.325  32.412  36.643  1.00  0.00     0.031 A 
ATOM     65  C   UNL A   1      41.944  28.336  31.594  1.00  0.00     0.049 A 
ATOM     66  C   UNL A   1      42.266  31.276  36.335  1.00  0.00     0.074 A 
ATOM     67  C   UNL A   1      42.907  27.364  31.390  1.00  0.00     0.029 A 
ATOM     68  N   UNL A   1      42.209  28.913  32.824  1.00  0.00    -0.354 N 
ATOM     69  N   UNL A   1      42.328  30.516  35.269  1.00  0.00    -0.248 NA
ATOM     70  C   UNL A   1      43.275  30.957  37.358  1.00  0.00     0.031 C 
ATOM     71  C   UNL A   1      43.735  27.327  32.517  1.00  0.00     0.029 A 
ATOM     72  C   UNL A   1      43.313  28.310  33.399  1.00  0.00     0.049 A 
ATOM     73  H   UNL A   1      41.689  29.644  33.230  1.00  0.00     0.167 HD
ATOM     74  C   UNL A   1      43.397  29.653  35.479  1.00  0.00     0.074 A 
ATOM     75  C   UNL A   1      43.963  29.989  36.767  1.00  0.00     0.031 C 
ATOM     76  C   UNL A   1      43.871  28.668  34.676  1.00  0.00     0.031 A 
BRANCH  63  77
ATOM     77  C   UNL A   1      40.697  28.003  29.424  1.00  0.00    -0.014 A 
ATOM     78  C   UNL A   1      41.469  28.363  28.308  1.00  0.00     0.009 A 
ATOM     79  C   UNL A   1      39.778  26.948  29.308  1.00  0.00     0.009 A 
ATOM     80  C   UNL A   1      41.303  27.698  27.093  1.00  0.00     0.001 A 
ATOM     81  C   UNL A   1      39.631  26.270  28.096  1.00  0.00     0.001 A 
ATOM     82  C   UNL A   1      40.387  26.650  26.988  1.00  0.00     0.000 A 
ENDBRANCH  63  77
BRANCH  64  83
ATOM     83  C   UNL A   1      41.463  33.163  37.920  1.00  0.00    -0.014 A 
ATOM     84  C   UNL A   1      42.417  34.185  38.047  1.00  0.00     0.009 A 
ATOM     85  C   UNL A   1      40.683  32.822  39.036  1.00  0.00     0.009 A 
ATOM     86  C   UNL A   1      42.609  34.827  39.273  1.00  0.00     0.001 A 
ATOM     87  C   UNL A   1      40.858  33.484  40.252  1.00  0.00     0.001 A 
ATOM     88  C   UNL A   1      41.829  34.477  40.374  1.00  0.00     0.000 A 
ENDBRANCH  64  83
BRANCH  76  89
ATOM     89  C   UNL A   1      45.088  27.923  35.141  1.00  0.00    -0.014 A 
ATOM     90  C   UNL A   1      44.980  26.771  35.935  1.00  0.00     0.009 A 
ATOM     91  C   UNL A   1      46.362  28.357  34.740  1.00  0.00     0.009 A 
ATOM     92  C   UNL A   1      46.128  26.086  36.342  1.00  0.00     0.001 A 
ATOM     93  C   UNL A   1      47.504  27.656  35.126  1.00  0.00     0.001 A 
ATOM     94  C   UNL A   1      47.387  26.526  35.933  1.00  0.00     0.000 A 
ENDBRANCH  76  89
ENDBRANCH  50  51
ENDBRANCH  43  45
ENDBRANCH  42  43
ENDBRANCH  41  42
ENDBRANCH  40  41
ENDBRANCH  39  40
ENDBRANCH  38  39
ENDBRANCH   1  38
TORSDOF 22
ENDMDL
MODEL 3
REMARK VINA RESULT:     -10.1      4.374      7.806
REMARK SMILES CC1(C)S[C@H]2[C@H](NC(=O)[C@H](NN3CCNC3=O)c3ccccc3)C(=O)N2[C@H]1C(=O)OCCOCCOCCOC(=O)c1ccc(-c2c3nc(c(-c4ccccc4)c4ccc([nH]4)c(-c4ccccc4)c4nc(c(-c5ccccc5)c5ccc2[nH]5)C=C4)C=C3)cc1
REMARK SMILES IDX 34 1 33 2 32 3 31 4 30 5 28 6 29 7 27 8 1 9 2 10 3 11 4 12
REMARK SMILES IDX 5 13 26 14 6 15 24 16 25 17 7 18 8 19 9 21 10 22 18 23 19 24
REMARK SMILES IDX 23 25 20 26 22 27 21 28 11 29 12 31 13 32 16 33 14 34 15 35
REMARK SMILES IDX 17 36 35 38 36 39 37 40 38 41 39 42 40 43 41 44 42 45 43 46
REMARK SMILES IDX 89 47 44 48 88 49 45 50 46 51 47 52 82 53 48 54 87 55 81 56
REMARK SMILES IDX 83 57 49 58 86 59 80 60 79 61 50 63 72 64 57 65 71 66 58 67
REMARK SMILES IDX 61 68 70 69 84 70 59 71 60 72 69 74 85 75 62 76 51 77 52 78
REMARK SMILES IDX 56 79 53 80 55 81 54 82 73 83 74 84 78 85 75 86 77 87 76 88
REMARK SMILES IDX 63 89 64 90 68 91 65 92 67 93 66 94
REMARK H PARENT 7 20 11 30 15 37 83 62 61 73
REMARK Flexibility Score: inf
ROOT
ATOM      1  C   UNL A   1      33.636  29.426  27.077  1.00  0.00     0.188 C 
ENDROOT
BRANCH   1   2
ATOM      2  O   UNL A   1      33.603  28.876  25.765  1.00  0.00    -0.376 OA
BRANCH   2   3
ATOM      3  C   UNL A   1      32.972  29.593  24.711  1.00  0.00     0.202 C 
BRANCH   3   4
ATOM      4  C   UNL A   1      31.546  29.160  24.366  1.00  0.00     0.261 C 
BRANCH   4   5
ATOM      5  O   UNL A   1      31.461  28.207  23.286  1.00  0.00    -0.462 OA
BRANCH   5   6
ATOM      6  C   UNL A   1      30.469  27.287  23.384  1.00  0.00     0.330 C 
ATOM      7  O   UNL A   1      29.311  27.546  23.696  1.00  0.00    -0.250 OA
BRANCH   6   8
ATOM      8  C   UNL A   1      30.963  25.845  23.229  1.00  0.00     0.212 C 
ATOM      9  C   UNL A   1      32.147  25.509  20.981  1.00  0.00     0.026 C 
ATOM     10  C   UNL A   1      32.279  25.459  22.510  1.00  0.00     0.044 C 
ATOM     11  C   UNL A   1      33.590  26.130  22.940  1.00  0.00     0.026 C 
ATOM     12  S   UNL A   1      32.478  23.649  22.952  1.00  0.00    -0.125 SA
ATOM     13  C   UNL A   1      31.532  23.791  24.512  1.00  0.00     0.176 C 
ATOM     14  N   UNL A   1      30.886  25.105  24.485  1.00  0.00    -0.311 N 
ATOM     15  C   UNL A   1      32.379  24.304  25.697  1.00  0.00     0.205 C 
ATOM     16  C   UNL A   1      31.443  25.516  25.657  1.00  0.00     0.250 C 
ATOM     17  O   UNL A   1      31.361  26.565  26.260  1.00  0.00    -0.272 OA
BRANCH  15  18
ATOM     18  N   UNL A   1      32.407  23.460  26.896  1.00  0.00    -0.340 N 
ATOM     19  C   UNL A   1      33.017  22.231  27.017  1.00  0.00     0.244 C 
ATOM     20  H   UNL A   1      31.942  23.805  27.693  1.00  0.00     0.164 HD
ATOM     21  O   UNL A   1      32.982  21.700  28.130  1.00  0.00    -0.273 OA
BRANCH  19  22
ATOM     22  C   UNL A   1      33.751  21.618  25.777  1.00  0.00     0.194 C 
BRANCH  22  23
ATOM     23  C   UNL A   1      35.077  22.316  25.441  1.00  0.00    -0.020 A 
ATOM     24  C   UNL A   1      35.670  22.228  24.168  1.00  0.00     0.006 A 
ATOM     25  C   UNL A   1      35.767  23.053  26.422  1.00  0.00     0.006 A 
ATOM     26  C   UNL A   1      36.854  22.910  23.869  1.00  0.00     0.000 A 
ATOM     27  C   UNL A   1      36.931  23.763  26.114  1.00  0.00     0.000 A 
ATOM     28  C   UNL A   1      37.470  23.698  24.834  1.00  0.00     0.000 A 
ENDBRANCH  22  23
BRANCH  22  29
ATOM     29  N   UNL A   1      33.761  20.136  25.952  1.00  0.00    -0.213 NA
ATOM     30  H   UNL A   1      33.084  19.896  26.676  1.00  0.00     0.149 HD
BRANCH  29  31
ATOM     31  N   UNL A   1      33.442  19.413  24.802  1.00  0.00    -0.257 N 
ATOM     32  C   UNL A   1      32.316  19.664  23.942  1.00  0.00     0.163 C 
ATOM     33  C   UNL A   1      34.251  18.378  24.304  1.00  0.00     0.331 C 
ATOM     34  C   UNL A   1      32.256  18.386  23.111  1.00  0.00     0.141 C 
ATOM     35  N   UNL A   1      33.577  17.820  23.228  1.00  0.00    -0.335 N 
ATOM     36  O   UNL A   1      35.318  17.996  24.757  1.00  0.00    -0.247 OA
ATOM     37  H   UNL A   1      33.948  17.134  22.628  1.00  0.00     0.165 HD
ENDBRANCH  29  31
ENDBRANCH  22  29
ENDBRANCH  19  22
ENDBRANCH  15  18
ENDBRANCH   6   8
ENDBRANCH   5   6
ENDBRANCH   4   5
ENDBRANCH   3   4
ENDBRANCH   2   3
ENDBRANCH   1   2
BRANCH   1  38
ATOM     38  C   UNL A   1      33.268  30.894  27.278  1.00  0.00     0.188 C 
BRANCH  38  39
ATOM     39  O   UNL A   1      34.246  31.620  28.003  1.00  0.00    -0.376 OA
BRANCH  39  40
ATOM     40  C   UNL A   1      35.335  30.844  28.487  1.00  0.00     0.202 C 
BRANCH  40  41
ATOM     41  C   UNL A   1      36.102  31.628  29.554  1.00  0.00     0.261 C 
BRANCH  41  42
ATOM     42  O   UNL A   1      35.730  31.292  30.905  1.00  0.00    -0.460 OA
BRANCH  42  43
ATOM     43  C   UNL A   1      35.114  32.259  31.623  1.00  0.00     0.338 C 
ATOM     44  O   UNL A   1      34.022  32.752  31.409  1.00  0.00    -0.246 OA
BRANCH  43  45
ATOM     45  C   UNL A   1      35.896  32.476  32.859  1.00  0.00     0.060 A 
ATOM     46  C   UNL A   1      35.570  33.562  33.683  1.00  0.00     0.016 A 
ATOM     47  C   UNL A   1      36.943  31.617  33.199  1.00  0.00     0.016 A 
ATOM     48  C   UNL A   1      36.315  33.809  34.837  1.00  0.00     0.010 A 
ATOM     49  C   UNL A   1      37.700  31.878  34.341  1.00  0.00     0.010 A 
ATOM     50  C   UNL A   1      37.408  32.990  35.149  1.00  0.00    -0.014 A 
BRANCH  50  51
ATOM     51  C   UNL A   1      38.379  33.398  36.191  1.00  0.00     0.031 A 
ATOM     52  C   UNL A   1      39.564  34.223  35.771  1.00  0.00     0.074 A 
ATOM     53  C   UNL A   1      38.223  33.043  37.478  1.00  0.00     0.049 A 
ATOM     54  N   UNL A   1      40.598  34.609  36.474  1.00  0.00    -0.248 NA
ATOM     55  C   UNL A   1      39.584  34.671  34.369  1.00  0.00     0.031 C 
ATOM     56  C   UNL A   1      37.092  32.299  38.027  1.00  0.00     0.029 A 
ATOM     57  N   UNL A   1      39.041  33.261  38.559  1.00  0.00    -0.354 N 
ATOM     58  C   UNL A   1      41.389  35.344  35.600  1.00  0.00     0.074 A 
ATOM     59  C   UNL A   1      40.732  35.330  34.312  1.00  0.00     0.031 C 
ATOM     60  C   UNL A   1      37.291  32.115  39.345  1.00  0.00     0.029 A 
ATOM     61  C   UNL A   1      38.581  32.691  39.721  1.00  0.00     0.049 A 
ATOM     62  H   UNL A   1      39.878  33.777  38.507  1.00  0.00     0.167 HD
ATOM     63  C   UNL A   1      42.559  35.980  35.846  1.00  0.00     0.031 A 
ATOM     64  C   UNL A   1      39.153  32.620  40.938  1.00  0.00     0.031 A 
ATOM     65  C   UNL A   1      43.232  35.973  37.114  1.00  0.00     0.049 A 
ATOM     66  C   UNL A   1      40.511  33.238  41.157  1.00  0.00     0.074 A 
ATOM     67  C   UNL A   1      44.438  36.559  37.454  1.00  0.00     0.029 A 
ATOM     68  N   UNL A   1      42.756  35.345  38.252  1.00  0.00    -0.354 N 
ATOM     69  N   UNL A   1      41.256  33.920  40.321  1.00  0.00    -0.248 NA
ATOM     70  C   UNL A   1      41.107  33.071  42.492  1.00  0.00     0.031 C 
ATOM     71  C   UNL A   1      44.712  36.252  38.791  1.00  0.00     0.029 A 
ATOM     72  C   UNL A   1      43.650  35.517  39.294  1.00  0.00     0.049 A 
ATOM     73  H   UNL A   1      41.907  34.849  38.312  1.00  0.00     0.167 HD
ATOM     74  C   UNL A   1      42.389  34.290  41.038  1.00  0.00     0.074 A 
ATOM     75  C   UNL A   1      42.229  33.766  42.377  1.00  0.00     0.031 C 
ATOM     76  C   UNL A   1      43.467  35.000  40.624  1.00  0.00     0.031 A 
BRANCH  63  77
ATOM     77  C   UNL A   1      43.193  36.710  34.700  1.00  0.00    -0.014 A 
ATOM     78  C   UNL A   1      44.031  36.042  33.792  1.00  0.00     0.009 A 
ATOM     79  C   UNL A   1      42.936  38.077  34.513  1.00  0.00     0.009 A 
ATOM     80  C   UNL A   1      44.621  36.736  32.736  1.00  0.00     0.001 A 
ATOM     81  C   UNL A   1      43.510  38.763  33.441  1.00  0.00     0.001 A 
ATOM     82  C   UNL A   1      44.357  38.095  32.559  1.00  0.00     0.000 A 
ENDBRANCH  63  77
BRANCH  64  83
ATOM     83  C   UNL A   1      38.474  31.909  42.054  1.00  0.00    -0.014 A 
ATOM     84  C   UNL A   1      38.665  30.531  42.243  1.00  0.00     0.009 A 
ATOM     85  C   UNL A   1      37.585  32.592  42.898  1.00  0.00     0.009 A 
ATOM     86  C   UNL A   1      37.956  29.847  43.233  1.00  0.00     0.001 A 
ATOM     87  C   UNL A   1      36.898  31.911  43.905  1.00  0.00     0.001 A 
ATOM     88  C   UNL A   1      37.074  30.537  44.063  1.00  0.00     0.000 A 
ENDBRANCH  64  83
BRANCH  76  89
ATOM     89  C   UNL A   1      44.530  35.298  41.642  1.00  0.00    -0.014 A 
ATOM     90  C   UNL A   1      45.621  34.437  41.833  1.00  0.00     0.009 A 
ATOM     91  C   UNL A   1      44.459  36.484  42.390  1.00  0.00     0.009 A 
ATOM     92  C   UNL A   1      46.605  34.745  42.775  1.00  0.00     0.001 A 
ATOM     93  C   UNL A   1      45.456  36.802  43.312  1.00  0.00     0.001 A 
ATOM     94  C   UNL A   1      46.524  35.929  43.509  1.00  0.00     0.000 A 
ENDBRANCH  76  89
ENDBRANCH  50  51
ENDBRANCH  43  45
ENDBRANCH  42  43
ENDBRANCH  41  42
ENDBRANCH  40  41
ENDBRANCH  39  40
ENDBRANCH  38  39
ENDBRANCH   1  38
TORSDOF 22
ENDMDL
