MODEL 1
REMARK VINA RESULT:     -10.4      0.000      0.000
REMARK SMILES Cc1c(Cl)cc2c(c1C)O[C@H](C(F)(F)F)C(C(=O)OCCOCCOCCOC(=O)c1ccc(-c3c4nc(c(-c5ccccc5)c5ccc([nH]5)c(-c5ccccc5)c5nc(c(-c6ccccc6)c6ccc3[nH]6)C=C5)C=C4)cc1)=C2
REMARK SMILES IDX 24 1 23 2 22 3 21 4 20 5 19 6 17 7 18 8 16 9 1 10 2 11 3 12
REMARK SMILES IDX 8 13 4 14 5 15 7 16 9 17 6 18 10 19 79 20 11 21 12 22 13 23
REMARK SMILES IDX 14 24 15 25 25 26 26 27 27 28 28 29 29 30 30 31 31 32 32 33
REMARK SMILES IDX 78 34 33 35 77 36 34 37 35 38 36 39 71 40 37 41 76 42 70 43
REMARK SMILES IDX 72 44 38 45 75 46 69 47 68 48 39 50 61 51 46 52 60 53 47 54
REMARK SMILES IDX 50 55 59 56 73 57 48 58 49 59 58 61 74 62 51 63 40 64 41 65
REMARK SMILES IDX 45 66 42 67 44 68 43 69 62 70 63 71 67 72 64 73 66 74 65 75
REMARK SMILES IDX 52 76 53 77 57 78 54 79 56 80 55 81
REMARK H PARENT 72 49 50 60
REMARK Flexibility Score: inf
ROOT
ATOM      1  C   UNL A   1      41.757  19.556  26.312  1.00  0.00     0.188 C 
ENDROOT
BRANCH   1   2
ATOM      2  C   UNL A   1      40.479  20.401  26.489  1.00  0.00     0.188 C 
BRANCH   2   3
ATOM      3  O   UNL A   1      40.442  21.752  26.063  1.00  0.00    -0.376 OA
BRANCH   3   4
ATOM      4  C   UNL A   1      39.289  22.550  26.284  1.00  0.00     0.202 C 
BRANCH   4   5
ATOM      5  C   UNL A   1      37.901  22.113  25.790  1.00  0.00     0.261 C 
BRANCH   5   6
ATOM      6  O   UNL A   1      37.053  23.178  25.338  1.00  0.00    -0.460 OA
BRANCH   6   7
ATOM      7  C   UNL A   1      35.768  23.112  25.757  1.00  0.00     0.338 C 
ATOM      8  O   UNL A   1      35.311  22.360  26.602  1.00  0.00    -0.246 OA
BRANCH   7   9
ATOM      9  C   UNL A   1      34.989  24.206  25.146  1.00  0.00     0.087 C 
ATOM     10  C   UNL A   1      30.639  28.896  24.043  1.00  0.00     0.046 C 
ATOM     11  C   UNL A   1      31.784  28.029  24.507  1.00  0.00    -0.026 A 
ATOM     12  C   UNL A   1      32.293  28.125  25.816  1.00  0.00     0.045 A 
ATOM     13  C   UNL A   1      32.345  27.065  23.628  1.00  0.00    -0.004 A 
ATOM     14  Cl  UNL A   1      31.742  29.311  26.948  1.00  0.00    -0.084 Cl
ATOM     15  C   UNL A   1      33.265  27.232  26.274  1.00  0.00     0.032 A 
ATOM     16  C   UNL A   1      33.330  26.175  24.107  1.00  0.00     0.131 A 
ATOM     17  C   UNL A   1      31.898  26.924  22.192  1.00  0.00     0.049 C 
ATOM     18  C   UNL A   1      33.750  26.229  25.435  1.00  0.00     0.019 A 
ATOM     19  O   UNL A   1      33.831  25.269  23.212  1.00  0.00    -0.475 OA
ATOM     20  C   UNL A   1      34.619  25.196  25.968  1.00  0.00     0.027 C 
ATOM     21  C   UNL A   1      34.647  24.162  23.684  1.00  0.00     0.316 C 
BRANCH  21  22
ATOM     22  C   UNL A   1      33.957  22.852  23.279  1.00  0.00     0.430 C 
ATOM     23  F   UNL A   1      34.833  21.818  23.272  1.00  0.00    -0.167 F 
ATOM     24  F   UNL A   1      32.969  22.517  24.143  1.00  0.00    -0.167 F 
ATOM     25  F   UNL A   1      33.409  22.929  22.047  1.00  0.00    -0.167 F 
ENDBRANCH  21  22
ENDBRANCH   7   9
ENDBRANCH   6   7
ENDBRANCH   5   6
ENDBRANCH   4   5
ENDBRANCH   3   4
ENDBRANCH   2   3
ENDBRANCH   1   2
BRANCH   1  26
ATOM     26  O   UNL A   1      42.634  19.951  25.288  1.00  0.00    -0.376 OA
BRANCH  26  27
ATOM     27  C   UNL A   1      43.678  20.874  25.550  1.00  0.00     0.202 C 
BRANCH  27  28
ATOM     28  C   UNL A   1      44.134  22.028  24.632  1.00  0.00     0.261 C 
BRANCH  28  29
ATOM     29  O   UNL A   1      43.498  23.301  24.758  1.00  0.00    -0.460 OA
BRANCH  29  30
ATOM     30  C   UNL A   1      44.305  24.335  25.099  1.00  0.00     0.338 C 
ATOM     31  O   UNL A   1      45.354  24.662  24.577  1.00  0.00    -0.246 OA
BRANCH  30  32
ATOM     32  C   UNL A   1      43.609  25.147  26.117  1.00  0.00     0.060 A 
ATOM     33  C   UNL A   1      44.022  26.471  26.322  1.00  0.00     0.016 A 
ATOM     34  C   UNL A   1      42.574  24.598  26.874  1.00  0.00     0.016 A 
ATOM     35  C   UNL A   1      43.409  27.246  27.306  1.00  0.00     0.010 A 
ATOM     36  C   UNL A   1      41.980  25.367  27.876  1.00  0.00     0.010 A 
ATOM     37  C   UNL A   1      42.412  26.685  28.114  1.00  0.00    -0.014 A 
BRANCH  37  38
ATOM     38  C   UNL A   1      41.937  27.404  29.319  1.00  0.00     0.031 A 
ATOM     39  C   UNL A   1      40.684  28.228  29.217  1.00  0.00     0.074 A 
ATOM     40  C   UNL A   1      42.603  27.326  30.485  1.00  0.00     0.049 A 
ATOM     41  N   UNL A   1      40.129  29.005  30.109  1.00  0.00    -0.248 NA
ATOM     42  C   UNL A   1      39.961  28.164  27.936  1.00  0.00     0.031 C 
ATOM     43  C   UNL A   1      43.790  26.511  30.731  1.00  0.00     0.029 A 
ATOM     44  N   UNL A   1      42.369  27.956  31.682  1.00  0.00    -0.354 N 
ATOM     45  C   UNL A   1      38.995  29.525  29.499  1.00  0.00     0.074 A 
ATOM     46  C   UNL A   1      38.954  28.997  28.153  1.00  0.00     0.031 C 
ATOM     47  C   UNL A   1      44.186  26.695  32.003  1.00  0.00     0.029 A 
ATOM     48  C   UNL A   1      43.306  27.672  32.644  1.00  0.00     0.049 A 
ATOM     49  H   UNL A   1      41.602  28.554  31.836  1.00  0.00     0.167 HD
ATOM     50  C   UNL A   1      38.066  30.363  30.015  1.00  0.00     0.031 A 
ATOM     51  C   UNL A   1      43.451  28.163  33.891  1.00  0.00     0.031 A 
ATOM     52  C   UNL A   1      38.120  30.910  31.345  1.00  0.00     0.049 A 
ATOM     53  C   UNL A   1      42.465  29.178  34.407  1.00  0.00     0.074 A 
ATOM     54  C   UNL A   1      37.234  31.782  31.953  1.00  0.00     0.029 A 
ATOM     55  N   UNL A   1      39.115  30.639  32.270  1.00  0.00    -0.354 N 
ATOM     56  N   UNL A   1      41.403  29.674  33.818  1.00  0.00    -0.248 NA
ATOM     57  C   UNL A   1      42.695  29.696  35.764  1.00  0.00     0.031 C 
ATOM     58  C   UNL A   1      37.724  32.082  33.227  1.00  0.00     0.029 A 
ATOM     59  C   UNL A   1      38.876  31.342  33.437  1.00  0.00     0.049 A 
ATOM     60  H   UNL A   1      39.879  30.036  32.119  1.00  0.00     0.167 HD
ATOM     61  C   UNL A   1      40.819  30.531  34.744  1.00  0.00     0.074 A 
ATOM     62  C   UNL A   1      41.641  30.483  35.935  1.00  0.00     0.031 C 
ATOM     63  C   UNL A   1      39.698  31.282  34.619  1.00  0.00     0.031 A 
BRANCH  50  64
ATOM     64  C   UNL A   1      36.923  30.768  29.128  1.00  0.00    -0.014 A 
ATOM     65  C   UNL A   1      35.925  29.850  28.765  1.00  0.00     0.009 A 
ATOM     66  C   UNL A   1      36.811  32.099  28.697  1.00  0.00     0.009 A 
ATOM     67  C   UNL A   1      34.848  30.254  27.972  1.00  0.00     0.001 A 
ATOM     68  C   UNL A   1      35.719  32.507  27.929  1.00  0.00     0.001 A 
ATOM     69  C   UNL A   1      34.742  31.583  27.562  1.00  0.00     0.000 A 
ENDBRANCH  50  64
BRANCH  51  70
ATOM     70  C   UNL A   1      44.579  27.701  34.742  1.00  0.00    -0.014 A 
ATOM     71  C   UNL A   1      44.421  26.601  35.599  1.00  0.00     0.009 A 
ATOM     72  C   UNL A   1      45.821  28.355  34.701  1.00  0.00     0.009 A 
ATOM     73  C   UNL A   1      45.479  26.174  36.406  1.00  0.00     0.001 A 
ATOM     74  C   UNL A   1      46.886  27.907  35.487  1.00  0.00     0.001 A 
ATOM     75  C   UNL A   1      46.712  26.822  36.342  1.00  0.00     0.000 A 
ENDBRANCH  51  70
BRANCH  63  76
ATOM     76  C   UNL A   1      39.254  32.082  35.815  1.00  0.00    -0.014 A 
ATOM     77  C   UNL A   1      39.808  33.338  36.107  1.00  0.00     0.009 A 
ATOM     78  C   UNL A   1      38.214  31.593  36.623  1.00  0.00     0.009 A 
ATOM     79  C   UNL A   1      39.348  34.073  37.203  1.00  0.00     0.001 A 
ATOM     80  C   UNL A   1      37.735  32.345  37.697  1.00  0.00     0.001 A 
ATOM     81  C   UNL A   1      38.308  33.581  37.990  1.00  0.00     0.000 A 
ENDBRANCH  63  76
ENDBRANCH  37  38
ENDBRANCH  30  32
ENDBRANCH  29  30
ENDBRANCH  28  29
ENDBRANCH  27  28
ENDBRANCH  26  27
ENDBRANCH   1  26
TORSDOF 18
ENDMDL
MODEL 2
REMARK VINA RESULT:      -9.9      3.811      8.888
REMARK SMILES Cc1c(Cl)cc2c(c1C)O[C@H](C(F)(F)F)C(C(=O)OCCOCCOCCOC(=O)c1ccc(-c3c4nc(c(-c5ccccc5)c5ccc([nH]5)c(-c5ccccc5)c5nc(c(-c6ccccc6)c6ccc3[nH]6)C=C5)C=C4)cc1)=C2
REMARK SMILES IDX 24 1 23 2 22 3 21 4 20 5 19 6 17 7 18 8 16 9 1 10 2 11 3 12
REMARK SMILES IDX 8 13 4 14 5 15 7 16 9 17 6 18 10 19 79 20 11 21 12 22 13 23
REMARK SMILES IDX 14 24 15 25 25 26 26 27 27 28 28 29 29 30 30 31 31 32 32 33
REMARK SMILES IDX 78 34 33 35 77 36 34 37 35 38 36 39 71 40 37 41 76 42 70 43
REMARK SMILES IDX 72 44 38 45 75 46 69 47 68 48 39 50 61 51 46 52 60 53 47 54
REMARK SMILES IDX 50 55 59 56 73 57 48 58 49 59 58 61 74 62 51 63 40 64 41 65
REMARK SMILES IDX 45 66 42 67 44 68 43 69 62 70 63 71 67 72 64 73 66 74 65 75
REMARK SMILES IDX 52 76 53 77 57 78 54 79 56 80 55 81
REMARK H PARENT 72 49 50 60
REMARK Flexibility Score: inf
ROOT
ATOM      1  C   UNL A   1      30.946  29.460  24.244  1.00  0.00     0.188 C 
ENDROOT
BRANCH   1   2
ATOM      2  C   UNL A   1      30.040  28.560  23.379  1.00  0.00     0.188 C 
BRANCH   2   3
ATOM      3  O   UNL A   1      29.912  27.177  23.664  1.00  0.00    -0.376 OA
BRANCH   3   4
ATOM      4  C   UNL A   1      29.748  26.727  25.000  1.00  0.00     0.202 C 
BRANCH   4   5
ATOM      5  C   UNL A   1      30.760  25.777  25.659  1.00  0.00     0.261 C 
BRANCH   5   6
ATOM      6  O   UNL A   1      31.178  24.674  24.844  1.00  0.00    -0.460 OA
BRANCH   6   7
ATOM      7  C   UNL A   1      32.388  24.816  24.252  1.00  0.00     0.338 C 
ATOM      8  O   UNL A   1      32.797  25.796  23.652  1.00  0.00    -0.246 OA
BRANCH   7   9
ATOM      9  C   UNL A   1      33.235  23.650  24.567  1.00  0.00     0.087 C 
ATOM     10  C   UNL A   1      38.252  19.576  25.175  1.00  0.00     0.046 C 
ATOM     11  C   UNL A   1      37.237  20.687  25.282  1.00  0.00    -0.026 A 
ATOM     12  C   UNL A   1      37.613  21.995  25.644  1.00  0.00     0.045 A 
ATOM     13  C   UNL A   1      35.873  20.433  24.975  1.00  0.00    -0.004 A 
ATOM     14  Cl  UNL A   1      39.227  22.405  26.113  1.00  0.00    -0.084 Cl
ATOM     15  C   UNL A   1      36.689  23.041  25.615  1.00  0.00     0.032 A 
ATOM     16  C   UNL A   1      34.953  21.503  24.956  1.00  0.00     0.131 A 
ATOM     17  C   UNL A   1      35.367  19.054  24.624  1.00  0.00     0.049 C 
ATOM     18  C   UNL A   1      35.371  22.805  25.228  1.00  0.00     0.019 A 
ATOM     19  O   UNL A   1      33.653  21.194  24.653  1.00  0.00    -0.475 OA
ATOM     20  C   UNL A   1      34.464  23.920  25.023  1.00  0.00     0.027 C 
ATOM     21  C   UNL A   1      32.707  22.259  24.360  1.00  0.00     0.316 C 
BRANCH  21  22
ATOM     22  C   UNL A   1      32.164  22.039  22.941  1.00  0.00     0.430 C 
ATOM     23  F   UNL A   1      31.979  20.722  22.685  1.00  0.00    -0.167 F 
ATOM     24  F   UNL A   1      30.964  22.641  22.764  1.00  0.00    -0.167 F 
ATOM     25  F   UNL A   1      33.003  22.523  21.998  1.00  0.00    -0.167 F 
ENDBRANCH  21  22
ENDBRANCH   7   9
ENDBRANCH   6   7
ENDBRANCH   5   6
ENDBRANCH   4   5
ENDBRANCH   3   4
ENDBRANCH   2   3
ENDBRANCH   1   2
BRANCH   1  26
ATOM     26  O   UNL A   1      32.326  29.202  24.186  1.00  0.00    -0.376 OA
BRANCH  26  27
ATOM     27  C   UNL A   1      33.099  29.149  25.373  1.00  0.00     0.202 C 
BRANCH  27  28
ATOM     28  C   UNL A   1      33.163  30.228  26.476  1.00  0.00     0.261 C 
BRANCH  28  29
ATOM     29  O   UNL A   1      33.824  29.919  27.704  1.00  0.00    -0.460 OA
BRANCH  29  30
ATOM     30  C   UNL A   1      34.727  30.834  28.137  1.00  0.00     0.338 C 
ATOM     31  O   UNL A   1      34.516  31.984  28.469  1.00  0.00    -0.246 OA
BRANCH  30  32
ATOM     32  C   UNL A   1      36.021  30.150  28.328  1.00  0.00     0.060 A 
ATOM     33  C   UNL A   1      36.303  29.576  29.575  1.00  0.00     0.016 A 
ATOM     34  C   UNL A   1      36.954  30.098  27.291  1.00  0.00     0.016 A 
ATOM     35  C   UNL A   1      37.536  28.961  29.795  1.00  0.00     0.010 A 
ATOM     36  C   UNL A   1      38.196  29.505  27.522  1.00  0.00     0.010 A 
ATOM     37  C   UNL A   1      38.503  28.958  28.781  1.00  0.00    -0.014 A 
BRANCH  37  38
ATOM     38  C   UNL A   1      39.893  28.542  29.080  1.00  0.00     0.031 A 
ATOM     39  C   UNL A   1      40.791  29.506  29.804  1.00  0.00     0.074 A 
ATOM     40  C   UNL A   1      40.352  27.331  28.718  1.00  0.00     0.049 A 
ATOM     41  N   UNL A   1      42.060  29.395  30.097  1.00  0.00    -0.248 NA
ATOM     42  C   UNL A   1      40.172  30.762  30.260  1.00  0.00     0.031 C 
ATOM     43  C   UNL A   1      39.563  26.284  28.072  1.00  0.00     0.029 A 
ATOM     44  N   UNL A   1      41.605  26.785  28.843  1.00  0.00    -0.354 N 
ATOM     45  C   UNL A   1      42.393  30.565  30.767  1.00  0.00     0.074 A 
ATOM     46  C   UNL A   1      41.201  31.383  30.815  1.00  0.00     0.031 C 
ATOM     47  C   UNL A   1      40.356  25.221  27.850  1.00  0.00     0.029 A 
ATOM     48  C   UNL A   1      41.713  25.529  28.300  1.00  0.00     0.049 A 
ATOM     49  H   UNL A   1      42.354  27.250  29.280  1.00  0.00     0.167 HD
ATOM     50  C   UNL A   1      43.584  30.924  31.301  1.00  0.00     0.031 A 
ATOM     51  C   UNL A   1      42.790  24.731  28.160  1.00  0.00     0.031 A 
ATOM     52  C   UNL A   1      44.776  30.123  31.230  1.00  0.00     0.049 A 
ATOM     53  C   UNL A   1      44.130  25.197  28.665  1.00  0.00     0.074 A 
ATOM     54  C   UNL A   1      46.036  30.409  31.726  1.00  0.00     0.029 A 
ATOM     55  N   UNL A   1      44.857  28.879  30.624  1.00  0.00    -0.354 N 
ATOM     56  N   UNL A   1      44.437  26.311  29.286  1.00  0.00    -0.248 NA
ATOM     57  C   UNL A   1      45.269  24.292  28.456  1.00  0.00     0.031 C 
ATOM     58  C   UNL A   1      46.892  29.363  31.370  1.00  0.00     0.029 A 
ATOM     59  C   UNL A   1      46.149  28.394  30.715  1.00  0.00     0.049 A 
ATOM     60  H   UNL A   1      44.106  28.411  30.191  1.00  0.00     0.167 HD
ATOM     61  C   UNL A   1      45.795  26.223  29.575  1.00  0.00     0.074 A 
ATOM     62  C   UNL A   1      46.249  24.946  29.066  1.00  0.00     0.031 C 
ATOM     63  C   UNL A   1      46.589  27.118  30.211  1.00  0.00     0.031 A 
BRANCH  50  64
ATOM     64  C   UNL A   1      43.667  32.260  31.985  1.00  0.00    -0.014 A 
ATOM     65  C   UNL A   1      43.991  33.423  31.269  1.00  0.00     0.009 A 
ATOM     66  C   UNL A   1      43.359  32.365  33.350  1.00  0.00     0.009 A 
ATOM     67  C   UNL A   1      44.025  34.662  31.914  1.00  0.00     0.001 A 
ATOM     68  C   UNL A   1      43.365  33.608  33.984  1.00  0.00     0.001 A 
ATOM     69  C   UNL A   1      43.703  34.755  33.267  1.00  0.00     0.000 A 
ENDBRANCH  50  64
BRANCH  51  70
ATOM     70  C   UNL A   1      42.646  23.401  27.508  1.00  0.00    -0.014 A 
ATOM     71  C   UNL A   1      42.937  23.241  26.145  1.00  0.00     0.009 A 
ATOM     72  C   UNL A   1      42.221  22.285  28.246  1.00  0.00     0.009 A 
ATOM     73  C   UNL A   1      42.793  21.994  25.531  1.00  0.00     0.001 A 
ATOM     74  C   UNL A   1      42.106  21.033  27.636  1.00  0.00     0.001 A 
ATOM     75  C   UNL A   1      42.386  20.891  26.279  1.00  0.00     0.000 A 
ENDBRANCH  51  70
BRANCH  63  76
ATOM     76  C   UNL A   1      48.026  26.737  30.445  1.00  0.00    -0.014 A 
ATOM     77  C   UNL A   1      49.055  27.194  29.607  1.00  0.00     0.009 A 
ATOM     78  C   UNL A   1      48.359  25.958  31.566  1.00  0.00     0.009 A 
ATOM     79  C   UNL A   1      50.384  26.854  29.873  1.00  0.00     0.001 A 
ATOM     80  C   UNL A   1      49.690  25.648  31.847  1.00  0.00     0.001 A 
ATOM     81  C   UNL A   1      50.701  26.089  30.996  1.00  0.00     0.000 A 
ENDBRANCH  63  76
ENDBRANCH  37  38
ENDBRANCH  30  32
ENDBRANCH  29  30
ENDBRANCH  28  29
ENDBRANCH  27  28
ENDBRANCH  26  27
ENDBRANCH   1  26
TORSDOF 18
ENDMDL
MODEL 3
REMARK VINA RESULT:      -9.9      1.276      5.950
REMARK SMILES Cc1c(Cl)cc2c(c1C)O[C@H](C(F)(F)F)C(C(=O)OCCOCCOCCOC(=O)c1ccc(-c3c4nc(c(-c5ccccc5)c5ccc([nH]5)c(-c5ccccc5)c5nc(c(-c6ccccc6)c6ccc3[nH]6)C=C5)C=C4)cc1)=C2
REMARK SMILES IDX 24 1 23 2 22 3 21 4 20 5 19 6 17 7 18 8 16 9 1 10 2 11 3 12
REMARK SMILES IDX 8 13 4 14 5 15 7 16 9 17 6 18 10 19 79 20 11 21 12 22 13 23
REMARK SMILES IDX 14 24 15 25 25 26 26 27 27 28 28 29 29 30 30 31 31 32 32 33
REMARK SMILES IDX 78 34 33 35 77 36 34 37 35 38 36 39 71 40 37 41 76 42 70 43
REMARK SMILES IDX 72 44 38 45 75 46 69 47 68 48 39 50 61 51 46 52 60 53 47 54
REMARK SMILES IDX 50 55 59 56 73 57 48 58 49 59 58 61 74 62 51 63 40 64 41 65
REMARK SMILES IDX 45 66 42 67 44 68 43 69 62 70 63 71 67 72 64 73 66 74 65 75
REMARK SMILES IDX 52 76 53 77 57 78 54 79 56 80 55 81
REMARK H PARENT 72 49 50 60
REMARK Flexibility Score: inf
ROOT
ATOM      1  C   UNL A   1      43.029  19.304  26.348  1.00  0.00     0.188 C 
ENDROOT
BRANCH   1   2
ATOM      2  C   UNL A   1      41.656  19.737  25.791  1.00  0.00     0.188 C 
BRANCH   2   3
ATOM      3  O   UNL A   1      40.876  20.706  26.469  1.00  0.00    -0.376 OA
BRANCH   3   4
ATOM      4  C   UNL A   1      39.496  20.861  26.171  1.00  0.00     0.202 C 
BRANCH   4   5
ATOM      5  C   UNL A   1      38.812  22.236  26.223  1.00  0.00     0.261 C 
BRANCH   5   6
ATOM      6  O   UNL A   1      37.383  22.209  26.096  1.00  0.00    -0.460 OA
BRANCH   6   7
ATOM      7  C   UNL A   1      36.915  22.177  24.827  1.00  0.00     0.338 C 
ATOM      8  O   UNL A   1      37.427  21.618  23.872  1.00  0.00    -0.246 OA
BRANCH   7   9
ATOM      9  C   UNL A   1      35.579  22.802  24.775  1.00  0.00     0.087 C 
ATOM     10  C   UNL A   1      30.286  26.310  26.122  1.00  0.00     0.046 C 
ATOM     11  C   UNL A   1      31.648  25.791  25.731  1.00  0.00    -0.026 A 
ATOM     12  C   UNL A   1      32.814  26.551  25.946  1.00  0.00     0.045 A 
ATOM     13  C   UNL A   1      31.777  24.494  25.167  1.00  0.00    -0.004 A 
ATOM     14  Cl  UNL A   1      32.774  28.170  26.553  1.00  0.00    -0.084 Cl
ATOM     15  C   UNL A   1      34.078  26.011  25.699  1.00  0.00     0.032 A 
ATOM     16  C   UNL A   1      33.063  23.967  24.919  1.00  0.00     0.131 A 
ATOM     17  C   UNL A   1      30.581  23.626  24.855  1.00  0.00     0.049 C 
ATOM     18  C   UNL A   1      34.204  24.704  25.229  1.00  0.00     0.019 A 
ATOM     19  O   UNL A   1      33.121  22.711  24.376  1.00  0.00    -0.475 OA
ATOM     20  C   UNL A   1      35.516  24.087  25.148  1.00  0.00     0.027 C 
ATOM     21  C   UNL A   1      34.389  22.001  24.333  1.00  0.00     0.316 C 
BRANCH  21  22
ATOM     22  C   UNL A   1      34.232  20.693  25.122  1.00  0.00     0.430 C 
ATOM     23  F   UNL A   1      33.038  20.106  24.866  1.00  0.00    -0.167 F 
ATOM     24  F   UNL A   1      35.186  19.791  24.792  1.00  0.00    -0.167 F 
ATOM     25  F   UNL A   1      34.310  20.895  26.456  1.00  0.00    -0.167 F 
ENDBRANCH  21  22
ENDBRANCH   7   9
ENDBRANCH   6   7
ENDBRANCH   5   6
ENDBRANCH   4   5
ENDBRANCH   3   4
ENDBRANCH   2   3
ENDBRANCH   1   2
BRANCH   1  26
ATOM     26  O   UNL A   1      44.112  19.358  25.456  1.00  0.00    -0.376 OA
BRANCH  26  27
ATOM     27  C   UNL A   1      45.229  20.188  25.729  1.00  0.00     0.202 C 
BRANCH  27  28
ATOM     28  C   UNL A   1      45.398  21.665  25.310  1.00  0.00     0.261 C 
BRANCH  28  29
ATOM     29  O   UNL A   1      44.677  22.670  26.024  1.00  0.00    -0.460 OA
BRANCH  29  30
ATOM     30  C   UNL A   1      43.667  23.269  25.345  1.00  0.00     0.338 C 
ATOM     31  O   UNL A   1      43.206  22.949  24.267  1.00  0.00    -0.246 OA
BRANCH  30  32
ATOM     32  C   UNL A   1      43.066  24.294  26.222  1.00  0.00     0.060 A 
ATOM     33  C   UNL A   1      43.632  25.575  26.249  1.00  0.00     0.016 A 
ATOM     34  C   UNL A   1      41.969  23.982  27.025  1.00  0.00     0.016 A 
ATOM     35  C   UNL A   1      43.109  26.549  27.099  1.00  0.00     0.010 A 
ATOM     36  C   UNL A   1      41.464  24.950  27.895  1.00  0.00     0.010 A 
ATOM     37  C   UNL A   1      42.048  26.229  27.955  1.00  0.00    -0.014 A 
BRANCH  37  38
ATOM     38  C   UNL A   1      41.654  27.163  29.035  1.00  0.00     0.031 A 
ATOM     39  C   UNL A   1      42.438  27.150  30.318  1.00  0.00     0.074 A 
ATOM     40  C   UNL A   1      40.621  28.010  28.883  1.00  0.00     0.049 A 
ATOM     41  N   UNL A   1      42.228  27.813  31.425  1.00  0.00    -0.248 NA
ATOM     42  C   UNL A   1      43.620  26.272  30.354  1.00  0.00     0.031 C 
ATOM     43  C   UNL A   1      39.825  28.166  27.667  1.00  0.00     0.029 A 
ATOM     44  N   UNL A   1      40.064  28.897  29.770  1.00  0.00    -0.354 N 
ATOM     45  C   UNL A   1      43.246  27.431  32.289  1.00  0.00     0.074 A 
ATOM     46  C   UNL A   1      44.058  26.460  31.590  1.00  0.00     0.031 C 
ATOM     47  C   UNL A   1      38.875  29.092  27.888  1.00  0.00     0.029 A 
ATOM     48  C   UNL A   1      38.971  29.560  29.271  1.00  0.00     0.049 A 
ATOM     49  H   UNL A   1      40.416  29.044  30.677  1.00  0.00     0.167 HD
ATOM     50  C   UNL A   1      43.486  27.856  33.551  1.00  0.00     0.031 A 
ATOM     51  C   UNL A   1      38.129  30.426  29.869  1.00  0.00     0.031 A 
ATOM     52  C   UNL A   1      42.663  28.802  34.257  1.00  0.00     0.049 A 
ATOM     53  C   UNL A   1      38.354  30.802  31.310  1.00  0.00     0.074 A 
ATOM     54  C   UNL A   1      42.816  29.282  35.546  1.00  0.00     0.029 A 
ATOM     55  N   UNL A   1      41.533  29.410  33.734  1.00  0.00    -0.354 N 
ATOM     56  N   UNL A   1      39.311  30.426  32.124  1.00  0.00    -0.248 NA
ATOM     57  C   UNL A   1      37.384  31.729  31.912  1.00  0.00     0.031 C 
ATOM     58  C   UNL A   1      41.746  30.137  35.822  1.00  0.00     0.029 A 
ATOM     59  C   UNL A   1      40.967  30.245  34.681  1.00  0.00     0.049 A 
ATOM     60  H   UNL A   1      41.184  29.267  32.824  1.00  0.00     0.167 HD
ATOM     61  C   UNL A   1      39.081  31.098  33.319  1.00  0.00     0.074 A 
ATOM     62  C   UNL A   1      37.897  31.909  33.122  1.00  0.00     0.031 C 
ATOM     63  C   UNL A   1      39.792  31.052  34.472  1.00  0.00     0.031 A 
BRANCH  50  64
ATOM     64  C   UNL A   1      44.674  27.277  34.267  1.00  0.00    -0.014 A 
ATOM     65  C   UNL A   1      45.947  27.856  34.147  1.00  0.00     0.009 A 
ATOM     66  C   UNL A   1      44.506  26.173  35.118  1.00  0.00     0.009 A 
ATOM     67  C   UNL A   1      47.032  27.328  34.851  1.00  0.00     0.001 A 
ATOM     68  C   UNL A   1      45.586  25.666  35.843  1.00  0.00     0.001 A 
ATOM     69  C   UNL A   1      46.849  26.240  35.704  1.00  0.00     0.000 A 
ENDBRANCH  50  64
BRANCH  51  70
ATOM     70  C   UNL A   1      36.990  30.999  29.104  1.00  0.00    -0.014 A 
ATOM     71  C   UNL A   1      35.872  30.210  28.794  1.00  0.00     0.009 A 
ATOM     72  C   UNL A   1      37.012  32.339  28.684  1.00  0.00     0.009 A 
ATOM     73  C   UNL A   1      34.806  30.747  28.067  1.00  0.00     0.001 A 
ATOM     74  C   UNL A   1      35.931  32.881  27.983  1.00  0.00     0.001 A 
ATOM     75  C   UNL A   1      34.833  32.083  27.670  1.00  0.00     0.000 A 
ENDBRANCH  51  70
BRANCH  63  76
ATOM     76  C   UNL A   1      39.348  31.938  35.605  1.00  0.00    -0.014 A 
ATOM     77  C   UNL A   1      39.819  33.254  35.739  1.00  0.00     0.009 A 
ATOM     78  C   UNL A   1      38.388  31.464  36.515  1.00  0.00     0.009 A 
ATOM     79  C   UNL A   1      39.358  34.064  36.779  1.00  0.00     0.001 A 
ATOM     80  C   UNL A   1      37.907  32.288  37.534  1.00  0.00     0.001 A 
ATOM     81  C   UNL A   1      38.398  33.584  37.669  1.00  0.00     0.000 A 
ENDBRANCH  63  76
ENDBRANCH  37  38
ENDBRANCH  30  32
ENDBRANCH  29  30
ENDBRANCH  28  29
ENDBRANCH  27  28
ENDBRANCH  26  27
ENDBRANCH   1  26
TORSDOF 18
ENDMDL
