MODEL 1
REMARK VINA RESULT:     -11.3      0.000      0.000
REMARK SMILES Cc1ccc(Nc2c(F)cccc2I)c(CC(=O)OCCOCCOCCOC(=O)c2ccc(-c3c4nc(c(-c5ccccc5)c5ccc([nH]5)c(-c5ccccc5)c5nc(c(-c6ccccc6)c6ccc3[nH]6)C=C5)C=C4)cc2)c1
REMARK SMILES IDX 23 1 22 2 21 3 20 4 19 5 17 6 18 7 16 8 15 9 1 10 2 11 3 12
REMARK SMILES IDX 79 13 4 14 5 15 6 16 7 18 8 19 13 20 9 21 10 22 12 23 14 24
REMARK SMILES IDX 11 25 24 26 25 27 26 28 27 29 28 30 29 31 30 32 31 33 32 34
REMARK SMILES IDX 78 35 33 36 77 37 34 38 35 39 36 40 71 41 37 42 76 43 70 44
REMARK SMILES IDX 72 45 38 46 75 47 69 48 68 49 39 51 61 52 46 53 60 54 47 55
REMARK SMILES IDX 50 56 59 57 73 58 48 59 49 60 58 62 74 63 51 64 40 65 41 66
REMARK SMILES IDX 45 67 42 68 44 69 43 70 62 71 63 72 67 73 64 74 66 75 65 76
REMARK SMILES IDX 52 77 53 78 57 79 54 80 56 81 55 82
REMARK H PARENT 6 17 72 50 50 61
REMARK Flexibility Score: inf
ROOT
ATOM      1  C   UNL A   1      42.170  22.330  25.811  1.00  0.00     0.188 C 
ENDROOT
BRANCH   1   2
ATOM      2  O   UNL A   1      41.186  22.214  26.801  1.00  0.00    -0.376 OA
BRANCH   2   3
ATOM      3  C   UNL A   1      40.357  23.307  27.118  1.00  0.00     0.202 C 
BRANCH   3   4
ATOM      4  C   UNL A   1      38.822  23.683  26.741  1.00  0.00     0.261 C 
BRANCH   4   5
ATOM      5  O   UNL A   1      37.758  23.742  25.266  1.00  0.00    -0.463 OA
BRANCH   5   6
ATOM      6  C   UNL A   1      36.208  23.685  24.700  1.00  0.00     0.310 C 
ATOM      7  O   UNL A   1      35.652  24.029  23.647  1.00  0.00    -0.252 OA
BRANCH   6   8
ATOM      8  C   UNL A   1      35.374  22.812  25.459  1.00  0.00     0.160 C 
BRANCH   8   9
ATOM      9  C   UNL A   1      34.047  23.100  24.864  1.00  0.00    -0.013 A 
ATOM     10  C   UNL A   1      32.667  19.621  23.976  1.00  0.00     0.044 C 
ATOM     11  C   UNL A   1      32.756  21.001  24.545  1.00  0.00    -0.051 A 
ATOM     12  C   UNL A   1      31.916  21.487  25.515  1.00  0.00     0.005 A 
ATOM     13  C   UNL A   1      33.791  21.826  24.188  1.00  0.00     0.009 A 
ATOM     14  C   UNL A   1      32.120  22.794  26.056  1.00  0.00     0.026 A 
ATOM     15  C   UNL A   1      33.163  23.937  25.602  1.00  0.00     0.042 A 
BRANCH  15  16
ATOM     16  N   UNL A   1      32.840  25.926  25.795  1.00  0.00    -0.352 N 
ATOM     17  H   UNL A   1      33.418  26.342  26.475  1.00  0.00     0.167 HD
BRANCH  16  18
ATOM     18  C   UNL A   1      31.713  27.126  24.986  1.00  0.00     0.088 A 
ATOM     19  C   UNL A   1      30.992  26.811  23.635  1.00  0.00     0.147 A 
ATOM     20  C   UNL A   1      31.605  28.519  25.271  1.00  0.00     0.040 A 
ATOM     21  F   UNL A   1      31.125  25.674  22.913  1.00  0.00    -0.205 F 
ATOM     22  C   UNL A   1      30.278  27.696  22.824  1.00  0.00     0.041 A 
ATOM     23  C   UNL A   1      30.874  29.386  24.342  1.00  0.00     0.017 A 
ATOM     24  I   UNL A   1      32.275  29.863  26.698  1.00  0.00    -0.042 I 
ATOM     25  C   UNL A   1      30.241  29.007  23.162  1.00  0.00     0.004 A 
ENDBRANCH  16  18
ENDBRANCH  15  16
ENDBRANCH   8   9
ENDBRANCH   6   8
ENDBRANCH   5   6
ENDBRANCH   4   5
ENDBRANCH   3   4
ENDBRANCH   2   3
ENDBRANCH   1   2
BRANCH   1  26
ATOM     26  C   UNL A   1      43.634  22.494  26.191  1.00  0.00     0.188 C 
BRANCH  26  27
ATOM     27  O   UNL A   1      44.414  23.289  25.331  1.00  0.00    -0.376 OA
BRANCH  27  28
ATOM     28  C   UNL A   1      43.820  24.545  25.001  1.00  0.00     0.202 C 
BRANCH  28  29
ATOM     29  C   UNL A   1      44.323  25.876  25.714  1.00  0.00     0.261 C 
BRANCH  29  30
ATOM     30  O   UNL A   1      43.364  26.546  26.633  1.00  0.00    -0.460 OA
BRANCH  30  31
ATOM     31  C   UNL A   1      42.950  26.002  27.870  1.00  0.00     0.338 C 
ATOM     32  O   UNL A   1      43.664  25.176  28.407  1.00  0.00    -0.246 OA
BRANCH  31  33
ATOM     33  C   UNL A   1      41.409  26.554  28.306  1.00  0.00     0.060 A 
ATOM     34  C   UNL A   1      39.976  27.709  27.626  1.00  0.00     0.016 A 
ATOM     35  C   UNL A   1      42.141  27.151  29.840  1.00  0.00     0.016 A 
ATOM     36  C   UNL A   1      39.700  29.392  28.454  1.00  0.00     0.010 A 
ATOM     37  C   UNL A   1      41.836  28.750  30.446  1.00  0.00     0.010 A 
ATOM     38  C   UNL A   1      40.680  29.991  29.883  1.00  0.00    -0.014 A 
BRANCH  38  39
ATOM     39  C   UNL A   1      40.582  31.452  31.085  1.00  0.00     0.031 A 
ATOM     40  C   UNL A   1      41.857  31.966  32.428  1.00  0.00     0.074 A 
ATOM     41  C   UNL A   1      39.739  32.492  30.888  1.00  0.00     0.049 A 
ATOM     42  N   UNL A   1      41.687  32.053  33.736  1.00  0.00    -0.248 NA
ATOM     43  C   UNL A   1      43.536  31.869  32.357  1.00  0.00     0.031 C 
ATOM     44  C   UNL A   1      39.850  33.857  31.438  1.00  0.00     0.029 A 
ATOM     45  N   UNL A   1      38.631  32.600  30.055  1.00  0.00    -0.354 N 
ATOM     46  C   UNL A   1      42.989  32.156  34.340  1.00  0.00     0.074 A 
ATOM     47  C   UNL A   1      43.914  31.460  33.547  1.00  0.00     0.031 C 
ATOM     48  C   UNL A   1      38.702  34.526  31.205  1.00  0.00     0.029 A 
ATOM     49  C   UNL A   1      37.778  33.569  30.622  1.00  0.00     0.049 A 
ATOM     50  H   UNL A   1      38.473  32.096  29.225  1.00  0.00     0.167 HD
ATOM     51  C   UNL A   1      43.406  33.264  35.032  1.00  0.00     0.031 A 
ATOM     52  C   UNL A   1      36.624  33.113  31.181  1.00  0.00     0.031 A 
ATOM     53  C   UNL A   1      42.290  34.177  35.054  1.00  0.00     0.049 A 
ATOM     54  C   UNL A   1      36.768  33.171  32.688  1.00  0.00     0.074 A 
ATOM     55  C   UNL A   1      41.953  35.295  34.315  1.00  0.00     0.029 A 
ATOM     56  N   UNL A   1      41.109  33.643  35.524  1.00  0.00    -0.354 N 
ATOM     57  N   UNL A   1      37.921  33.221  33.310  1.00  0.00    -0.248 NA
ATOM     58  C   UNL A   1      35.642  33.351  33.594  1.00  0.00     0.031 C 
ATOM     59  C   UNL A   1      40.520  35.381  34.320  1.00  0.00     0.029 A 
ATOM     60  C   UNL A   1      40.011  34.314  35.047  1.00  0.00     0.049 A 
ATOM     61  H   UNL A   1      41.059  32.869  36.130  1.00  0.00     0.167 HD
ATOM     62  C   UNL A   1      37.726  33.546  34.616  1.00  0.00     0.074 A 
ATOM     63  C   UNL A   1      36.280  33.578  34.755  1.00  0.00     0.031 C 
ATOM     64  C   UNL A   1      38.717  33.831  35.508  1.00  0.00     0.031 A 
BRANCH  51  65
ATOM     65  C   UNL A   1      44.872  33.636  35.336  1.00  0.00    -0.014 A 
ATOM     66  C   UNL A   1      45.168  34.252  36.562  1.00  0.00     0.009 A 
ATOM     67  C   UNL A   1      46.001  33.396  34.511  1.00  0.00     0.009 A 
ATOM     68  C   UNL A   1      46.478  34.616  36.931  1.00  0.00     0.001 A 
ATOM     69  C   UNL A   1      47.307  33.806  34.847  1.00  0.00     0.001 A 
ATOM     70  C   UNL A   1      47.548  34.405  36.072  1.00  0.00     0.000 A 
ENDBRANCH  51  65
BRANCH  52  71
ATOM     71  C   UNL A   1      36.037  32.048  30.297  1.00  0.00    -0.014 A 
ATOM     72  C   UNL A   1      35.708  32.446  28.974  1.00  0.00     0.009 A 
ATOM     73  C   UNL A   1      36.306  30.686  30.523  1.00  0.00     0.009 A 
ATOM     74  C   UNL A   1      35.738  31.538  27.912  1.00  0.00     0.001 A 
ATOM     75  C   UNL A   1      36.336  29.780  29.450  1.00  0.00     0.001 A 
ATOM     76  C   UNL A   1      36.049  30.204  28.156  1.00  0.00     0.000 A 
ENDBRANCH  52  71
BRANCH  64  77
ATOM     77  C   UNL A   1      38.553  33.597  36.996  1.00  0.00    -0.014 A 
ATOM     78  C   UNL A   1      38.866  34.562  37.955  1.00  0.00     0.009 A 
ATOM     79  C   UNL A   1      37.876  32.444  37.463  1.00  0.00     0.009 A 
ATOM     80  C   UNL A   1      38.629  34.337  39.312  1.00  0.00     0.001 A 
ATOM     81  C   UNL A   1      37.523  32.272  38.797  1.00  0.00     0.001 A 
ATOM     82  C   UNL A   1      37.945  33.202  39.730  1.00  0.00     0.000 A 
ENDBRANCH  64  77
ENDBRANCH  38  39
ENDBRANCH  31  33
ENDBRANCH  30  31
ENDBRANCH  29  30
ENDBRANCH  28  29
ENDBRANCH  27  28
ENDBRANCH  26  27
ENDBRANCH   1  26
TORSDOF 20
ENDMDL
MODEL 2
REMARK VINA RESULT:     -11.2      5.895      9.865
REMARK SMILES Cc1ccc(Nc2c(F)cccc2I)c(CC(=O)OCCOCCOCCOC(=O)c2ccc(-c3c4nc(c(-c5ccccc5)c5ccc([nH]5)c(-c5ccccc5)c5nc(c(-c6ccccc6)c6ccc3[nH]6)C=C5)C=C4)cc2)c1
REMARK SMILES IDX 23 1 22 2 21 3 20 4 19 5 17 6 18 7 16 8 15 9 1 10 2 11 3 12
REMARK SMILES IDX 79 13 4 14 5 15 6 16 7 18 8 19 13 20 9 21 10 22 12 23 14 24
REMARK SMILES IDX 11 25 24 26 25 27 26 28 27 29 28 30 29 31 30 32 31 33 32 34
REMARK SMILES IDX 78 35 33 36 77 37 34 38 35 39 36 40 71 41 37 42 76 43 70 44
REMARK SMILES IDX 72 45 38 46 75 47 69 48 68 49 39 51 61 52 46 53 60 54 47 55
REMARK SMILES IDX 50 56 59 57 73 58 48 59 49 60 58 62 74 63 51 64 40 65 41 66
REMARK SMILES IDX 45 67 42 68 44 69 43 70 62 71 63 72 67 73 64 74 66 75 65 76
REMARK SMILES IDX 52 77 53 78 57 79 54 80 56 81 55 82
REMARK H PARENT 6 17 72 50 50 61
REMARK Flexibility Score: inf
ROOT
ATOM      1  C   UNL A   1      37.319  32.815  34.789  1.00  0.00     0.188 C 
ENDROOT
BRANCH   1   2
ATOM      2  O   UNL A   1      37.709  33.559  33.668  1.00  0.00    -0.376 OA
BRANCH   2   3
ATOM      3  C   UNL A   1      36.798  33.811  32.624  1.00  0.00     0.202 C 
BRANCH   3   4
ATOM      4  C   UNL A   1      36.918  33.745  31.005  1.00  0.00     0.261 C 
BRANCH   4   5
ATOM      5  O   UNL A   1      35.872  34.057  29.550  1.00  0.00    -0.463 OA
BRANCH   5   6
ATOM      6  C   UNL A   1      34.499  33.626  28.740  1.00  0.00     0.310 C 
ATOM      7  O   UNL A   1      33.869  34.097  27.782  1.00  0.00    -0.252 OA
BRANCH   6   8
ATOM      8  C   UNL A   1      34.096  32.285  29.010  1.00  0.00     0.160 C 
BRANCH   8   9
ATOM      9  C   UNL A   1      34.447  31.621  27.732  1.00  0.00    -0.013 A 
ATOM     10  C   UNL A   1      38.048  30.392  28.299  1.00  0.00     0.044 C 
ATOM     11  C   UNL A   1      36.595  30.389  27.946  1.00  0.00    -0.051 A 
ATOM     12  C   UNL A   1      35.842  29.251  27.801  1.00  0.00     0.005 A 
ATOM     13  C   UNL A   1      35.905  31.571  27.866  1.00  0.00     0.009 A 
ATOM     14  C   UNL A   1      34.440  29.343  27.536  1.00  0.00     0.026 A 
ATOM     15  C   UNL A   1      33.542  30.646  27.226  1.00  0.00     0.042 A 
BRANCH  15  16
ATOM     16  N   UNL A   1      31.876  30.643  26.076  1.00  0.00    -0.352 N 
ATOM     17  H   UNL A   1      31.323  31.448  26.202  1.00  0.00     0.167 HD
BRANCH  16  18
ATOM     18  C   UNL A   1      31.168  29.477  24.850  1.00  0.00     0.088 A 
ATOM     19  C   UNL A   1      30.056  29.906  23.837  1.00  0.00     0.147 A 
ATOM     20  C   UNL A   1      31.276  28.055  24.864  1.00  0.00     0.040 A 
ATOM     21  F   UNL A   1      29.485  31.131  23.762  1.00  0.00    -0.205 F 
ATOM     22  C   UNL A   1      29.301  29.082  23.001  1.00  0.00     0.041 A 
ATOM     23  C   UNL A   1      30.414  27.261  23.984  1.00  0.00     0.017 A 
ATOM     24  I   UNL A   1      32.331  26.595  25.886  1.00  0.00    -0.042 I 
ATOM     25  C   UNL A   1      29.457  27.740  23.093  1.00  0.00     0.004 A 
ENDBRANCH  16  18
ENDBRANCH  15  16
ENDBRANCH   8   9
ENDBRANCH   6   8
ENDBRANCH   5   6
ENDBRANCH   4   5
ENDBRANCH   3   4
ENDBRANCH   2   3
ENDBRANCH   1   2
BRANCH   1  26
ATOM     26  C   UNL A   1      36.976  33.511  36.098  1.00  0.00     0.188 C 
BRANCH  26  27
ATOM     27  O   UNL A   1      37.046  32.721  37.260  1.00  0.00    -0.376 OA
BRANCH  27  28
ATOM     28  C   UNL A   1      38.083  31.739  37.234  1.00  0.00     0.202 C 
BRANCH  28  29
ATOM     29  C   UNL A   1      39.493  32.087  36.586  1.00  0.00     0.261 C 
BRANCH  29  30
ATOM     30  O   UNL A   1      40.699  31.796  37.408  1.00  0.00    -0.460 OA
BRANCH  30  31
ATOM     31  C   UNL A   1      41.108  32.582  38.508  1.00  0.00     0.338 C 
ATOM     32  O   UNL A   1      41.482  32.015  39.518  1.00  0.00    -0.246 OA
BRANCH  31  33
ATOM     33  C   UNL A   1      40.863  34.232  38.218  1.00  0.00     0.060 A 
ATOM     34  C   UNL A   1      39.642  35.424  37.247  1.00  0.00     0.016 A 
ATOM     35  C   UNL A   1      42.559  34.300  37.614  1.00  0.00     0.016 A 
ATOM     36  C   UNL A   1      40.272  36.280  35.677  1.00  0.00     0.010 A 
ATOM     37  C   UNL A   1      42.974  35.077  36.117  1.00  0.00     0.010 A 
ATOM     38  C   UNL A   1      41.975  36.082  35.028  1.00  0.00    -0.014 A 
BRANCH  38  39
ATOM     39  C   UNL A   1      43.020  36.896  33.673  1.00  0.00     0.031 A 
ATOM     40  C   UNL A   1      43.455  38.757  33.473  1.00  0.00     0.074 A 
ATOM     41  C   UNL A   1      43.852  36.183  32.879  1.00  0.00     0.049 A 
ATOM     42  N   UNL A   1      43.166  39.568  32.470  1.00  0.00    -0.248 NA
ATOM     43  C   UNL A   1      43.769  39.886  34.681  1.00  0.00     0.031 C 
ATOM     44  C   UNL A   1      45.020  36.678  32.126  1.00  0.00     0.029 A 
ATOM     45  N   UNL A   1      43.911  34.814  32.645  1.00  0.00    -0.354 N 
ATOM     46  C   UNL A   1      43.409  40.915  32.913  1.00  0.00     0.074 A 
ATOM     47  C   UNL A   1      43.170  40.989  34.293  1.00  0.00     0.031 C 
ATOM     48  C   UNL A   1      45.443  35.718  31.277  1.00  0.00     0.029 A 
ATOM     49  C   UNL A   1      44.480  34.635  31.367  1.00  0.00     0.049 A 
ATOM     50  H   UNL A   1      43.611  34.102  33.256  1.00  0.00     0.167 HD
ATOM     51  C   UNL A   1      44.370  41.721  32.360  1.00  0.00     0.031 A 
ATOM     52  C   UNL A   1      43.644  34.211  30.381  1.00  0.00     0.031 A 
ATOM     53  C   UNL A   1      44.964  40.969  31.282  1.00  0.00     0.049 A 
ATOM     54  C   UNL A   1      43.348  35.384  29.469  1.00  0.00     0.074 A 
ATOM     55  C   UNL A   1      46.124  40.229  31.158  1.00  0.00     0.029 A 
ATOM     56  N   UNL A   1      44.071  40.462  30.363  1.00  0.00    -0.354 N 
ATOM     57  N   UNL A   1      43.502  36.638  29.818  1.00  0.00    -0.248 NA
ATOM     58  C   UNL A   1      43.028  35.239  28.056  1.00  0.00     0.031 C 
ATOM     59  C   UNL A   1      45.874  39.226  30.162  1.00  0.00     0.029 A 
ATOM     60  C   UNL A   1      44.570  39.363  29.708  1.00  0.00     0.049 A 
ATOM     61  H   UNL A   1      43.179  40.842  30.196  1.00  0.00     0.167 HD
ATOM     62  C   UNL A   1      43.431  37.435  28.718  1.00  0.00     0.074 A 
ATOM     63  C   UNL A   1      43.093  36.516  27.644  1.00  0.00     0.031 C 
ATOM     64  C   UNL A   1      43.700  38.772  28.701  1.00  0.00     0.031 A 
BRANCH  51  65
ATOM     65  C   UNL A   1      44.980  42.976  33.017  1.00  0.00    -0.014 A 
ATOM     66  C   UNL A   1      46.271  42.891  33.561  1.00  0.00     0.009 A 
ATOM     67  C   UNL A   1      44.383  44.261  33.116  1.00  0.00     0.009 A 
ATOM     68  C   UNL A   1      46.912  43.987  34.169  1.00  0.00     0.001 A 
ATOM     69  C   UNL A   1      44.994  45.348  33.773  1.00  0.00     0.001 A 
ATOM     70  C   UNL A   1      46.272  45.214  34.287  1.00  0.00     0.000 A 
ENDBRANCH  51  65
BRANCH  52  71
ATOM     71  C   UNL A   1      42.733  33.150  30.932  1.00  0.00    -0.014 A 
ATOM     72  C   UNL A   1      41.529  33.609  31.531  1.00  0.00     0.009 A 
ATOM     73  C   UNL A   1      42.750  31.839  30.421  1.00  0.00     0.009 A 
ATOM     74  C   UNL A   1      40.372  32.826  31.534  1.00  0.00     0.001 A 
ATOM     75  C   UNL A   1      41.582  31.059  30.427  1.00  0.00     0.001 A 
ATOM     76  C   UNL A   1      40.405  31.548  30.984  1.00  0.00     0.000 A 
ENDBRANCH  52  71
BRANCH  64  77
ATOM     77  C   UNL A   1      43.065  39.708  27.695  1.00  0.00    -0.014 A 
ATOM     78  C   UNL A   1      43.764  40.250  26.615  1.00  0.00     0.009 A 
ATOM     79  C   UNL A   1      41.662  39.910  27.699  1.00  0.00     0.009 A 
ATOM     80  C   UNL A   1      43.125  41.048  25.666  1.00  0.00     0.001 A 
ATOM     81  C   UNL A   1      41.002  40.597  26.686  1.00  0.00     0.001 A 
ATOM     82  C   UNL A   1      41.745  41.208  25.693  1.00  0.00     0.000 A 
ENDBRANCH  64  77
ENDBRANCH  38  39
ENDBRANCH  31  33
ENDBRANCH  30  31
ENDBRANCH  29  30
ENDBRANCH  28  29
ENDBRANCH  27  28
ENDBRANCH  26  27
ENDBRANCH   1  26
TORSDOF 20
ENDMDL
MODEL 3
REMARK VINA RESULT:     -11.2      4.944     10.633
REMARK SMILES Cc1ccc(Nc2c(F)cccc2I)c(CC(=O)OCCOCCOCCOC(=O)c2ccc(-c3c4nc(c(-c5ccccc5)c5ccc([nH]5)c(-c5ccccc5)c5nc(c(-c6ccccc6)c6ccc3[nH]6)C=C5)C=C4)cc2)c1
REMARK SMILES IDX 23 1 22 2 21 3 20 4 19 5 17 6 18 7 16 8 15 9 1 10 2 11 3 12
REMARK SMILES IDX 79 13 4 14 5 15 6 16 7 18 8 19 13 20 9 21 10 22 12 23 14 24
REMARK SMILES IDX 11 25 24 26 25 27 26 28 27 29 28 30 29 31 30 32 31 33 32 34
REMARK SMILES IDX 78 35 33 36 77 37 34 38 35 39 36 40 71 41 37 42 76 43 70 44
REMARK SMILES IDX 72 45 38 46 75 47 69 48 68 49 39 51 61 52 46 53 60 54 47 55
REMARK SMILES IDX 50 56 59 57 73 58 48 59 49 60 58 62 74 63 51 64 40 65 41 66
REMARK SMILES IDX 45 67 42 68 44 69 43 70 62 71 63 72 67 73 64 74 66 75 65 76
REMARK SMILES IDX 52 77 53 78 57 79 54 80 56 81 55 82
REMARK H PARENT 6 17 72 50 50 61
REMARK Flexibility Score: inf
ROOT
ATOM      1  C   UNL A   1      36.727  32.829  29.565  1.00  0.00     0.188 C 
ENDROOT
BRANCH   1   2
ATOM      2  O   UNL A   1      36.141  32.339  28.391  1.00  0.00    -0.376 OA
BRANCH   2   3
ATOM      3  C   UNL A   1      34.851  32.754  28.007  1.00  0.00     0.202 C 
BRANCH   3   4
ATOM      4  C   UNL A   1      33.479  31.949  27.675  1.00  0.00     0.261 C 
BRANCH   4   5
ATOM      5  O   UNL A   1      32.967  30.433  26.810  1.00  0.00    -0.463 OA
BRANCH   5   6
ATOM      6  C   UNL A   1      33.447  28.959  26.241  1.00  0.00     0.310 C 
ATOM      7  O   UNL A   1      33.626  27.844  26.752  1.00  0.00    -0.252 OA
BRANCH   6   8
ATOM      8  C   UNL A   1      33.380  28.867  24.819  1.00  0.00     0.160 C 
BRANCH   8   9
ATOM      9  C   UNL A   1      32.696  27.563  24.652  1.00  0.00    -0.013 A 
ATOM     10  C   UNL A   1      29.303  28.502  23.102  1.00  0.00     0.044 C 
ATOM     11  C   UNL A   1      30.621  27.828  23.310  1.00  0.00    -0.051 A 
ATOM     12  C   UNL A   1      31.268  27.094  22.348  1.00  0.00     0.005 A 
ATOM     13  C   UNL A   1      31.317  28.022  24.476  1.00  0.00     0.009 A 
ATOM     14  C   UNL A   1      32.563  26.546  22.608  1.00  0.00     0.026 A 
ATOM     15  C   UNL A   1      33.407  26.528  23.982  1.00  0.00     0.042 A 
BRANCH  15  16
ATOM     16  N   UNL A   1      34.733  25.086  24.493  1.00  0.00    -0.352 N 
ATOM     17  H   UNL A   1      35.650  25.430  24.596  1.00  0.00     0.167 HD
BRANCH  16  18
ATOM     18  C   UNL A   1      34.609  23.284  24.807  1.00  0.00     0.088 A 
ATOM     19  C   UNL A   1      35.846  22.423  25.224  1.00  0.00     0.147 A 
ATOM     20  C   UNL A   1      33.537  22.424  24.425  1.00  0.00     0.040 A 
ATOM     21  F   UNL A   1      37.112  22.878  25.372  1.00  0.00    -0.205 F 
ATOM     22  C   UNL A   1      35.930  21.032  25.298  1.00  0.00     0.041 A 
ATOM     23  C   UNL A   1      33.725  20.971  24.491  1.00  0.00     0.017 A 
ATOM     24  I   UNL A   1      31.617  22.589  23.666  1.00  0.00    -0.042 I 
ATOM     25  C   UNL A   1      34.869  20.291  24.898  1.00  0.00     0.004 A 
ENDBRANCH  16  18
ENDBRANCH  15  16
ENDBRANCH   8   9
ENDBRANCH   6   8
ENDBRANCH   5   6
ENDBRANCH   4   5
ENDBRANCH   3   4
ENDBRANCH   2   3
ENDBRANCH   1   2
BRANCH   1  26
ATOM     26  C   UNL A   1      35.866  33.200  30.763  1.00  0.00     0.188 C 
BRANCH  26  27
ATOM     27  O   UNL A   1      35.828  32.266  31.815  1.00  0.00    -0.376 OA
BRANCH  27  28
ATOM     28  C   UNL A   1      35.967  30.910  31.394  1.00  0.00     0.202 C 
BRANCH  28  29
ATOM     29  C   UNL A   1      37.074  29.979  32.056  1.00  0.00     0.261 C 
BRANCH  29  30
ATOM     30  O   UNL A   1      38.383  30.614  32.368  1.00  0.00    -0.460 OA
BRANCH  30  31
ATOM     31  C   UNL A   1      39.213  31.220  31.398  1.00  0.00     0.338 C 
ATOM     32  O   UNL A   1      39.612  32.351  31.602  1.00  0.00    -0.246 OA
BRANCH  31  33
ATOM     33  C   UNL A   1      39.388  30.238  30.029  1.00  0.00     0.060 A 
ATOM     34  C   UNL A   1      39.022  28.402  29.437  1.00  0.00     0.016 A 
ATOM     35  C   UNL A   1      41.143  30.644  30.055  1.00  0.00     0.016 A 
ATOM     36  C   UNL A   1      40.483  27.213  29.224  1.00  0.00     0.010 A 
ATOM     37  C   UNL A   1      42.373  29.427  29.904  1.00  0.00     0.010 A 
ATOM     38  C   UNL A   1      42.229  27.691  29.509  1.00  0.00    -0.014 A 
BRANCH  38  39
ATOM     39  C   UNL A   1      43.924  26.899  29.212  1.00  0.00     0.031 A 
ATOM     40  C   UNL A   1      45.658  27.640  29.582  1.00  0.00     0.074 A 
ATOM     41  C   UNL A   1      44.073  25.569  29.008  1.00  0.00     0.049 A 
ATOM     42  N   UNL A   1      46.642  27.897  28.739  1.00  0.00    -0.248 NA
ATOM     43  C   UNL A   1      46.113  28.624  30.871  1.00  0.00     0.031 C 
ATOM     44  C   UNL A   1      45.289  24.758  29.208  1.00  0.00     0.029 A 
ATOM     45  N   UNL A   1      43.129  24.605  28.671  1.00  0.00    -0.354 N 
ATOM     46  C   UNL A   1      47.595  28.733  29.420  1.00  0.00     0.074 A 
ATOM     47  C   UNL A   1      46.915  29.527  30.355  1.00  0.00     0.031 C 
ATOM     48  C   UNL A   1      45.100  23.533  28.676  1.00  0.00     0.029 A 
ATOM     49  C   UNL A   1      43.814  23.569  28.003  1.00  0.00     0.049 A 
ATOM     50  H   UNL A   1      42.164  24.639  28.863  1.00  0.00     0.167 HD
ATOM     51  C   UNL A   1      48.878  28.335  29.692  1.00  0.00     0.031 A 
ATOM     52  C   UNL A   1      43.597  23.457  26.665  1.00  0.00     0.031 A 
ATOM     53  C   UNL A   1      49.030  27.022  29.116  1.00  0.00     0.049 A 
ATOM     54  C   UNL A   1      44.821  23.975  25.938  1.00  0.00     0.074 A 
ATOM     55  C   UNL A   1      48.980  25.739  29.629  1.00  0.00     0.029 A 
ATOM     56  N   UNL A   1      48.693  26.927  27.783  1.00  0.00    -0.354 N 
ATOM     57  N   UNL A   1      45.708  24.775  26.478  1.00  0.00    -0.248 NA
ATOM     58  C   UNL A   1      45.232  23.502  24.623  1.00  0.00     0.031 C 
ATOM     59  C   UNL A   1      48.551  24.880  28.563  1.00  0.00     0.029 A 
ATOM     60  C   UNL A   1      48.337  25.649  27.428  1.00  0.00     0.049 A 
ATOM     61  H   UNL A   1      48.704  27.688  27.158  1.00  0.00     0.167 HD
ATOM     62  C   UNL A   1      46.815  24.834  25.691  1.00  0.00     0.074 A 
ATOM     63  C   UNL A   1      46.454  24.052  24.522  1.00  0.00     0.031 C 
ATOM     64  C   UNL A   1      47.984  25.451  26.029  1.00  0.00     0.031 A 
BRANCH  51  65
ATOM     65  C   UNL A   1      49.809  28.959  30.752  1.00  0.00    -0.014 A 
ATOM     66  C   UNL A   1      50.566  30.088  30.402  1.00  0.00     0.009 A 
ATOM     67  C   UNL A   1      49.976  28.534  32.096  1.00  0.00     0.009 A 
ATOM     68  C   UNL A   1      51.432  30.732  31.306  1.00  0.00     0.001 A 
ATOM     69  C   UNL A   1      50.882  29.137  32.992  1.00  0.00     0.001 A 
ATOM     70  C   UNL A   1      51.601  30.253  32.598  1.00  0.00     0.000 A 
ENDBRANCH  51  65
BRANCH  52  71
ATOM     71  C   UNL A   1      42.135  23.668  26.385  1.00  0.00    -0.014 A 
ATOM     72  C   UNL A   1      41.247  22.713  26.950  1.00  0.00     0.009 A 
ATOM     73  C   UNL A   1      41.625  24.948  26.101  1.00  0.00     0.009 A 
ATOM     74  C   UNL A   1      39.938  23.054  27.300  1.00  0.00     0.001 A 
ATOM     75  C   UNL A   1      40.308  25.283  26.457  1.00  0.00     0.001 A 
ATOM     76  C   UNL A   1      39.471  24.340  27.047  1.00  0.00     0.000 A 
ENDBRANCH  52  71
BRANCH  64  77
ATOM     77  C   UNL A   1      48.927  26.015  24.987  1.00  0.00    -0.014 A 
ATOM     78  C   UNL A   1      48.483  26.661  23.831  1.00  0.00     0.009 A 
ATOM     79  C   UNL A   1      50.317  26.086  25.252  1.00  0.00     0.009 A 
ATOM     80  C   UNL A   1      49.383  27.235  22.933  1.00  0.00     0.001 A 
ATOM     81  C   UNL A   1      51.202  26.768  24.424  1.00  0.00     0.001 A 
ATOM     82  C   UNL A   1      50.738  27.302  23.236  1.00  0.00     0.000 A 
ENDBRANCH  64  77
ENDBRANCH  38  39
ENDBRANCH  31  33
ENDBRANCH  30  31
ENDBRANCH  29  30
ENDBRANCH  28  29
ENDBRANCH  27  28
ENDBRANCH  26  27
ENDBRANCH   1  26
TORSDOF 20
ENDMDL
