MODEL 1
REMARK VINA RESULT:     -10.1      0.000      0.000
REMARK SMILES CC(=O)Oc1ccc2oc(N)c([C@@H]3[NH2+][C@@H](C(=O)OCCOCCOCCOC(=O)c4ccc(-c5c6nc(c(-c7ccccc7)c7ccc([nH]7)c(-c7ccccc7)c7nc(c(-c8ccccc8)c8ccc5[nH]8)C=C7)C=C6)cc4)C(C)(C)S3)c(=O)c2c1
REMARK SMILES IDX 22 1 21 2 20 3 19 4 18 5 16 6 17 7 15 8 13 9 14 10 81 11
REMARK SMILES IDX 78 14 79 15 80 16 12 17 5 18 6 19 85 20 7 21 84 22 8 23
REMARK SMILES IDX 82 24 9 25 83 26 10 27 4 28 2 29 1 30 3 31 11 32 23 35 24 36
REMARK SMILES IDX 25 37 26 38 27 39 28 40 29 41 30 42 31 43 77 44 32 45 76 46
REMARK SMILES IDX 33 47 34 48 35 49 70 50 36 51 75 52 69 53 71 54 37 55 74 56
REMARK SMILES IDX 68 57 67 58 38 60 60 61 45 62 59 63 46 64 49 65 58 66 72 67
REMARK SMILES IDX 47 68 48 69 57 71 73 72 50 73 39 74 40 75 44 76 41 77 43 78
REMARK SMILES IDX 42 79 61 80 62 81 66 82 63 83 65 84 64 85 51 86 52 87 56 88
REMARK SMILES IDX 53 89 55 90 54 91
REMARK H PARENT 14 12 14 13 11 33 11 34 71 59 49 70
REMARK Flexibility Score: inf
ROOT
ATOM      1  C   UNL A   1      36.407  21.051  25.673  1.00  0.00     0.188 C 
ENDROOT
BRANCH   1   2
ATOM      2  O   UNL A   1      35.263  20.852  24.854  1.00  0.00    -0.376 OA
BRANCH   2   3
ATOM      3  C   UNL A   1      34.601  19.593  24.825  1.00  0.00     0.202 C 
BRANCH   3   4
ATOM      4  C   UNL A   1      33.217  19.508  24.155  1.00  0.00     0.261 C 
BRANCH   4   5
ATOM      5  O   UNL A   1      32.242  20.519  24.515  1.00  0.00    -0.459 OA
BRANCH   5   6
ATOM      6  C   UNL A   1      32.359  21.693  23.845  1.00  0.00     0.366 C 
ATOM      7  O   UNL A   1      32.650  21.753  22.650  1.00  0.00    -0.245 OA
BRANCH   6   8
ATOM      8  C   UNL A   1      32.143  22.996  24.670  1.00  0.00     0.310 C 
ATOM      9  C   UNL A   1      33.018  25.214  24.863  1.00  0.00     0.284 C 
ATOM     10  N   UNL A   1      33.266  23.895  24.289  1.00  0.00    -0.318 N 
ATOM     11  S   UNL A   1      32.239  24.954  26.468  1.00  0.00    -0.081 SA
ATOM     12  H   UNL A   1      34.145  23.523  24.651  1.00  0.00     0.348 HD
ATOM     13  H   UNL A   1      33.331  23.964  23.273  1.00  0.00     0.348 HD
ATOM     14  C   UNL A   1      31.925  23.138  26.210  1.00  0.00     0.079 C 
ATOM     15  C   UNL A   1      32.891  22.345  27.089  1.00  0.00     0.030 C 
ATOM     16  C   UNL A   1      30.493  23.003  26.760  1.00  0.00     0.030 C 
BRANCH   9  17
ATOM     17  C   UNL A   1      32.281  26.155  23.934  1.00  0.00     0.128 A 
ATOM     18  C   UNL A   1      29.748  30.349  23.711  1.00  0.00     0.131 A 
ATOM     19  C   UNL A   1      29.440  30.077  22.377  1.00  0.00     0.051 A 
ATOM     20  C   UNL A   1      30.621  29.543  24.436  1.00  0.00     0.063 A 
ATOM     21  C   UNL A   1      29.977  28.941  21.774  1.00  0.00     0.052 A 
ATOM     22  C   UNL A   1      31.142  28.407  23.821  1.00  0.00     0.069 A 
ATOM     23  C   UNL A   1      30.812  28.101  22.510  1.00  0.00     0.140 A 
ATOM     24  C   UNL A   1      32.025  27.493  24.547  1.00  0.00     0.205 A 
ATOM     25  O   UNL A   1      31.270  26.976  21.896  1.00  0.00    -0.440 OA
ATOM     26  O   UNL A   1      32.467  27.820  25.643  1.00  0.00    -0.288 OA
ATOM     27  C   UNL A   1      31.832  25.971  22.668  1.00  0.00     0.205 A 
BRANCH  18  28
ATOM     28  O   UNL A   1      29.233  31.479  24.346  1.00  0.00    -0.427 OA
BRANCH  28  29
ATOM     29  C   UNL A   1      28.292  32.165  23.587  1.00  0.00     0.308 C 
ATOM     30  C   UNL A   1      28.974  33.308  22.900  1.00  0.00     0.139 C 
ATOM     31  O   UNL A   1      27.095  31.922  23.497  1.00  0.00    -0.252 OA
ENDBRANCH  28  29
ENDBRANCH  18  28
BRANCH  27  32
ATOM     32  N   UNL A   1      31.849  24.800  21.970  1.00  0.00    -0.369 N 
ATOM     33  H   UNL A   1      31.341  24.023  22.297  1.00  0.00     0.159 HD
ATOM     34  H   UNL A   1      32.370  24.731  21.137  1.00  0.00     0.159 HD
ENDBRANCH  27  32
ENDBRANCH   9  17
ENDBRANCH   6   8
ENDBRANCH   5   6
ENDBRANCH   4   5
ENDBRANCH   3   4
ENDBRANCH   2   3
ENDBRANCH   1   2
BRANCH   1  35
ATOM     35  C   UNL A   1      37.619  21.796  25.113  1.00  0.00     0.188 C 
BRANCH  35  36
ATOM     36  O   UNL A   1      37.720  23.132  25.535  1.00  0.00    -0.376 OA
BRANCH  36  37
ATOM     37  C   UNL A   1      38.669  23.496  26.510  1.00  0.00     0.202 C 
BRANCH  37  38
ATOM     38  C   UNL A   1      39.997  22.731  26.583  1.00  0.00     0.261 C 
BRANCH  38  39
ATOM     39  O   UNL A   1      41.201  23.509  26.562  1.00  0.00    -0.460 OA
BRANCH  39  40
ATOM     40  C   UNL A   1      41.858  23.689  27.737  1.00  0.00     0.338 C 
ATOM     41  O   UNL A   1      41.760  23.024  28.739  1.00  0.00    -0.246 OA
BRANCH  40  42
ATOM     42  C   UNL A   1      42.906  24.710  27.475  1.00  0.00     0.060 A 
ATOM     43  C   UNL A   1      43.121  25.175  26.178  1.00  0.00     0.016 A 
ATOM     44  C   UNL A   1      43.711  25.163  28.531  1.00  0.00     0.016 A 
ATOM     45  C   UNL A   1      44.128  26.110  25.938  1.00  0.00     0.010 A 
ATOM     46  C   UNL A   1      44.723  26.098  28.288  1.00  0.00     0.010 A 
ATOM     47  C   UNL A   1      44.926  26.593  26.992  1.00  0.00    -0.014 A 
BRANCH  47  48
ATOM     48  C   UNL A   1      45.835  27.740  26.743  1.00  0.00     0.031 A 
ATOM     49  C   UNL A   1      45.368  29.162  26.790  1.00  0.00     0.074 A 
ATOM     50  C   UNL A   1      47.129  27.465  26.489  1.00  0.00     0.049 A 
ATOM     51  N   UNL A   1      46.084  30.257  26.746  1.00  0.00    -0.248 NA
ATOM     52  C   UNL A   1      43.919  29.393  26.888  1.00  0.00     0.031 C 
ATOM     53  C   UNL A   1      47.689  26.116  26.385  1.00  0.00     0.029 A 
ATOM     54  N   UNL A   1      48.210  28.290  26.300  1.00  0.00    -0.354 N 
ATOM     55  C   UNL A   1      45.183  31.308  26.831  1.00  0.00     0.074 A 
ATOM     56  C   UNL A   1      43.859  30.720  26.878  1.00  0.00     0.031 C 
ATOM     57  C   UNL A   1      49.014  26.205  26.209  1.00  0.00     0.029 A 
ATOM     58  C   UNL A   1      49.396  27.613  26.151  1.00  0.00     0.049 A 
ATOM     59  H   UNL A   1      48.141  29.273  26.274  1.00  0.00     0.167 HD
ATOM     60  C   UNL A   1      45.443  32.637  26.882  1.00  0.00     0.031 A 
ATOM     61  C   UNL A   1      50.656  28.066  26.005  1.00  0.00     0.031 A 
ATOM     62  C   UNL A   1      46.767  33.208  26.817  1.00  0.00     0.049 A 
ATOM     63  C   UNL A   1      50.913  29.546  26.033  1.00  0.00     0.074 A 
ATOM     64  C   UNL A   1      47.130  34.540  26.926  1.00  0.00     0.029 A 
ATOM     65  N   UNL A   1      47.937  32.493  26.612  1.00  0.00    -0.354 N 
ATOM     66  N   UNL A   1      50.061  30.524  26.222  1.00  0.00    -0.248 NA
ATOM     67  C   UNL A   1      52.303  29.986  25.848  1.00  0.00     0.031 C 
ATOM     68  C   UNL A   1      48.503  34.641  26.699  1.00  0.00     0.029 A 
ATOM     69  C   UNL A   1      49.014  33.363  26.543  1.00  0.00     0.049 A 
ATOM     70  H   UNL A   1      47.995  31.514  26.528  1.00  0.00     0.167 HD
ATOM     71  C   UNL A   1      50.812  31.692  26.201  1.00  0.00     0.074 A 
ATOM     72  C   UNL A   1      52.191  31.299  26.002  1.00  0.00     0.031 C 
ATOM     73  C   UNL A   1      50.388  32.972  26.337  1.00  0.00     0.031 A 
BRANCH  60  74
ATOM     74  C   UNL A   1      44.287  33.593  27.024  1.00  0.00    -0.014 A 
ATOM     75  C   UNL A   1      43.771  34.241  25.889  1.00  0.00     0.009 A 
ATOM     76  C   UNL A   1      43.804  33.962  28.288  1.00  0.00     0.009 A 
ATOM     77  C   UNL A   1      42.818  35.253  26.017  1.00  0.00     0.001 A 
ATOM     78  C   UNL A   1      42.826  34.953  28.412  1.00  0.00     0.001 A 
ATOM     79  C   UNL A   1      42.344  35.607  27.280  1.00  0.00     0.000 A 
ENDBRANCH  60  74
BRANCH  61  80
ATOM     80  C   UNL A   1      51.767  27.086  25.881  1.00  0.00    -0.014 A 
ATOM     81  C   UNL A   1      52.160  26.603  24.620  1.00  0.00     0.009 A 
ATOM     82  C   UNL A   1      52.392  26.569  27.026  1.00  0.00     0.009 A 
ATOM     83  C   UNL A   1      53.127  25.602  24.513  1.00  0.00     0.001 A 
ATOM     84  C   UNL A   1      53.384  25.592  26.912  1.00  0.00     0.001 A 
ATOM     85  C   UNL A   1      53.741  25.100  25.658  1.00  0.00     0.000 A 
ENDBRANCH  61  80
BRANCH  73  86
ATOM     86  C   UNL A   1      51.417  34.071  26.281  1.00  0.00    -0.014 A 
ATOM     87  C   UNL A   1      52.024  34.519  27.467  1.00  0.00     0.009 A 
ATOM     88  C   UNL A   1      51.697  34.745  25.083  1.00  0.00     0.009 A 
ATOM     89  C   UNL A   1      52.866  35.633  27.460  1.00  0.00     0.001 A 
ATOM     90  C   UNL A   1      52.567  35.837  25.072  1.00  0.00     0.001 A 
ATOM     91  C   UNL A   1      53.139  36.289  26.261  1.00  0.00     0.000 A 
ENDBRANCH  73  86
ENDBRANCH  47  48
ENDBRANCH  40  42
ENDBRANCH  39  40
ENDBRANCH  38  39
ENDBRANCH  37  38
ENDBRANCH  36  37
ENDBRANCH  35  36
ENDBRANCH   1  35
TORSDOF 21
ENDMDL
MODEL 2
REMARK VINA RESULT:      -9.6      1.908      2.884
REMARK SMILES CC(=O)Oc1ccc2oc(N)c([C@@H]3[NH2+][C@@H](C(=O)OCCOCCOCCOC(=O)c4ccc(-c5c6nc(c(-c7ccccc7)c7ccc([nH]7)c(-c7ccccc7)c7nc(c(-c8ccccc8)c8ccc5[nH]8)C=C7)C=C6)cc4)C(C)(C)S3)c(=O)c2c1
REMARK SMILES IDX 22 1 21 2 20 3 19 4 18 5 16 6 17 7 15 8 13 9 14 10 81 11
REMARK SMILES IDX 78 14 79 15 80 16 12 17 5 18 6 19 85 20 7 21 84 22 8 23
REMARK SMILES IDX 82 24 9 25 83 26 10 27 4 28 2 29 1 30 3 31 11 32 23 35 24 36
REMARK SMILES IDX 25 37 26 38 27 39 28 40 29 41 30 42 31 43 77 44 32 45 76 46
REMARK SMILES IDX 33 47 34 48 35 49 70 50 36 51 75 52 69 53 71 54 37 55 74 56
REMARK SMILES IDX 68 57 67 58 38 60 60 61 45 62 59 63 46 64 49 65 58 66 72 67
REMARK SMILES IDX 47 68 48 69 57 71 73 72 50 73 39 74 40 75 44 76 41 77 43 78
REMARK SMILES IDX 42 79 61 80 62 81 66 82 63 83 65 84 64 85 51 86 52 87 56 88
REMARK SMILES IDX 53 89 55 90 54 91
REMARK H PARENT 14 12 14 13 11 33 11 34 71 59 49 70
REMARK Flexibility Score: inf
ROOT
ATOM      1  C   UNL A   1      36.304  21.056  24.988  1.00  0.00     0.188 C 
ENDROOT
BRANCH   1   2
ATOM      2  O   UNL A   1      35.529  21.712  25.984  1.00  0.00    -0.376 OA
BRANCH   2   3
ATOM      3  C   UNL A   1      34.330  21.124  26.475  1.00  0.00     0.202 C 
BRANCH   3   4
ATOM      4  C   UNL A   1      32.994  21.541  25.835  1.00  0.00     0.261 C 
BRANCH   4   5
ATOM      5  O   UNL A   1      32.475  22.853  26.173  1.00  0.00    -0.459 OA
BRANCH   5   6
ATOM      6  C   UNL A   1      31.712  23.433  25.213  1.00  0.00     0.366 C 
ATOM      7  O   UNL A   1      30.540  23.114  25.010  1.00  0.00    -0.245 OA
BRANCH   6   8
ATOM      8  C   UNL A   1      32.399  24.517  24.331  1.00  0.00     0.310 C 
ATOM      9  C   UNL A   1      31.836  26.350  22.901  1.00  0.00     0.284 C 
ATOM     10  N   UNL A   1      31.293  25.184  23.591  1.00  0.00    -0.318 N 
ATOM     11  S   UNL A   1      33.496  25.913  22.350  1.00  0.00    -0.081 SA
ATOM     12  H   UNL A   1      30.893  24.537  22.911  1.00  0.00     0.348 HD
ATOM     13  H   UNL A   1      30.561  25.472  24.241  1.00  0.00     0.348 HD
ATOM     14  C   UNL A   1      33.592  24.339  23.339  1.00  0.00     0.079 C 
ATOM     15  C   UNL A   1      33.483  23.153  22.382  1.00  0.00     0.030 C 
ATOM     16  C   UNL A   1      35.025  24.427  23.896  1.00  0.00     0.030 C 
BRANCH   9  17
ATOM     17  C   UNL A   1      31.738  27.631  23.700  1.00  0.00     0.128 A 
ATOM     18  C   UNL A   1      33.843  30.267  27.260  1.00  0.00     0.131 A 
ATOM     19  C   UNL A   1      32.760  31.148  27.231  1.00  0.00     0.051 A 
ATOM     20  C   UNL A   1      33.967  29.234  26.336  1.00  0.00     0.063 A 
ATOM     21  C   UNL A   1      31.753  30.954  26.288  1.00  0.00     0.052 A 
ATOM     22  C   UNL A   1      32.947  29.050  25.405  1.00  0.00     0.069 A 
ATOM     23  C   UNL A   1      31.845  29.890  25.391  1.00  0.00     0.140 A 
ATOM     24  C   UNL A   1      32.996  27.950  24.440  1.00  0.00     0.205 A 
ATOM     25  O   UNL A   1      30.813  29.709  24.522  1.00  0.00    -0.440 OA
ATOM     26  O   UNL A   1      34.026  27.298  24.317  1.00  0.00    -0.288 OA
ATOM     27  C   UNL A   1      30.712  28.507  23.841  1.00  0.00     0.205 A 
BRANCH  18  28
ATOM     28  O   UNL A   1      34.872  30.433  28.188  1.00  0.00    -0.427 OA
BRANCH  28  29
ATOM     29  C   UNL A   1      35.593  31.610  28.018  1.00  0.00     0.308 C 
ATOM     30  C   UNL A   1      36.914  31.464  28.709  1.00  0.00     0.139 C 
ATOM     31  O   UNL A   1      35.228  32.622  27.434  1.00  0.00    -0.252 OA
ENDBRANCH  28  29
ENDBRANCH  18  28
BRANCH  27  32
ATOM     32  N   UNL A   1      29.446  28.348  23.359  1.00  0.00    -0.369 N 
ATOM     33  H   UNL A   1      29.016  29.075  22.855  1.00  0.00     0.159 HD
ATOM     34  H   UNL A   1      28.962  27.504  23.514  1.00  0.00     0.159 HD
ENDBRANCH  27  32
ENDBRANCH   9  17
ENDBRANCH   6   8
ENDBRANCH   5   6
ENDBRANCH   4   5
ENDBRANCH   3   4
ENDBRANCH   2   3
ENDBRANCH   1   2
BRANCH   1  35
ATOM     35  C   UNL A   1      37.808  20.876  25.197  1.00  0.00     0.188 C 
BRANCH  35  36
ATOM     36  O   UNL A   1      38.502  22.069  25.454  1.00  0.00    -0.376 OA
BRANCH  36  37
ATOM     37  C   UNL A   1      39.486  22.112  26.460  1.00  0.00     0.202 C 
BRANCH  37  38
ATOM     38  C   UNL A   1      40.925  21.711  26.116  1.00  0.00     0.261 C 
BRANCH  38  39
ATOM     39  O   UNL A   1      41.922  22.740  26.167  1.00  0.00    -0.460 OA
BRANCH  39  40
ATOM     40  C   UNL A   1      42.496  23.005  27.369  1.00  0.00     0.338 C 
ATOM     41  O   UNL A   1      42.527  22.288  28.339  1.00  0.00    -0.246 OA
BRANCH  40  42
ATOM     42  C   UNL A   1      43.294  24.246  27.185  1.00  0.00     0.060 A 
ATOM     43  C   UNL A   1      43.911  24.848  28.282  1.00  0.00     0.016 A 
ATOM     44  C   UNL A   1      43.378  24.833  25.915  1.00  0.00     0.016 A 
ATOM     45  C   UNL A   1      44.631  26.031  28.104  1.00  0.00     0.010 A 
ATOM     46  C   UNL A   1      44.098  26.021  25.739  1.00  0.00     0.010 A 
ATOM     47  C   UNL A   1      44.747  26.617  26.830  1.00  0.00    -0.014 A 
BRANCH  47  48
ATOM     48  C   UNL A   1      45.693  27.744  26.636  1.00  0.00     0.031 A 
ATOM     49  C   UNL A   1      45.265  29.177  26.714  1.00  0.00     0.074 A 
ATOM     50  C   UNL A   1      46.985  27.440  26.406  1.00  0.00     0.049 A 
ATOM     51  N   UNL A   1      46.013  30.251  26.719  1.00  0.00    -0.248 NA
ATOM     52  C   UNL A   1      43.821  29.446  26.783  1.00  0.00     0.031 C 
ATOM     53  C   UNL A   1      47.510  26.078  26.277  1.00  0.00     0.029 A 
ATOM     54  N   UNL A   1      48.093  28.239  26.269  1.00  0.00    -0.354 N 
ATOM     55  C   UNL A   1      45.139  31.325  26.813  1.00  0.00     0.074 A 
ATOM     56  C   UNL A   1      43.798  30.775  26.810  1.00  0.00     0.031 C 
ATOM     57  C   UNL A   1      48.841  26.135  26.136  1.00  0.00     0.029 A 
ATOM     58  C   UNL A   1      49.263  27.532  26.129  1.00  0.00     0.049 A 
ATOM     59  H   UNL A   1      48.052  29.223  26.269  1.00  0.00     0.167 HD
ATOM     60  C   UNL A   1      45.435  32.644  26.909  1.00  0.00     0.031 A 
ATOM     61  C   UNL A   1      50.538  27.953  26.027  1.00  0.00     0.031 A 
ATOM     62  C   UNL A   1      46.775  33.179  26.893  1.00  0.00     0.049 A 
ATOM     63  C   UNL A   1      50.836  29.423  26.104  1.00  0.00     0.074 A 
ATOM     64  C   UNL A   1      47.172  34.497  27.050  1.00  0.00     0.029 A 
ATOM     65  N   UNL A   1      47.930  32.437  26.695  1.00  0.00    -0.354 N 
ATOM     66  N   UNL A   1      50.007  30.419  26.301  1.00  0.00    -0.248 NA
ATOM     67  C   UNL A   1      52.242  29.828  25.966  1.00  0.00     0.031 C 
ATOM     68  C   UNL A   1      48.553  34.564  26.859  1.00  0.00     0.029 A 
ATOM     69  C   UNL A   1      49.032  33.277  26.678  1.00  0.00     0.049 A 
ATOM     70  H   UNL A   1      47.962  31.459  26.584  1.00  0.00     0.167 HD
ATOM     71  C   UNL A   1      50.790  31.566  26.332  1.00  0.00     0.074 A 
ATOM     72  C   UNL A   1      52.163  31.140  26.155  1.00  0.00     0.031 C 
ATOM     73  C   UNL A   1      50.399  32.853  26.495  1.00  0.00     0.031 A 
BRANCH  60  74
ATOM     74  C   UNL A   1      44.303  33.629  27.050  1.00  0.00    -0.014 A 
ATOM     75  C   UNL A   1      43.808  34.294  25.916  1.00  0.00     0.009 A 
ATOM     76  C   UNL A   1      43.824  34.005  28.315  1.00  0.00     0.009 A 
ATOM     77  C   UNL A   1      42.879  35.329  26.045  1.00  0.00     0.001 A 
ATOM     78  C   UNL A   1      42.871  35.019  28.439  1.00  0.00     0.001 A 
ATOM     79  C   UNL A   1      42.410  35.690  27.307  1.00  0.00     0.000 A 
ENDBRANCH  60  74
BRANCH  61  80
ATOM     80  C   UNL A   1      51.625  26.945  25.902  1.00  0.00    -0.014 A 
ATOM     81  C   UNL A   1      52.281  26.454  27.044  1.00  0.00     0.009 A 
ATOM     82  C   UNL A   1      52.064  26.525  24.638  1.00  0.00     0.009 A 
ATOM     83  C   UNL A   1      53.373  25.593  26.920  1.00  0.00     0.001 A 
ATOM     84  C   UNL A   1      53.134  25.635  24.519  1.00  0.00     0.001 A 
ATOM     85  C   UNL A   1      53.796  25.181  25.658  1.00  0.00     0.000 A 
ENDBRANCH  61  80
BRANCH  73  86
ATOM     86  C   UNL A   1      51.459  33.924  26.496  1.00  0.00    -0.014 A 
ATOM     87  C   UNL A   1      51.872  34.498  25.282  1.00  0.00     0.009 A 
ATOM     88  C   UNL A   1      52.135  34.277  27.675  1.00  0.00     0.009 A 
ATOM     89  C   UNL A   1      52.954  35.380  25.242  1.00  0.00     0.001 A 
ATOM     90  C   UNL A   1      53.193  35.188  27.638  1.00  0.00     0.001 A 
ATOM     91  C   UNL A   1      53.611  35.727  26.421  1.00  0.00     0.000 A 
ENDBRANCH  73  86
ENDBRANCH  47  48
ENDBRANCH  40  42
ENDBRANCH  39  40
ENDBRANCH  38  39
ENDBRANCH  37  38
ENDBRANCH  36  37
ENDBRANCH  35  36
ENDBRANCH   1  35
TORSDOF 21
ENDMDL
MODEL 3
REMARK VINA RESULT:      -9.2      7.876     11.553
REMARK SMILES CC(=O)Oc1ccc2oc(N)c([C@@H]3[NH2+][C@@H](C(=O)OCCOCCOCCOC(=O)c4ccc(-c5c6nc(c(-c7ccccc7)c7ccc([nH]7)c(-c7ccccc7)c7nc(c(-c8ccccc8)c8ccc5[nH]8)C=C7)C=C6)cc4)C(C)(C)S3)c(=O)c2c1
REMARK SMILES IDX 22 1 21 2 20 3 19 4 18 5 16 6 17 7 15 8 13 9 14 10 81 11
REMARK SMILES IDX 78 14 79 15 80 16 12 17 5 18 6 19 85 20 7 21 84 22 8 23
REMARK SMILES IDX 82 24 9 25 83 26 10 27 4 28 2 29 1 30 3 31 11 32 23 35 24 36
REMARK SMILES IDX 25 37 26 38 27 39 28 40 29 41 30 42 31 43 77 44 32 45 76 46
REMARK SMILES IDX 33 47 34 48 35 49 70 50 36 51 75 52 69 53 71 54 37 55 74 56
REMARK SMILES IDX 68 57 67 58 38 60 60 61 45 62 59 63 46 64 49 65 58 66 72 67
REMARK SMILES IDX 47 68 48 69 57 71 73 72 50 73 39 74 40 75 44 76 41 77 43 78
REMARK SMILES IDX 42 79 61 80 62 81 66 82 63 83 65 84 64 85 51 86 52 87 56 88
REMARK SMILES IDX 53 89 55 90 54 91
REMARK H PARENT 14 12 14 13 11 33 11 34 71 59 49 70
REMARK Flexibility Score: inf
ROOT
ATOM      1  C   UNL A   1      34.048  31.807  28.186  1.00  0.00     0.188 C 
ENDROOT
BRANCH   1   2
ATOM      2  O   UNL A   1      33.721  30.864  27.173  1.00  0.00    -0.376 OA
BRANCH   2   3
ATOM      3  C   UNL A   1      32.364  30.560  26.875  1.00  0.00     0.202 C 
BRANCH   3   4
ATOM      4  C   UNL A   1      31.807  29.191  27.305  1.00  0.00     0.261 C 
BRANCH   4   5
ATOM      5  O   UNL A   1      32.625  28.025  27.027  1.00  0.00    -0.459 OA
BRANCH   5   6
ATOM      6  C   UNL A   1      31.981  27.009  26.399  1.00  0.00     0.366 C 
ATOM      7  O   UNL A   1      31.004  26.438  26.885  1.00  0.00    -0.245 OA
BRANCH   6   8
ATOM      8  C   UNL A   1      32.559  26.555  25.027  1.00  0.00     0.310 C 
ATOM      9  C   UNL A   1      34.128  24.993  24.120  1.00  0.00     0.284 C 
ATOM     10  N   UNL A   1      33.672  25.622  25.355  1.00  0.00    -0.318 N 
ATOM     11  S   UNL A   1      34.006  26.234  22.818  1.00  0.00    -0.081 SA
ATOM     12  H   UNL A   1      34.441  26.140  25.781  1.00  0.00     0.348 HD
ATOM     13  H   UNL A   1      33.350  24.910  26.012  1.00  0.00     0.348 HD
ATOM     14  C   UNL A   1      33.027  27.447  23.834  1.00  0.00     0.079 C 
ATOM     15  C   UNL A   1      33.934  28.620  24.202  1.00  0.00     0.030 C 
ATOM     16  C   UNL A   1      31.973  27.908  22.809  1.00  0.00     0.030 C 
BRANCH   9  17
ATOM     17  C   UNL A   1      33.447  23.675  23.820  1.00  0.00     0.128 A 
ATOM     18  C   UNL A   1      33.802  18.810  24.333  1.00  0.00     0.131 A 
ATOM     19  C   UNL A   1      32.688  18.654  23.506  1.00  0.00     0.051 A 
ATOM     20  C   UNL A   1      34.234  20.067  24.744  1.00  0.00     0.063 A 
ATOM     21  C   UNL A   1      32.026  19.787  23.038  1.00  0.00     0.052 A 
ATOM     22  C   UNL A   1      33.565  21.190  24.261  1.00  0.00     0.069 A 
ATOM     23  C   UNL A   1      32.484  21.053  23.406  1.00  0.00     0.140 A 
ATOM     24  C   UNL A   1      34.004  22.540  24.617  1.00  0.00     0.205 A 
ATOM     25  O   UNL A   1      31.838  22.131  22.884  1.00  0.00    -0.440 OA
ATOM     26  O   UNL A   1      34.844  22.692  25.497  1.00  0.00    -0.288 OA
ATOM     27  C   UNL A   1      32.439  23.377  22.964  1.00  0.00     0.205 A 
BRANCH  18  28
ATOM     28  O   UNL A   1      34.487  17.697  24.823  1.00  0.00    -0.427 OA
BRANCH  28  29
ATOM     29  C   UNL A   1      33.661  16.753  25.422  1.00  0.00     0.308 C 
ATOM     30  C   UNL A   1      34.165  15.387  25.069  1.00  0.00     0.139 C 
ATOM     31  O   UNL A   1      32.667  16.966  26.103  1.00  0.00    -0.252 OA
ENDBRANCH  28  29
ENDBRANCH  18  28
BRANCH  27  32
ATOM     32  N   UNL A   1      31.874  24.228  22.059  1.00  0.00    -0.369 N 
ATOM     33  H   UNL A   1      31.725  23.933  21.132  1.00  0.00     0.159 HD
ATOM     34  H   UNL A   1      31.614  25.137  22.335  1.00  0.00     0.159 HD
ENDBRANCH  27  32
ENDBRANCH   9  17
ENDBRANCH   6   8
ENDBRANCH   5   6
ENDBRANCH   4   5
ENDBRANCH   3   4
ENDBRANCH   2   3
ENDBRANCH   1   2
BRANCH   1  35
ATOM     35  C   UNL A   1      34.301  33.266  27.809  1.00  0.00     0.188 C 
BRANCH  35  36
ATOM     36  O   UNL A   1      34.047  34.182  28.843  1.00  0.00    -0.376 OA
BRANCH  36  37
ATOM     37  C   UNL A   1      34.145  33.776  30.188  1.00  0.00     0.202 C 
BRANCH  37  38
ATOM     38  C   UNL A   1      35.421  34.101  30.975  1.00  0.00     0.261 C 
BRANCH  38  39
ATOM     39  O   UNL A   1      36.108  33.003  31.588  1.00  0.00    -0.460 OA
BRANCH  39  40
ATOM     40  C   UNL A   1      37.041  32.348  30.849  1.00  0.00     0.338 C 
ATOM     41  O   UNL A   1      37.107  32.283  29.646  1.00  0.00    -0.246 OA
BRANCH  40  42
ATOM     42  C   UNL A   1      38.107  31.931  31.798  1.00  0.00     0.060 A 
ATOM     43  C   UNL A   1      39.449  32.112  31.463  1.00  0.00     0.016 A 
ATOM     44  C   UNL A   1      37.756  31.310  33.004  1.00  0.00     0.016 A 
ATOM     45  C   UNL A   1      40.443  31.688  32.346  1.00  0.00     0.010 A 
ATOM     46  C   UNL A   1      38.754  30.882  33.888  1.00  0.00     0.010 A 
ATOM     47  C   UNL A   1      40.105  31.086  33.573  1.00  0.00    -0.014 A 
BRANCH  47  48
ATOM     48  C   UNL A   1      41.171  30.848  34.578  1.00  0.00     0.031 A 
ATOM     49  C   UNL A   1      41.549  31.869  35.607  1.00  0.00     0.074 A 
ATOM     50  C   UNL A   1      41.791  29.652  34.558  1.00  0.00     0.049 A 
ATOM     51  N   UNL A   1      42.349  31.732  36.635  1.00  0.00    -0.248 NA
ATOM     52  C   UNL A   1      40.972  33.214  35.466  1.00  0.00     0.031 C 
ATOM     53  C   UNL A   1      41.527  28.595  33.580  1.00  0.00     0.029 A 
ATOM     54  N   UNL A   1      42.741  29.111  35.388  1.00  0.00    -0.354 N 
ATOM     55  C   UNL A   1      42.359  32.962  37.278  1.00  0.00     0.074 A 
ATOM     56  C   UNL A   1      41.524  33.850  36.494  1.00  0.00     0.031 C 
ATOM     57  C   UNL A   1      42.253  27.514  33.899  1.00  0.00     0.029 A 
ATOM     58  C   UNL A   1      43.060  27.811  35.079  1.00  0.00     0.049 A 
ATOM     59  H   UNL A   1      43.154  29.607  36.132  1.00  0.00     0.167 HD
ATOM     60  C   UNL A   1      42.994  33.306  38.425  1.00  0.00     0.031 A 
ATOM     61  C   UNL A   1      43.890  26.940  35.684  1.00  0.00     0.031 A 
ATOM     62  C   UNL A   1      43.836  32.414  39.186  1.00  0.00     0.049 A 
ATOM     63  C   UNL A   1      44.607  27.358  36.937  1.00  0.00     0.074 A 
ATOM     64  C   UNL A   1      44.468  32.657  40.394  1.00  0.00     0.029 A 
ATOM     65  N   UNL A   1      44.177  31.123  38.812  1.00  0.00    -0.354 N 
ATOM     66  N   UNL A   1      44.522  28.490  37.592  1.00  0.00    -0.248 NA
ATOM     67  C   UNL A   1      45.517  26.377  37.544  1.00  0.00     0.031 C 
ATOM     68  C   UNL A   1      45.259  31.551  40.705  1.00  0.00     0.029 A 
ATOM     69  C   UNL A   1      45.049  30.578  39.741  1.00  0.00     0.049 A 
ATOM     70  H   UNL A   1      43.849  30.662  38.006  1.00  0.00     0.167 HD
ATOM     71  C   UNL A   1      45.349  28.350  38.700  1.00  0.00     0.074 A 
ATOM     72  C   UNL A   1      45.909  27.017  38.639  1.00  0.00     0.031 C 
ATOM     73  C   UNL A   1      45.613  29.252  39.677  1.00  0.00     0.031 A 
BRANCH  60  74
ATOM     74  C   UNL A   1      42.813  34.703  38.958  1.00  0.00    -0.014 A 
ATOM     75  C   UNL A   1      41.650  35.034  39.674  1.00  0.00     0.009 A 
ATOM     76  C   UNL A   1      43.717  35.725  38.632  1.00  0.00     0.009 A 
ATOM     77  C   UNL A   1      41.384  36.358  40.030  1.00  0.00     0.001 A 
ATOM     78  C   UNL A   1      43.465  37.045  39.017  1.00  0.00     0.001 A 
ATOM     79  C   UNL A   1      42.293  37.363  39.702  1.00  0.00     0.000 A 
ENDBRANCH  60  74
BRANCH  61  80
ATOM     80  C   UNL A   1      44.028  25.567  35.130  1.00  0.00    -0.014 A 
ATOM     81  C   UNL A   1      45.072  25.254  34.242  1.00  0.00     0.009 A 
ATOM     82  C   UNL A   1      43.075  24.581  35.426  1.00  0.00     0.009 A 
ATOM     83  C   UNL A   1      45.137  23.998  33.637  1.00  0.00     0.001 A 
ATOM     84  C   UNL A   1      43.164  23.313  34.846  1.00  0.00     0.001 A 
ATOM     85  C   UNL A   1      44.186  23.027  33.942  1.00  0.00     0.000 A 
ENDBRANCH  61  80
BRANCH  73  86
ATOM     86  C   UNL A   1      46.552  28.847  40.783  1.00  0.00    -0.014 A 
ATOM     87  C   UNL A   1      46.041  28.251  41.949  1.00  0.00     0.009 A 
ATOM     88  C   UNL A   1      47.919  29.162  40.729  1.00  0.00     0.009 A 
ATOM     89  C   UNL A   1      46.870  28.006  43.045  1.00  0.00     0.001 A 
ATOM     90  C   UNL A   1      48.753  28.882  41.813  1.00  0.00     0.001 A 
ATOM     91  C   UNL A   1      48.226  28.318  42.975  1.00  0.00     0.000 A 
ENDBRANCH  73  86
ENDBRANCH  47  48
ENDBRANCH  40  42
ENDBRANCH  39  40
ENDBRANCH  38  39
ENDBRANCH  37  38
ENDBRANCH  36  37
ENDBRANCH  35  36
ENDBRANCH   1  35
TORSDOF 21
ENDMDL
