MODEL 1
REMARK VINA RESULT:     -10.3      0.000      0.000
REMARK SMILES COc1ccc(-c2ccc(CCC(=O)OCCOCCOCCOC(=O)c3ccc(-c4c5nc(c(-c6ccccc6)c6ccc([nH]6)c(-c6ccccc6)c6nc(c(-c7ccccc7)c7ccc4[nH]7)C=C6)C=C5)cc3)n2-c2ccc(C(C)=O)cc2)cc1
REMARK SMILES IDX 19 1 18 2 17 3 16 4 15 5 13 6 14 7 12 8 11 9 10 10 7 11 8 12
REMARK SMILES IDX 75 13 9 14 6 15 3 16 4 17 86 18 5 19 85 20 2 21 1 22 76 23
REMARK SMILES IDX 77 24 84 25 78 26 83 27 79 28 80 29 81 30 82 31 20 32 21 33
REMARK SMILES IDX 22 34 23 35 24 36 25 37 26 38 27 39 28 40 74 41 29 42 73 43
REMARK SMILES IDX 30 44 31 45 32 46 67 47 33 48 72 49 66 50 68 51 34 52 71 53
REMARK SMILES IDX 65 54 64 55 35 57 57 58 42 59 56 60 43 61 46 62 55 63 69 64
REMARK SMILES IDX 44 65 45 66 54 68 70 69 47 70 36 71 37 72 41 73 38 74 40 75
REMARK SMILES IDX 39 76 58 77 59 78 63 79 60 80 62 81 61 82 48 83 49 84 53 85
REMARK SMILES IDX 50 86 52 87 51 88
REMARK H PARENT 68 56 46 67
REMARK Flexibility Score: inf
ROOT
ATOM      1  C   UNL A   1      40.334  20.602  26.705  1.00  0.00     0.188 C 
ENDROOT
BRANCH   1   2
ATOM      2  O   UNL A   1      39.285  20.643  25.740  1.00  0.00    -0.376 OA
BRANCH   2   3
ATOM      3  C   UNL A   1      38.483  21.819  25.712  1.00  0.00     0.202 C 
BRANCH   3   4
ATOM      4  C   UNL A   1      37.051  21.630  25.204  1.00  0.00     0.261 C 
BRANCH   4   5
ATOM      5  O   UNL A   1      36.082  22.026  26.190  1.00  0.00    -0.463 OA
BRANCH   5   6
ATOM      6  C   UNL A   1      34.813  22.253  25.786  1.00  0.00     0.306 C 
ATOM      7  O   UNL A   1      34.102  21.414  25.242  1.00  0.00    -0.252 OA
BRANCH   6   8
ATOM      8  C   UNL A   1      34.313  23.655  26.083  1.00  0.00     0.129 C 
BRANCH   8   9
ATOM      9  C   UNL A   1      32.830  23.903  26.392  1.00  0.00     0.066 C 
BRANCH   9  10
ATOM     10  C   UNL A   1      32.000  24.344  25.217  1.00  0.00     0.024 A 
ATOM     11  C   UNL A   1      30.715  25.654  23.906  1.00  0.00     0.053 A 
ATOM     12  C   UNL A   1      30.598  24.363  23.440  1.00  0.00     0.029 A 
ATOM     13  N   UNL A   1      31.680  25.662  24.911  1.00  0.00    -0.314 N 
ATOM     14  C   UNL A   1      31.392  23.557  24.258  1.00  0.00     0.024 A 
BRANCH  11  15
ATOM     15  C   UNL A   1      29.961  26.801  23.433  1.00  0.00    -0.001 A 
ATOM     16  C   UNL A   1      28.446  28.996  22.646  1.00  0.00     0.118 A 
ATOM     17  C   UNL A   1      29.759  28.859  22.191  1.00  0.00     0.047 A 
ATOM     18  C   UNL A   1      27.864  28.003  23.432  1.00  0.00     0.047 A 
ATOM     19  C   UNL A   1      30.523  27.761  22.590  1.00  0.00     0.014 A 
ATOM     20  C   UNL A   1      28.622  26.909  23.826  1.00  0.00     0.014 A 
BRANCH  16  21
ATOM     21  O   UNL A   1      27.770  30.119  22.254  1.00  0.00    -0.497 OA
ATOM     22  C   UNL A   1      28.643  31.115  21.719  1.00  0.00     0.278 C 
ENDBRANCH  16  21
ENDBRANCH  11  15
BRANCH  13  23
ATOM     23  C   UNL A   1      32.212  26.812  25.545  1.00  0.00     0.046 A 
ATOM     24  C   UNL A   1      31.610  27.296  26.712  1.00  0.00     0.027 A 
ATOM     25  C   UNL A   1      33.337  27.437  25.015  1.00  0.00     0.027 A 
ATOM     26  C   UNL A   1      32.139  28.424  27.351  1.00  0.00     0.014 A 
ATOM     27  C   UNL A   1      33.846  28.574  25.643  1.00  0.00     0.014 A 
ATOM     28  C   UNL A   1      33.255  29.081  26.815  1.00  0.00     0.017 A 
BRANCH  28  29
ATOM     29  C   UNL A   1      33.865  30.312  27.410  1.00  0.00     0.159 C 
ATOM     30  C   UNL A   1      35.202  30.271  28.102  1.00  0.00     0.093 C 
ATOM     31  O   UNL A   1      33.262  31.382  27.318  1.00  0.00    -0.295 OA
ENDBRANCH  28  29
ENDBRANCH  13  23
ENDBRANCH   9  10
ENDBRANCH   8   9
ENDBRANCH   6   8
ENDBRANCH   5   6
ENDBRANCH   4   5
ENDBRANCH   3   4
ENDBRANCH   2   3
ENDBRANCH   1   2
BRANCH   1  32
ATOM     32  C   UNL A   1      41.688  20.149  26.162  1.00  0.00     0.188 C 
BRANCH  32  33
ATOM     33  O   UNL A   1      42.645  21.183  25.999  1.00  0.00    -0.376 OA
BRANCH  33  34
ATOM     34  C   UNL A   1      42.315  22.548  25.726  1.00  0.00     0.202 C 
BRANCH  34  35
ATOM     35  C   UNL A   1      41.926  23.576  26.786  1.00  0.00     0.261 C 
BRANCH  35  36
ATOM     36  O   UNL A   1      40.729  24.260  26.533  1.00  0.00    -0.460 OA
BRANCH  36  37
ATOM     37  C   UNL A   1      40.231  24.897  27.614  1.00  0.00     0.338 C 
ATOM     38  O   UNL A   1      39.292  24.588  28.308  1.00  0.00    -0.246 OA
BRANCH  37  39
ATOM     39  C   UNL A   1      41.026  26.112  27.775  1.00  0.00     0.060 A 
ATOM     40  C   UNL A   1      41.596  26.307  29.030  1.00  0.00     0.016 A 
ATOM     41  C   UNL A   1      40.841  27.139  26.840  1.00  0.00     0.016 A 
ATOM     42  C   UNL A   1      41.713  27.599  29.465  1.00  0.00     0.010 A 
ATOM     43  C   UNL A   1      40.874  28.423  27.299  1.00  0.00     0.010 A 
ATOM     44  C   UNL A   1      41.249  28.623  28.627  1.00  0.00    -0.014 A 
BRANCH  44  45
ATOM     45  C   UNL A   1      41.317  29.981  29.131  1.00  0.00     0.031 A 
ATOM     46  C   UNL A   1      39.929  30.351  29.669  1.00  0.00     0.074 A 
ATOM     47  C   UNL A   1      42.523  30.602  28.918  1.00  0.00     0.049 A 
ATOM     48  N   UNL A   1      39.366  31.509  29.707  1.00  0.00    -0.248 NA
ATOM     49  C   UNL A   1      38.982  29.296  30.157  1.00  0.00     0.031 C 
ATOM     50  C   UNL A   1      43.763  29.945  28.413  1.00  0.00     0.029 A 
ATOM     51  N   UNL A   1      42.970  31.895  29.062  1.00  0.00    -0.354 N 
ATOM     52  C   UNL A   1      38.134  31.374  30.373  1.00  0.00     0.074 A 
ATOM     53  C   UNL A   1      37.897  29.976  30.531  1.00  0.00     0.031 C 
ATOM     54  C   UNL A   1      44.750  30.849  28.200  1.00  0.00     0.029 A 
ATOM     55  C   UNL A   1      44.272  32.171  28.551  1.00  0.00     0.049 A 
ATOM     56  H   UNL A   1      42.422  32.590  29.493  1.00  0.00     0.167 HD
ATOM     57  C   UNL A   1      37.477  32.452  30.881  1.00  0.00     0.031 A 
ATOM     58  C   UNL A   1      44.877  33.392  28.380  1.00  0.00     0.031 A 
ATOM     59  C   UNL A   1      38.164  33.643  30.507  1.00  0.00     0.049 A 
ATOM     60  C   UNL A   1      43.953  34.344  29.008  1.00  0.00     0.074 A 
ATOM     61  C   UNL A   1      38.315  34.243  29.282  1.00  0.00     0.029 A 
ATOM     62  N   UNL A   1      39.185  34.033  31.344  1.00  0.00    -0.354 N 
ATOM     63  N   UNL A   1      43.775  34.470  30.288  1.00  0.00    -0.248 NA
ATOM     64  C   UNL A   1      43.069  35.137  28.146  1.00  0.00     0.031 C 
ATOM     65  C   UNL A   1      39.697  34.525  29.255  1.00  0.00     0.029 A 
ATOM     66  C   UNL A   1      40.232  34.409  30.543  1.00  0.00     0.049 A 
ATOM     67  H   UNL A   1      39.166  34.040  32.328  1.00  0.00     0.167 HD
ATOM     68  C   UNL A   1      42.518  35.014  30.343  1.00  0.00     0.074 A 
ATOM     69  C   UNL A   1      42.308  35.698  29.082  1.00  0.00     0.031 C 
ATOM     70  C   UNL A   1      41.560  34.416  31.102  1.00  0.00     0.031 A 
BRANCH  57  71
ATOM     71  C   UNL A   1      36.413  32.565  31.924  1.00  0.00    -0.014 A 
ATOM     72  C   UNL A   1      35.175  33.103  31.506  1.00  0.00     0.009 A 
ATOM     73  C   UNL A   1      36.676  32.523  33.296  1.00  0.00     0.009 A 
ATOM     74  C   UNL A   1      34.300  33.710  32.405  1.00  0.00     0.001 A 
ATOM     75  C   UNL A   1      35.776  33.098  34.204  1.00  0.00     0.001 A 
ATOM     76  C   UNL A   1      34.613  33.725  33.755  1.00  0.00     0.000 A 
ENDBRANCH  57  71
BRANCH  58  77
ATOM     77  C   UNL A   1      46.077  34.024  27.708  1.00  0.00    -0.014 A 
ATOM     78  C   UNL A   1      46.618  33.698  26.462  1.00  0.00     0.009 A 
ATOM     79  C   UNL A   1      46.718  35.115  28.370  1.00  0.00     0.009 A 
ATOM     80  C   UNL A   1      47.657  34.478  25.892  1.00  0.00     0.001 A 
ATOM     81  C   UNL A   1      47.704  35.919  27.795  1.00  0.00     0.001 A 
ATOM     82  C   UNL A   1      48.169  35.607  26.537  1.00  0.00     0.000 A 
ENDBRANCH  58  77
BRANCH  70  83
ATOM     83  C   UNL A   1      42.067  33.517  32.226  1.00  0.00    -0.014 A 
ATOM     84  C   UNL A   1      41.704  32.161  32.242  1.00  0.00     0.009 A 
ATOM     85  C   UNL A   1      42.800  33.988  33.332  1.00  0.00     0.009 A 
ATOM     86  C   UNL A   1      42.033  31.320  33.315  1.00  0.00     0.001 A 
ATOM     87  C   UNL A   1      43.127  33.151  34.415  1.00  0.00     0.001 A 
ATOM     88  C   UNL A   1      42.741  31.815  34.405  1.00  0.00     0.000 A 
ENDBRANCH  70  83
ENDBRANCH  44  45
ENDBRANCH  37  39
ENDBRANCH  36  37
ENDBRANCH  35  36
ENDBRANCH  34  35
ENDBRANCH  33  34
ENDBRANCH  32  33
ENDBRANCH   1  32
TORSDOF 23
ENDMDL
MODEL 2
REMARK VINA RESULT:      -9.9      3.304      6.069
REMARK SMILES COc1ccc(-c2ccc(CCC(=O)OCCOCCOCCOC(=O)c3ccc(-c4c5nc(c(-c6ccccc6)c6ccc([nH]6)c(-c6ccccc6)c6nc(c(-c7ccccc7)c7ccc4[nH]7)C=C6)C=C5)cc3)n2-c2ccc(C(C)=O)cc2)cc1
REMARK SMILES IDX 19 1 18 2 17 3 16 4 15 5 13 6 14 7 12 8 11 9 10 10 7 11 8 12
REMARK SMILES IDX 75 13 9 14 6 15 3 16 4 17 86 18 5 19 85 20 2 21 1 22 76 23
REMARK SMILES IDX 77 24 84 25 78 26 83 27 79 28 80 29 81 30 82 31 20 32 21 33
REMARK SMILES IDX 22 34 23 35 24 36 25 37 26 38 27 39 28 40 74 41 29 42 73 43
REMARK SMILES IDX 30 44 31 45 32 46 67 47 33 48 72 49 66 50 68 51 34 52 71 53
REMARK SMILES IDX 65 54 64 55 35 57 57 58 42 59 56 60 43 61 46 62 55 63 69 64
REMARK SMILES IDX 44 65 45 66 54 68 70 69 47 70 36 71 37 72 41 73 38 74 40 75
REMARK SMILES IDX 39 76 58 77 59 78 63 79 60 80 62 81 61 82 48 83 49 84 53 85
REMARK SMILES IDX 50 86 52 87 51 88
REMARK H PARENT 68 56 46 67
REMARK Flexibility Score: inf
ROOT
ATOM      1  C   UNL A   1      35.671  23.459  25.688  1.00  0.00     0.188 C 
ENDROOT
BRANCH   1   2
ATOM      2  O   UNL A   1      35.006  24.373  24.818  1.00  0.00    -0.376 OA
BRANCH   2   3
ATOM      3  C   UNL A   1      34.896  23.994  23.450  1.00  0.00     0.202 C 
BRANCH   3   4
ATOM      4  C   UNL A   1      33.726  24.617  22.684  1.00  0.00     0.261 C 
BRANCH   4   5
ATOM      5  O   UNL A   1      32.898  23.613  22.074  1.00  0.00    -0.463 OA
BRANCH   5   6
ATOM      6  C   UNL A   1      32.339  22.673  22.868  1.00  0.00     0.306 C 
ATOM      7  O   UNL A   1      32.945  21.710  23.327  1.00  0.00    -0.252 OA
BRANCH   6   8
ATOM      8  C   UNL A   1      30.872  22.916  23.174  1.00  0.00     0.129 C 
BRANCH   8   9
ATOM      9  C   UNL A   1      30.368  24.329  23.495  1.00  0.00     0.066 C 
BRANCH   9  10
ATOM     10  C   UNL A   1      31.025  24.986  24.680  1.00  0.00     0.024 A 
ATOM     11  C   UNL A   1      32.030  26.565  25.936  1.00  0.00     0.053 A 
ATOM     12  C   UNL A   1      32.228  25.354  26.561  1.00  0.00     0.029 A 
ATOM     13  N   UNL A   1      31.177  26.357  24.855  1.00  0.00    -0.314 N 
ATOM     14  C   UNL A   1      31.607  24.380  25.777  1.00  0.00     0.024 A 
BRANCH  11  15
ATOM     15  C   UNL A   1      32.613  27.834  26.336  1.00  0.00    -0.001 A 
ATOM     16  C   UNL A   1      33.627  30.276  27.196  1.00  0.00     0.118 A 
ATOM     17  C   UNL A   1      34.493  29.298  26.704  1.00  0.00     0.047 A 
ATOM     18  C   UNL A   1      32.249  30.066  27.190  1.00  0.00     0.047 A 
ATOM     19  C   UNL A   1      33.987  28.069  26.277  1.00  0.00     0.014 A 
ATOM     20  C   UNL A   1      31.744  28.845  26.763  1.00  0.00     0.014 A 
BRANCH  16  21
ATOM     21  O   UNL A   1      34.195  31.439  27.640  1.00  0.00    -0.497 OA
ATOM     22  C   UNL A   1      33.219  32.440  27.926  1.00  0.00     0.278 C 
ENDBRANCH  16  21
ENDBRANCH  11  15
BRANCH  13  23
ATOM     23  C   UNL A   1      30.601  27.364  24.043  1.00  0.00     0.046 A 
ATOM     24  C   UNL A   1      31.431  28.216  23.306  1.00  0.00     0.027 A 
ATOM     25  C   UNL A   1      29.215  27.485  23.970  1.00  0.00     0.027 A 
ATOM     26  C   UNL A   1      30.866  29.204  22.492  1.00  0.00     0.014 A 
ATOM     27  C   UNL A   1      28.659  28.488  23.175  1.00  0.00     0.014 A 
ATOM     28  C   UNL A   1      29.475  29.357  22.428  1.00  0.00     0.017 A 
BRANCH  28  29
ATOM     29  C   UNL A   1      28.787  30.408  21.614  1.00  0.00     0.159 C 
ATOM     30  C   UNL A   1      28.995  31.875  21.886  1.00  0.00     0.093 C 
ATOM     31  O   UNL A   1      28.044  30.062  20.694  1.00  0.00    -0.295 OA
ENDBRANCH  28  29
ENDBRANCH  13  23
ENDBRANCH   9  10
ENDBRANCH   8   9
ENDBRANCH   6   8
ENDBRANCH   5   6
ENDBRANCH   4   5
ENDBRANCH   3   4
ENDBRANCH   2   3
ENDBRANCH   1   2
BRANCH   1  32
ATOM     32  C   UNL A   1      37.191  23.601  25.727  1.00  0.00     0.188 C 
BRANCH  32  33
ATOM     33  O   UNL A   1      37.911  22.402  25.493  1.00  0.00    -0.376 OA
BRANCH  33  34
ATOM     34  C   UNL A   1      39.154  22.075  26.121  1.00  0.00     0.202 C 
BRANCH  34  35
ATOM     35  C   UNL A   1      39.709  20.661  26.265  1.00  0.00     0.261 C 
BRANCH  35  36
ATOM     36  O   UNL A   1      40.727  20.331  25.361  1.00  0.00    -0.460 OA
BRANCH  36  37
ATOM     37  C   UNL A   1      41.739  19.632  25.916  1.00  0.00     0.338 C 
ATOM     38  O   UNL A   1      41.854  18.436  26.040  1.00  0.00    -0.246 OA
BRANCH  37  39
ATOM     39  C   UNL A   1      42.693  20.620  26.414  1.00  0.00     0.060 A 
ATOM     40  C   UNL A   1      42.574  20.960  27.759  1.00  0.00     0.016 A 
ATOM     41  C   UNL A   1      43.363  21.412  25.472  1.00  0.00     0.016 A 
ATOM     42  C   UNL A   1      42.875  22.250  28.103  1.00  0.00     0.010 A 
ATOM     43  C   UNL A   1      43.583  22.719  25.789  1.00  0.00     0.010 A 
ATOM     44  C   UNL A   1      43.273  23.129  27.085  1.00  0.00    -0.014 A 
BRANCH  44  45
ATOM     45  C   UNL A   1      43.522  24.509  27.455  1.00  0.00     0.031 A 
ATOM     46  C   UNL A   1      42.171  25.232  27.505  1.00  0.00     0.074 A 
ATOM     47  C   UNL A   1      44.853  24.832  27.562  1.00  0.00     0.049 A 
ATOM     48  N   UNL A   1      41.914  26.470  27.259  1.00  0.00    -0.248 NA
ATOM     49  C   UNL A   1      40.902  24.482  27.778  1.00  0.00     0.031 C 
ATOM     50  C   UNL A   1      45.989  23.867  27.526  1.00  0.00     0.029 A 
ATOM     51  N   UNL A   1      45.539  26.015  27.712  1.00  0.00    -0.354 N 
ATOM     52  C   UNL A   1      40.551  26.695  27.527  1.00  0.00     0.074 A 
ATOM     53  C   UNL A   1      39.952  25.417  27.737  1.00  0.00     0.031 C 
ATOM     54  C   UNL A   1      47.183  24.508  27.539  1.00  0.00     0.029 A 
ATOM     55  C   UNL A   1      46.957  25.938  27.600  1.00  0.00     0.049 A 
ATOM     56  H   UNL A   1      45.076  26.867  27.888  1.00  0.00     0.167 HD
ATOM     57  C   UNL A   1      40.057  27.950  27.705  1.00  0.00     0.031 A 
ATOM     58  C   UNL A   1      47.861  26.968  27.508  1.00  0.00     0.031 A 
ATOM     59  C   UNL A   1      41.085  28.902  27.448  1.00  0.00     0.049 A 
ATOM     60  C   UNL A   1      47.056  28.175  27.730  1.00  0.00     0.074 A 
ATOM     61  C   UNL A   1      41.708  29.254  26.277  1.00  0.00     0.029 A 
ATOM     62  N   UNL A   1      41.898  29.209  28.516  1.00  0.00    -0.354 N 
ATOM     63  N   UNL A   1      46.567  28.540  28.876  1.00  0.00    -0.248 NA
ATOM     64  C   UNL A   1      46.661  28.980  26.567  1.00  0.00     0.031 C 
ATOM     65  C   UNL A   1      43.069  29.245  26.646  1.00  0.00     0.029 A 
ATOM     66  C   UNL A   1      43.184  29.233  28.041  1.00  0.00     0.049 A 
ATOM     67  H   UNL A   1      41.611  29.378  29.441  1.00  0.00     0.167 HD
ATOM     68  C   UNL A   1      45.511  29.326  28.493  1.00  0.00     0.074 A 
ATOM     69  C   UNL A   1      45.829  29.826  27.168  1.00  0.00     0.031 C 
ATOM     70  C   UNL A   1      44.267  29.063  28.975  1.00  0.00     0.031 A 
BRANCH  57  71
ATOM     71  C   UNL A   1      38.806  28.441  28.358  1.00  0.00    -0.014 A 
ATOM     72  C   UNL A   1      38.180  29.558  27.760  1.00  0.00     0.009 A 
ATOM     73  C   UNL A   1      38.445  28.115  29.668  1.00  0.00     0.009 A 
ATOM     74  C   UNL A   1      37.342  30.403  28.485  1.00  0.00     0.001 A 
ATOM     75  C   UNL A   1      37.569  28.942  30.384  1.00  0.00     0.001 A 
ATOM     76  C   UNL A   1      37.053  30.103  29.808  1.00  0.00     0.000 A 
ENDBRANCH  57  71
BRANCH  58  77
ATOM     77  C   UNL A   1      49.315  27.229  27.177  1.00  0.00    -0.014 A 
ATOM     78  C   UNL A   1      50.179  28.125  27.810  1.00  0.00     0.009 A 
ATOM     79  C   UNL A   1      49.916  26.448  26.142  1.00  0.00     0.009 A 
ATOM     80  C   UNL A   1      51.561  28.156  27.488  1.00  0.00     0.001 A 
ATOM     81  C   UNL A   1      51.284  26.435  25.857  1.00  0.00     0.001 A 
ATOM     82  C   UNL A   1      52.118  27.287  26.546  1.00  0.00     0.000 A 
ENDBRANCH  58  77
BRANCH  70  83
ATOM     83  C   UNL A   1      44.213  28.275  30.280  1.00  0.00    -0.014 A 
ATOM     84  C   UNL A   1      43.663  28.872  31.426  1.00  0.00     0.009 A 
ATOM     85  C   UNL A   1      44.790  27.000  30.447  1.00  0.00     0.009 A 
ATOM     86  C   UNL A   1      43.703  28.244  32.679  1.00  0.00     0.001 A 
ATOM     87  C   UNL A   1      44.840  26.370  31.704  1.00  0.00     0.001 A 
ATOM     88  C   UNL A   1      44.296  26.994  32.821  1.00  0.00     0.000 A 
ENDBRANCH  70  83
ENDBRANCH  44  45
ENDBRANCH  37  39
ENDBRANCH  36  37
ENDBRANCH  35  36
ENDBRANCH  34  35
ENDBRANCH  33  34
ENDBRANCH  32  33
ENDBRANCH   1  32
TORSDOF 23
ENDMDL
MODEL 3
REMARK VINA RESULT:      -9.4      1.892      5.959
REMARK SMILES COc1ccc(-c2ccc(CCC(=O)OCCOCCOCCOC(=O)c3ccc(-c4c5nc(c(-c6ccccc6)c6ccc([nH]6)c(-c6ccccc6)c6nc(c(-c7ccccc7)c7ccc4[nH]7)C=C6)C=C5)cc3)n2-c2ccc(C(C)=O)cc2)cc1
REMARK SMILES IDX 19 1 18 2 17 3 16 4 15 5 13 6 14 7 12 8 11 9 10 10 7 11 8 12
REMARK SMILES IDX 75 13 9 14 6 15 3 16 4 17 86 18 5 19 85 20 2 21 1 22 76 23
REMARK SMILES IDX 77 24 84 25 78 26 83 27 79 28 80 29 81 30 82 31 20 32 21 33
REMARK SMILES IDX 22 34 23 35 24 36 25 37 26 38 27 39 28 40 74 41 29 42 73 43
REMARK SMILES IDX 30 44 31 45 32 46 67 47 33 48 72 49 66 50 68 51 34 52 71 53
REMARK SMILES IDX 65 54 64 55 35 57 57 58 42 59 56 60 43 61 46 62 55 63 69 64
REMARK SMILES IDX 44 65 45 66 54 68 70 69 47 70 36 71 37 72 41 73 38 74 40 75
REMARK SMILES IDX 39 76 58 77 59 78 63 79 60 80 62 81 61 82 48 83 49 84 53 85
REMARK SMILES IDX 50 86 52 87 51 88
REMARK H PARENT 68 56 46 67
REMARK Flexibility Score: inf
ROOT
ATOM      1  C   UNL A   1      40.607  20.847  26.726  1.00  0.00     0.188 C 
ENDROOT
BRANCH   1   2
ATOM      2  O   UNL A   1      39.397  20.793  25.974  1.00  0.00    -0.376 OA
BRANCH   2   3
ATOM      3  C   UNL A   1      38.623  21.987  25.916  1.00  0.00     0.202 C 
BRANCH   3   4
ATOM      4  C   UNL A   1      37.311  21.886  25.135  1.00  0.00     0.261 C 
BRANCH   4   5
ATOM      5  O   UNL A   1      36.170  21.884  26.011  1.00  0.00    -0.463 OA
BRANCH   5   6
ATOM      6  C   UNL A   1      34.960  22.179  25.489  1.00  0.00     0.306 C 
ATOM      7  O   UNL A   1      34.362  21.467  24.688  1.00  0.00    -0.252 OA
BRANCH   6   8
ATOM      8  C   UNL A   1      34.370  23.483  25.996  1.00  0.00     0.129 C 
BRANCH   8   9
ATOM      9  C   UNL A   1      32.877  23.580  26.337  1.00  0.00     0.066 C 
BRANCH   9  10
ATOM     10  C   UNL A   1      31.998  24.059  25.213  1.00  0.00     0.024 A 
ATOM     11  C   UNL A   1      30.671  25.416  23.995  1.00  0.00     0.053 A 
ATOM     12  C   UNL A   1      30.513  24.137  23.507  1.00  0.00     0.029 A 
ATOM     13  N   UNL A   1      31.683  25.388  24.951  1.00  0.00    -0.314 N 
ATOM     14  C   UNL A   1      31.333  23.302  24.267  1.00  0.00     0.024 A 
BRANCH  11  15
ATOM     15  C   UNL A   1      29.912  26.583  23.583  1.00  0.00    -0.001 A 
ATOM     16  C   UNL A   1      28.536  28.824  22.681  1.00  0.00     0.118 A 
ATOM     17  C   UNL A   1      27.878  27.874  23.464  1.00  0.00     0.047 A 
ATOM     18  C   UNL A   1      29.897  28.696  22.411  1.00  0.00     0.047 A 
ATOM     19  C   UNL A   1      28.565  26.745  23.913  1.00  0.00     0.014 A 
ATOM     20  C   UNL A   1      30.582  27.575  22.859  1.00  0.00     0.014 A 
BRANCH  16  21
ATOM     21  O   UNL A   1      27.790  29.882  22.237  1.00  0.00    -0.497 OA
ATOM     22  C   UNL A   1      28.514  30.706  21.323  1.00  0.00     0.278 C 
ENDBRANCH  16  21
ENDBRANCH  11  15
BRANCH  13  23
ATOM     23  C   UNL A   1      32.261  26.516  25.584  1.00  0.00     0.046 A 
ATOM     24  C   UNL A   1      31.525  27.223  26.541  1.00  0.00     0.027 A 
ATOM     25  C   UNL A   1      33.561  26.899  25.264  1.00  0.00     0.027 A 
ATOM     26  C   UNL A   1      32.097  28.330  27.179  1.00  0.00     0.014 A 
ATOM     27  C   UNL A   1      34.116  28.018  25.886  1.00  0.00     0.014 A 
ATOM     28  C   UNL A   1      33.394  28.745  26.849  1.00  0.00     0.017 A 
BRANCH  28  29
ATOM     29  C   UNL A   1      34.069  29.936  27.453  1.00  0.00     0.159 C 
ATOM     30  C   UNL A   1      35.563  29.982  27.640  1.00  0.00     0.093 C 
ATOM     31  O   UNL A   1      33.385  30.903  27.792  1.00  0.00    -0.295 OA
ENDBRANCH  28  29
ENDBRANCH  13  23
ENDBRANCH   9  10
ENDBRANCH   8   9
ENDBRANCH   6   8
ENDBRANCH   5   6
ENDBRANCH   4   5
ENDBRANCH   3   4
ENDBRANCH   2   3
ENDBRANCH   1   2
BRANCH   1  32
ATOM     32  C   UNL A   1      41.778  20.079  26.115  1.00  0.00     0.188 C 
BRANCH  32  33
ATOM     33  O   UNL A   1      42.762  20.885  25.491  1.00  0.00    -0.376 OA
BRANCH  33  34
ATOM     34  C   UNL A   1      42.776  22.315  25.534  1.00  0.00     0.202 C 
BRANCH  34  35
ATOM     35  C   UNL A   1      43.741  23.150  26.372  1.00  0.00     0.261 C 
BRANCH  35  36
ATOM     36  O   UNL A   1      43.197  24.329  26.897  1.00  0.00    -0.460 OA
BRANCH  36  37
ATOM     37  C   UNL A   1      43.108  24.333  28.243  1.00  0.00     0.338 C 
ATOM     38  O   UNL A   1      42.610  23.507  28.971  1.00  0.00    -0.246 OA
BRANCH  37  39
ATOM     39  C   UNL A   1      43.697  25.593  28.689  1.00  0.00     0.060 A 
ATOM     40  C   UNL A   1      43.531  25.903  30.036  1.00  0.00     0.016 A 
ATOM     41  C   UNL A   1      44.018  26.543  27.709  1.00  0.00     0.016 A 
ATOM     42  C   UNL A   1      43.397  27.227  30.357  1.00  0.00     0.010 A 
ATOM     43  C   UNL A   1      43.801  27.855  28.008  1.00  0.00     0.010 A 
ATOM     44  C   UNL A   1      43.430  28.166  29.316  1.00  0.00    -0.014 A 
BRANCH  44  45
ATOM     45  C   UNL A   1      43.219  29.557  29.666  1.00  0.00     0.031 A 
ATOM     46  C   UNL A   1      44.533  30.102  30.238  1.00  0.00     0.074 A 
ATOM     47  C   UNL A   1      41.926  29.989  29.500  1.00  0.00     0.049 A 
ATOM     48  N   UNL A   1      44.702  31.021  31.124  1.00  0.00    -0.248 NA
ATOM     49  C   UNL A   1      45.852  29.500  29.854  1.00  0.00     0.031 C 
ATOM     50  C   UNL A   1      40.831  29.228  28.832  1.00  0.00     0.029 A 
ATOM     51  N   UNL A   1      41.249  31.134  29.856  1.00  0.00    -0.354 N 
ATOM     52  C   UNL A   1      46.085  31.247  31.261  1.00  0.00     0.074 A 
ATOM     53  C   UNL A   1      46.749  30.210  30.539  1.00  0.00     0.031 C 
ATOM     54  C   UNL A   1      39.645  29.876  28.932  1.00  0.00     0.029 A 
ATOM     55  C   UNL A   1      39.838  31.117  29.653  1.00  0.00     0.049 A 
ATOM     56  H   UNL A   1      41.713  31.919  30.227  1.00  0.00     0.167 HD
ATOM     57  C   UNL A   1      46.568  32.377  31.843  1.00  0.00     0.031 A 
ATOM     58  C   UNL A   1      38.905  32.023  30.095  1.00  0.00     0.031 A 
ATOM     59  C   UNL A   1      45.483  33.143  32.360  1.00  0.00     0.049 A 
ATOM     60  C   UNL A   1      39.704  33.112  30.672  1.00  0.00     0.074 A 
ATOM     61  C   UNL A   1      44.635  32.898  33.411  1.00  0.00     0.029 A 
ATOM     62  N   UNL A   1      44.885  34.009  31.473  1.00  0.00    -0.354 N 
ATOM     63  N   UNL A   1      40.395  33.969  29.984  1.00  0.00    -0.248 NA
ATOM     64  C   UNL A   1      39.843  33.184  32.131  1.00  0.00     0.031 C 
ATOM     65  C   UNL A   1      43.373  33.180  32.850  1.00  0.00     0.029 A 
ATOM     66  C   UNL A   1      43.531  33.886  31.651  1.00  0.00     0.049 A 
ATOM     67  H   UNL A   1      45.341  34.601  30.834  1.00  0.00     0.167 HD
ATOM     68  C   UNL A   1      41.334  34.371  30.899  1.00  0.00     0.074 A 
ATOM     69  C   UNL A   1      40.751  34.152  32.209  1.00  0.00     0.031 C 
ATOM     70  C   UNL A   1      42.655  34.295  30.584  1.00  0.00     0.031 A 
BRANCH  57  71
ATOM     71  C   UNL A   1      47.907  33.036  31.772  1.00  0.00    -0.014 A 
ATOM     72  C   UNL A   1      48.772  32.825  32.870  1.00  0.00     0.009 A 
ATOM     73  C   UNL A   1      48.197  34.094  30.907  1.00  0.00     0.009 A 
ATOM     74  C   UNL A   1      49.794  33.721  33.179  1.00  0.00     0.001 A 
ATOM     75  C   UNL A   1      49.253  34.972  31.196  1.00  0.00     0.001 A 
ATOM     76  C   UNL A   1      50.021  34.808  32.349  1.00  0.00     0.000 A 
ENDBRANCH  57  71
BRANCH  58  77
ATOM     77  C   UNL A   1      37.407  32.190  30.244  1.00  0.00    -0.014 A 
ATOM     78  C   UNL A   1      36.589  31.639  31.231  1.00  0.00     0.009 A 
ATOM     79  C   UNL A   1      36.734  33.044  29.317  1.00  0.00     0.009 A 
ATOM     80  C   UNL A   1      35.221  32.003  31.331  1.00  0.00     0.001 A 
ATOM     81  C   UNL A   1      35.403  33.449  29.440  1.00  0.00     0.001 A 
ATOM     82  C   UNL A   1      34.641  32.934  30.466  1.00  0.00     0.000 A 
ENDBRANCH  58  77
BRANCH  70  83
ATOM     83  C   UNL A   1      42.983  34.275  29.094  1.00  0.00    -0.014 A 
ATOM     84  C   UNL A   1      43.717  33.203  28.563  1.00  0.00     0.009 A 
ATOM     85  C   UNL A   1      42.688  35.336  28.215  1.00  0.00     0.009 A 
ATOM     86  C   UNL A   1      44.156  33.194  27.231  1.00  0.00     0.001 A 
ATOM     87  C   UNL A   1      43.133  35.336  26.880  1.00  0.00     0.001 A 
ATOM     88  C   UNL A   1      43.868  34.263  26.389  1.00  0.00     0.000 A 
ENDBRANCH  70  83
ENDBRANCH  44  45
ENDBRANCH  37  39
ENDBRANCH  36  37
ENDBRANCH  35  36
ENDBRANCH  34  35
ENDBRANCH  33  34
ENDBRANCH  32  33
ENDBRANCH   1  32
TORSDOF 23
ENDMDL
