MODEL 1
REMARK VINA RESULT:      -9.7      0.000      0.000
REMARK SMILES CC(C)[C@H](C[C@H]1Cc2ccccc21)C(=O)OCCOCCOCCOC(=O)c1ccc(-c2c3nc(c(-c4ccccc4)c4ccc([nH]4)c(-c4ccccc4)c4nc(c(-c5ccccc5)c5ccc2[nH]5)C=C4)C=C3)cc1
REMARK SMILES IDX 20 1 19 2 18 3 17 4 16 5 14 6 15 7 4 8 2 9 1 10 3 11 5 12
REMARK SMILES IDX 6 13 7 14 13 15 8 16 12 17 9 18 11 19 10 20 21 21 22 22
REMARK SMILES IDX 23 23 24 24 25 25 26 26 27 27 28 28 29 29 75 30 30 31 74 32
REMARK SMILES IDX 31 33 32 34 33 35 68 36 34 37 73 38 67 39 69 40 35 41 72 42
REMARK SMILES IDX 66 43 65 44 36 46 58 47 43 48 57 49 44 50 47 51 56 52 70 53
REMARK SMILES IDX 45 54 46 55 55 57 71 58 48 59 37 60 38 61 42 62 39 63 41 64
REMARK SMILES IDX 40 65 59 66 60 67 64 68 61 69 63 70 62 71 49 72 50 73 54 74
REMARK SMILES IDX 51 75 53 76 52 77
REMARK H PARENT 69 45 47 56
REMARK Flexibility Score: inf
ROOT
ATOM      1  C   UNL A   1      34.680  33.829  28.166  1.00  0.00     0.188 C 
ENDROOT
BRANCH   1   2
ATOM      2  O   UNL A   1      34.662  32.463  27.763  1.00  0.00    -0.376 OA
BRANCH   2   3
ATOM      3  C   UNL A   1      33.444  31.734  27.740  1.00  0.00     0.202 C 
BRANCH   3   4
ATOM      4  C   UNL A   1      33.460  30.289  27.217  1.00  0.00     0.261 C 
BRANCH   4   5
ATOM      5  O   UNL A   1      32.865  30.052  25.922  1.00  0.00    -0.463 OA
BRANCH   5   6
ATOM      6  C   UNL A   1      32.015  29.002  25.831  1.00  0.00     0.309 C 
ATOM      7  O   UNL A   1      31.450  28.502  26.801  1.00  0.00    -0.252 OA
BRANCH   6   8
ATOM      8  C   UNL A   1      31.827  28.421  24.418  1.00  0.00     0.102 C 
BRANCH   8   9
ATOM      9  C   UNL A   1      30.442  28.757  23.793  1.00  0.00    -0.003 C 
ATOM     10  C   UNL A   1      30.501  29.413  22.409  1.00  0.00     0.008 C 
ATOM     11  C   UNL A   1      29.597  27.475  23.673  1.00  0.00     0.008 C 
ENDBRANCH   8   9
BRANCH   8  12
ATOM     12  C   UNL A   1      32.308  26.981  24.064  1.00  0.00     0.024 C 
BRANCH  12  13
ATOM     13  C   UNL A   1      33.758  26.631  24.391  1.00  0.00     0.025 C 
ATOM     14  C   UNL A   1      34.172  26.305  25.871  1.00  0.00     0.044 C 
ATOM     15  C   UNL A   1      34.135  25.189  24.091  1.00  0.00    -0.041 A 
ATOM     16  C   UNL A   1      34.609  24.963  25.360  1.00  0.00    -0.044 A 
ATOM     17  C   UNL A   1      34.230  24.238  23.100  1.00  0.00     0.004 A 
ATOM     18  C   UNL A   1      35.219  23.783  25.715  1.00  0.00     0.004 A 
ATOM     19  C   UNL A   1      34.838  23.023  23.431  1.00  0.00     0.000 A 
ATOM     20  C   UNL A   1      35.337  22.800  24.729  1.00  0.00     0.000 A 
ENDBRANCH  12  13
ENDBRANCH   8  12
ENDBRANCH   6   8
ENDBRANCH   5   6
ENDBRANCH   4   5
ENDBRANCH   3   4
ENDBRANCH   2   3
ENDBRANCH   1   2
BRANCH   1  21
ATOM     21  C   UNL A   1      33.635  34.339  29.163  1.00  0.00     0.188 C 
BRANCH  21  22
ATOM     22  O   UNL A   1      33.946  34.050  30.509  1.00  0.00    -0.376 OA
BRANCH  22  23
ATOM     23  C   UNL A   1      33.964  35.121  31.430  1.00  0.00     0.202 C 
BRANCH  23  24
ATOM     24  C   UNL A   1      34.949  34.984  32.597  1.00  0.00     0.261 C 
BRANCH  24  25
ATOM     25  O   UNL A   1      36.135  34.217  32.330  1.00  0.00    -0.460 OA
BRANCH  25  26
ATOM     26  C   UNL A   1      36.283  33.045  32.988  1.00  0.00     0.338 C 
ATOM     27  O   UNL A   1      35.617  32.640  33.926  1.00  0.00    -0.246 OA
BRANCH  26  28
ATOM     28  C   UNL A   1      37.249  32.224  32.220  1.00  0.00     0.060 A 
ATOM     29  C   UNL A   1      38.247  31.520  32.910  1.00  0.00     0.016 A 
ATOM     30  C   UNL A   1      37.151  32.125  30.830  1.00  0.00     0.016 A 
ATOM     31  C   UNL A   1      39.168  30.740  32.205  1.00  0.00     0.010 A 
ATOM     32  C   UNL A   1      38.084  31.359  30.126  1.00  0.00     0.010 A 
ATOM     33  C   UNL A   1      39.116  30.689  30.806  1.00  0.00    -0.014 A 
BRANCH  33  34
ATOM     34  C   UNL A   1      40.244  30.112  30.033  1.00  0.00     0.031 A 
ATOM     35  C   UNL A   1      41.462  30.968  29.812  1.00  0.00     0.074 A 
ATOM     36  C   UNL A   1      40.200  28.868  29.526  1.00  0.00     0.049 A 
ATOM     37  N   UNL A   1      42.536  30.725  29.103  1.00  0.00    -0.248 NA
ATOM     38  C   UNL A   1      41.466  32.280  30.480  1.00  0.00     0.031 C 
ATOM     39  C   UNL A   1      39.107  27.915  29.706  1.00  0.00     0.029 A 
ATOM     40  N   UNL A   1      41.107  28.198  28.741  1.00  0.00    -0.354 N 
ATOM     41  C   UNL A   1      43.332  31.856  29.229  1.00  0.00     0.074 A 
ATOM     42  C   UNL A   1      42.609  32.796  30.056  1.00  0.00     0.031 C 
ATOM     43  C   UNL A   1      39.403  26.784  29.038  1.00  0.00     0.029 A 
ATOM     44  C   UNL A   1      40.685  26.950  28.355  1.00  0.00     0.049 A 
ATOM     45  H   UNL A   1      41.977  28.578  28.480  1.00  0.00     0.167 HD
ATOM     46  C   UNL A   1      44.558  32.094  28.707  1.00  0.00     0.031 A 
ATOM     47  C   UNL A   1      41.257  26.056  27.523  1.00  0.00     0.031 A 
ATOM     48  C   UNL A   1      45.274  31.171  27.867  1.00  0.00     0.049 A 
ATOM     49  C   UNL A   1      42.580  26.380  26.875  1.00  0.00     0.074 A 
ATOM     50  C   UNL A   1      46.526  31.317  27.297  1.00  0.00     0.029 A 
ATOM     51  N   UNL A   1      44.793  29.934  27.468  1.00  0.00    -0.354 N 
ATOM     52  N   UNL A   1      43.335  27.443  27.019  1.00  0.00    -0.248 NA
ATOM     53  C   UNL A   1      43.130  25.376  25.953  1.00  0.00     0.031 C 
ATOM     54  C   UNL A   1      46.777  30.195  26.501  1.00  0.00     0.029 A 
ATOM     55  C   UNL A   1      45.711  29.319  26.633  1.00  0.00     0.049 A 
ATOM     56  H   UNL A   1      43.927  29.550  27.737  1.00  0.00     0.167 HD
ATOM     57  C   UNL A   1      44.462  27.219  26.234  1.00  0.00     0.074 A 
ATOM     58  C   UNL A   1      44.297  25.914  25.629  1.00  0.00     0.031 C 
ATOM     59  C   UNL A   1      45.538  28.019  26.038  1.00  0.00     0.031 A 
BRANCH  46  60
ATOM     60  C   UNL A   1      45.184  33.429  28.999  1.00  0.00    -0.014 A 
ATOM     61  C   UNL A   1      44.924  34.551  28.196  1.00  0.00     0.009 A 
ATOM     62  C   UNL A   1      46.033  33.569  30.108  1.00  0.00     0.009 A 
ATOM     63  C   UNL A   1      45.532  35.777  28.477  1.00  0.00     0.001 A 
ATOM     64  C   UNL A   1      46.612  34.803  30.405  1.00  0.00     0.001 A 
ATOM     65  C   UNL A   1      46.371  35.903  29.584  1.00  0.00     0.000 A 
ENDBRANCH  46  60
BRANCH  47  66
ATOM     66  C   UNL A   1      40.575  24.766  27.226  1.00  0.00    -0.014 A 
ATOM     67  C   UNL A   1      39.374  24.742  26.499  1.00  0.00     0.009 A 
ATOM     68  C   UNL A   1      41.104  23.554  27.699  1.00  0.00     0.009 A 
ATOM     69  C   UNL A   1      38.704  23.536  26.278  1.00  0.00     0.001 A 
ATOM     70  C   UNL A   1      40.448  22.347  27.448  1.00  0.00     0.001 A 
ATOM     71  C   UNL A   1      39.244  22.340  26.746  1.00  0.00     0.000 A 
ENDBRANCH  47  66
BRANCH  59  72
ATOM     72  C   UNL A   1      46.649  27.492  25.170  1.00  0.00    -0.014 A 
ATOM     73  C   UNL A   1      46.878  27.998  23.881  1.00  0.00     0.009 A 
ATOM     74  C   UNL A   1      47.511  26.504  25.673  1.00  0.00     0.009 A 
ATOM     75  C   UNL A   1      47.925  27.499  23.102  1.00  0.00     0.001 A 
ATOM     76  C   UNL A   1      48.576  26.031  24.905  1.00  0.00     0.001 A 
ATOM     77  C   UNL A   1      48.777  26.521  23.617  1.00  0.00     0.000 A 
ENDBRANCH  59  72
ENDBRANCH  33  34
ENDBRANCH  26  28
ENDBRANCH  25  26
ENDBRANCH  24  25
ENDBRANCH  23  24
ENDBRANCH  22  23
ENDBRANCH  21  22
ENDBRANCH   1  21
TORSDOF 20
ENDMDL
MODEL 2
REMARK VINA RESULT:      -9.7      3.866      8.489
REMARK SMILES CC(C)[C@H](C[C@H]1Cc2ccccc21)C(=O)OCCOCCOCCOC(=O)c1ccc(-c2c3nc(c(-c4ccccc4)c4ccc([nH]4)c(-c4ccccc4)c4nc(c(-c5ccccc5)c5ccc2[nH]5)C=C4)C=C3)cc1
REMARK SMILES IDX 20 1 19 2 18 3 17 4 16 5 14 6 15 7 4 8 2 9 1 10 3 11 5 12
REMARK SMILES IDX 6 13 7 14 13 15 8 16 12 17 9 18 11 19 10 20 21 21 22 22
REMARK SMILES IDX 23 23 24 24 25 25 26 26 27 27 28 28 29 29 75 30 30 31 74 32
REMARK SMILES IDX 31 33 32 34 33 35 68 36 34 37 73 38 67 39 69 40 35 41 72 42
REMARK SMILES IDX 66 43 65 44 36 46 58 47 43 48 57 49 44 50 47 51 56 52 70 53
REMARK SMILES IDX 45 54 46 55 55 57 71 58 48 59 37 60 38 61 42 62 39 63 41 64
REMARK SMILES IDX 40 65 59 66 60 67 64 68 61 69 63 70 62 71 49 72 50 73 54 74
REMARK SMILES IDX 51 75 53 76 52 77
REMARK H PARENT 69 45 47 56
REMARK Flexibility Score: inf
ROOT
ATOM      1  C   UNL A   1      36.849  23.608  25.727  1.00  0.00     0.188 C 
ENDROOT
BRANCH   1   2
ATOM      2  O   UNL A   1      35.562  24.209  25.633  1.00  0.00    -0.376 OA
BRANCH   2   3
ATOM      3  C   UNL A   1      34.466  23.688  26.370  1.00  0.00     0.202 C 
BRANCH   3   4
ATOM      4  C   UNL A   1      33.439  22.807  25.640  1.00  0.00     0.261 C 
BRANCH   4   5
ATOM      5  O   UNL A   1      32.149  23.393  25.361  1.00  0.00    -0.463 OA
BRANCH   5   6
ATOM      6  C   UNL A   1      31.942  23.820  24.093  1.00  0.00     0.309 C 
ATOM      7  O   UNL A   1      31.773  23.060  23.142  1.00  0.00    -0.252 OA
BRANCH   6   8
ATOM      8  C   UNL A   1      31.978  25.345  23.892  1.00  0.00     0.102 C 
BRANCH   8   9
ATOM      9  C   UNL A   1      30.658  25.921  23.301  1.00  0.00    -0.003 C 
ATOM     10  C   UNL A   1      29.670  26.465  24.340  1.00  0.00     0.008 C 
ATOM     11  C   UNL A   1      30.978  27.057  22.313  1.00  0.00     0.008 C 
ENDBRANCH   8   9
BRANCH   8  12
ATOM     12  C   UNL A   1      33.244  26.058  23.327  1.00  0.00     0.024 C 
BRANCH  12  13
ATOM     13  C   UNL A   1      33.944  27.060  24.243  1.00  0.00     0.025 C 
ATOM     14  C   UNL A   1      34.008  28.578  23.844  1.00  0.00     0.044 C 
ATOM     15  C   UNL A   1      33.102  27.525  25.420  1.00  0.00    -0.041 A 
ATOM     16  C   UNL A   1      33.274  28.855  25.125  1.00  0.00    -0.044 A 
ATOM     17  C   UNL A   1      32.425  27.113  26.547  1.00  0.00     0.004 A 
ATOM     18  C   UNL A   1      32.798  29.855  25.939  1.00  0.00     0.004 A 
ATOM     19  C   UNL A   1      31.921  28.107  27.393  1.00  0.00     0.000 A 
ATOM     20  C   UNL A   1      32.113  29.470  27.094  1.00  0.00     0.000 A 
ENDBRANCH  12  13
ENDBRANCH   8  12
ENDBRANCH   6   8
ENDBRANCH   5   6
ENDBRANCH   4   5
ENDBRANCH   3   4
ENDBRANCH   2   3
ENDBRANCH   1   2
BRANCH   1  21
ATOM     21  C   UNL A   1      37.322  22.652  24.627  1.00  0.00     0.188 C 
BRANCH  21  22
ATOM     22  O   UNL A   1      36.764  21.360  24.719  1.00  0.00    -0.376 OA
BRANCH  22  23
ATOM     23  C   UNL A   1      37.639  20.275  24.953  1.00  0.00     0.202 C 
BRANCH  23  24
ATOM     24  C   UNL A   1      39.070  20.647  25.363  1.00  0.00     0.261 C 
BRANCH  24  25
ATOM     25  O   UNL A   1      39.778  19.663  26.135  1.00  0.00    -0.460 OA
BRANCH  25  26
ATOM     26  C   UNL A   1      41.127  19.662  26.060  1.00  0.00     0.338 C 
ATOM     27  O   UNL A   1      41.831  18.846  25.489  1.00  0.00    -0.246 OA
BRANCH  26  28
ATOM     28  C   UNL A   1      41.601  20.960  26.595  1.00  0.00     0.060 A 
ATOM     29  C   UNL A   1      41.411  21.249  27.955  1.00  0.00     0.016 A 
ATOM     30  C   UNL A   1      42.257  21.874  25.767  1.00  0.00     0.016 A 
ATOM     31  C   UNL A   1      41.851  22.467  28.480  1.00  0.00     0.010 A 
ATOM     32  C   UNL A   1      42.679  23.099  26.291  1.00  0.00     0.010 A 
ATOM     33  C   UNL A   1      42.451  23.415  27.641  1.00  0.00    -0.014 A 
BRANCH  33  34
ATOM     34  C   UNL A   1      42.655  24.809  28.108  1.00  0.00     0.031 A 
ATOM     35  C   UNL A   1      44.037  25.213  28.550  1.00  0.00     0.074 A 
ATOM     36  C   UNL A   1      41.650  25.701  28.156  1.00  0.00     0.049 A 
ATOM     37  N   UNL A   1      44.449  26.339  29.074  1.00  0.00    -0.248 NA
ATOM     38  C   UNL A   1      45.096  24.206  28.376  1.00  0.00     0.031 C 
ATOM     39  C   UNL A   1      40.278  25.460  27.715  1.00  0.00     0.029 A 
ATOM     40  N   UNL A   1      41.636  26.996  28.614  1.00  0.00    -0.354 N 
ATOM     41  C   UNL A   1      45.808  26.169  29.306  1.00  0.00     0.074 A 
ATOM     42  C   UNL A   1      46.145  24.825  28.893  1.00  0.00     0.031 C 
ATOM     43  C   UNL A   1      39.550  26.572  27.935  1.00  0.00     0.029 A 
ATOM     44  C   UNL A   1      40.395  27.583  28.567  1.00  0.00     0.049 A 
ATOM     45  H   UNL A   1      42.439  27.459  28.946  1.00  0.00     0.167 HD
ATOM     46  C   UNL A   1      46.700  27.051  29.815  1.00  0.00     0.031 A 
ATOM     47  C   UNL A   1      39.985  28.790  29.008  1.00  0.00     0.031 A 
ATOM     48  C   UNL A   1      46.366  28.382  30.247  1.00  0.00     0.049 A 
ATOM     49  C   UNL A   1      40.976  29.722  29.659  1.00  0.00     0.074 A 
ATOM     50  C   UNL A   1      47.202  29.354  30.767  1.00  0.00     0.029 A 
ATOM     51  N   UNL A   1      45.090  28.923  30.218  1.00  0.00    -0.354 N 
ATOM     52  N   UNL A   1      42.263  29.560  29.853  1.00  0.00    -0.248 NA
ATOM     53  C   UNL A   1      40.455  31.006  30.148  1.00  0.00     0.031 C 
ATOM     54  C   UNL A   1      46.421  30.462  31.113  1.00  0.00     0.029 A 
ATOM     55  C   UNL A   1      45.111  30.205  30.741  1.00  0.00     0.049 A 
ATOM     56  H   UNL A   1      44.289  28.464  29.878  1.00  0.00     0.167 HD
ATOM     57  C   UNL A   1      42.709  30.733  30.453  1.00  0.00     0.074 A 
ATOM     58  C   UNL A   1      41.558  31.602  30.578  1.00  0.00     0.031 C 
ATOM     59  C   UNL A   1      43.960  31.063  30.859  1.00  0.00     0.031 A 
BRANCH  46  60
ATOM     60  C   UNL A   1      48.119  26.583  29.970  1.00  0.00    -0.014 A 
ATOM     61  C   UNL A   1      48.543  25.899  31.121  1.00  0.00     0.009 A 
ATOM     62  C   UNL A   1      49.043  26.813  28.939  1.00  0.00     0.009 A 
ATOM     63  C   UNL A   1      49.872  25.490  31.250  1.00  0.00     0.001 A 
ATOM     64  C   UNL A   1      50.362  26.374  29.057  1.00  0.00     0.001 A 
ATOM     65  C   UNL A   1      50.779  25.723  30.216  1.00  0.00     0.000 A 
ENDBRANCH  46  60
BRANCH  47  66
ATOM     66  C   UNL A   1      38.557  29.191  28.876  1.00  0.00    -0.014 A 
ATOM     67  C   UNL A   1      38.076  29.738  27.676  1.00  0.00     0.009 A 
ATOM     68  C   UNL A   1      37.677  29.061  29.962  1.00  0.00     0.009 A 
ATOM     69  C   UNL A   1      36.752  30.173  27.577  1.00  0.00     0.001 A 
ATOM     70  C   UNL A   1      36.346  29.467  29.849  1.00  0.00     0.001 A 
ATOM     71  C   UNL A   1      35.887  30.032  28.660  1.00  0.00     0.000 A 
ENDBRANCH  47  66
BRANCH  59  72
ATOM     72  C   UNL A   1      44.166  32.438  31.433  1.00  0.00    -0.014 A 
ATOM     73  C   UNL A   1      44.081  32.679  32.813  1.00  0.00     0.009 A 
ATOM     74  C   UNL A   1      44.500  33.502  30.579  1.00  0.00     0.009 A 
ATOM     75  C   UNL A   1      44.291  33.964  33.320  1.00  0.00     0.001 A 
ATOM     76  C   UNL A   1      44.741  34.778  31.091  1.00  0.00     0.001 A 
ATOM     77  C   UNL A   1      44.627  35.010  32.460  1.00  0.00     0.000 A 
ENDBRANCH  59  72
ENDBRANCH  33  34
ENDBRANCH  26  28
ENDBRANCH  25  26
ENDBRANCH  24  25
ENDBRANCH  23  24
ENDBRANCH  22  23
ENDBRANCH  21  22
ENDBRANCH   1  21
TORSDOF 20
ENDMDL
MODEL 3
REMARK VINA RESULT:      -9.6      3.836      8.858
REMARK SMILES CC(C)[C@H](C[C@H]1Cc2ccccc21)C(=O)OCCOCCOCCOC(=O)c1ccc(-c2c3nc(c(-c4ccccc4)c4ccc([nH]4)c(-c4ccccc4)c4nc(c(-c5ccccc5)c5ccc2[nH]5)C=C4)C=C3)cc1
REMARK SMILES IDX 20 1 19 2 18 3 17 4 16 5 14 6 15 7 4 8 2 9 1 10 3 11 5 12
REMARK SMILES IDX 6 13 7 14 13 15 8 16 12 17 9 18 11 19 10 20 21 21 22 22
REMARK SMILES IDX 23 23 24 24 25 25 26 26 27 27 28 28 29 29 75 30 30 31 74 32
REMARK SMILES IDX 31 33 32 34 33 35 68 36 34 37 73 38 67 39 69 40 35 41 72 42
REMARK SMILES IDX 66 43 65 44 36 46 58 47 43 48 57 49 44 50 47 51 56 52 70 53
REMARK SMILES IDX 45 54 46 55 55 57 71 58 48 59 37 60 38 61 42 62 39 63 41 64
REMARK SMILES IDX 40 65 59 66 60 67 64 68 61 69 63 70 62 71 49 72 50 73 54 74
REMARK SMILES IDX 51 75 53 76 52 77
REMARK H PARENT 69 45 47 56
REMARK Flexibility Score: inf
ROOT
ATOM      1  C   UNL A   1      36.640  23.328  25.546  1.00  0.00     0.188 C 
ENDROOT
BRANCH   1   2
ATOM      2  O   UNL A   1      35.392  23.980  25.335  1.00  0.00    -0.376 OA
BRANCH   2   3
ATOM      3  C   UNL A   1      34.275  23.686  26.162  1.00  0.00     0.202 C 
BRANCH   3   4
ATOM      4  C   UNL A   1      33.089  22.921  25.554  1.00  0.00     0.261 C 
BRANCH   4   5
ATOM      5  O   UNL A   1      31.835  23.629  25.448  1.00  0.00    -0.463 OA
BRANCH   5   6
ATOM      6  C   UNL A   1      31.457  24.005  24.204  1.00  0.00     0.309 C 
ATOM      7  O   UNL A   1      31.042  23.218  23.355  1.00  0.00    -0.252 OA
BRANCH   6   8
ATOM      8  C   UNL A   1      31.624  25.501  23.883  1.00  0.00     0.102 C 
BRANCH   8   9
ATOM      9  C   UNL A   1      30.383  26.122  23.177  1.00  0.00    -0.003 C 
ATOM     10  C   UNL A   1      29.214  26.461  24.109  1.00  0.00     0.008 C 
ATOM     11  C   UNL A   1      30.791  27.412  22.442  1.00  0.00     0.008 C 
ENDBRANCH   8   9
BRANCH   8  12
ATOM     12  C   UNL A   1      32.967  26.067  23.333  1.00  0.00     0.024 C 
BRANCH  12  13
ATOM     13  C   UNL A   1      33.802  26.924  24.283  1.00  0.00     0.025 C 
ATOM     14  C   UNL A   1      34.103  28.424  23.927  1.00  0.00     0.044 C 
ATOM     15  C   UNL A   1      33.025  27.482  25.465  1.00  0.00    -0.041 A 
ATOM     16  C   UNL A   1      33.404  28.777  25.208  1.00  0.00    -0.044 A 
ATOM     17  C   UNL A   1      32.280  27.150  26.574  1.00  0.00     0.004 A 
ATOM     18  C   UNL A   1      33.076  29.816  26.046  1.00  0.00     0.004 A 
ATOM     19  C   UNL A   1      31.922  28.186  27.443  1.00  0.00     0.000 A 
ATOM     20  C   UNL A   1      32.326  29.511  27.184  1.00  0.00     0.000 A 
ENDBRANCH  12  13
ENDBRANCH   8  12
ENDBRANCH   6   8
ENDBRANCH   5   6
ENDBRANCH   4   5
ENDBRANCH   3   4
ENDBRANCH   2   3
ENDBRANCH   1   2
BRANCH   1  21
ATOM     21  C   UNL A   1      37.135  22.291  24.532  1.00  0.00     0.188 C 
BRANCH  21  22
ATOM     22  O   UNL A   1      36.656  20.987  24.776  1.00  0.00    -0.376 OA
BRANCH  22  23
ATOM     23  C   UNL A   1      37.604  19.948  24.915  1.00  0.00     0.202 C 
BRANCH  23  24
ATOM     24  C   UNL A   1      39.028  20.387  25.278  1.00  0.00     0.261 C 
BRANCH  24  25
ATOM     25  O   UNL A   1      39.838  19.402  25.943  1.00  0.00    -0.460 OA
BRANCH  25  26
ATOM     26  C   UNL A   1      41.172  19.618  25.987  1.00  0.00     0.338 C 
ATOM     27  O   UNL A   1      42.046  18.920  25.501  1.00  0.00    -0.246 OA
BRANCH  26  28
ATOM     28  C   UNL A   1      41.383  20.980  26.531  1.00  0.00     0.060 A 
ATOM     29  C   UNL A   1      41.974  21.957  25.715  1.00  0.00     0.016 A 
ATOM     30  C   UNL A   1      40.972  21.300  27.827  1.00  0.00     0.016 A 
ATOM     31  C   UNL A   1      42.182  23.248  26.209  1.00  0.00     0.010 A 
ATOM     32  C   UNL A   1      41.198  22.587  28.324  1.00  0.00     0.010 A 
ATOM     33  C   UNL A   1      41.833  23.558  27.529  1.00  0.00    -0.014 A 
BRANCH  33  34
ATOM     34  C   UNL A   1      42.306  24.817  28.156  1.00  0.00     0.031 A 
ATOM     35  C   UNL A   1      41.309  25.926  28.359  1.00  0.00     0.074 A 
ATOM     36  C   UNL A   1      43.586  24.990  28.531  1.00  0.00     0.049 A 
ATOM     37  N   UNL A   1      41.494  27.143  28.804  1.00  0.00    -0.248 NA
ATOM     38  C   UNL A   1      39.913  25.619  28.007  1.00  0.00     0.031 C 
ATOM     39  C   UNL A   1      44.643  23.985  28.440  1.00  0.00     0.029 A 
ATOM     40  N   UNL A   1      44.212  26.093  29.060  1.00  0.00    -0.354 N 
ATOM     41  C   UNL A   1      40.244  27.748  28.771  1.00  0.00     0.074 A 
ATOM     42  C   UNL A   1      39.315  26.777  28.238  1.00  0.00     0.031 C 
ATOM     43  C   UNL A   1      45.793  24.523  28.887  1.00  0.00     0.029 A 
ATOM     44  C   UNL A   1      45.560  25.918  29.258  1.00  0.00     0.049 A 
ATOM     45  H   UNL A   1      43.739  26.929  29.275  1.00  0.00     0.167 HD
ATOM     46  C   UNL A   1      39.896  28.999  29.154  1.00  0.00     0.031 A 
ATOM     47  C   UNL A   1      46.501  26.793  29.667  1.00  0.00     0.031 A 
ATOM     48  C   UNL A   1      40.819  29.976  29.666  1.00  0.00     0.049 A 
ATOM     49  C   UNL A   1      46.107  28.211  29.997  1.00  0.00     0.074 A 
ATOM     50  C   UNL A   1      40.560  31.267  30.089  1.00  0.00     0.029 A 
ATOM     51  N   UNL A   1      42.182  29.771  29.813  1.00  0.00    -0.354 N 
ATOM     52  N   UNL A   1      44.919  28.766  29.984  1.00  0.00    -0.248 NA
ATOM     53  C   UNL A   1      47.188  29.121  30.403  1.00  0.00     0.031 C 
ATOM     54  C   UNL A   1      41.776  31.866  30.434  1.00  0.00     0.029 A 
ATOM     55  C   UNL A   1      42.782  30.923  30.293  1.00  0.00     0.049 A 
ATOM     56  H   UNL A   1      42.653  28.931  29.607  1.00  0.00     0.167 HD
ATOM     57  C   UNL A   1      45.106  30.077  30.413  1.00  0.00     0.074 A 
ATOM     58  C   UNL A   1      46.519  30.228  30.690  1.00  0.00     0.031 C 
ATOM     59  C   UNL A   1      44.189  31.063  30.568  1.00  0.00     0.031 A 
BRANCH  46  60
ATOM     60  C   UNL A   1      38.455  29.393  28.989  1.00  0.00    -0.014 A 
ATOM     61  C   UNL A   1      37.958  29.860  27.762  1.00  0.00     0.009 A 
ATOM     62  C   UNL A   1      37.575  29.277  30.077  1.00  0.00     0.009 A 
ATOM     63  C   UNL A   1      36.620  30.237  27.638  1.00  0.00     0.001 A 
ATOM     64  C   UNL A   1      36.231  29.623  29.942  1.00  0.00     0.001 A 
ATOM     65  C   UNL A   1      35.756  30.114  28.727  1.00  0.00     0.000 A 
ENDBRANCH  46  60
BRANCH  47  66
ATOM     66  C   UNL A   1      47.925  26.369  29.768  1.00  0.00    -0.014 A 
ATOM     67  C   UNL A   1      48.413  25.775  30.942  1.00  0.00     0.009 A 
ATOM     68  C   UNL A   1      48.813  26.592  28.703  1.00  0.00     0.009 A 
ATOM     69  C   UNL A   1      49.764  25.438  31.057  1.00  0.00     0.001 A 
ATOM     70  C   UNL A   1      50.156  26.225  28.810  1.00  0.00     0.001 A 
ATOM     71  C   UNL A   1      50.632  25.657  29.990  1.00  0.00     0.000 A 
ENDBRANCH  47  66
BRANCH  59  72
ATOM     72  C   UNL A   1      44.671  32.383  31.105  1.00  0.00    -0.014 A 
ATOM     73  C   UNL A   1      45.004  32.549  32.458  1.00  0.00     0.009 A 
ATOM     74  C   UNL A   1      44.838  33.467  30.228  1.00  0.00     0.009 A 
ATOM     75  C   UNL A   1      45.462  33.783  32.927  1.00  0.00     0.001 A 
ATOM     76  C   UNL A   1      45.327  34.690  30.692  1.00  0.00     0.001 A 
ATOM     77  C   UNL A   1      45.628  34.850  32.043  1.00  0.00     0.000 A 
ENDBRANCH  59  72
ENDBRANCH  33  34
ENDBRANCH  26  28
ENDBRANCH  25  26
ENDBRANCH  24  25
ENDBRANCH  23  24
ENDBRANCH  22  23
ENDBRANCH  21  22
ENDBRANCH   1  21
TORSDOF 20
ENDMDL
