MODEL 1
REMARK VINA RESULT:      -9.7      0.000      0.000
REMARK SMILES CC(C)(C)[N@H+](CC(=O)OCCOCCOCCOC(=O)c1ccc(-c2c3nc(c(-c4ccccc4)c4ccc([nH]4)c(-c4ccccc4)c4nc(c(-c5ccccc5)c5ccc2[nH]5)C=C4)C=C3)cc1)C[C@H]1Cc2cc(F)ccc2O1
REMARK SMILES IDX 13 1 12 2 11 3 10 4 9 5 7 6 8 7 6 8 5 9 2 11 1 12 3 13 4 14
REMARK SMILES IDX 69 15 70 16 71 17 79 18 72 19 78 20 73 21 77 22 74 23 76 24
REMARK SMILES IDX 75 25 14 26 15 27 16 28 17 29 18 30 19 31 20 32 21 33 22 34
REMARK SMILES IDX 68 35 23 36 67 37 24 38 25 39 26 40 61 41 27 42 66 43 60 44
REMARK SMILES IDX 62 45 28 46 65 47 59 48 58 49 29 51 51 52 36 53 50 54 37 55
REMARK SMILES IDX 40 56 49 57 63 58 38 59 39 60 48 62 64 63 41 64 30 65 31 66
REMARK SMILES IDX 35 67 32 68 34 69 33 70 52 71 53 72 57 73 54 74 56 75 55 76
REMARK SMILES IDX 42 77 43 78 47 79 44 80 46 81 45 82
REMARK H PARENT 5 10 62 50 40 61
REMARK Flexibility Score: inf
ROOT
ATOM      1  C   UNL A   1      40.127  22.133  26.953  1.00  0.00     0.188 C 
ENDROOT
BRANCH   1   2
ATOM      2  O   UNL A   1      39.929  23.478  27.357  1.00  0.00    -0.376 OA
BRANCH   2   3
ATOM      3  C   UNL A   1      38.752  24.124  26.864  1.00  0.00     0.202 C 
BRANCH   3   4
ATOM      4  C   UNL A   1      37.935  23.341  25.825  1.00  0.00     0.261 C 
BRANCH   4   5
ATOM      5  O   UNL A   1      36.531  23.678  25.861  1.00  0.00    -0.459 OA
BRANCH   5   6
ATOM      6  C   UNL A   1      35.671  22.636  25.693  1.00  0.00     0.361 C 
ATOM      7  O   UNL A   1      35.756  21.572  26.300  1.00  0.00    -0.245 OA
BRANCH   6   8
ATOM      8  C   UNL A   1      34.476  22.954  24.786  1.00  0.00     0.387 C 
BRANCH   8   9
ATOM      9  N   UNL A   1      33.166  22.292  25.080  1.00  0.00    -0.318 N 
ATOM     10  H   UNL A   1      33.227  21.809  25.976  1.00  0.00     0.349 HD
BRANCH   9  11
ATOM     11  C   UNL A   1      32.029  23.230  25.385  1.00  0.00     0.090 C 
ATOM     12  C   UNL A   1      31.484  24.026  24.174  1.00  0.00     0.078 C 
ATOM     13  C   UNL A   1      32.545  24.229  26.448  1.00  0.00     0.078 C 
ATOM     14  C   UNL A   1      30.781  22.581  26.020  1.00  0.00     0.078 C 
ENDBRANCH   9  11
BRANCH   9  15
ATOM     15  C   UNL A   1      32.916  21.248  24.022  1.00  0.00     0.309 C 
BRANCH  15  16
ATOM     16  C   UNL A   1      33.092  19.772  24.477  1.00  0.00     0.232 C 
ATOM     17  C   UNL A   1      32.280  18.717  23.708  1.00  0.00     0.090 C 
ATOM     18  O   UNL A   1      34.475  19.304  24.311  1.00  0.00    -0.484 OA
ATOM     19  C   UNL A   1      33.018  17.537  24.226  1.00  0.00     0.001 A 
ATOM     20  C   UNL A   1      34.321  17.942  24.490  1.00  0.00     0.123 A 
ATOM     21  C   UNL A   1      32.593  16.265  24.550  1.00  0.00     0.047 A 
ATOM     22  C   UNL A   1      35.266  17.082  25.012  1.00  0.00     0.050 A 
ATOM     23  C   UNL A   1      33.512  15.420  25.174  1.00  0.00     0.123 A 
ATOM     24  C   UNL A   1      34.838  15.811  25.400  1.00  0.00     0.043 A 
ATOM     25  F   UNL A   1      33.106  14.217  25.602  1.00  0.00    -0.207 F 
ENDBRANCH  15  16
ENDBRANCH   9  15
ENDBRANCH   8   9
ENDBRANCH   6   8
ENDBRANCH   5   6
ENDBRANCH   4   5
ENDBRANCH   3   4
ENDBRANCH   2   3
ENDBRANCH   1   2
BRANCH   1  26
ATOM     26  C   UNL A   1      41.533  21.537  27.112  1.00  0.00     0.188 C 
BRANCH  26  27
ATOM     27  O   UNL A   1      41.939  20.613  26.112  1.00  0.00    -0.376 OA
BRANCH  27  28
ATOM     28  C   UNL A   1      42.261  19.310  26.607  1.00  0.00     0.202 C 
BRANCH  28  29
ATOM     29  C   UNL A   1      43.251  18.543  25.703  1.00  0.00     0.261 C 
BRANCH  29  30
ATOM     30  O   UNL A   1      43.500  19.170  24.423  1.00  0.00    -0.460 OA
BRANCH  30  31
ATOM     31  C   UNL A   1      44.802  19.488  24.224  1.00  0.00     0.338 C 
ATOM     32  O   UNL A   1      45.619  18.759  23.710  1.00  0.00    -0.246 OA
BRANCH  31  33
ATOM     33  C   UNL A   1      45.047  20.921  24.535  1.00  0.00     0.060 A 
ATOM     34  C   UNL A   1      45.553  21.250  25.797  1.00  0.00     0.016 A 
ATOM     35  C   UNL A   1      44.728  21.935  23.637  1.00  0.00     0.016 A 
ATOM     36  C   UNL A   1      45.683  22.582  26.196  1.00  0.00     0.010 A 
ATOM     37  C   UNL A   1      44.885  23.276  24.026  1.00  0.00     0.010 A 
ATOM     38  C   UNL A   1      45.344  23.613  25.315  1.00  0.00    -0.014 A 
BRANCH  38  39
ATOM     39  C   UNL A   1      45.434  25.037  25.741  1.00  0.00     0.031 A 
ATOM     40  C   UNL A   1      46.756  25.755  25.705  1.00  0.00     0.074 A 
ATOM     41  C   UNL A   1      44.342  25.703  26.162  1.00  0.00     0.049 A 
ATOM     42  N   UNL A   1      47.080  26.922  26.205  1.00  0.00    -0.248 NA
ATOM     43  C   UNL A   1      47.857  25.069  25.013  1.00  0.00     0.031 C 
ATOM     44  C   UNL A   1      42.976  25.178  26.172  1.00  0.00     0.029 A 
ATOM     45  N   UNL A   1      44.215  26.972  26.679  1.00  0.00    -0.354 N 
ATOM     46  C   UNL A   1      48.430  27.095  25.922  1.00  0.00     0.074 A 
ATOM     47  C   UNL A   1      48.863  25.912  25.207  1.00  0.00     0.031 C 
ATOM     48  C   UNL A   1      42.152  26.112  26.675  1.00  0.00     0.029 A 
ATOM     49  C   UNL A   1      42.938  27.271  27.089  1.00  0.00     0.049 A 
ATOM     50  H   UNL A   1      44.966  27.604  26.748  1.00  0.00     0.167 HD
ATOM     51  C   UNL A   1      49.238  28.137  26.237  1.00  0.00     0.031 A 
ATOM     52  C   UNL A   1      42.458  28.331  27.767  1.00  0.00     0.031 A 
ATOM     53  C   UNL A   1      48.811  29.322  26.937  1.00  0.00     0.049 A 
ATOM     54  C   UNL A   1      43.392  29.430  28.197  1.00  0.00     0.074 A 
ATOM     55  C   UNL A   1      49.564  30.427  27.296  1.00  0.00     0.029 A 
ATOM     56  N   UNL A   1      47.520  29.558  27.380  1.00  0.00    -0.354 N 
ATOM     57  N   UNL A   1      44.674  29.561  27.967  1.00  0.00    -0.248 NA
ATOM     58  C   UNL A   1      42.807  30.521  28.992  1.00  0.00     0.031 C 
ATOM     59  C   UNL A   1      48.739  31.309  28.004  1.00  0.00     0.029 A 
ATOM     60  C   UNL A   1      47.461  30.779  28.033  1.00  0.00     0.049 A 
ATOM     61  H   UNL A   1      46.758  28.948  27.251  1.00  0.00     0.167 HD
ATOM     62  C   UNL A   1      45.047  30.758  28.568  1.00  0.00     0.074 A 
ATOM     63  C   UNL A   1      43.851  31.321  29.160  1.00  0.00     0.031 C 
ATOM     64  C   UNL A   1      46.271  31.336  28.621  1.00  0.00     0.031 A 
BRANCH  51  65
ATOM     65  C   UNL A   1      50.691  28.021  25.874  1.00  0.00    -0.014 A 
ATOM     66  C   UNL A   1      51.620  27.418  26.735  1.00  0.00     0.009 A 
ATOM     67  C   UNL A   1      51.127  28.484  24.622  1.00  0.00     0.009 A 
ATOM     68  C   UNL A   1      52.961  27.310  26.362  1.00  0.00     0.001 A 
ATOM     69  C   UNL A   1      52.462  28.351  24.240  1.00  0.00     0.001 A 
ATOM     70  C   UNL A   1      53.380  27.772  25.114  1.00  0.00     0.000 A 
ENDBRANCH  51  65
BRANCH  52  71
ATOM     71  C   UNL A   1      41.021  28.379  28.146  1.00  0.00    -0.014 A 
ATOM     72  C   UNL A   1      40.080  29.002  27.313  1.00  0.00     0.009 A 
ATOM     73  C   UNL A   1      40.588  27.817  29.358  1.00  0.00     0.009 A 
ATOM     74  C   UNL A   1      38.738  29.075  27.694  1.00  0.00     0.001 A 
ATOM     75  C   UNL A   1      39.242  27.863  29.722  1.00  0.00     0.001 A 
ATOM     76  C   UNL A   1      38.319  28.500  28.893  1.00  0.00     0.000 A 
ENDBRANCH  52  71
BRANCH  64  77
ATOM     77  C   UNL A   1      46.376  32.669  29.309  1.00  0.00    -0.014 A 
ATOM     78  C   UNL A   1      46.175  33.870  28.611  1.00  0.00     0.009 A 
ATOM     79  C   UNL A   1      46.646  32.720  30.686  1.00  0.00     0.009 A 
ATOM     80  C   UNL A   1      46.275  35.096  29.272  1.00  0.00     0.001 A 
ATOM     81  C   UNL A   1      46.719  33.946  31.350  1.00  0.00     0.001 A 
ATOM     82  C   UNL A   1      46.543  35.133  30.642  1.00  0.00     0.000 A 
ENDBRANCH  64  77
ENDBRANCH  38  39
ENDBRANCH  31  33
ENDBRANCH  30  31
ENDBRANCH  29  30
ENDBRANCH  28  29
ENDBRANCH  27  28
ENDBRANCH  26  27
ENDBRANCH   1  26
TORSDOF 21
ENDMDL
MODEL 2
REMARK VINA RESULT:      -9.6      2.279      4.112
REMARK SMILES CC(C)(C)[N@H+](CC(=O)OCCOCCOCCOC(=O)c1ccc(-c2c3nc(c(-c4ccccc4)c4ccc([nH]4)c(-c4ccccc4)c4nc(c(-c5ccccc5)c5ccc2[nH]5)C=C4)C=C3)cc1)C[C@H]1Cc2cc(F)ccc2O1
REMARK SMILES IDX 13 1 12 2 11 3 10 4 9 5 7 6 8 7 6 8 5 9 2 11 1 12 3 13 4 14
REMARK SMILES IDX 69 15 70 16 71 17 79 18 72 19 78 20 73 21 77 22 74 23 76 24
REMARK SMILES IDX 75 25 14 26 15 27 16 28 17 29 18 30 19 31 20 32 21 33 22 34
REMARK SMILES IDX 68 35 23 36 67 37 24 38 25 39 26 40 61 41 27 42 66 43 60 44
REMARK SMILES IDX 62 45 28 46 65 47 59 48 58 49 29 51 51 52 36 53 50 54 37 55
REMARK SMILES IDX 40 56 49 57 63 58 38 59 39 60 48 62 64 63 41 64 30 65 31 66
REMARK SMILES IDX 35 67 32 68 34 69 33 70 52 71 53 72 57 73 54 74 56 75 55 76
REMARK SMILES IDX 42 77 43 78 47 79 44 80 46 81 45 82
REMARK H PARENT 5 10 62 50 40 61
REMARK Flexibility Score: inf
ROOT
ATOM      1  C   UNL A   1      40.484  22.180  27.206  1.00  0.00     0.188 C 
ENDROOT
BRANCH   1   2
ATOM      2  O   UNL A   1      40.351  23.554  27.536  1.00  0.00    -0.376 OA
BRANCH   2   3
ATOM      3  C   UNL A   1      39.107  24.172  27.197  1.00  0.00     0.202 C 
BRANCH   3   4
ATOM      4  C   UNL A   1      38.269  23.463  26.123  1.00  0.00     0.261 C 
BRANCH   4   5
ATOM      5  O   UNL A   1      36.978  24.081  25.932  1.00  0.00    -0.459 OA
BRANCH   5   6
ATOM      6  C   UNL A   1      36.167  23.484  25.017  1.00  0.00     0.361 C 
ATOM      7  O   UNL A   1      36.465  23.327  23.835  1.00  0.00    -0.245 OA
BRANCH   6   8
ATOM      8  C   UNL A   1      34.896  22.871  25.616  1.00  0.00     0.387 C 
BRANCH   8   9
ATOM      9  N   UNL A   1      33.583  23.188  24.969  1.00  0.00    -0.318 N 
ATOM     10  H   UNL A   1      33.751  23.604  24.054  1.00  0.00     0.349 HD
BRANCH   9  11
ATOM     11  C   UNL A   1      32.772  21.992  24.548  1.00  0.00     0.090 C 
ATOM     12  C   UNL A   1      31.488  21.738  25.375  1.00  0.00     0.078 C 
ATOM     13  C   UNL A   1      33.697  20.758  24.669  1.00  0.00     0.078 C 
ATOM     14  C   UNL A   1      32.297  21.992  23.079  1.00  0.00     0.078 C 
ENDBRANCH   9  11
BRANCH   9  15
ATOM     15  C   UNL A   1      32.878  24.221  25.811  1.00  0.00     0.309 C 
BRANCH  15  16
ATOM     16  C   UNL A   1      32.154  25.349  25.025  1.00  0.00     0.232 C 
ATOM     17  C   UNL A   1      30.631  25.205  24.867  1.00  0.00     0.090 C 
ATOM     18  O   UNL A   1      32.290  26.657  25.682  1.00  0.00    -0.484 OA
ATOM     19  C   UNL A   1      30.384  26.598  24.413  1.00  0.00     0.001 A 
ATOM     20  C   UNL A   1      31.355  27.404  24.992  1.00  0.00     0.123 A 
ATOM     21  C   UNL A   1      29.485  27.114  23.503  1.00  0.00     0.047 A 
ATOM     22  C   UNL A   1      31.424  28.762  24.749  1.00  0.00     0.050 A 
ATOM     23  C   UNL A   1      29.610  28.464  23.171  1.00  0.00     0.123 A 
ATOM     24  C   UNL A   1      30.560  29.289  23.787  1.00  0.00     0.043 A 
ATOM     25  F   UNL A   1      28.827  28.976  22.212  1.00  0.00    -0.207 F 
ENDBRANCH  15  16
ENDBRANCH   9  15
ENDBRANCH   8   9
ENDBRANCH   6   8
ENDBRANCH   5   6
ENDBRANCH   4   5
ENDBRANCH   3   4
ENDBRANCH   2   3
ENDBRANCH   1   2
BRANCH   1  26
ATOM     26  C   UNL A   1      41.875  21.674  26.799  1.00  0.00     0.188 C 
BRANCH  26  27
ATOM     27  O   UNL A   1      41.904  20.603  25.865  1.00  0.00    -0.376 OA
BRANCH  27  28
ATOM     28  C   UNL A   1      42.275  19.340  26.426  1.00  0.00     0.202 C 
BRANCH  28  29
ATOM     29  C   UNL A   1      43.332  18.589  25.586  1.00  0.00     0.261 C 
BRANCH  29  30
ATOM     30  O   UNL A   1      43.632  19.206  24.312  1.00  0.00    -0.460 OA
BRANCH  30  31
ATOM     31  C   UNL A   1      44.940  19.520  24.160  1.00  0.00     0.338 C 
ATOM     32  O   UNL A   1      45.776  18.784  23.688  1.00  0.00    -0.246 OA
BRANCH  31  33
ATOM     33  C   UNL A   1      45.175  20.957  24.462  1.00  0.00     0.060 A 
ATOM     34  C   UNL A   1      45.622  21.303  25.742  1.00  0.00     0.016 A 
ATOM     35  C   UNL A   1      44.902  21.959  23.536  1.00  0.00     0.016 A 
ATOM     36  C   UNL A   1      45.738  22.639  26.128  1.00  0.00     0.010 A 
ATOM     37  C   UNL A   1      45.045  23.304  23.913  1.00  0.00     0.010 A 
ATOM     38  C   UNL A   1      45.444  23.659  25.217  1.00  0.00    -0.014 A 
BRANCH  38  39
ATOM     39  C   UNL A   1      45.518  25.089  25.627  1.00  0.00     0.031 A 
ATOM     40  C   UNL A   1      46.840  25.809  25.625  1.00  0.00     0.074 A 
ATOM     41  C   UNL A   1      44.412  25.758  26.004  1.00  0.00     0.049 A 
ATOM     42  N   UNL A   1      47.146  26.982  26.119  1.00  0.00    -0.248 NA
ATOM     43  C   UNL A   1      47.964  25.115  24.978  1.00  0.00     0.031 C 
ATOM     44  C   UNL A   1      43.047  25.231  25.975  1.00  0.00     0.029 A 
ATOM     45  N   UNL A   1      44.266  27.033  26.499  1.00  0.00    -0.354 N 
ATOM     46  C   UNL A   1      48.504  27.153  25.878  1.00  0.00     0.074 A 
ATOM     47  C   UNL A   1      48.961  25.962  25.194  1.00  0.00     0.031 C 
ATOM     48  C   UNL A   1      42.205  26.170  26.439  1.00  0.00     0.029 A 
ATOM     49  C   UNL A   1      42.976  27.336  26.863  1.00  0.00     0.049 A 
ATOM     50  H   UNL A   1      45.014  27.668  26.584  1.00  0.00     0.167 HD
ATOM     51  C   UNL A   1      49.299  28.201  26.206  1.00  0.00     0.031 A 
ATOM     52  C   UNL A   1      42.473  28.404  27.511  1.00  0.00     0.031 A 
ATOM     53  C   UNL A   1      48.849  29.394  26.875  1.00  0.00     0.049 A 
ATOM     54  C   UNL A   1      43.391  29.510  27.956  1.00  0.00     0.074 A 
ATOM     55  C   UNL A   1      49.588  30.506  27.245  1.00  0.00     0.029 A 
ATOM     56  N   UNL A   1      47.544  29.635  27.273  1.00  0.00    -0.354 N 
ATOM     57  N   UNL A   1      44.680  29.640  27.767  1.00  0.00    -0.248 NA
ATOM     58  C   UNL A   1      42.780  30.611  28.717  1.00  0.00     0.031 C 
ATOM     59  C   UNL A   1      48.740  31.396  27.913  1.00  0.00     0.029 A 
ATOM     60  C   UNL A   1      47.462  30.863  27.908  1.00  0.00     0.049 A 
ATOM     61  H   UNL A   1      46.787  29.021  27.127  1.00  0.00     0.167 HD
ATOM     62  C   UNL A   1      45.031  30.846  28.364  1.00  0.00     0.074 A 
ATOM     63  C   UNL A   1      43.816  31.415  28.908  1.00  0.00     0.031 C 
ATOM     64  C   UNL A   1      46.252  31.427  28.449  1.00  0.00     0.031 A 
BRANCH  51  65
ATOM     65  C   UNL A   1      50.764  28.082  25.892  1.00  0.00    -0.014 A 
ATOM     66  C   UNL A   1      51.667  27.502  26.796  1.00  0.00     0.009 A 
ATOM     67  C   UNL A   1      51.238  28.519  24.645  1.00  0.00     0.009 A 
ATOM     68  C   UNL A   1      53.020  27.391  26.468  1.00  0.00     0.001 A 
ATOM     69  C   UNL A   1      52.585  28.383  24.308  1.00  0.00     0.001 A 
ATOM     70  C   UNL A   1      53.477  27.828  25.224  1.00  0.00     0.000 A 
ENDBRANCH  51  65
BRANCH  52  71
ATOM     71  C   UNL A   1      41.024  28.455  27.842  1.00  0.00    -0.014 A 
ATOM     72  C   UNL A   1      40.127  29.162  27.028  1.00  0.00     0.009 A 
ATOM     73  C   UNL A   1      40.536  27.809  28.990  1.00  0.00     0.009 A 
ATOM     74  C   UNL A   1      38.774  29.235  27.367  1.00  0.00     0.001 A 
ATOM     75  C   UNL A   1      39.179  27.858  29.309  1.00  0.00     0.001 A 
ATOM     76  C   UNL A   1      38.300  28.578  28.501  1.00  0.00     0.000 A 
ENDBRANCH  52  71
BRANCH  64  77
ATOM     77  C   UNL A   1      46.333  32.769  29.121  1.00  0.00    -0.014 A 
ATOM     78  C   UNL A   1      46.606  32.884  30.493  1.00  0.00     0.009 A 
ATOM     79  C   UNL A   1      46.167  33.938  28.360  1.00  0.00     0.009 A 
ATOM     80  C   UNL A   1      46.679  34.143  31.095  1.00  0.00     0.001 A 
ATOM     81  C   UNL A   1      46.266  35.195  28.959  1.00  0.00     0.001 A 
ATOM     82  C   UNL A   1      46.513  35.297  30.327  1.00  0.00     0.000 A 
ENDBRANCH  64  77
ENDBRANCH  38  39
ENDBRANCH  31  33
ENDBRANCH  30  31
ENDBRANCH  29  30
ENDBRANCH  28  29
ENDBRANCH  27  28
ENDBRANCH  26  27
ENDBRANCH   1  26
TORSDOF 21
ENDMDL
MODEL 3
REMARK VINA RESULT:      -9.6      4.284      6.343
REMARK SMILES CC(C)(C)[N@H+](CC(=O)OCCOCCOCCOC(=O)c1ccc(-c2c3nc(c(-c4ccccc4)c4ccc([nH]4)c(-c4ccccc4)c4nc(c(-c5ccccc5)c5ccc2[nH]5)C=C4)C=C3)cc1)C[C@H]1Cc2cc(F)ccc2O1
REMARK SMILES IDX 13 1 12 2 11 3 10 4 9 5 7 6 8 7 6 8 5 9 2 11 1 12 3 13 4 14
REMARK SMILES IDX 69 15 70 16 71 17 79 18 72 19 78 20 73 21 77 22 74 23 76 24
REMARK SMILES IDX 75 25 14 26 15 27 16 28 17 29 18 30 19 31 20 32 21 33 22 34
REMARK SMILES IDX 68 35 23 36 67 37 24 38 25 39 26 40 61 41 27 42 66 43 60 44
REMARK SMILES IDX 62 45 28 46 65 47 59 48 58 49 29 51 51 52 36 53 50 54 37 55
REMARK SMILES IDX 40 56 49 57 63 58 38 59 39 60 48 62 64 63 41 64 30 65 31 66
REMARK SMILES IDX 35 67 32 68 34 69 33 70 52 71 53 72 57 73 54 74 56 75 55 76
REMARK SMILES IDX 42 77 43 78 47 79 44 80 46 81 45 82
REMARK H PARENT 5 10 62 50 40 61
REMARK Flexibility Score: inf
ROOT
ATOM      1  C   UNL A   1      39.781  21.559  26.091  1.00  0.00     0.188 C 
ENDROOT
BRANCH   1   2
ATOM      2  O   UNL A   1      38.475  21.942  25.688  1.00  0.00    -0.376 OA
BRANCH   2   3
ATOM      3  C   UNL A   1      37.953  23.137  26.275  1.00  0.00     0.202 C 
BRANCH   3   4
ATOM      4  C   UNL A   1      36.786  23.802  25.531  1.00  0.00     0.261 C 
BRANCH   4   5
ATOM      5  O   UNL A   1      35.996  22.852  24.781  1.00  0.00    -0.459 OA
BRANCH   5   6
ATOM      6  C   UNL A   1      35.666  23.229  23.516  1.00  0.00     0.361 C 
ATOM      7  O   UNL A   1      36.340  22.968  22.523  1.00  0.00    -0.245 OA
BRANCH   6   8
ATOM      8  C   UNL A   1      34.284  23.884  23.402  1.00  0.00     0.387 C 
BRANCH   8   9
ATOM      9  N   UNL A   1      33.221  23.473  24.372  1.00  0.00    -0.318 N 
ATOM     10  H   UNL A   1      33.658  23.046  25.189  1.00  0.00     0.349 HD
BRANCH   9  11
ATOM     11  C   UNL A   1      32.498  24.606  25.048  1.00  0.00     0.090 C 
ATOM     12  C   UNL A   1      31.876  24.267  26.425  1.00  0.00     0.078 C 
ATOM     13  C   UNL A   1      31.371  25.055  24.088  1.00  0.00     0.078 C 
ATOM     14  C   UNL A   1      33.338  25.877  25.300  1.00  0.00     0.078 C 
ENDBRANCH   9  11
BRANCH   9  15
ATOM     15  C   UNL A   1      32.365  22.419  23.718  1.00  0.00     0.309 C 
BRANCH  15  16
ATOM     16  C   UNL A   1      32.811  20.948  23.953  1.00  0.00     0.232 C 
ATOM     17  C   UNL A   1      32.300  20.276  25.238  1.00  0.00     0.090 C 
ATOM     18  O   UNL A   1      32.324  20.047  22.899  1.00  0.00    -0.484 OA
ATOM     19  C   UNL A   1      32.658  18.888  24.847  1.00  0.00     0.001 A 
ATOM     20  C   UNL A   1      32.579  18.811  23.462  1.00  0.00     0.123 A 
ATOM     21  C   UNL A   1      33.118  17.821  25.591  1.00  0.00     0.047 A 
ATOM     22  C   UNL A   1      32.880  17.653  22.772  1.00  0.00     0.050 A 
ATOM     23  C   UNL A   1      33.522  16.681  24.895  1.00  0.00     0.123 A 
ATOM     24  C   UNL A   1      33.401  16.584  23.503  1.00  0.00     0.043 A 
ATOM     25  F   UNL A   1      34.076  15.666  25.572  1.00  0.00    -0.207 F 
ENDBRANCH  15  16
ENDBRANCH   9  15
ENDBRANCH   8   9
ENDBRANCH   6   8
ENDBRANCH   5   6
ENDBRANCH   4   5
ENDBRANCH   3   4
ENDBRANCH   2   3
ENDBRANCH   1   2
BRANCH   1  26
ATOM     26  C   UNL A   1      40.114  20.061  26.109  1.00  0.00     0.188 C 
BRANCH  26  27
ATOM     27  O   UNL A   1      41.345  19.700  26.721  1.00  0.00    -0.376 OA
BRANCH  27  28
ATOM     28  C   UNL A   1      42.428  19.511  25.805  1.00  0.00     0.202 C 
BRANCH  28  29
ATOM     29  C   UNL A   1      43.332  20.756  25.668  1.00  0.00     0.261 C 
BRANCH  29  30
ATOM     30  O   UNL A   1      42.622  21.980  25.364  1.00  0.00    -0.460 OA
BRANCH  30  31
ATOM     31  C   UNL A   1      43.438  23.046  25.188  1.00  0.00     0.338 C 
ATOM     32  O   UNL A   1      44.155  23.215  24.228  1.00  0.00    -0.246 OA
BRANCH  31  33
ATOM     33  C   UNL A   1      43.188  24.078  26.227  1.00  0.00     0.060 A 
ATOM     34  C   UNL A   1      42.459  23.713  27.365  1.00  0.00     0.016 A 
ATOM     35  C   UNL A   1      43.597  25.399  26.069  1.00  0.00     0.016 A 
ATOM     36  C   UNL A   1      42.080  24.665  28.314  1.00  0.00     0.010 A 
ATOM     37  C   UNL A   1      43.241  26.353  27.037  1.00  0.00     0.010 A 
ATOM     38  C   UNL A   1      42.463  26.001  28.157  1.00  0.00    -0.014 A 
BRANCH  38  39
ATOM     39  C   UNL A   1      42.028  27.036  29.136  1.00  0.00     0.031 A 
ATOM     40  C   UNL A   1      42.809  27.253  30.404  1.00  0.00     0.074 A 
ATOM     41  C   UNL A   1      40.937  27.791  28.906  1.00  0.00     0.049 A 
ATOM     42  N   UNL A   1      42.496  27.962  31.460  1.00  0.00    -0.248 NA
ATOM     43  C   UNL A   1      44.116  26.583  30.493  1.00  0.00     0.031 C 
ATOM     44  C   UNL A   1      40.126  27.764  27.687  1.00  0.00     0.029 A 
ATOM     45  N   UNL A   1      40.314  28.724  29.701  1.00  0.00    -0.354 N 
ATOM     46  C   UNL A   1      43.547  27.796  32.354  1.00  0.00     0.074 A 
ATOM     47  C   UNL A   1      44.506  26.918  31.716  1.00  0.00     0.031 C 
ATOM     48  C   UNL A   1      39.111  28.634  27.819  1.00  0.00     0.029 A 
ATOM     49  C   UNL A   1      39.157  29.225  29.154  1.00  0.00     0.049 A 
ATOM     50  H   UNL A   1      40.664  29.006  30.577  1.00  0.00     0.167 HD
ATOM     51  C   UNL A   1      43.696  28.318  33.596  1.00  0.00     0.031 A 
ATOM     52  C   UNL A   1      38.211  30.027  29.681  1.00  0.00     0.031 A 
ATOM     53  C   UNL A   1      42.753  29.202  34.233  1.00  0.00     0.049 A 
ATOM     54  C   UNL A   1      38.346  30.512  31.098  1.00  0.00     0.074 A 
ATOM     55  C   UNL A   1      42.826  29.778  35.490  1.00  0.00     0.029 A 
ATOM     56  N   UNL A   1      41.569  29.640  33.663  1.00  0.00    -0.354 N 
ATOM     57  N   UNL A   1      39.318  30.311  31.951  1.00  0.00    -0.248 NA
ATOM     58  C   UNL A   1      37.241  31.328  31.626  1.00  0.00     0.031 C 
ATOM     59  C   UNL A   1      41.660  30.523  35.700  1.00  0.00     0.029 A 
ATOM     60  C   UNL A   1      40.891  30.457  34.552  1.00  0.00     0.049 A 
ATOM     61  H   UNL A   1      41.257  29.404  32.759  1.00  0.00     0.167 HD
ATOM     62  C   UNL A   1      38.955  30.991  33.108  1.00  0.00     0.074 A 
ATOM     63  C   UNL A   1      37.680  31.624  32.841  1.00  0.00     0.031 C 
ATOM     64  C   UNL A   1      39.622  31.084  34.284  1.00  0.00     0.031 A 
BRANCH  51  65
ATOM     65  C   UNL A   1      44.907  27.901  34.381  1.00  0.00    -0.014 A 
ATOM     66  C   UNL A   1      46.120  28.601  34.296  1.00  0.00     0.009 A 
ATOM     67  C   UNL A   1      44.815  26.810  35.261  1.00  0.00     0.009 A 
ATOM     68  C   UNL A   1      47.223  28.198  35.052  1.00  0.00     0.001 A 
ATOM     69  C   UNL A   1      45.910  26.424  36.035  1.00  0.00     0.001 A 
ATOM     70  C   UNL A   1      47.116  27.113  35.923  1.00  0.00     0.000 A 
ENDBRANCH  51  65
BRANCH  52  71
ATOM     71  C   UNL A   1      37.006  30.373  28.882  1.00  0.00    -0.014 A 
ATOM     72  C   UNL A   1      36.707  31.710  28.577  1.00  0.00     0.009 A 
ATOM     73  C   UNL A   1      36.136  29.364  28.437  1.00  0.00     0.009 A 
ATOM     74  C   UNL A   1      35.553  32.029  27.858  1.00  0.00     0.001 A 
ATOM     75  C   UNL A   1      35.000  29.684  27.691  1.00  0.00     0.001 A 
ATOM     76  C   UNL A   1      34.705  31.017  27.410  1.00  0.00     0.000 A 
ENDBRANCH  52  71
BRANCH  64  77
ATOM     77  C   UNL A   1      39.008  31.933  35.362  1.00  0.00    -0.014 A 
ATOM     78  C   UNL A   1      38.479  31.362  36.529  1.00  0.00     0.009 A 
ATOM     79  C   UNL A   1      38.990  33.330  35.219  1.00  0.00     0.009 A 
ATOM     80  C   UNL A   1      37.916  32.172  37.518  1.00  0.00     0.001 A 
ATOM     81  C   UNL A   1      38.450  34.139  36.221  1.00  0.00     0.001 A 
ATOM     82  C   UNL A   1      37.906  33.559  37.365  1.00  0.00     0.000 A 
ENDBRANCH  64  77
ENDBRANCH  38  39
ENDBRANCH  31  33
ENDBRANCH  30  31
ENDBRANCH  29  30
ENDBRANCH  28  29
ENDBRANCH  27  28
ENDBRANCH  26  27
ENDBRANCH   1  26
TORSDOF 21
ENDMDL
