MODEL 1
REMARK VINA RESULT:      -8.2      0.000      0.000
REMARK SMILES C[C@@H](C(=O)OCCOCCOCCOC(=O)c1ccc(-c2c3nc(c(-c4ccccc4)c4ccc([nH]4)c(-c4ccccc4)c4nc(c(-c5ccccc5)c5ccc2[nH]5)C=C4)C=C3)cc1)c1ccc(-c2ccn(C(F)F)c(=O)c2)cc1
REMARK SMILES IDX 9 1 8 2 7 3 6 4 5 5 3 6 4 7 2 8 1 9 65 10 66 11 80 12 67 13
REMARK SMILES IDX 79 14 68 15 69 16 70 17 78 18 71 19 76 20 72 21 77 22 73 23
REMARK SMILES IDX 74 24 75 25 10 26 11 27 12 28 13 29 14 30 15 31 16 32 17 33
REMARK SMILES IDX 18 34 64 35 19 36 63 37 20 38 21 39 22 40 57 41 23 42 62 43
REMARK SMILES IDX 56 44 58 45 24 46 61 47 55 48 54 49 25 51 47 52 32 53 46 54
REMARK SMILES IDX 33 55 36 56 45 57 59 58 34 59 35 60 44 62 60 63 37 64 26 65
REMARK SMILES IDX 27 66 31 67 28 68 30 69 29 70 48 71 49 72 53 73 50 74 52 75
REMARK SMILES IDX 51 76 38 77 39 78 43 79 40 80 42 81 41 82
REMARK H PARENT 58 50 36 61
REMARK Flexibility Score: inf
ROOT
ATOM      1  C   UNL A   1      35.401  34.531  33.873  1.00  0.00     0.188 C 
ENDROOT
BRANCH   1   2
ATOM      2  O   UNL A   1      36.726  34.462  34.380  1.00  0.00    -0.376 OA
BRANCH   2   3
ATOM      3  C   UNL A   1      37.084  33.338  35.181  1.00  0.00     0.202 C 
BRANCH   3   4
ATOM      4  C   UNL A   1      37.622  32.060  34.508  1.00  0.00     0.261 C 
BRANCH   4   5
ATOM      5  O   UNL A   1      39.050  31.845  34.597  1.00  0.00    -0.463 OA
BRANCH   5   6
ATOM      6  C   UNL A   1      39.460  30.556  34.762  1.00  0.00     0.313 C 
ATOM      7  O   UNL A   1      38.959  29.605  34.167  1.00  0.00    -0.252 OA
BRANCH   6   8
ATOM      8  C   UNL A   1      40.620  30.368  35.758  1.00  0.00     0.126 C 
ATOM      9  C   UNL A   1      41.589  31.532  35.996  1.00  0.00     0.025 C 
BRANCH   8  10
ATOM     10  C   UNL A   1      41.362  29.061  35.485  1.00  0.00    -0.034 A 
ATOM     11  C   UNL A   1      42.021  28.825  34.270  1.00  0.00     0.005 A 
ATOM     12  C   UNL A   1      41.343  28.032  36.433  1.00  0.00     0.005 A 
ATOM     13  C   UNL A   1      42.594  27.585  33.987  1.00  0.00     0.009 A 
ATOM     14  C   UNL A   1      41.953  26.801  36.164  1.00  0.00     0.009 A 
ATOM     15  C   UNL A   1      42.578  26.564  34.935  1.00  0.00    -0.018 A 
BRANCH  15  16
ATOM     16  C   UNL A   1      43.232  25.271  34.665  1.00  0.00    -0.011 A 
ATOM     17  C   UNL A   1      43.274  24.193  35.633  1.00  0.00     0.027 A 
ATOM     18  C   UNL A   1      43.864  25.113  33.488  1.00  0.00     0.080 A 
ATOM     19  C   UNL A   1      44.014  23.105  35.402  1.00  0.00     0.095 A 
ATOM     20  C   UNL A   1      44.658  23.889  33.198  1.00  0.00     0.255 A 
ATOM     21  N   UNL A   1      44.720  22.958  34.222  1.00  0.00    -0.258 N 
ATOM     22  O   UNL A   1      45.239  23.812  32.121  1.00  0.00    -0.269 OA
BRANCH  21  23
ATOM     23  C   UNL A   1      45.581  21.826  34.012  1.00  0.00     0.451 C 
ATOM     24  F   UNL A   1      46.867  22.109  34.320  1.00  0.00    -0.185 F 
ATOM     25  F   UNL A   1      45.187  20.767  34.759  1.00  0.00    -0.185 F 
ENDBRANCH  21  23
ENDBRANCH  15  16
ENDBRANCH   8  10
ENDBRANCH   6   8
ENDBRANCH   5   6
ENDBRANCH   4   5
ENDBRANCH   3   4
ENDBRANCH   2   3
ENDBRANCH   1   2
BRANCH   1  26
ATOM     26  C   UNL A   1      35.111  35.470  32.686  1.00  0.00     0.188 C 
BRANCH  26  27
ATOM     27  O   UNL A   1      33.862  36.111  32.758  1.00  0.00    -0.376 OA
BRANCH  27  28
ATOM     28  C   UNL A   1      33.340  36.719  31.596  1.00  0.00     0.202 C 
BRANCH  28  29
ATOM     29  C   UNL A   1      32.530  35.905  30.570  1.00  0.00     0.261 C 
BRANCH  29  30
ATOM     30  O   UNL A   1      33.100  35.721  29.263  1.00  0.00    -0.460 OA
BRANCH  30  31
ATOM     31  C   UNL A   1      33.214  34.456  28.802  1.00  0.00     0.338 C 
ATOM     32  O   UNL A   1      32.480  33.901  27.997  1.00  0.00    -0.246 OA
BRANCH  31  33
ATOM     33  C   UNL A   1      34.513  33.912  29.264  1.00  0.00     0.060 A 
ATOM     34  C   UNL A   1      35.695  34.398  28.691  1.00  0.00     0.016 A 
ATOM     35  C   UNL A   1      34.571  32.929  30.257  1.00  0.00     0.016 A 
ATOM     36  C   UNL A   1      36.934  33.890  29.097  1.00  0.00     0.010 A 
ATOM     37  C   UNL A   1      35.813  32.413  30.653  1.00  0.00     0.010 A 
ATOM     38  C   UNL A   1      37.003  32.881  30.068  1.00  0.00    -0.014 A 
BRANCH  38  39
ATOM     39  C   UNL A   1      38.292  32.186  30.330  1.00  0.00     0.031 A 
ATOM     40  C   UNL A   1      39.301  32.869  31.213  1.00  0.00     0.074 A 
ATOM     41  C   UNL A   1      38.576  30.980  29.802  1.00  0.00     0.049 A 
ATOM     42  N   UNL A   1      40.510  32.494  31.541  1.00  0.00    -0.248 NA
ATOM     43  C   UNL A   1      38.890  34.159  31.793  1.00  0.00     0.031 C 
ATOM     44  C   UNL A   1      37.679  30.196  28.958  1.00  0.00     0.029 A 
ATOM     45  N   UNL A   1      39.706  30.202  29.901  1.00  0.00    -0.354 N 
ATOM     46  C   UNL A   1      41.006  33.500  32.361  1.00  0.00     0.074 A 
ATOM     47  C   UNL A   1      39.978  34.513  32.459  1.00  0.00     0.031 C 
ATOM     48  C   UNL A   1      38.290  29.044  28.624  1.00  0.00     0.029 A 
ATOM     49  C   UNL A   1      39.642  29.030  29.184  1.00  0.00     0.049 A 
ATOM     50  H   UNL A   1      40.491  30.461  30.437  1.00  0.00     0.167 HD
ATOM     51  C   UNL A   1      42.212  33.581  32.972  1.00  0.00     0.031 A 
ATOM     52  C   UNL A   1      40.574  28.071  28.984  1.00  0.00     0.031 A 
ATOM     53  C   UNL A   1      43.252  32.595  32.850  1.00  0.00     0.049 A 
ATOM     54  C   UNL A   1      41.938  28.227  29.621  1.00  0.00     0.074 A 
ATOM     55  C   UNL A   1      44.518  32.605  33.409  1.00  0.00     0.029 A 
ATOM     56  N   UNL A   1      43.148  31.425  32.114  1.00  0.00    -0.354 N 
ATOM     57  N   UNL A   1      42.387  29.177  30.405  1.00  0.00    -0.248 NA
ATOM     58  C   UNL A   1      42.927  27.174  29.340  1.00  0.00     0.031 C 
ATOM     59  C   UNL A   1      45.206  31.477  32.952  1.00  0.00     0.029 A 
ATOM     60  C   UNL A   1      44.342  30.727  32.169  1.00  0.00     0.049 A 
ATOM     61  H   UNL A   1      42.345  31.135  31.625  1.00  0.00     0.167 HD
ATOM     62  C   UNL A   1      43.684  28.810  30.748  1.00  0.00     0.074 A 
ATOM     63  C   UNL A   1      43.947  27.545  30.100  1.00  0.00     0.031 C 
ATOM     64  C   UNL A   1      44.586  29.465  31.522  1.00  0.00     0.031 A 
BRANCH  51  65
ATOM     65  C   UNL A   1      42.490  34.818  33.779  1.00  0.00    -0.014 A 
ATOM     66  C   UNL A   1      43.028  35.974  33.191  1.00  0.00     0.009 A 
ATOM     67  C   UNL A   1      42.195  34.830  35.152  1.00  0.00     0.009 A 
ATOM     68  C   UNL A   1      43.299  37.101  33.969  1.00  0.00     0.001 A 
ATOM     69  C   UNL A   1      42.435  35.969  35.920  1.00  0.00     0.001 A 
ATOM     70  C   UNL A   1      42.998  37.101  35.330  1.00  0.00     0.000 A 
ENDBRANCH  51  65
BRANCH  52  71
ATOM     71  C   UNL A   1      40.273  26.876  28.136  1.00  0.00    -0.014 A 
ATOM     72  C   UNL A   1      39.547  25.788  28.650  1.00  0.00     0.009 A 
ATOM     73  C   UNL A   1      40.741  26.789  26.817  1.00  0.00     0.009 A 
ATOM     74  C   UNL A   1      39.290  24.654  27.873  1.00  0.00     0.001 A 
ATOM     75  C   UNL A   1      40.461  25.667  26.028  1.00  0.00     0.001 A 
ATOM     76  C   UNL A   1      39.739  24.600  26.558  1.00  0.00     0.000 A 
ENDBRANCH  52  71
BRANCH  64  77
ATOM     77  C   UNL A   1      45.927  28.814  31.736  1.00  0.00    -0.014 A 
ATOM     78  C   UNL A   1      46.998  29.035  30.856  1.00  0.00     0.009 A 
ATOM     79  C   UNL A   1      46.136  28.006  32.865  1.00  0.00     0.009 A 
ATOM     80  C   UNL A   1      48.237  28.431  31.082  1.00  0.00     0.001 A 
ATOM     81  C   UNL A   1      47.385  27.430  33.108  1.00  0.00     0.001 A 
ATOM     82  C   UNL A   1      48.432  27.635  32.211  1.00  0.00     0.000 A 
ENDBRANCH  64  77
ENDBRANCH  38  39
ENDBRANCH  31  33
ENDBRANCH  30  31
ENDBRANCH  29  30
ENDBRANCH  28  29
ENDBRANCH  27  28
ENDBRANCH  26  27
ENDBRANCH   1  26
TORSDOF 20
ENDMDL
MODEL 2
REMARK VINA RESULT:      -8.1      6.282     12.537
REMARK SMILES C[C@@H](C(=O)OCCOCCOCCOC(=O)c1ccc(-c2c3nc(c(-c4ccccc4)c4ccc([nH]4)c(-c4ccccc4)c4nc(c(-c5ccccc5)c5ccc2[nH]5)C=C4)C=C3)cc1)c1ccc(-c2ccn(C(F)F)c(=O)c2)cc1
REMARK SMILES IDX 9 1 8 2 7 3 6 4 5 5 3 6 4 7 2 8 1 9 65 10 66 11 80 12 67 13
REMARK SMILES IDX 79 14 68 15 69 16 70 17 78 18 71 19 76 20 72 21 77 22 73 23
REMARK SMILES IDX 74 24 75 25 10 26 11 27 12 28 13 29 14 30 15 31 16 32 17 33
REMARK SMILES IDX 18 34 64 35 19 36 63 37 20 38 21 39 22 40 57 41 23 42 62 43
REMARK SMILES IDX 56 44 58 45 24 46 61 47 55 48 54 49 25 51 47 52 32 53 46 54
REMARK SMILES IDX 33 55 36 56 45 57 59 58 34 59 35 60 44 62 60 63 37 64 26 65
REMARK SMILES IDX 27 66 31 67 28 68 30 69 29 70 48 71 49 72 53 73 50 74 52 75
REMARK SMILES IDX 51 76 38 77 39 78 43 79 40 80 42 81 41 82
REMARK H PARENT 58 50 36 61
REMARK Flexibility Score: inf
ROOT
ATOM      1  C   UNL A   1      39.466  22.461  26.581  1.00  0.00     0.188 C 
ENDROOT
BRANCH   1   2
ATOM      2  O   UNL A   1      38.386  22.163  25.708  1.00  0.00    -0.376 OA
BRANCH   2   3
ATOM      3  C   UNL A   1      37.476  23.209  25.378  1.00  0.00     0.202 C 
BRANCH   3   4
ATOM      4  C   UNL A   1      36.130  23.314  26.122  1.00  0.00     0.261 C 
BRANCH   4   5
ATOM      5  O   UNL A   1      35.126  22.336  25.765  1.00  0.00    -0.463 OA
BRANCH   5   6
ATOM      6  C   UNL A   1      33.841  22.633  26.106  1.00  0.00     0.313 C 
ATOM      7  O   UNL A   1      33.515  23.057  27.212  1.00  0.00    -0.252 OA
BRANCH   6   8
ATOM      8  C   UNL A   1      32.805  22.403  24.989  1.00  0.00     0.126 C 
ATOM      9  C   UNL A   1      33.202  21.561  23.772  1.00  0.00     0.025 C 
BRANCH   8  10
ATOM     10  C   UNL A   1      32.152  23.722  24.576  1.00  0.00    -0.034 A 
ATOM     11  C   UNL A   1      32.751  24.960  24.847  1.00  0.00     0.005 A 
ATOM     12  C   UNL A   1      30.892  23.720  23.967  1.00  0.00     0.005 A 
ATOM     13  C   UNL A   1      32.092  26.159  24.571  1.00  0.00     0.009 A 
ATOM     14  C   UNL A   1      30.248  24.923  23.654  1.00  0.00     0.009 A 
ATOM     15  C   UNL A   1      30.840  26.153  23.960  1.00  0.00    -0.018 A 
BRANCH  15  16
ATOM     16  C   UNL A   1      30.163  27.416  23.613  1.00  0.00    -0.011 A 
ATOM     17  C   UNL A   1      30.862  28.680  23.501  1.00  0.00     0.027 A 
ATOM     18  C   UNL A   1      28.827  27.395  23.449  1.00  0.00     0.080 A 
ATOM     19  C   UNL A   1      30.181  29.819  23.342  1.00  0.00     0.095 A 
ATOM     20  C   UNL A   1      28.059  28.649  23.230  1.00  0.00     0.255 A 
ATOM     21  N   UNL A   1      28.802  29.818  23.237  1.00  0.00    -0.258 N 
ATOM     22  O   UNL A   1      26.840  28.574  23.119  1.00  0.00    -0.269 OA
BRANCH  21  23
ATOM     23  C   UNL A   1      28.068  31.050  23.150  1.00  0.00     0.451 C 
ATOM     24  F   UNL A   1      27.306  31.258  24.248  1.00  0.00    -0.185 F 
ATOM     25  F   UNL A   1      28.902  32.107  23.003  1.00  0.00    -0.185 F 
ENDBRANCH  21  23
ENDBRANCH  15  16
ENDBRANCH   8  10
ENDBRANCH   6   8
ENDBRANCH   5   6
ENDBRANCH   4   5
ENDBRANCH   3   4
ENDBRANCH   2   3
ENDBRANCH   1   2
BRANCH   1  26
ATOM     26  C   UNL A   1      40.414  21.321  27.003  1.00  0.00     0.188 C 
BRANCH  26  27
ATOM     27  O   UNL A   1      41.763  21.705  27.090  1.00  0.00    -0.376 OA
BRANCH  27  28
ATOM     28  C   UNL A   1      42.678  21.200  26.141  1.00  0.00     0.202 C 
BRANCH  28  29
ATOM     29  C   UNL A   1      43.166  22.071  24.969  1.00  0.00     0.261 C 
BRANCH  29  30
ATOM     30  O   UNL A   1      42.917  23.485  25.037  1.00  0.00    -0.460 OA
BRANCH  30  31
ATOM     31  C   UNL A   1      43.869  24.261  25.599  1.00  0.00     0.338 C 
ATOM     32  O   UNL A   1      45.044  24.334  25.269  1.00  0.00    -0.246 OA
BRANCH  31  33
ATOM     33  C   UNL A   1      43.208  25.188  26.548  1.00  0.00     0.060 A 
ATOM     34  C   UNL A   1      43.557  26.544  26.527  1.00  0.00     0.016 A 
ATOM     35  C   UNL A   1      42.248  24.728  27.455  1.00  0.00     0.016 A 
ATOM     36  C   UNL A   1      42.960  27.438  27.423  1.00  0.00     0.010 A 
ATOM     37  C   UNL A   1      41.661  25.623  28.360  1.00  0.00     0.010 A 
ATOM     38  C   UNL A   1      42.021  26.982  28.359  1.00  0.00    -0.014 A 
BRANCH  38  39
ATOM     39  C   UNL A   1      41.562  27.881  29.453  1.00  0.00     0.031 A 
ATOM     40  C   UNL A   1      42.293  27.833  30.767  1.00  0.00     0.074 A 
ATOM     41  C   UNL A   1      40.520  28.721  29.299  1.00  0.00     0.049 A 
ATOM     42  N   UNL A   1      42.048  28.473  31.880  1.00  0.00    -0.248 NA
ATOM     43  C   UNL A   1      43.453  26.927  30.833  1.00  0.00     0.031 C 
ATOM     44  C   UNL A   1      39.745  28.889  28.074  1.00  0.00     0.029 A 
ATOM     45  N   UNL A   1      39.935  29.594  30.187  1.00  0.00    -0.354 N 
ATOM     46  C   UNL A   1      43.017  28.046  32.780  1.00  0.00     0.074 A 
ATOM     47  C   UNL A   1      43.838  27.075  32.091  1.00  0.00     0.031 C 
ATOM     48  C   UNL A   1      38.793  29.816  28.284  1.00  0.00     0.029 A 
ATOM     49  C   UNL A   1      38.852  30.269  29.674  1.00  0.00     0.049 A 
ATOM     50  H   UNL A   1      40.262  29.722  31.108  1.00  0.00     0.167 HD
ATOM     51  C   UNL A   1      43.205  28.421  34.068  1.00  0.00     0.031 A 
ATOM     52  C   UNL A   1      37.996  31.133  30.265  1.00  0.00     0.031 A 
ATOM     53  C   UNL A   1      42.371  29.359  34.770  1.00  0.00     0.049 A 
ATOM     54  C   UNL A   1      38.189  31.475  31.726  1.00  0.00     0.074 A 
ATOM     55  C   UNL A   1      42.467  29.779  36.085  1.00  0.00     0.029 A 
ATOM     56  N   UNL A   1      41.286  30.019  34.216  1.00  0.00    -0.354 N 
ATOM     57  N   UNL A   1      39.119  31.075  32.560  1.00  0.00    -0.248 NA
ATOM     58  C   UNL A   1      37.207  32.391  32.330  1.00  0.00     0.031 C 
ATOM     59  C   UNL A   1      41.395  30.638  36.348  1.00  0.00     0.029 A 
ATOM     60  C   UNL A   1      40.676  30.810  35.175  1.00  0.00     0.049 A 
ATOM     61  H   UNL A   1      40.992  29.937  33.280  1.00  0.00     0.167 HD
ATOM     62  C   UNL A   1      38.863  31.726  33.762  1.00  0.00     0.074 A 
ATOM     63  C   UNL A   1      37.700  32.559  33.548  1.00  0.00     0.031 C 
ATOM     64  C   UNL A   1      39.521  31.638  34.944  1.00  0.00     0.031 A 
BRANCH  51  65
ATOM     65  C   UNL A   1      44.326  27.759  34.819  1.00  0.00    -0.014 A 
ATOM     66  C   UNL A   1      44.132  26.559  35.522  1.00  0.00     0.009 A 
ATOM     67  C   UNL A   1      45.605  28.341  34.809  1.00  0.00     0.009 A 
ATOM     68  C   UNL A   1      45.186  25.979  36.231  1.00  0.00     0.001 A 
ATOM     69  C   UNL A   1      46.663  27.740  35.490  1.00  0.00     0.001 A 
ATOM     70  C   UNL A   1      46.450  26.565  36.210  1.00  0.00     0.000 A 
ENDBRANCH  51  65
BRANCH  52  71
ATOM     71  C   UNL A   1      36.864  31.737  29.495  1.00  0.00    -0.014 A 
ATOM     72  C   UNL A   1      35.665  31.032  29.301  1.00  0.00     0.009 A 
ATOM     73  C   UNL A   1      36.984  33.006  28.910  1.00  0.00     0.009 A 
ATOM     74  C   UNL A   1      34.615  31.577  28.554  1.00  0.00     0.001 A 
ATOM     75  C   UNL A   1      35.924  33.564  28.185  1.00  0.00     0.001 A 
ATOM     76  C   UNL A   1      34.742  32.848  28.006  1.00  0.00     0.000 A 
ENDBRANCH  52  71
BRANCH  64  77
ATOM     77  C   UNL A   1      39.023  32.482  36.088  1.00  0.00    -0.014 A 
ATOM     78  C   UNL A   1      38.111  31.978  37.029  1.00  0.00     0.009 A 
ATOM     79  C   UNL A   1      39.513  33.787  36.255  1.00  0.00     0.009 A 
ATOM     80  C   UNL A   1      37.673  32.775  38.089  1.00  0.00     0.001 A 
ATOM     81  C   UNL A   1      39.100  34.570  37.335  1.00  0.00     0.001 A 
ATOM     82  C   UNL A   1      38.172  34.067  38.245  1.00  0.00     0.000 A 
ENDBRANCH  64  77
ENDBRANCH  38  39
ENDBRANCH  31  33
ENDBRANCH  30  31
ENDBRANCH  29  30
ENDBRANCH  28  29
ENDBRANCH  27  28
ENDBRANCH  26  27
ENDBRANCH   1  26
TORSDOF 20
ENDMDL
MODEL 3
REMARK VINA RESULT:      -8.1      4.586      7.857
REMARK SMILES C[C@@H](C(=O)OCCOCCOCCOC(=O)c1ccc(-c2c3nc(c(-c4ccccc4)c4ccc([nH]4)c(-c4ccccc4)c4nc(c(-c5ccccc5)c5ccc2[nH]5)C=C4)C=C3)cc1)c1ccc(-c2ccn(C(F)F)c(=O)c2)cc1
REMARK SMILES IDX 9 1 8 2 7 3 6 4 5 5 3 6 4 7 2 8 1 9 65 10 66 11 80 12 67 13
REMARK SMILES IDX 79 14 68 15 69 16 70 17 78 18 71 19 76 20 72 21 77 22 73 23
REMARK SMILES IDX 74 24 75 25 10 26 11 27 12 28 13 29 14 30 15 31 16 32 17 33
REMARK SMILES IDX 18 34 64 35 19 36 63 37 20 38 21 39 22 40 57 41 23 42 62 43
REMARK SMILES IDX 56 44 58 45 24 46 61 47 55 48 54 49 25 51 47 52 32 53 46 54
REMARK SMILES IDX 33 55 36 56 45 57 59 58 34 59 35 60 44 62 60 63 37 64 26 65
REMARK SMILES IDX 27 66 31 67 28 68 30 69 29 70 48 71 49 72 53 73 50 74 52 75
REMARK SMILES IDX 51 76 38 77 39 78 43 79 40 80 42 81 41 82
REMARK H PARENT 58 50 36 61
REMARK Flexibility Score: inf
ROOT
ATOM      1  C   UNL A   1      32.102  25.265  26.171  1.00  0.00     0.188 C 
ENDROOT
BRANCH   1   2
ATOM      2  O   UNL A   1      31.310  24.601  27.145  1.00  0.00    -0.376 OA
BRANCH   2   3
ATOM      3  C   UNL A   1      31.041  23.213  26.964  1.00  0.00     0.202 C 
BRANCH   3   4
ATOM      4  C   UNL A   1      30.940  22.634  25.539  1.00  0.00     0.261 C 
BRANCH   4   5
ATOM      5  O   UNL A   1      31.530  21.329  25.337  1.00  0.00    -0.463 OA
BRANCH   5   6
ATOM      6  C   UNL A   1      32.380  21.205  24.279  1.00  0.00     0.313 C 
ATOM      7  O   UNL A   1      32.558  20.151  23.674  1.00  0.00    -0.252 OA
BRANCH   6   8
ATOM      8  C   UNL A   1      33.113  22.502  23.883  1.00  0.00     0.126 C 
ATOM      9  C   UNL A   1      33.106  22.938  22.414  1.00  0.00     0.025 C 
BRANCH   8  10
ATOM     10  C   UNL A   1      34.522  22.529  24.475  1.00  0.00    -0.034 A 
ATOM     11  C   UNL A   1      34.747  22.773  25.837  1.00  0.00     0.005 A 
ATOM     12  C   UNL A   1      35.636  22.373  23.642  1.00  0.00     0.005 A 
ATOM     13  C   UNL A   1      36.040  22.912  26.343  1.00  0.00     0.009 A 
ATOM     14  C   UNL A   1      36.933  22.473  24.157  1.00  0.00     0.009 A 
ATOM     15  C   UNL A   1      37.146  22.751  25.512  1.00  0.00    -0.018 A 
BRANCH  15  16
ATOM     16  C   UNL A   1      38.516  22.839  26.050  1.00  0.00    -0.011 A 
ATOM     17  C   UNL A   1      39.456  21.738  25.996  1.00  0.00     0.027 A 
ATOM     18  C   UNL A   1      38.882  23.977  26.668  1.00  0.00     0.080 A 
ATOM     19  C   UNL A   1      40.625  21.814  26.638  1.00  0.00     0.095 A 
ATOM     20  C   UNL A   1      40.198  24.093  27.353  1.00  0.00     0.255 A 
ATOM     21  N   UNL A   1      40.987  22.955  27.331  1.00  0.00    -0.258 N 
ATOM     22  O   UNL A   1      40.466  25.142  27.927  1.00  0.00    -0.269 OA
BRANCH  21  23
ATOM     23  C   UNL A   1      42.207  23.002  28.089  1.00  0.00     0.451 C 
ATOM     24  F   UNL A   1      41.978  22.880  29.417  1.00  0.00    -0.185 F 
ATOM     25  F   UNL A   1      43.056  22.017  27.711  1.00  0.00    -0.185 F 
ENDBRANCH  21  23
ENDBRANCH  15  16
ENDBRANCH   8  10
ENDBRANCH   6   8
ENDBRANCH   5   6
ENDBRANCH   4   5
ENDBRANCH   3   4
ENDBRANCH   2   3
ENDBRANCH   1   2
BRANCH   1  26
ATOM     26  C   UNL A   1      31.418  26.264  25.216  1.00  0.00     0.188 C 
BRANCH  26  27
ATOM     27  O   UNL A   1      32.060  27.512  25.143  1.00  0.00    -0.376 OA
BRANCH  27  28
ATOM     28  C   UNL A   1      31.271  28.683  25.107  1.00  0.00     0.202 C 
BRANCH  28  29
ATOM     29  C   UNL A   1      31.780  30.001  25.718  1.00  0.00     0.261 C 
BRANCH  29  30
ATOM     30  O   UNL A   1      33.089  30.002  26.311  1.00  0.00    -0.460 OA
BRANCH  30  31
ATOM     31  C   UNL A   1      33.422  31.053  27.091  1.00  0.00     0.338 C 
ATOM     32  O   UNL A   1      32.679  31.946  27.474  1.00  0.00    -0.246 OA
BRANCH  31  33
ATOM     33  C   UNL A   1      34.797  30.833  27.600  1.00  0.00     0.060 A 
ATOM     34  C   UNL A   1      35.227  29.523  27.846  1.00  0.00     0.016 A 
ATOM     35  C   UNL A   1      35.660  31.908  27.834  1.00  0.00     0.016 A 
ATOM     36  C   UNL A   1      36.514  29.287  28.342  1.00  0.00     0.010 A 
ATOM     37  C   UNL A   1      36.944  31.670  28.343  1.00  0.00     0.010 A 
ATOM     38  C   UNL A   1      37.377  30.359  28.612  1.00  0.00    -0.014 A 
BRANCH  38  39
ATOM     39  C   UNL A   1      38.649  30.125  29.349  1.00  0.00     0.031 A 
ATOM     40  C   UNL A   1      38.752  30.621  30.765  1.00  0.00     0.074 A 
ATOM     41  C   UNL A   1      39.696  29.493  28.785  1.00  0.00     0.049 A 
ATOM     42  N   UNL A   1      39.767  30.588  31.588  1.00  0.00    -0.248 NA
ATOM     43  C   UNL A   1      37.543  31.253  31.322  1.00  0.00     0.031 C 
ATOM     44  C   UNL A   1      39.720  28.937  27.436  1.00  0.00     0.029 A 
ATOM     45  N   UNL A   1      40.948  29.213  29.285  1.00  0.00    -0.354 N 
ATOM     46  C   UNL A   1      39.325  31.196  32.756  1.00  0.00     0.074 A 
ATOM     47  C   UNL A   1      37.958  31.611  32.527  1.00  0.00     0.031 C 
ATOM     48  C   UNL A   1      40.923  28.373  27.218  1.00  0.00     0.029 A 
ATOM     49  C   UNL A   1      41.775  28.574  28.390  1.00  0.00     0.049 A 
ATOM     50  H   UNL A   1      41.225  29.448  30.200  1.00  0.00     0.167 HD
ATOM     51  C   UNL A   1      39.997  31.400  33.915  1.00  0.00     0.031 A 
ATOM     52  C   UNL A   1      43.075  28.217  28.498  1.00  0.00     0.031 A 
ATOM     53  C   UNL A   1      41.366  31.022  34.137  1.00  0.00     0.049 A 
ATOM     54  C   UNL A   1      43.818  28.526  29.779  1.00  0.00     0.074 A 
ATOM     55  C   UNL A   1      42.140  31.214  35.268  1.00  0.00     0.029 A 
ATOM     56  N   UNL A   1      42.169  30.380  33.207  1.00  0.00    -0.354 N 
ATOM     57  N   UNL A   1      43.382  29.087  30.880  1.00  0.00    -0.248 NA
ATOM     58  C   UNL A   1      45.240  28.149  29.829  1.00  0.00     0.031 C 
ATOM     59  C   UNL A   1      43.432  30.753  34.997  1.00  0.00     0.029 A 
ATOM     60  C   UNL A   1      43.442  30.208  33.723  1.00  0.00     0.049 A 
ATOM     61  H   UNL A   1      41.877  30.091  32.312  1.00  0.00     0.167 HD
ATOM     62  C   UNL A   1      44.456  29.085  31.764  1.00  0.00     0.074 A 
ATOM     63  C   UNL A   1      45.562  28.453  31.078  1.00  0.00     0.031 C 
ATOM     64  C   UNL A   1      44.530  29.571  33.028  1.00  0.00     0.031 A 
BRANCH  51  65
ATOM     65  C   UNL A   1      39.267  32.124  35.012  1.00  0.00    -0.014 A 
ATOM     66  C   UNL A   1      39.250  33.527  35.081  1.00  0.00     0.009 A 
ATOM     67  C   UNL A   1      38.572  31.388  35.985  1.00  0.00     0.009 A 
ATOM     68  C   UNL A   1      38.585  34.173  36.125  1.00  0.00     0.001 A 
ATOM     69  C   UNL A   1      37.881  32.037  37.007  1.00  0.00     0.001 A 
ATOM     70  C   UNL A   1      37.897  33.429  37.083  1.00  0.00     0.000 A 
ENDBRANCH  51  65
BRANCH  52  71
ATOM     71  C   UNL A   1      43.778  27.538  27.365  1.00  0.00    -0.014 A 
ATOM     72  C   UNL A   1      43.830  26.137  27.283  1.00  0.00     0.009 A 
ATOM     73  C   UNL A   1      44.440  28.280  26.376  1.00  0.00     0.009 A 
ATOM     74  C   UNL A   1      44.513  25.495  26.245  1.00  0.00     0.001 A 
ATOM     75  C   UNL A   1      45.101  27.640  25.322  1.00  0.00     0.001 A 
ATOM     76  C   UNL A   1      45.140  26.249  25.259  1.00  0.00     0.000 A 
ENDBRANCH  52  71
BRANCH  64  77
ATOM     77  C   UNL A   1      45.835  29.414  33.763  1.00  0.00    -0.014 A 
ATOM     78  C   UNL A   1      46.851  30.379  33.670  1.00  0.00     0.009 A 
ATOM     79  C   UNL A   1      46.032  28.306  34.604  1.00  0.00     0.009 A 
ATOM     80  C   UNL A   1      48.048  30.218  34.371  1.00  0.00     0.001 A 
ATOM     81  C   UNL A   1      47.216  28.165  35.331  1.00  0.00     0.001 A 
ATOM     82  C   UNL A   1      48.227  29.116  35.205  1.00  0.00     0.000 A 
ENDBRANCH  64  77
ENDBRANCH  38  39
ENDBRANCH  31  33
ENDBRANCH  30  31
ENDBRANCH  29  30
ENDBRANCH  28  29
ENDBRANCH  27  28
ENDBRANCH  26  27
ENDBRANCH   1  26
TORSDOF 20
ENDMDL
