MODEL 1
REMARK VINA RESULT:      -7.3      0.000      0.000
REMARK SMILES CC[C@@H](C)[NH2+][C@H](CN=[N+]=[N-])C(=O)OCCOCCOCCOC(=O)c1ccc(-c2c3nc(c(-c4ccccc4)c4ccc([nH]4)c(-c4ccccc4)c4nc(c(-c5ccccc5)c5ccc2[nH]5)C=C4)C=C3)cc1
REMARK SMILES IDX 17 1 16 2 15 3 14 4 13 5 11 6 12 7 6 8 5 9 3 12 4 13 2 14
REMARK SMILES IDX 1 15 7 16 8 17 9 18 10 19 18 20 19 21 20 22 21 23 22 24
REMARK SMILES IDX 23 25 24 26 25 27 26 28 72 29 27 30 71 31 28 32 29 33 30 34
REMARK SMILES IDX 65 35 31 36 70 37 64 38 66 39 32 40 69 41 63 42 62 43 33 45
REMARK SMILES IDX 55 46 40 47 54 48 41 49 44 50 53 51 67 52 42 53 43 54 52 56
REMARK SMILES IDX 68 57 45 58 34 59 35 60 39 61 36 62 38 63 37 64 56 65 57 66
REMARK SMILES IDX 61 67 58 68 60 69 59 70 46 71 47 72 51 73 48 74 50 75 49 76
REMARK H PARENT 5 10 5 11 66 44 44 55
REMARK Flexibility Score: inf
ROOT
ATOM      1  C   UNL A   1      34.445  35.485  33.397  1.00  0.00     0.188 C 
ENDROOT
BRANCH   1   2
ATOM      2  O   UNL A   1      35.696  35.142  33.984  1.00  0.00    -0.376 OA
BRANCH   2   3
ATOM      3  C   UNL A   1      35.767  33.973  34.790  1.00  0.00     0.202 C 
BRANCH   3   4
ATOM      4  C   UNL A   1      36.885  32.967  34.489  1.00  0.00     0.261 C 
BRANCH   4   5
ATOM      5  O   UNL A   1      37.983  32.900  35.430  1.00  0.00    -0.459 OA
BRANCH   5   6
ATOM      6  C   UNL A   1      38.333  31.686  35.948  1.00  0.00     0.365 C 
ATOM      7  O   UNL A   1      38.165  31.389  37.128  1.00  0.00    -0.245 OA
BRANCH   6   8
ATOM      8  C   UNL A   1      39.058  30.733  34.948  1.00  0.00     0.299 C 
BRANCH   8   9
ATOM      9  N   UNL A   1      40.524  30.977  34.850  1.00  0.00    -0.332 N 
ATOM     10  H   UNL A   1      40.885  30.374  34.111  1.00  0.00     0.347 HD
ATOM     11  H   UNL A   1      40.609  31.978  34.676  1.00  0.00     0.347 HD
BRANCH   9  12
ATOM     12  C   UNL A   1      41.332  30.738  36.044  1.00  0.00     0.179 C 
ATOM     13  C   UNL A   1      41.832  32.020  36.707  1.00  0.00     0.075 C 
BRANCH  12  14
ATOM     14  C   UNL A   1      42.476  29.803  35.622  1.00  0.00     0.061 C 
ATOM     15  C   UNL A   1      42.184  29.105  34.303  1.00  0.00     0.010 C 
ENDBRANCH  12  14
ENDBRANCH   9  12
ENDBRANCH   8   9
BRANCH   8  16
ATOM     16  C   UNL A   1      38.446  30.175  33.633  1.00  0.00     0.168 C 
BRANCH  16  17
ATOM     17  N   UNL A   1      39.241  29.218  32.865  1.00  0.00    -0.087 NA
ATOM     18  N   UNL A   1      38.679  28.116  32.657  1.00  0.00     0.001 N 
ATOM     19  N   UNL A   1      38.154  27.136  32.436  1.00  0.00    -0.003 NA
ENDBRANCH  16  17
ENDBRANCH   8  16
ENDBRANCH   6   8
ENDBRANCH   5   6
ENDBRANCH   4   5
ENDBRANCH   3   4
ENDBRANCH   2   3
ENDBRANCH   1   2
BRANCH   1  20
ATOM     20  C   UNL A   1      33.937  36.926  33.564  1.00  0.00     0.188 C 
BRANCH  20  21
ATOM     21  O   UNL A   1      32.784  37.207  32.807  1.00  0.00    -0.376 OA
BRANCH  21  22
ATOM     22  C   UNL A   1      32.346  36.222  31.902  1.00  0.00     0.202 C 
BRANCH  22  23
ATOM     23  C   UNL A   1      32.479  36.507  30.398  1.00  0.00     0.261 C 
BRANCH  23  24
ATOM     24  O   UNL A   1      33.584  35.905  29.695  1.00  0.00    -0.460 OA
BRANCH  24  25
ATOM     25  C   UNL A   1      33.369  34.725  29.067  1.00  0.00     0.338 C 
ATOM     26  O   UNL A   1      32.431  34.447  28.342  1.00  0.00    -0.246 OA
BRANCH  25  27
ATOM     27  C   UNL A   1      34.575  33.874  29.228  1.00  0.00     0.060 A 
ATOM     28  C   UNL A   1      34.678  33.040  30.351  1.00  0.00     0.016 A 
ATOM     29  C   UNL A   1      35.619  33.922  28.308  1.00  0.00     0.016 A 
ATOM     30  C   UNL A   1      35.832  32.294  30.588  1.00  0.00     0.010 A 
ATOM     31  C   UNL A   1      36.784  33.180  28.549  1.00  0.00     0.010 A 
ATOM     32  C   UNL A   1      36.913  32.390  29.708  1.00  0.00    -0.014 A 
BRANCH  32  33
ATOM     33  C   UNL A   1      38.231  31.803  30.073  1.00  0.00     0.031 A 
ATOM     34  C   UNL A   1      39.142  32.585  30.982  1.00  0.00     0.074 A 
ATOM     35  C   UNL A   1      38.613  30.592  29.628  1.00  0.00     0.049 A 
ATOM     36  N   UNL A   1      40.386  32.353  31.317  1.00  0.00    -0.248 NA
ATOM     37  C   UNL A   1      38.570  33.797  31.593  1.00  0.00     0.031 C 
ATOM     38  C   UNL A   1      37.800  29.691  28.813  1.00  0.00     0.029 A 
ATOM     39  N   UNL A   1      39.799  29.918  29.792  1.00  0.00    -0.354 N 
ATOM     40  C   UNL A   1      40.755  33.407  32.145  1.00  0.00     0.074 A 
ATOM     41  C   UNL A   1      39.613  34.287  32.247  1.00  0.00     0.031 C 
ATOM     42  C   UNL A   1      38.516  28.587  28.536  1.00  0.00     0.029 A 
ATOM     43  C   UNL A   1      39.856  28.730  29.101  1.00  0.00     0.049 A 
ATOM     44  H   UNL A   1      40.537  30.253  30.350  1.00  0.00     0.167 HD
ATOM     45  C   UNL A   1      41.941  33.621  32.765  1.00  0.00     0.031 A 
ATOM     46  C   UNL A   1      40.882  27.879  28.910  1.00  0.00     0.031 A 
ATOM     47  C   UNL A   1      43.076  32.743  32.661  1.00  0.00     0.049 A 
ATOM     48  C   UNL A   1      42.222  28.188  29.527  1.00  0.00     0.074 A 
ATOM     49  C   UNL A   1      44.323  32.872  33.249  1.00  0.00     0.029 A 
ATOM     50  N   UNL A   1      43.103  31.573  31.918  1.00  0.00    -0.354 N 
ATOM     51  N   UNL A   1      42.570  29.196  30.292  1.00  0.00    -0.248 NA
ATOM     52  C   UNL A   1      43.312  27.240  29.253  1.00  0.00     0.031 C 
ATOM     53  C   UNL A   1      45.124  31.814  32.808  1.00  0.00     0.029 A 
ATOM     54  C   UNL A   1      44.354  30.985  32.010  1.00  0.00     0.049 A 
ATOM     55  H   UNL A   1      42.346  31.214  31.402  1.00  0.00     0.167 HD
ATOM     56  C   UNL A   1      43.905  28.985  30.615  1.00  0.00     0.074 A 
ATOM     57  C   UNL A   1      44.299  27.746  29.978  1.00  0.00     0.031 C 
ATOM     58  C   UNL A   1      44.732  29.749  31.373  1.00  0.00     0.031 A 
BRANCH  45  59
ATOM     59  C   UNL A   1      42.084  34.885  33.571  1.00  0.00    -0.014 A 
ATOM     60  C   UNL A   1      41.499  35.020  34.839  1.00  0.00     0.009 A 
ATOM     61  C   UNL A   1      42.844  35.948  33.059  1.00  0.00     0.009 A 
ATOM     62  C   UNL A   1      41.638  36.210  35.560  1.00  0.00     0.001 A 
ATOM     63  C   UNL A   1      43.012  37.123  33.796  1.00  0.00     0.001 A 
ATOM     64  C   UNL A   1      42.400  37.256  35.041  1.00  0.00     0.000 A 
ENDBRANCH  45  59
BRANCH  46  65
ATOM     65  C   UNL A   1      40.706  26.674  28.054  1.00  0.00    -0.014 A 
ATOM     66  C   UNL A   1      41.019  26.709  26.686  1.00  0.00     0.009 A 
ATOM     67  C   UNL A   1      40.196  25.484  28.597  1.00  0.00     0.009 A 
ATOM     68  C   UNL A   1      40.800  25.590  25.879  1.00  0.00     0.001 A 
ATOM     69  C   UNL A   1      40.012  24.355  27.795  1.00  0.00     0.001 A 
ATOM     70  C   UNL A   1      40.304  24.412  26.434  1.00  0.00     0.000 A 
ENDBRANCH  46  65
BRANCH  58  71
ATOM     71  C   UNL A   1      46.130  29.241  31.600  1.00  0.00    -0.014 A 
ATOM     72  C   UNL A   1      47.194  29.608  30.762  1.00  0.00     0.009 A 
ATOM     73  C   UNL A   1      46.392  28.411  32.703  1.00  0.00     0.009 A 
ATOM     74  C   UNL A   1      48.481  29.124  31.001  1.00  0.00     0.001 A 
ATOM     75  C   UNL A   1      47.686  27.957  32.960  1.00  0.00     0.001 A 
ATOM     76  C   UNL A   1      48.727  28.304  32.103  1.00  0.00     0.000 A 
ENDBRANCH  58  71
ENDBRANCH  32  33
ENDBRANCH  25  27
ENDBRANCH  24  25
ENDBRANCH  23  24
ENDBRANCH  22  23
ENDBRANCH  21  22
ENDBRANCH  20  21
ENDBRANCH   1  20
TORSDOF 22
ENDMDL
MODEL 2
REMARK VINA RESULT:      -7.0      5.523     10.007
REMARK SMILES CC[C@@H](C)[NH2+][C@H](CN=[N+]=[N-])C(=O)OCCOCCOCCOC(=O)c1ccc(-c2c3nc(c(-c4ccccc4)c4ccc([nH]4)c(-c4ccccc4)c4nc(c(-c5ccccc5)c5ccc2[nH]5)C=C4)C=C3)cc1
REMARK SMILES IDX 17 1 16 2 15 3 14 4 13 5 11 6 12 7 6 8 5 9 3 12 4 13 2 14
REMARK SMILES IDX 1 15 7 16 8 17 9 18 10 19 18 20 19 21 20 22 21 23 22 24
REMARK SMILES IDX 23 25 24 26 25 27 26 28 72 29 27 30 71 31 28 32 29 33 30 34
REMARK SMILES IDX 65 35 31 36 70 37 64 38 66 39 32 40 69 41 63 42 62 43 33 45
REMARK SMILES IDX 55 46 40 47 54 48 41 49 44 50 53 51 67 52 42 53 43 54 52 56
REMARK SMILES IDX 68 57 45 58 34 59 35 60 39 61 36 62 38 63 37 64 56 65 57 66
REMARK SMILES IDX 61 67 58 68 60 69 59 70 46 71 47 72 51 73 48 74 50 75 49 76
REMARK H PARENT 5 10 5 11 66 44 44 55
REMARK Flexibility Score: inf
ROOT
ATOM      1  C   UNL A   1      33.339  26.069  25.071  1.00  0.00     0.188 C 
ENDROOT
BRANCH   1   2
ATOM      2  O   UNL A   1      33.980  25.124  25.921  1.00  0.00    -0.376 OA
BRANCH   2   3
ATOM      3  C   UNL A   1      34.939  24.244  25.352  1.00  0.00     0.202 C 
BRANCH   3   4
ATOM      4  C   UNL A   1      35.628  23.240  26.286  1.00  0.00     0.261 C 
BRANCH   4   5
ATOM      5  O   UNL A   1      35.038  21.923  26.389  1.00  0.00    -0.459 OA
BRANCH   5   6
ATOM      6  C   UNL A   1      35.129  21.076  25.322  1.00  0.00     0.365 C 
ATOM      7  O   UNL A   1      36.164  20.919  24.679  1.00  0.00    -0.245 OA
BRANCH   6   8
ATOM      8  C   UNL A   1      33.788  20.391  24.915  1.00  0.00     0.299 C 
BRANCH   8   9
ATOM      9  N   UNL A   1      32.579  21.159  25.324  1.00  0.00    -0.332 N 
ATOM     10  H   UNL A   1      31.776  20.536  25.232  1.00  0.00     0.347 HD
ATOM     11  H   UNL A   1      32.780  21.473  26.273  1.00  0.00     0.347 HD
BRANCH   9  12
ATOM     12  C   UNL A   1      32.271  22.382  24.585  1.00  0.00     0.179 C 
ATOM     13  C   UNL A   1      31.007  23.087  25.074  1.00  0.00     0.075 C 
BRANCH  12  14
ATOM     14  C   UNL A   1      32.195  21.991  23.100  1.00  0.00     0.061 C 
ATOM     15  C   UNL A   1      32.982  22.950  22.219  1.00  0.00     0.010 C 
ENDBRANCH  12  14
ENDBRANCH   9  12
ENDBRANCH   8   9
BRANCH   8  16
ATOM     16  C   UNL A   1      33.542  18.857  24.857  1.00  0.00     0.168 C 
BRANCH  16  17
ATOM     17  N   UNL A   1      32.273  18.392  24.298  1.00  0.00    -0.087 NA
ATOM     18  N   UNL A   1      32.305  18.129  23.072  1.00  0.00     0.001 N 
ATOM     19  N   UNL A   1      32.346  17.853  21.973  1.00  0.00    -0.003 NA
ENDBRANCH  16  17
ENDBRANCH   8  16
ENDBRANCH   6   8
ENDBRANCH   5   6
ENDBRANCH   4   5
ENDBRANCH   3   4
ENDBRANCH   2   3
ENDBRANCH   1   2
BRANCH   1  20
ATOM     20  C   UNL A   1      32.181  26.898  25.651  1.00  0.00     0.188 C 
BRANCH  20  21
ATOM     21  O   UNL A   1      32.491  27.513  26.878  1.00  0.00    -0.376 OA
BRANCH  21  22
ATOM     22  C   UNL A   1      31.640  28.541  27.323  1.00  0.00     0.202 C 
BRANCH  22  23
ATOM     23  C   UNL A   1      31.759  29.922  26.658  1.00  0.00     0.261 C 
BRANCH  23  24
ATOM     24  O   UNL A   1      33.082  30.435  26.406  1.00  0.00    -0.460 OA
BRANCH  24  25
ATOM     25  C   UNL A   1      33.526  31.452  27.182  1.00  0.00     0.338 C 
ATOM     26  O   UNL A   1      32.885  32.422  27.546  1.00  0.00    -0.246 OA
BRANCH  25  27
ATOM     27  C   UNL A   1      34.871  31.101  27.704  1.00  0.00     0.060 A 
ATOM     28  C   UNL A   1      35.169  29.759  27.975  1.00  0.00     0.016 A 
ATOM     29  C   UNL A   1      35.820  32.086  27.967  1.00  0.00     0.016 A 
ATOM     30  C   UNL A   1      36.387  29.396  28.553  1.00  0.00     0.010 A 
ATOM     31  C   UNL A   1      37.041  31.725  28.556  1.00  0.00     0.010 A 
ATOM     32  C   UNL A   1      37.318  30.383  28.886  1.00  0.00    -0.014 A 
BRANCH  32  33
ATOM     33  C   UNL A   1      38.502  30.046  29.721  1.00  0.00     0.031 A 
ATOM     34  C   UNL A   1      39.588  29.192  29.121  1.00  0.00     0.074 A 
ATOM     35  C   UNL A   1      38.631  30.499  30.981  1.00  0.00     0.049 A 
ATOM     36  N   UNL A   1      40.632  28.647  29.693  1.00  0.00    -0.248 NA
ATOM     37  C   UNL A   1      39.477  28.912  27.679  1.00  0.00     0.031 C 
ATOM     38  C   UNL A   1      37.701  31.401  31.658  1.00  0.00     0.029 A 
ATOM     39  N   UNL A   1      39.598  30.245  31.923  1.00  0.00    -0.354 N 
ATOM     40  C   UNL A   1      41.279  27.932  28.691  1.00  0.00     0.074 A 
ATOM     41  C   UNL A   1      40.501  28.096  27.483  1.00  0.00     0.031 C 
ATOM     42  C   UNL A   1      38.135  31.614  32.913  1.00  0.00     0.029 A 
ATOM     43  C   UNL A   1      39.338  30.818  33.145  1.00  0.00     0.049 A 
ATOM     44  H   UNL A   1      40.401  29.705  31.740  1.00  0.00     0.167 HD
ATOM     45  C   UNL A   1      42.418  27.203  28.771  1.00  0.00     0.031 A 
ATOM     46  C   UNL A   1      39.971  30.681  34.327  1.00  0.00     0.031 A 
ATOM     47  C   UNL A   1      43.188  27.041  29.975  1.00  0.00     0.049 A 
ATOM     48  C   UNL A   1      41.180  29.786  34.417  1.00  0.00     0.074 A 
ATOM     49  C   UNL A   1      44.357  26.323  30.161  1.00  0.00     0.029 A 
ATOM     50  N   UNL A   1      42.867  27.605  31.200  1.00  0.00    -0.354 N 
ATOM     51  N   UNL A   1      41.774  29.097  33.471  1.00  0.00    -0.248 NA
ATOM     52  C   UNL A   1      41.806  29.650  35.741  1.00  0.00     0.031 C 
ATOM     53  C   UNL A   1      44.705  26.398  31.513  1.00  0.00     0.029 A 
ATOM     54  C   UNL A   1      43.798  27.228  32.153  1.00  0.00     0.049 A 
ATOM     55  H   UNL A   1      42.091  28.188  31.368  1.00  0.00     0.167 HD
ATOM     56  C   UNL A   1      42.858  28.475  34.078  1.00  0.00     0.074 A 
ATOM     57  C   UNL A   1      42.850  28.881  35.468  1.00  0.00     0.031 C 
ATOM     58  C   UNL A   1      43.780  27.641  33.532  1.00  0.00     0.031 A 
BRANCH  45  59
ATOM     59  C   UNL A   1      42.870  26.484  27.529  1.00  0.00    -0.014 A 
ATOM     60  C   UNL A   1      42.432  25.184  27.228  1.00  0.00     0.009 A 
ATOM     61  C   UNL A   1      43.729  27.133  26.627  1.00  0.00     0.009 A 
ATOM     62  C   UNL A   1      42.877  24.536  26.073  1.00  0.00     0.001 A 
ATOM     63  C   UNL A   1      44.145  26.496  25.456  1.00  0.00     0.001 A 
ATOM     64  C   UNL A   1      43.728  25.195  25.186  1.00  0.00     0.000 A 
ENDBRANCH  45  59
BRANCH  46  65
ATOM     65  C   UNL A   1      39.448  31.367  35.540  1.00  0.00    -0.014 A 
ATOM     66  C   UNL A   1      38.347  30.852  36.241  1.00  0.00     0.009 A 
ATOM     67  C   UNL A   1      40.033  32.562  35.991  1.00  0.00     0.009 A 
ATOM     68  C   UNL A   1      37.829  31.530  37.348  1.00  0.00     0.001 A 
ATOM     69  C   UNL A   1      39.536  33.218  37.119  1.00  0.00     0.001 A 
ATOM     70  C   UNL A   1      38.427  32.708  37.790  1.00  0.00     0.000 A 
ENDBRANCH  46  65
BRANCH  58  71
ATOM     71  C   UNL A   1      44.888  27.154  34.427  1.00  0.00    -0.014 A 
ATOM     72  C   UNL A   1      44.762  25.980  35.185  1.00  0.00     0.009 A 
ATOM     73  C   UNL A   1      46.099  27.866  34.476  1.00  0.00     0.009 A 
ATOM     74  C   UNL A   1      45.810  25.551  36.002  1.00  0.00     0.001 A 
ATOM     75  C   UNL A   1      47.157  27.415  35.266  1.00  0.00     0.001 A 
ATOM     76  C   UNL A   1      47.008  26.265  36.037  1.00  0.00     0.000 A 
ENDBRANCH  58  71
ENDBRANCH  32  33
ENDBRANCH  25  27
ENDBRANCH  24  25
ENDBRANCH  23  24
ENDBRANCH  22  23
ENDBRANCH  21  22
ENDBRANCH  20  21
ENDBRANCH   1  20
TORSDOF 22
ENDMDL
MODEL 3
REMARK VINA RESULT:      -6.9      5.887     10.993
REMARK SMILES CC[C@@H](C)[NH2+][C@H](CN=[N+]=[N-])C(=O)OCCOCCOCCOC(=O)c1ccc(-c2c3nc(c(-c4ccccc4)c4ccc([nH]4)c(-c4ccccc4)c4nc(c(-c5ccccc5)c5ccc2[nH]5)C=C4)C=C3)cc1
REMARK SMILES IDX 17 1 16 2 15 3 14 4 13 5 11 6 12 7 6 8 5 9 3 12 4 13 2 14
REMARK SMILES IDX 1 15 7 16 8 17 9 18 10 19 18 20 19 21 20 22 21 23 22 24
REMARK SMILES IDX 23 25 24 26 25 27 26 28 72 29 27 30 71 31 28 32 29 33 30 34
REMARK SMILES IDX 65 35 31 36 70 37 64 38 66 39 32 40 69 41 63 42 62 43 33 45
REMARK SMILES IDX 55 46 40 47 54 48 41 49 44 50 53 51 67 52 42 53 43 54 52 56
REMARK SMILES IDX 68 57 45 58 34 59 35 60 39 61 36 62 38 63 37 64 56 65 57 66
REMARK SMILES IDX 61 67 58 68 60 69 59 70 46 71 47 72 51 73 48 74 50 75 49 76
REMARK H PARENT 5 10 5 11 66 44 44 55
REMARK Flexibility Score: inf
ROOT
ATOM      1  C   UNL A   1      36.405  23.342  24.002  1.00  0.00     0.188 C 
ENDROOT
BRANCH   1   2
ATOM      2  O   UNL A   1      35.284  23.752  23.225  1.00  0.00    -0.376 OA
BRANCH   2   3
ATOM      3  C   UNL A   1      34.307  24.585  23.833  1.00  0.00     0.202 C 
BRANCH   3   4
ATOM      4  C   UNL A   1      34.402  24.805  25.349  1.00  0.00     0.261 C 
BRANCH   4   5
ATOM      5  O   UNL A   1      34.037  26.113  25.848  1.00  0.00    -0.459 OA
BRANCH   5   6
ATOM      6  C   UNL A   1      32.791  26.599  25.570  1.00  0.00     0.365 C 
ATOM      7  O   UNL A   1      31.760  25.983  25.828  1.00  0.00    -0.245 OA
BRANCH   6   8
ATOM      8  C   UNL A   1      32.775  27.959  24.806  1.00  0.00     0.299 C 
BRANCH   8   9
ATOM      9  N   UNL A   1      33.767  28.943  25.322  1.00  0.00    -0.332 N 
ATOM     10  H   UNL A   1      34.695  28.544  25.181  1.00  0.00     0.347 HD
ATOM     11  H   UNL A   1      33.577  29.799  24.802  1.00  0.00     0.347 HD
BRANCH   9  12
ATOM     12  C   UNL A   1      33.666  29.333  26.727  1.00  0.00     0.179 C 
ATOM     13  C   UNL A   1      32.853  30.607  26.949  1.00  0.00     0.075 C 
BRANCH  12  14
ATOM     14  C   UNL A   1      35.105  29.448  27.256  1.00  0.00     0.061 C 
ATOM     15  C   UNL A   1      35.350  30.778  27.954  1.00  0.00     0.010 C 
ENDBRANCH  12  14
ENDBRANCH   9  12
ENDBRANCH   8   9
BRANCH   8  16
ATOM     16  C   UNL A   1      31.514  28.632  24.194  1.00  0.00     0.168 C 
BRANCH  16  17
ATOM     17  N   UNL A   1      31.608  29.131  22.822  1.00  0.00    -0.087 NA
ATOM     18  N   UNL A   1      30.505  29.287  22.244  1.00  0.00     0.001 N 
ATOM     19  N   UNL A   1      29.507  29.465  21.738  1.00  0.00    -0.003 NA
ENDBRANCH  16  17
ENDBRANCH   8  16
ENDBRANCH   6   8
ENDBRANCH   5   6
ENDBRANCH   4   5
ENDBRANCH   3   4
ENDBRANCH   2   3
ENDBRANCH   1   2
BRANCH   1  20
ATOM     20  C   UNL A   1      36.924  21.906  23.824  1.00  0.00     0.188 C 
BRANCH  20  21
ATOM     21  O   UNL A   1      37.584  21.403  24.961  1.00  0.00    -0.376 OA
BRANCH  21  22
ATOM     22  C   UNL A   1      37.775  20.011  25.038  1.00  0.00     0.202 C 
BRANCH  22  23
ATOM     23  C   UNL A   1      39.132  19.491  25.540  1.00  0.00     0.261 C 
BRANCH  23  24
ATOM     24  O   UNL A   1      40.157  20.461  25.834  1.00  0.00    -0.460 OA
BRANCH  24  25
ATOM     25  C   UNL A   1      40.613  20.536  27.106  1.00  0.00     0.338 C 
ATOM     26  O   UNL A   1      40.978  19.607  27.804  1.00  0.00    -0.246 OA
BRANCH  25  27
ATOM     27  C   UNL A   1      40.801  21.965  27.461  1.00  0.00     0.060 A 
ATOM     28  C   UNL A   1      40.058  22.941  26.782  1.00  0.00     0.016 A 
ATOM     29  C   UNL A   1      41.731  22.352  28.423  1.00  0.00     0.016 A 
ATOM     30  C   UNL A   1      40.270  24.300  27.019  1.00  0.00     0.010 A 
ATOM     31  C   UNL A   1      41.952  23.717  28.657  1.00  0.00     0.010 A 
ATOM     32  C   UNL A   1      41.250  24.700  27.931  1.00  0.00    -0.014 A 
BRANCH  32  33
ATOM     33  C   UNL A   1      41.660  26.127  28.013  1.00  0.00     0.031 A 
ATOM     34  C   UNL A   1      42.926  26.555  27.319  1.00  0.00     0.074 A 
ATOM     35  C   UNL A   1      40.920  27.039  28.670  1.00  0.00     0.049 A 
ATOM     36  N   UNL A   1      43.561  27.699  27.371  1.00  0.00    -0.248 NA
ATOM     37  C   UNL A   1      43.565  25.552  26.450  1.00  0.00     0.031 C 
ATOM     38  C   UNL A   1      39.632  26.784  29.313  1.00  0.00     0.029 A 
ATOM     39  N   UNL A   1      41.159  28.370  28.915  1.00  0.00    -0.354 N 
ATOM     40  C   UNL A   1      44.689  27.540  26.575  1.00  0.00     0.074 A 
ATOM     41  C   UNL A   1      44.663  26.187  26.067  1.00  0.00     0.031 C 
ATOM     42  C   UNL A   1      39.202  27.918  29.893  1.00  0.00     0.029 A 
ATOM     43  C   UNL A   1      40.209  28.961  29.713  1.00  0.00     0.049 A 
ATOM     44  H   UNL A   1      41.938  28.853  28.554  1.00  0.00     0.167 HD
ATOM     45  C   UNL A   1      45.661  28.441  26.293  1.00  0.00     0.031 A 
ATOM     46  C   UNL A   1      40.176  30.187  30.271  1.00  0.00     0.031 A 
ATOM     47  C   UNL A   1      45.684  29.787  26.801  1.00  0.00     0.049 A 
ATOM     48  C   UNL A   1      41.317  31.140  30.025  1.00  0.00     0.074 A 
ATOM     49  C   UNL A   1      46.624  30.778  26.575  1.00  0.00     0.029 A 
ATOM     50  N   UNL A   1      44.723  30.332  27.639  1.00  0.00    -0.354 N 
ATOM     51  N   UNL A   1      42.390  30.977  29.288  1.00  0.00    -0.248 NA
ATOM     52  C   UNL A   1      41.241  32.450  30.690  1.00  0.00     0.031 C 
ATOM     53  C   UNL A   1      46.266  31.899  27.329  1.00  0.00     0.029 A 
ATOM     54  C   UNL A   1      45.063  31.635  27.962  1.00  0.00     0.049 A 
ATOM     55  H   UNL A   1      43.919  29.861  27.957  1.00  0.00     0.167 HD
ATOM     56  C   UNL A   1      43.098  32.170  29.375  1.00  0.00     0.074 A 
ATOM     57  C   UNL A   1      42.324  33.054  30.221  1.00  0.00     0.031 C 
ATOM     58  C   UNL A   1      44.282  32.505  28.804  1.00  0.00     0.031 A 
BRANCH  45  59
ATOM     59  C   UNL A   1      46.807  27.980  25.433  1.00  0.00    -0.014 A 
ATOM     60  C   UNL A   1      47.966  27.416  25.989  1.00  0.00     0.009 A 
ATOM     61  C   UNL A   1      46.709  28.086  24.036  1.00  0.00     0.009 A 
ATOM     62  C   UNL A   1      49.019  27.007  25.167  1.00  0.00     0.001 A 
ATOM     63  C   UNL A   1      47.748  27.643  23.214  1.00  0.00     0.001 A 
ATOM     64  C   UNL A   1      48.906  27.115  23.781  1.00  0.00     0.000 A 
ENDBRANCH  45  59
BRANCH  46  65
ATOM     65  C   UNL A   1      39.049  30.573  31.164  1.00  0.00    -0.014 A 
ATOM     66  C   UNL A   1      39.074  30.263  32.532  1.00  0.00     0.009 A 
ATOM     67  C   UNL A   1      37.925  31.235  30.645  1.00  0.00     0.009 A 
ATOM     68  C   UNL A   1      37.989  30.581  33.353  1.00  0.00     0.001 A 
ATOM     69  C   UNL A   1      36.857  31.585  31.474  1.00  0.00     0.001 A 
ATOM     70  C   UNL A   1      36.885  31.248  32.825  1.00  0.00     0.000 A 
ENDBRANCH  46  65
BRANCH  58  71
ATOM     71  C   UNL A   1      44.789  33.903  29.031  1.00  0.00    -0.014 A 
ATOM     72  C   UNL A   1      44.413  34.969  28.199  1.00  0.00     0.009 A 
ATOM     73  C   UNL A   1      45.628  34.164  30.127  1.00  0.00     0.009 A 
ATOM     74  C   UNL A   1      44.896  36.257  28.438  1.00  0.00     0.001 A 
ATOM     75  C   UNL A   1      46.081  35.458  30.384  1.00  0.00     0.001 A 
ATOM     76  C   UNL A   1      45.725  36.501  29.533  1.00  0.00     0.000 A 
ENDBRANCH  58  71
ENDBRANCH  32  33
ENDBRANCH  25  27
ENDBRANCH  24  25
ENDBRANCH  23  24
ENDBRANCH  22  23
ENDBRANCH  21  22
ENDBRANCH  20  21
ENDBRANCH   1  20
TORSDOF 22
ENDMDL
