MODEL 1
REMARK VINA RESULT:     -10.9      0.000      0.000
REMARK SMILES O=C(OCCOCCOCCOC(=O)[C@H](c1c[nH]c2ccc(Cl)cc12)[NH+]1CCN(c2cccc(Cl)c2)CC1)c1ccc(-c2c3nc(c(-c4ccccc4)c4ccc([nH]4)c(-c4ccccc4)c4nc(c(-c5ccccc5)c5ccc2[nH]5)C=C4)C=C3)cc1
REMARK SMILES IDX 7 1 6 2 5 3 4 4 3 5 2 6 1 7 39 8 40 9 86 10 41 11 85 12
REMARK SMILES IDX 42 13 43 14 44 15 79 16 45 17 84 18 78 19 80 20 46 21 83 22
REMARK SMILES IDX 77 23 76 24 47 26 69 27 54 28 68 29 55 30 58 31 67 32 81 33
REMARK SMILES IDX 56 34 57 35 66 37 82 38 59 39 48 40 49 41 53 42 50 43 52 44
REMARK SMILES IDX 51 45 70 46 71 47 75 48 72 49 74 50 73 51 60 52 61 53 65 54
REMARK SMILES IDX 62 55 64 56 63 57 8 58 9 59 10 60 11 61 12 62 13 63 14 64
REMARK SMILES IDX 15 65 26 66 27 67 38 68 28 70 37 71 29 72 30 73 31 74 36 75
REMARK SMILES IDX 32 76 34 77 33 78 35 79 16 80 17 81 25 82 18 83 19 84 24 85
REMARK SMILES IDX 20 87 22 88 21 89 23 90
REMARK H PARENT 80 25 58 36 26 69 18 86
REMARK Flexibility Score: inf
ROOT
ATOM      1  C   UNL A   1      35.414  32.443  27.995  1.00  0.00     0.188 C 
ENDROOT
BRANCH   1   2
ATOM      2  O   UNL A   1      35.068  33.345  29.047  1.00  0.00    -0.376 OA
BRANCH   2   3
ATOM      3  C   UNL A   1      34.522  34.587  28.602  1.00  0.00     0.202 C 
BRANCH   3   4
ATOM      4  C   UNL A   1      33.106  34.908  29.111  1.00  0.00     0.261 C 
BRANCH   4   5
ATOM      5  O   UNL A   1      33.089  35.705  30.314  1.00  0.00    -0.460 OA
BRANCH   5   6
ATOM      6  C   UNL A   1      33.120  35.249  31.592  1.00  0.00     0.338 C 
ATOM      7  O   UNL A   1      32.110  35.323  32.299  1.00  0.00    -0.246 OA
BRANCH   6   8
ATOM      8  C   UNL A   1      34.333  34.597  32.141  1.00  0.00     0.060 A 
ATOM      9  C   UNL A   1      35.565  35.241  32.196  1.00  0.00     0.016 A 
ATOM     10  C   UNL A   1      34.233  33.310  32.677  1.00  0.00     0.016 A 
ATOM     11  C   UNL A   1      36.714  34.567  32.573  1.00  0.00     0.010 A 
ATOM     12  C   UNL A   1      35.368  32.681  33.205  1.00  0.00     0.010 A 
ATOM     13  C   UNL A   1      36.631  33.288  33.114  1.00  0.00    -0.014 A 
BRANCH  13  14
ATOM     14  C   UNL A   1      37.883  32.599  33.519  1.00  0.00     0.031 A 
ATOM     15  C   UNL A   1      38.506  31.606  32.577  1.00  0.00     0.074 A 
ATOM     16  C   UNL A   1      38.501  32.923  34.674  1.00  0.00     0.049 A 
ATOM     17  N   UNL A   1      39.565  30.858  32.745  1.00  0.00    -0.248 NA
ATOM     18  C   UNL A   1      37.855  31.437  31.266  1.00  0.00     0.031 C 
ATOM     19  C   UNL A   1      38.044  33.935  35.632  1.00  0.00     0.029 A 
ATOM     20  N   UNL A   1      39.659  32.453  35.239  1.00  0.00    -0.354 N 
ATOM     21  C   UNL A   1      39.688  30.118  31.577  1.00  0.00     0.074 A 
ATOM     22  C   UNL A   1      38.574  30.466  30.727  1.00  0.00     0.031 C 
ATOM     23  C   UNL A   1      38.904  34.010  36.657  1.00  0.00     0.029 A 
ATOM     24  C   UNL A   1      39.954  33.025  36.455  1.00  0.00     0.049 A 
ATOM     25  H   UNL A   1      40.226  31.770  34.814  1.00  0.00     0.167 HD
ATOM     26  C   UNL A   1      40.662  29.247  31.226  1.00  0.00     0.031 A 
ATOM     27  C   UNL A   1      40.950  32.777  37.323  1.00  0.00     0.031 A 
ATOM     28  C   UNL A   1      41.777  28.919  32.067  1.00  0.00     0.049 A 
ATOM     29  C   UNL A   1      41.978  31.751  36.943  1.00  0.00     0.074 A 
ATOM     30  C   UNL A   1      42.803  28.023  31.837  1.00  0.00     0.029 A 
ATOM     31  N   UNL A   1      42.014  29.496  33.307  1.00  0.00    -0.354 N 
ATOM     32  N   UNL A   1      42.063  31.042  35.842  1.00  0.00    -0.248 NA
ATOM     33  C   UNL A   1      43.053  31.505  37.910  1.00  0.00     0.031 C 
ATOM     34  C   UNL A   1      43.647  28.035  32.953  1.00  0.00     0.029 A 
ATOM     35  C   UNL A   1      43.170  28.972  33.857  1.00  0.00     0.049 A 
ATOM     36  H   UNL A   1      41.444  30.177  33.732  1.00  0.00     0.167 HD
ATOM     37  C   UNL A   1      43.212  30.277  35.976  1.00  0.00     0.074 A 
ATOM     38  C   UNL A   1      43.804  30.634  37.250  1.00  0.00     0.031 C 
ATOM     39  C   UNL A   1      43.730  29.357  35.127  1.00  0.00     0.031 A 
BRANCH  26  40
ATOM     40  C   UNL A   1      40.526  28.588  29.883  1.00  0.00    -0.014 A 
ATOM     41  C   UNL A   1      41.217  29.075  28.761  1.00  0.00     0.009 A 
ATOM     42  C   UNL A   1      39.662  27.494  29.726  1.00  0.00     0.009 A 
ATOM     43  C   UNL A   1      41.008  28.510  27.501  1.00  0.00     0.001 A 
ATOM     44  C   UNL A   1      39.476  26.914  28.470  1.00  0.00     0.001 A 
ATOM     45  C   UNL A   1      40.139  27.430  27.357  1.00  0.00     0.000 A 
ENDBRANCH  26  40
BRANCH  27  46
ATOM     46  C   UNL A   1      41.013  33.494  38.626  1.00  0.00    -0.014 A 
ATOM     47  C   UNL A   1      40.295  33.035  39.741  1.00  0.00     0.009 A 
ATOM     48  C   UNL A   1      41.792  34.656  38.760  1.00  0.00     0.009 A 
ATOM     49  C   UNL A   1      40.324  33.746  40.945  1.00  0.00     0.001 A 
ATOM     50  C   UNL A   1      41.847  35.346  39.973  1.00  0.00     0.001 A 
ATOM     51  C   UNL A   1      41.101  34.898  41.061  1.00  0.00     0.000 A 
ENDBRANCH  27  46
BRANCH  39  52
ATOM     52  C   UNL A   1      45.013  28.706  35.548  1.00  0.00    -0.014 A 
ATOM     53  C   UNL A   1      45.011  27.539  36.327  1.00  0.00     0.009 A 
ATOM     54  C   UNL A   1      46.236  29.256  35.138  1.00  0.00     0.009 A 
ATOM     55  C   UNL A   1      46.215  26.956  36.720  1.00  0.00     0.001 A 
ATOM     56  C   UNL A   1      47.437  28.654  35.507  1.00  0.00     0.001 A 
ATOM     57  C   UNL A   1      47.426  27.511  36.307  1.00  0.00     0.000 A 
ENDBRANCH  39  52
ENDBRANCH  13  14
ENDBRANCH   6   8
ENDBRANCH   5   6
ENDBRANCH   4   5
ENDBRANCH   3   4
ENDBRANCH   2   3
ENDBRANCH   1   2
BRANCH   1  58
ATOM     58  C   UNL A   1      34.628  31.137  28.103  1.00  0.00     0.188 C 
BRANCH  58  59
ATOM     59  O   UNL A   1      33.822  30.790  26.981  1.00  0.00    -0.376 OA
BRANCH  59  60
ATOM     60  C   UNL A   1      32.594  30.121  27.247  1.00  0.00     0.202 C 
BRANCH  60  61
ATOM     61  C   UNL A   1      31.783  29.574  26.059  1.00  0.00     0.261 C 
BRANCH  61  62
ATOM     62  O   UNL A   1      31.435  28.174  26.072  1.00  0.00    -0.459 OA
BRANCH  62  63
ATOM     63  C   UNL A   1      32.450  27.340  25.670  1.00  0.00     0.370 C 
ATOM     64  O   UNL A   1      33.416  27.073  26.381  1.00  0.00    -0.245 OA
BRANCH  63  65
ATOM     65  C   UNL A   1      32.273  26.853  24.193  1.00  0.00     0.328 C 
BRANCH  65  66
ATOM     66  N   UNL A   1      31.335  25.698  24.249  1.00  0.00    -0.316 N 
ATOM     67  C   UNL A   1      31.000  24.953  23.027  1.00  0.00     0.284 C 
ATOM     68  C   UNL A   1      31.700  24.748  25.323  1.00  0.00     0.284 C 
ATOM     69  H   UNL A   1      30.466  26.196  24.440  1.00  0.00     0.349 HD
ATOM     70  C   UNL A   1      32.010  23.888  22.552  1.00  0.00     0.178 C 
ATOM     71  C   UNL A   1      32.826  23.769  24.930  1.00  0.00     0.178 C 
ATOM     72  N   UNL A   1      32.515  23.092  23.674  1.00  0.00    -0.360 N 
BRANCH  72  73
ATOM     73  C   UNL A   1      32.416  21.721  23.597  1.00  0.00     0.038 A 
ATOM     74  C   UNL A   1      32.135  21.081  22.385  1.00  0.00     0.026 A 
ATOM     75  C   UNL A   1      32.646  20.934  24.731  1.00  0.00     0.046 A 
ATOM     76  C   UNL A   1      32.091  19.689  22.300  1.00  0.00     0.004 A 
ATOM     77  C   UNL A   1      32.582  19.543  24.652  1.00  0.00     0.043 A 
ATOM     78  C   UNL A   1      32.311  18.917  23.439  1.00  0.00     0.020 A 
ATOM     79  Cl  UNL A   1      32.843  18.595  26.064  1.00  0.00    -0.084 Cl
ENDBRANCH  72  73
ENDBRANCH  65  66
BRANCH  65  80
ATOM     80  C   UNL A   1      31.805  27.954  23.262  1.00  0.00     0.046 A 
ATOM     81  C   UNL A   1      32.577  28.868  22.565  1.00  0.00     0.094 A 
ATOM     82  C   UNL A   1      30.431  28.324  23.004  1.00  0.00     0.011 A 
ATOM     83  N   UNL A   1      31.751  29.716  21.878  1.00  0.00    -0.361 N 
ATOM     84  C   UNL A   1      30.438  29.450  22.182  1.00  0.00     0.046 A 
ATOM     85  C   UNL A   1      29.180  27.849  23.453  1.00  0.00     0.031 A 
ATOM     86  H   UNL A   1      32.054  30.417  21.255  1.00  0.00     0.166 HD
ATOM     87  C   UNL A   1      29.272  30.129  21.802  1.00  0.00     0.028 A 
ATOM     88  C   UNL A   1      28.010  28.531  23.107  1.00  0.00     0.041 A 
ATOM     89  C   UNL A   1      28.052  29.655  22.293  1.00  0.00     0.022 A 
ATOM     90  Cl  UNL A   1      26.497  27.977  23.717  1.00  0.00    -0.084 Cl
ENDBRANCH  65  80
ENDBRANCH  63  65
ENDBRANCH  62  63
ENDBRANCH  61  62
ENDBRANCH  60  61
ENDBRANCH  59  60
ENDBRANCH  58  59
ENDBRANCH   1  58
TORSDOF 20
ENDMDL
MODEL 2
REMARK VINA RESULT:     -10.7      0.748      5.591
REMARK SMILES O=C(OCCOCCOCCOC(=O)[C@H](c1c[nH]c2ccc(Cl)cc12)[NH+]1CCN(c2cccc(Cl)c2)CC1)c1ccc(-c2c3nc(c(-c4ccccc4)c4ccc([nH]4)c(-c4ccccc4)c4nc(c(-c5ccccc5)c5ccc2[nH]5)C=C4)C=C3)cc1
REMARK SMILES IDX 7 1 6 2 5 3 4 4 3 5 2 6 1 7 39 8 40 9 86 10 41 11 85 12
REMARK SMILES IDX 42 13 43 14 44 15 79 16 45 17 84 18 78 19 80 20 46 21 83 22
REMARK SMILES IDX 77 23 76 24 47 26 69 27 54 28 68 29 55 30 58 31 67 32 81 33
REMARK SMILES IDX 56 34 57 35 66 37 82 38 59 39 48 40 49 41 53 42 50 43 52 44
REMARK SMILES IDX 51 45 70 46 71 47 75 48 72 49 74 50 73 51 60 52 61 53 65 54
REMARK SMILES IDX 62 55 64 56 63 57 8 58 9 59 10 60 11 61 12 62 13 63 14 64
REMARK SMILES IDX 15 65 26 66 27 67 38 68 28 70 37 71 29 72 30 73 31 74 36 75
REMARK SMILES IDX 32 76 34 77 33 78 35 79 16 80 17 81 25 82 18 83 19 84 24 85
REMARK SMILES IDX 20 87 22 88 21 89 23 90
REMARK H PARENT 80 25 58 36 26 69 18 86
REMARK Flexibility Score: inf
ROOT
ATOM      1  C   UNL A   1      35.539  32.531  28.046  1.00  0.00     0.188 C 
ENDROOT
BRANCH   1   2
ATOM      2  O   UNL A   1      34.966  33.345  29.069  1.00  0.00    -0.376 OA
BRANCH   2   3
ATOM      3  C   UNL A   1      34.354  34.544  28.594  1.00  0.00     0.202 C 
BRANCH   3   4
ATOM      4  C   UNL A   1      32.921  34.800  29.093  1.00  0.00     0.261 C 
BRANCH   4   5
ATOM      5  O   UNL A   1      32.852  35.688  30.228  1.00  0.00    -0.460 OA
BRANCH   5   6
ATOM      6  C   UNL A   1      33.020  35.354  31.533  1.00  0.00     0.338 C 
ATOM      7  O   UNL A   1      32.124  35.589  32.351  1.00  0.00    -0.246 OA
BRANCH   6   8
ATOM      8  C   UNL A   1      34.241  34.647  31.989  1.00  0.00     0.060 A 
ATOM      9  C   UNL A   1      35.503  35.229  31.936  1.00  0.00     0.016 A 
ATOM     10  C   UNL A   1      34.122  33.371  32.547  1.00  0.00     0.016 A 
ATOM     11  C   UNL A   1      36.645  34.503  32.225  1.00  0.00     0.010 A 
ATOM     12  C   UNL A   1      35.264  32.690  32.988  1.00  0.00     0.010 A 
ATOM     13  C   UNL A   1      36.544  33.233  32.787  1.00  0.00    -0.014 A 
BRANCH  13  14
ATOM     14  C   UNL A   1      37.789  32.486  33.097  1.00  0.00     0.031 A 
ATOM     15  C   UNL A   1      38.493  32.750  34.399  1.00  0.00     0.074 A 
ATOM     16  C   UNL A   1      38.236  31.522  32.264  1.00  0.00     0.049 A 
ATOM     17  N   UNL A   1      39.613  32.250  34.850  1.00  0.00    -0.248 NA
ATOM     18  C   UNL A   1      37.845  33.698  35.322  1.00  0.00     0.031 C 
ATOM     19  C   UNL A   1      37.592  31.109  31.013  1.00  0.00     0.029 A 
ATOM     20  N   UNL A   1      39.326  30.693  32.348  1.00  0.00    -0.354 N 
ATOM     21  C   UNL A   1      39.812  32.840  36.091  1.00  0.00     0.074 A 
ATOM     22  C   UNL A   1      38.729  33.771  36.304  1.00  0.00     0.031 C 
ATOM     23  C   UNL A   1      38.292  30.116  30.449  1.00  0.00     0.029 A 
ATOM     24  C   UNL A   1      39.457  29.842  31.275  1.00  0.00     0.049 A 
ATOM     25  H   UNL A   1      39.955  30.706  33.104  1.00  0.00     0.167 HD
ATOM     26  C   UNL A   1      40.794  32.607  36.992  1.00  0.00     0.031 A 
ATOM     27  C   UNL A   1      40.417  28.949  30.975  1.00  0.00     0.031 A 
ATOM     28  C   UNL A   1      41.859  31.667  36.782  1.00  0.00     0.049 A 
ATOM     29  C   UNL A   1      41.536  28.762  31.956  1.00  0.00     0.074 A 
ATOM     30  C   UNL A   1      42.930  31.373  37.603  1.00  0.00     0.029 A 
ATOM     31  N   UNL A   1      41.972  30.854  35.664  1.00  0.00    -0.354 N 
ATOM     32  N   UNL A   1      41.721  29.349  33.115  1.00  0.00    -0.248 NA
ATOM     33  C   UNL A   1      42.567  27.780  31.602  1.00  0.00     0.031 C 
ATOM     34  C   UNL A   1      43.710  30.402  36.966  1.00  0.00     0.029 A 
ATOM     35  C   UNL A   1      43.099  30.060  35.770  1.00  0.00     0.049 A 
ATOM     36  H   UNL A   1      41.343  30.845  34.906  1.00  0.00     0.167 HD
ATOM     37  C   UNL A   1      42.879  28.795  33.638  1.00  0.00     0.074 A 
ATOM     38  C   UNL A   1      43.335  27.803  32.683  1.00  0.00     0.031 C 
ATOM     39  C   UNL A   1      43.516  29.081  34.799  1.00  0.00     0.031 A 
BRANCH  26  40
ATOM     40  C   UNL A   1      40.750  33.408  38.262  1.00  0.00    -0.014 A 
ATOM     41  C   UNL A   1      40.028  32.958  39.380  1.00  0.00     0.009 A 
ATOM     42  C   UNL A   1      41.401  34.649  38.328  1.00  0.00     0.009 A 
ATOM     43  C   UNL A   1      39.919  33.756  40.521  1.00  0.00     0.001 A 
ATOM     44  C   UNL A   1      41.312  35.433  39.479  1.00  0.00     0.001 A 
ATOM     45  C   UNL A   1      40.562  34.993  40.569  1.00  0.00     0.000 A 
ENDBRANCH  26  40
BRANCH  27  46
ATOM     46  C   UNL A   1      40.367  28.187  29.697  1.00  0.00    -0.014 A 
ATOM     47  C   UNL A   1      39.631  26.998  29.591  1.00  0.00     0.009 A 
ATOM     48  C   UNL A   1      41.071  28.646  28.570  1.00  0.00     0.009 A 
ATOM     49  C   UNL A   1      39.633  26.266  28.399  1.00  0.00     0.001 A 
ATOM     50  C   UNL A   1      41.045  27.931  27.370  1.00  0.00     0.001 A 
ATOM     51  C   UNL A   1      40.337  26.734  27.290  1.00  0.00     0.000 A 
ENDBRANCH  27  46
BRANCH  39  52
ATOM     52  C   UNL A   1      44.750  28.284  35.100  1.00  0.00    -0.014 A 
ATOM     53  C   UNL A   1      44.688  27.124  35.887  1.00  0.00     0.009 A 
ATOM     54  C   UNL A   1      45.983  28.690  34.570  1.00  0.00     0.009 A 
ATOM     55  C   UNL A   1      45.849  26.404  36.167  1.00  0.00     0.001 A 
ATOM     56  C   UNL A   1      47.136  27.952  34.828  1.00  0.00     0.001 A 
ATOM     57  C   UNL A   1      47.070  26.816  35.634  1.00  0.00     0.000 A 
ENDBRANCH  39  52
ENDBRANCH  13  14
ENDBRANCH   6   8
ENDBRANCH   5   6
ENDBRANCH   4   5
ENDBRANCH   3   4
ENDBRANCH   2   3
ENDBRANCH   1   2
BRANCH   1  58
ATOM     58  C   UNL A   1      34.765  31.224  27.878  1.00  0.00     0.188 C 
BRANCH  58  59
ATOM     59  O   UNL A   1      33.767  31.207  26.862  1.00  0.00    -0.376 OA
BRANCH  59  60
ATOM     60  C   UNL A   1      32.531  30.576  27.178  1.00  0.00     0.202 C 
BRANCH  60  61
ATOM     61  C   UNL A   1      31.705  29.962  26.034  1.00  0.00     0.261 C 
BRANCH  61  62
ATOM     62  O   UNL A   1      31.504  28.533  26.044  1.00  0.00    -0.459 OA
BRANCH  62  63
ATOM     63  C   UNL A   1      32.597  27.809  25.635  1.00  0.00     0.370 C 
ATOM     64  O   UNL A   1      33.621  27.709  26.308  1.00  0.00    -0.245 OA
BRANCH  63  65
ATOM     65  C   UNL A   1      32.418  27.216  24.198  1.00  0.00     0.328 C 
BRANCH  65  66
ATOM     66  N   UNL A   1      31.665  25.942  24.370  1.00  0.00    -0.316 N 
ATOM     67  C   UNL A   1      31.566  24.983  23.260  1.00  0.00     0.284 C 
ATOM     68  C   UNL A   1      32.065  25.232  25.604  1.00  0.00     0.284 C 
ATOM     69  H   UNL A   1      30.716  26.313  24.416  1.00  0.00     0.349 HD
ATOM     70  C   UNL A   1      32.768  24.041  23.034  1.00  0.00     0.178 C 
ATOM     71  C   UNL A   1      33.359  24.405  25.453  1.00  0.00     0.178 C 
ATOM     72  N   UNL A   1      33.277  23.511  24.301  1.00  0.00    -0.360 N 
BRANCH  72  73
ATOM     73  C   UNL A   1      33.396  22.146  24.436  1.00  0.00     0.038 A 
ATOM     74  C   UNL A   1      32.278  21.309  24.341  1.00  0.00     0.026 A 
ATOM     75  C   UNL A   1      34.654  21.563  24.625  1.00  0.00     0.046 A 
ATOM     76  C   UNL A   1      32.410  19.921  24.423  1.00  0.00     0.004 A 
ATOM     77  C   UNL A   1      34.784  20.179  24.727  1.00  0.00     0.043 A 
ATOM     78  C   UNL A   1      33.667  19.355  24.621  1.00  0.00     0.020 A 
ATOM     79  Cl  UNL A   1      36.337  19.484  24.983  1.00  0.00    -0.084 Cl
ENDBRANCH  72  73
ENDBRANCH  65  66
BRANCH  65  80
ATOM     80  C   UNL A   1      31.744  28.180  23.243  1.00  0.00     0.046 A 
ATOM     81  C   UNL A   1      32.336  29.146  22.446  1.00  0.00     0.094 A 
ATOM     82  C   UNL A   1      30.319  28.339  23.058  1.00  0.00     0.011 A 
ATOM     83  N   UNL A   1      31.359  29.827  21.771  1.00  0.00    -0.361 N 
ATOM     84  C   UNL A   1      30.118  29.402  22.177  1.00  0.00     0.046 A 
ATOM     85  C   UNL A   1      29.177  27.726  23.615  1.00  0.00     0.031 A 
ATOM     86  H   UNL A   1      31.523  30.522  21.092  1.00  0.00     0.166 HD
ATOM     87  C   UNL A   1      28.847  29.887  21.839  1.00  0.00     0.028 A 
ATOM     88  C   UNL A   1      27.903  28.216  23.311  1.00  0.00     0.041 A 
ATOM     89  C   UNL A   1      27.737  29.282  22.436  1.00  0.00     0.022 A 
ATOM     90  Cl  UNL A   1      26.523  27.497  24.050  1.00  0.00    -0.084 Cl
ENDBRANCH  65  80
ENDBRANCH  63  65
ENDBRANCH  62  63
ENDBRANCH  61  62
ENDBRANCH  60  61
ENDBRANCH  59  60
ENDBRANCH  58  59
ENDBRANCH   1  58
TORSDOF 20
ENDMDL
MODEL 3
REMARK VINA RESULT:     -10.6      1.371      4.720
REMARK SMILES O=C(OCCOCCOCCOC(=O)[C@H](c1c[nH]c2ccc(Cl)cc12)[NH+]1CCN(c2cccc(Cl)c2)CC1)c1ccc(-c2c3nc(c(-c4ccccc4)c4ccc([nH]4)c(-c4ccccc4)c4nc(c(-c5ccccc5)c5ccc2[nH]5)C=C4)C=C3)cc1
REMARK SMILES IDX 7 1 6 2 5 3 4 4 3 5 2 6 1 7 39 8 40 9 86 10 41 11 85 12
REMARK SMILES IDX 42 13 43 14 44 15 79 16 45 17 84 18 78 19 80 20 46 21 83 22
REMARK SMILES IDX 77 23 76 24 47 26 69 27 54 28 68 29 55 30 58 31 67 32 81 33
REMARK SMILES IDX 56 34 57 35 66 37 82 38 59 39 48 40 49 41 53 42 50 43 52 44
REMARK SMILES IDX 51 45 70 46 71 47 75 48 72 49 74 50 73 51 60 52 61 53 65 54
REMARK SMILES IDX 62 55 64 56 63 57 8 58 9 59 10 60 11 61 12 62 13 63 14 64
REMARK SMILES IDX 15 65 26 66 27 67 38 68 28 70 37 71 29 72 30 73 31 74 36 75
REMARK SMILES IDX 32 76 34 77 33 78 35 79 16 80 17 81 25 82 18 83 19 84 24 85
REMARK SMILES IDX 20 87 22 88 21 89 23 90
REMARK H PARENT 80 25 58 36 26 69 18 86
REMARK Flexibility Score: inf
ROOT
ATOM      1  C   UNL A   1      34.985  33.129  28.025  1.00  0.00     0.188 C 
ENDROOT
BRANCH   1   2
ATOM      2  O   UNL A   1      34.657  34.221  28.885  1.00  0.00    -0.376 OA
BRANCH   2   3
ATOM      3  C   UNL A   1      33.311  34.683  28.763  1.00  0.00     0.202 C 
BRANCH   3   4
ATOM      4  C   UNL A   1      32.940  35.884  29.650  1.00  0.00     0.261 C 
BRANCH   4   5
ATOM      5  O   UNL A   1      32.343  35.513  30.909  1.00  0.00    -0.460 OA
BRANCH   5   6
ATOM      6  C   UNL A   1      32.931  35.554  32.132  1.00  0.00     0.338 C 
ATOM      7  O   UNL A   1      32.405  36.193  33.049  1.00  0.00    -0.246 OA
BRANCH   6   8
ATOM      8  C   UNL A   1      34.169  34.787  32.410  1.00  0.00     0.060 A 
ATOM      9  C   UNL A   1      34.148  33.516  32.974  1.00  0.00     0.016 A 
ATOM     10  C   UNL A   1      35.404  35.329  32.042  1.00  0.00     0.016 A 
ATOM     11  C   UNL A   1      35.314  32.880  33.361  1.00  0.00     0.010 A 
ATOM     12  C   UNL A   1      36.584  34.616  32.292  1.00  0.00     0.010 A 
ATOM     13  C   UNL A   1      36.551  33.403  32.998  1.00  0.00    -0.014 A 
BRANCH  13  14
ATOM     14  C   UNL A   1      37.783  32.688  33.420  1.00  0.00     0.031 A 
ATOM     15  C   UNL A   1      38.383  31.663  32.497  1.00  0.00     0.074 A 
ATOM     16  C   UNL A   1      38.405  33.014  34.573  1.00  0.00     0.049 A 
ATOM     17  N   UNL A   1      39.421  30.891  32.683  1.00  0.00    -0.248 NA
ATOM     18  C   UNL A   1      37.733  31.489  31.186  1.00  0.00     0.031 C 
ATOM     19  C   UNL A   1      37.971  34.054  35.511  1.00  0.00     0.029 A 
ATOM     20  N   UNL A   1      39.548  32.523  35.150  1.00  0.00    -0.354 N 
ATOM     21  C   UNL A   1      39.529  30.128  31.527  1.00  0.00     0.074 A 
ATOM     22  C   UNL A   1      38.428  30.491  30.666  1.00  0.00     0.031 C 
ATOM     23  C   UNL A   1      38.828  34.122  36.539  1.00  0.00     0.029 A 
ATOM     24  C   UNL A   1      39.853  33.107  36.357  1.00  0.00     0.049 A 
ATOM     25  H   UNL A   1      40.098  31.818  34.739  1.00  0.00     0.167 HD
ATOM     26  C   UNL A   1      40.481  29.226  31.194  1.00  0.00     0.031 A 
ATOM     27  C   UNL A   1      40.839  32.848  37.234  1.00  0.00     0.031 A 
ATOM     28  C   UNL A   1      41.584  28.882  32.046  1.00  0.00     0.049 A 
ATOM     29  C   UNL A   1      41.840  31.789  36.875  1.00  0.00     0.074 A 
ATOM     30  C   UNL A   1      42.587  27.956  31.835  1.00  0.00     0.029 A 
ATOM     31  N   UNL A   1      41.831  29.473  33.277  1.00  0.00    -0.354 N 
ATOM     32  N   UNL A   1      41.911  31.060  35.787  1.00  0.00    -0.248 NA
ATOM     33  C   UNL A   1      42.905  31.530  37.851  1.00  0.00     0.031 C 
ATOM     34  C   UNL A   1      43.426  27.964  32.955  1.00  0.00     0.029 A 
ATOM     35  C   UNL A   1      42.971  28.929  33.841  1.00  0.00     0.049 A 
ATOM     36  H   UNL A   1      41.277  30.176  33.688  1.00  0.00     0.167 HD
ATOM     37  C   UNL A   1      43.038  30.267  35.938  1.00  0.00     0.074 A 
ATOM     38  C   UNL A   1      43.635  30.629  37.209  1.00  0.00     0.031 C 
ATOM     39  C   UNL A   1      43.535  29.319  35.107  1.00  0.00     0.031 A 
BRANCH  26  40
ATOM     40  C   UNL A   1      40.333  28.548  29.862  1.00  0.00    -0.014 A 
ATOM     41  C   UNL A   1      40.692  29.201  28.671  1.00  0.00     0.009 A 
ATOM     42  C   UNL A   1      39.786  27.259  29.792  1.00  0.00     0.009 A 
ATOM     43  C   UNL A   1      40.462  28.595  27.434  1.00  0.00     0.001 A 
ATOM     44  C   UNL A   1      39.581  26.644  28.555  1.00  0.00     0.001 A 
ATOM     45  C   UNL A   1      39.907  27.317  27.377  1.00  0.00     0.000 A 
ENDBRANCH  26  40
BRANCH  27  46
ATOM     46  C   UNL A   1      40.915  33.584  38.525  1.00  0.00    -0.014 A 
ATOM     47  C   UNL A   1      40.346  33.058  39.694  1.00  0.00     0.009 A 
ATOM     48  C   UNL A   1      41.557  34.833  38.593  1.00  0.00     0.009 A 
ATOM     49  C   UNL A   1      40.382  33.782  40.891  1.00  0.00     0.001 A 
ATOM     50  C   UNL A   1      41.621  35.541  39.795  1.00  0.00     0.001 A 
ATOM     51  C   UNL A   1      41.021  35.021  40.940  1.00  0.00     0.000 A 
ENDBRANCH  27  46
BRANCH  39  52
ATOM     52  C   UNL A   1      44.799  28.641  35.544  1.00  0.00    -0.014 A 
ATOM     53  C   UNL A   1      44.769  27.558  36.435  1.00  0.00     0.009 A 
ATOM     54  C   UNL A   1      46.031  29.080  35.038  1.00  0.00     0.009 A 
ATOM     55  C   UNL A   1      45.956  26.949  36.840  1.00  0.00     0.001 A 
ATOM     56  C   UNL A   1      47.214  28.451  35.422  1.00  0.00     0.001 A 
ATOM     57  C   UNL A   1      47.176  27.393  36.331  1.00  0.00     0.000 A 
ENDBRANCH  39  52
ENDBRANCH  13  14
ENDBRANCH   6   8
ENDBRANCH   5   6
ENDBRANCH   4   5
ENDBRANCH   3   4
ENDBRANCH   2   3
ENDBRANCH   1   2
BRANCH   1  58
ATOM     58  C   UNL A   1      34.079  31.926  28.286  1.00  0.00     0.188 C 
BRANCH  58  59
ATOM     59  O   UNL A   1      33.768  31.113  27.158  1.00  0.00    -0.376 OA
BRANCH  59  60
ATOM     60  C   UNL A   1      34.155  29.745  27.220  1.00  0.00     0.202 C 
BRANCH  60  61
ATOM     61  C   UNL A   1      33.053  28.671  27.267  1.00  0.00     0.261 C 
BRANCH  61  62
ATOM     62  O   UNL A   1      33.414  27.323  26.901  1.00  0.00    -0.459 OA
BRANCH  62  63
ATOM     63  C   UNL A   1      33.338  27.068  25.553  1.00  0.00     0.370 C 
ATOM     64  O   UNL A   1      34.317  27.108  24.810  1.00  0.00    -0.245 OA
BRANCH  63  65
ATOM     65  C   UNL A   1      31.870  26.815  25.074  1.00  0.00     0.328 C 
BRANCH  65  66
ATOM     66  N   UNL A   1      31.745  27.497  23.755  1.00  0.00    -0.316 N 
ATOM     67  C   UNL A   1      30.511  27.368  22.967  1.00  0.00     0.284 C 
ATOM     68  C   UNL A   1      32.134  28.922  23.837  1.00  0.00     0.284 C 
ATOM     69  H   UNL A   1      32.403  26.937  23.213  1.00  0.00     0.349 HD
ATOM     70  C   UNL A   1      29.328  28.280  23.358  1.00  0.00     0.178 C 
ATOM     71  C   UNL A   1      31.018  29.840  24.378  1.00  0.00     0.178 C 
ATOM     72  N   UNL A   1      29.775  29.646  23.636  1.00  0.00    -0.360 N 
BRANCH  72  73
ATOM     73  C   UNL A   1      29.169  30.681  22.960  1.00  0.00     0.038 A 
ATOM     74  C   UNL A   1      29.024  31.944  23.546  1.00  0.00     0.026 A 
ATOM     75  C   UNL A   1      28.725  30.500  21.645  1.00  0.00     0.046 A 
ATOM     76  C   UNL A   1      28.460  33.006  22.838  1.00  0.00     0.004 A 
ATOM     77  C   UNL A   1      28.143  31.554  20.943  1.00  0.00     0.043 A 
ATOM     78  C   UNL A   1      28.013  32.809  21.533  1.00  0.00     0.020 A 
ATOM     79  Cl  UNL A   1      27.581  31.303  19.337  1.00  0.00    -0.084 Cl
ENDBRANCH  72  73
ENDBRANCH  65  66
BRANCH  65  80
ATOM     80  C   UNL A   1      31.515  25.343  25.017  1.00  0.00     0.046 A 
ATOM     81  C   UNL A   1      30.376  24.721  25.502  1.00  0.00     0.094 A 
ATOM     82  C   UNL A   1      32.362  24.281  24.525  1.00  0.00     0.011 A 
ATOM     83  N   UNL A   1      30.478  23.374  25.283  1.00  0.00    -0.361 N 
ATOM     84  C   UNL A   1      31.707  23.070  24.751  1.00  0.00     0.046 A 
ATOM     85  C   UNL A   1      33.660  24.229  23.973  1.00  0.00     0.031 A 
ATOM     86  H   UNL A   1      29.770  22.715  25.479  1.00  0.00     0.166 HD
ATOM     87  C   UNL A   1      32.283  21.823  24.471  1.00  0.00     0.028 A 
ATOM     88  C   UNL A   1      34.260  22.992  23.715  1.00  0.00     0.041 A 
ATOM     89  C   UNL A   1      33.583  21.804  23.960  1.00  0.00     0.022 A 
ATOM     90  Cl  UNL A   1      35.870  22.945  23.102  1.00  0.00    -0.084 Cl
ENDBRANCH  65  80
ENDBRANCH  63  65
ENDBRANCH  62  63
ENDBRANCH  61  62
ENDBRANCH  60  61
ENDBRANCH  59  60
ENDBRANCH  58  59
ENDBRANCH   1  58
TORSDOF 20
ENDMDL
