MODEL 1
REMARK VINA RESULT:      -8.9      0.000      0.000
REMARK SMILES O=C(OCCOCCOCCOC(=O)c1cc(-c2ccc[nH]c2=O)ccc1Cl)c1ccc(-c2c3nc(c(-c4ccccc4)c4ccc([nH]4)c(-c4ccccc4)c4nc(c(-c5ccccc5)c5ccc2[nH]5)C=C4)C=C3)cc1
REMARK SMILES IDX 7 1 6 2 5 3 4 4 3 5 2 6 1 7 29 8 30 9 76 10 31 11 75 12
REMARK SMILES IDX 32 13 33 14 34 15 69 16 35 17 74 18 68 19 70 20 36 21 73 22
REMARK SMILES IDX 67 23 66 24 37 26 59 27 44 28 58 29 45 30 48 31 57 32 71 33
REMARK SMILES IDX 46 34 47 35 56 37 72 38 49 39 38 40 39 41 43 42 40 43 42 44
REMARK SMILES IDX 41 45 60 46 61 47 65 48 62 49 64 50 63 51 50 52 51 53 55 54
REMARK SMILES IDX 52 55 54 56 53 57 8 58 9 59 10 60 11 61 12 62 13 63 14 64
REMARK SMILES IDX 15 65 16 66 27 67 17 68 26 69 28 70 25 71 18 72 19 73 23 74
REMARK SMILES IDX 20 75 22 76 24 77 21 78
REMARK H PARENT 70 25 48 36 22 79
REMARK Flexibility Score: inf
ROOT
ATOM      1  C   UNL A   1      32.920  36.459  29.697  1.00  0.00     0.188 C 
ENDROOT
BRANCH   1   2
ATOM      2  O   UNL A   1      32.565  35.246  29.020  1.00  0.00    -0.376 OA
BRANCH   2   3
ATOM      3  C   UNL A   1      33.640  34.672  28.273  1.00  0.00     0.202 C 
BRANCH   3   4
ATOM      4  C   UNL A   1      34.119  33.327  28.830  1.00  0.00     0.261 C 
BRANCH   4   5
ATOM      5  O   UNL A   1      34.041  32.286  27.840  1.00  0.00    -0.460 OA
BRANCH   5   6
ATOM      6  C   UNL A   1      34.467  31.003  27.943  1.00  0.00     0.338 C 
ATOM      7  O   UNL A   1      33.735  30.099  27.544  1.00  0.00    -0.246 OA
BRANCH   6   8
ATOM      8  C   UNL A   1      35.823  30.618  28.445  1.00  0.00     0.060 A 
ATOM      9  C   UNL A   1      37.027  31.151  27.989  1.00  0.00     0.016 A 
ATOM     10  C   UNL A   1      35.871  29.692  29.503  1.00  0.00     0.016 A 
ATOM     11  C   UNL A   1      38.247  30.683  28.470  1.00  0.00     0.010 A 
ATOM     12  C   UNL A   1      37.093  29.273  30.045  1.00  0.00     0.010 A 
ATOM     13  C   UNL A   1      38.294  29.739  29.498  1.00  0.00    -0.014 A 
BRANCH  13  14
ATOM     14  C   UNL A   1      39.611  29.215  29.923  1.00  0.00     0.031 A 
ATOM     15  C   UNL A   1      40.272  29.780  31.146  1.00  0.00     0.074 A 
ATOM     16  C   UNL A   1      40.137  28.144  29.301  1.00  0.00     0.049 A 
ATOM     17  N   UNL A   1      41.383  29.407  31.729  1.00  0.00    -0.248 NA
ATOM     18  C   UNL A   1      39.583  30.895  31.818  1.00  0.00     0.031 C 
ATOM     19  C   UNL A   1      39.532  27.451  28.162  1.00  0.00     0.029 A 
ATOM     20  N   UNL A   1      41.269  27.419  29.570  1.00  0.00    -0.354 N 
ATOM     21  C   UNL A   1      41.521  30.231  32.837  1.00  0.00     0.074 A 
ATOM     22  C   UNL A   1      40.400  31.147  32.830  1.00  0.00     0.031 C 
ATOM     23  C   UNL A   1      40.274  26.372  27.867  1.00  0.00     0.029 A 
ATOM     24  C   UNL A   1      41.436  26.336  28.742  1.00  0.00     0.049 A 
ATOM     25  H   UNL A   1      41.902  27.652  30.287  1.00  0.00     0.167 HD
ATOM     26  C   UNL A   1      42.487  30.222  33.783  1.00  0.00     0.031 A 
ATOM     27  C   UNL A   1      42.420  25.421  28.682  1.00  0.00     0.031 A 
ATOM     28  C   UNL A   1      43.612  29.329  33.779  1.00  0.00     0.049 A 
ATOM     29  C   UNL A   1      43.537  25.498  29.678  1.00  0.00     0.074 A 
ATOM     30  C   UNL A   1      44.690  29.289  34.645  1.00  0.00     0.029 A 
ATOM     31  N   UNL A   1      43.799  28.310  32.857  1.00  0.00    -0.354 N 
ATOM     32  N   UNL A   1      43.681  26.323  30.687  1.00  0.00    -0.248 NA
ATOM     33  C   UNL A   1      44.626  24.524  29.529  1.00  0.00     0.031 C 
ATOM     34  C   UNL A   1      45.547  28.263  34.227  1.00  0.00     0.029 A 
ATOM     35  C   UNL A   1      44.981  27.643  33.124  1.00  0.00     0.049 A 
ATOM     36  H   UNL A   1      43.182  28.093  32.122  1.00  0.00     0.167 HD
ATOM     37  C   UNL A   1      44.872  25.964  31.299  1.00  0.00     0.074 A 
ATOM     38  C   UNL A   1      45.397  24.830  30.563  1.00  0.00     0.031 C 
ATOM     39  C   UNL A   1      45.483  26.526  32.369  1.00  0.00     0.031 A 
BRANCH  26  40
ATOM     40  C   UNL A   1      42.371  31.245  34.874  1.00  0.00    -0.014 A 
ATOM     41  C   UNL A   1      41.737  30.937  36.088  1.00  0.00     0.009 A 
ATOM     42  C   UNL A   1      42.880  32.537  34.677  1.00  0.00     0.009 A 
ATOM     43  C   UNL A   1      41.587  31.915  37.072  1.00  0.00     0.001 A 
ATOM     44  C   UNL A   1      42.743  33.507  35.671  1.00  0.00     0.001 A 
ATOM     45  C   UNL A   1      42.090  33.199  36.863  1.00  0.00     0.000 A 
ENDBRANCH  26  40
BRANCH  27  46
ATOM     46  C   UNL A   1      42.409  24.381  27.618  1.00  0.00    -0.014 A 
ATOM     47  C   UNL A   1      43.013  24.612  26.374  1.00  0.00     0.009 A 
ATOM     48  C   UNL A   1      41.780  23.146  27.849  1.00  0.00     0.009 A 
ATOM     49  C   UNL A   1      42.969  23.635  25.375  1.00  0.00     0.001 A 
ATOM     50  C   UNL A   1      41.761  22.162  26.858  1.00  0.00     0.001 A 
ATOM     51  C   UNL A   1      42.348  22.411  25.619  1.00  0.00     0.000 A 
ENDBRANCH  27  46
BRANCH  39  52
ATOM     52  C   UNL A   1      46.782  25.914  32.798  1.00  0.00    -0.014 A 
ATOM     53  C   UNL A   1      47.995  26.330  32.228  1.00  0.00     0.009 A 
ATOM     54  C   UNL A   1      46.794  24.923  33.790  1.00  0.00     0.009 A 
ATOM     55  C   UNL A   1      49.195  25.743  32.626  1.00  0.00     0.001 A 
ATOM     56  C   UNL A   1      47.998  24.353  34.200  1.00  0.00     0.001 A 
ATOM     57  C   UNL A   1      49.197  24.757  33.612  1.00  0.00     0.000 A 
ENDBRANCH  39  52
ENDBRANCH  13  14
ENDBRANCH   6   8
ENDBRANCH   5   6
ENDBRANCH   4   5
ENDBRANCH   3   4
ENDBRANCH   2   3
ENDBRANCH   1   2
BRANCH   1  58
ATOM     58  C   UNL A   1      32.503  36.382  31.168  1.00  0.00     0.188 C 
BRANCH  58  59
ATOM     59  O   UNL A   1      33.591  36.540  32.083  1.00  0.00    -0.376 OA
BRANCH  59  60
ATOM     60  C   UNL A   1      34.471  35.426  32.225  1.00  0.00     0.202 C 
BRANCH  60  61
ATOM     61  C   UNL A   1      34.620  34.886  33.651  1.00  0.00     0.261 C 
BRANCH  61  62
ATOM     62  O   UNL A   1      34.582  33.451  33.750  1.00  0.00    -0.460 OA
BRANCH  62  63
ATOM     63  C   UNL A   1      35.610  32.821  33.130  1.00  0.00     0.339 C 
ATOM     64  O   UNL A   1      35.555  32.048  32.190  1.00  0.00    -0.246 OA
BRANCH  63  65
ATOM     65  C   UNL A   1      36.883  33.185  33.763  1.00  0.00     0.079 A 
ATOM     66  C   UNL A   1      37.033  32.981  35.144  1.00  0.00     0.026 A 
ATOM     67  C   UNL A   1      37.844  33.894  33.038  1.00  0.00     0.055 A 
ATOM     68  C   UNL A   1      38.154  33.499  35.806  1.00  0.00    -0.012 A 
ATOM     69  C   UNL A   1      38.955  34.416  33.702  1.00  0.00     0.022 A 
ATOM     70  Cl  UNL A   1      37.707  34.181  31.342  1.00  0.00    -0.083 Cl
ATOM     71  C   UNL A   1      39.112  34.215  35.075  1.00  0.00     0.010 A 
BRANCH  68  72
ATOM     72  C   UNL A   1      38.320  33.373  37.262  1.00  0.00     0.047 A 
ATOM     73  C   UNL A   1      38.681  34.428  38.017  1.00  0.00     0.016 A 
ATOM     74  C   UNL A   1      38.017  32.069  37.953  1.00  0.00     0.255 A 
ATOM     75  C   UNL A   1      38.777  34.323  39.457  1.00  0.00     0.019 A 
ATOM     76  N   UNL A   1      38.134  32.070  39.324  1.00  0.00    -0.329 N 
ATOM     77  O   UNL A   1      37.677  31.062  37.341  1.00  0.00    -0.269 OA
ATOM     78  C   UNL A   1      38.500  33.162  40.063  1.00  0.00     0.086 A 
ATOM     79  H   UNL A   1      37.942  31.232  39.803  1.00  0.00     0.169 HD
ENDBRANCH  68  72
ENDBRANCH  63  65
ENDBRANCH  62  63
ENDBRANCH  61  62
ENDBRANCH  60  61
ENDBRANCH  59  60
ENDBRANCH  58  59
ENDBRANCH   1  58
TORSDOF 18
ENDMDL
MODEL 2
REMARK VINA RESULT:      -8.8      5.733     12.429
REMARK SMILES O=C(OCCOCCOCCOC(=O)c1cc(-c2ccc[nH]c2=O)ccc1Cl)c1ccc(-c2c3nc(c(-c4ccccc4)c4ccc([nH]4)c(-c4ccccc4)c4nc(c(-c5ccccc5)c5ccc2[nH]5)C=C4)C=C3)cc1
REMARK SMILES IDX 7 1 6 2 5 3 4 4 3 5 2 6 1 7 29 8 30 9 76 10 31 11 75 12
REMARK SMILES IDX 32 13 33 14 34 15 69 16 35 17 74 18 68 19 70 20 36 21 73 22
REMARK SMILES IDX 67 23 66 24 37 26 59 27 44 28 58 29 45 30 48 31 57 32 71 33
REMARK SMILES IDX 46 34 47 35 56 37 72 38 49 39 38 40 39 41 43 42 40 43 42 44
REMARK SMILES IDX 41 45 60 46 61 47 65 48 62 49 64 50 63 51 50 52 51 53 55 54
REMARK SMILES IDX 52 55 54 56 53 57 8 58 9 59 10 60 11 61 12 62 13 63 14 64
REMARK SMILES IDX 15 65 16 66 27 67 17 68 26 69 28 70 25 71 18 72 19 73 23 74
REMARK SMILES IDX 20 75 22 76 24 77 21 78
REMARK H PARENT 70 25 48 36 22 79
REMARK Flexibility Score: inf
ROOT
ATOM      1  C   UNL A   1      40.309  21.439  26.796  1.00  0.00     0.188 C 
ENDROOT
BRANCH   1   2
ATOM      2  O   UNL A   1      41.247  20.526  26.207  1.00  0.00    -0.376 OA
BRANCH   2   3
ATOM      3  C   UNL A   1      42.602  20.774  26.587  1.00  0.00     0.202 C 
BRANCH   3   4
ATOM      4  C   UNL A   1      43.468  21.310  25.442  1.00  0.00     0.261 C 
BRANCH   4   5
ATOM      5  O   UNL A   1      43.009  22.596  24.988  1.00  0.00    -0.460 OA
BRANCH   5   6
ATOM      6  C   UNL A   1      43.590  23.805  25.184  1.00  0.00     0.338 C 
ATOM      7  O   UNL A   1      44.529  24.138  24.463  1.00  0.00    -0.246 OA
BRANCH   6   8
ATOM      8  C   UNL A   1      43.102  24.807  26.183  1.00  0.00     0.060 A 
ATOM      9  C   UNL A   1      43.474  26.150  26.217  1.00  0.00     0.016 A 
ATOM     10  C   UNL A   1      42.146  24.365  27.114  1.00  0.00     0.016 A 
ATOM     11  C   UNL A   1      43.020  26.995  27.226  1.00  0.00     0.010 A 
ATOM     12  C   UNL A   1      41.625  25.230  28.086  1.00  0.00     0.010 A 
ATOM     13  C   UNL A   1      42.095  26.544  28.170  1.00  0.00    -0.014 A 
BRANCH  13  14
ATOM     14  C   UNL A   1      41.699  27.455  29.268  1.00  0.00     0.031 A 
ATOM     15  C   UNL A   1      40.424  28.240  29.155  1.00  0.00     0.074 A 
ATOM     16  C   UNL A   1      42.401  27.464  30.416  1.00  0.00     0.049 A 
ATOM     17  N   UNL A   1      39.862  29.028  30.035  1.00  0.00    -0.248 NA
ATOM     18  C   UNL A   1      39.671  28.103  27.897  1.00  0.00     0.031 C 
ATOM     19  C   UNL A   1      43.602  26.667  30.674  1.00  0.00     0.029 A 
ATOM     20  N   UNL A   1      42.181  28.126  31.595  1.00  0.00    -0.354 N 
ATOM     21  C   UNL A   1      38.687  29.472  29.444  1.00  0.00     0.074 A 
ATOM     22  C   UNL A   1      38.632  28.894  28.118  1.00  0.00     0.031 C 
ATOM     23  C   UNL A   1      43.977  26.848  31.949  1.00  0.00     0.029 A 
ATOM     24  C   UNL A   1      43.094  27.821  32.575  1.00  0.00     0.049 A 
ATOM     25  H   UNL A   1      41.438  28.759  31.729  1.00  0.00     0.167 HD
ATOM     26  C   UNL A   1      37.733  30.280  29.960  1.00  0.00     0.031 A 
ATOM     27  C   UNL A   1      43.219  28.280  33.833  1.00  0.00     0.031 A 
ATOM     28  C   UNL A   1      37.798  30.872  31.268  1.00  0.00     0.049 A 
ATOM     29  C   UNL A   1      42.206  29.259  34.345  1.00  0.00     0.074 A 
ATOM     30  C   UNL A   1      36.925  31.769  31.857  1.00  0.00     0.029 A 
ATOM     31  N   UNL A   1      38.800  30.619  32.193  1.00  0.00    -0.354 N 
ATOM     32  N   UNL A   1      41.129  29.714  33.750  1.00  0.00    -0.248 NA
ATOM     33  C   UNL A   1      42.422  29.790  35.697  1.00  0.00     0.031 C 
ATOM     34  C   UNL A   1      37.417  32.083  33.130  1.00  0.00     0.029 A 
ATOM     35  C   UNL A   1      38.575  31.352  33.344  1.00  0.00     0.049 A 
ATOM     36  H   UNL A   1      39.558  30.007  32.051  1.00  0.00     0.167 HD
ATOM     37  C   UNL A   1      40.536  30.578  34.656  1.00  0.00     0.074 A 
ATOM     38  C   UNL A   1      41.357  30.564  35.851  1.00  0.00     0.031 C 
ATOM     39  C   UNL A   1      39.414  31.325  34.512  1.00  0.00     0.031 A 
BRANCH  26  40
ATOM     40  C   UNL A   1      36.562  30.590  29.076  1.00  0.00    -0.014 A 
ATOM     41  C   UNL A   1      35.692  29.575  28.648  1.00  0.00     0.009 A 
ATOM     42  C   UNL A   1      36.340  31.907  28.647  1.00  0.00     0.009 A 
ATOM     43  C   UNL A   1      34.639  29.869  27.780  1.00  0.00     0.001 A 
ATOM     44  C   UNL A   1      35.276  32.200  27.793  1.00  0.00     0.001 A 
ATOM     45  C   UNL A   1      34.432  31.181  27.353  1.00  0.00     0.000 A 
ENDBRANCH  26  40
BRANCH  27  46
ATOM     46  C   UNL A   1      44.366  27.849  34.676  1.00  0.00    -0.014 A 
ATOM     47  C   UNL A   1      44.272  26.724  35.506  1.00  0.00     0.009 A 
ATOM     48  C   UNL A   1      45.567  28.579  34.654  1.00  0.00     0.009 A 
ATOM     49  C   UNL A   1      45.350  26.350  36.314  1.00  0.00     0.001 A 
ATOM     50  C   UNL A   1      46.650  28.188  35.442  1.00  0.00     0.001 A 
ATOM     51  C   UNL A   1      46.538  27.079  36.278  1.00  0.00     0.000 A 
ENDBRANCH  27  46
BRANCH  39  52
ATOM     52  C   UNL A   1      39.023  32.179  35.680  1.00  0.00    -0.014 A 
ATOM     53  C   UNL A   1      39.420  33.522  35.753  1.00  0.00     0.009 A 
ATOM     54  C   UNL A   1      38.237  31.638  36.708  1.00  0.00     0.009 A 
ATOM     55  C   UNL A   1      39.061  34.302  36.852  1.00  0.00     0.001 A 
ATOM     56  C   UNL A   1      37.862  32.427  37.795  1.00  0.00     0.001 A 
ATOM     57  C   UNL A   1      38.281  33.755  37.870  1.00  0.00     0.000 A 
ENDBRANCH  39  52
ENDBRANCH  13  14
ENDBRANCH   6   8
ENDBRANCH   5   6
ENDBRANCH   4   5
ENDBRANCH   3   4
ENDBRANCH   2   3
ENDBRANCH   1   2
BRANCH   1  58
ATOM     58  C   UNL A   1      39.389  22.015  25.718  1.00  0.00     0.188 C 
BRANCH  58  59
ATOM     59  O   UNL A   1      38.099  22.396  26.207  1.00  0.00    -0.376 OA
BRANCH  59  60
ATOM     60  C   UNL A   1      37.084  22.608  25.229  1.00  0.00     0.202 C 
BRANCH  60  61
ATOM     61  C   UNL A   1      35.862  23.396  25.712  1.00  0.00     0.261 C 
BRANCH  61  62
ATOM     62  O   UNL A   1      34.851  23.600  24.709  1.00  0.00    -0.460 OA
BRANCH  62  63
ATOM     63  C   UNL A   1      33.587  23.355  25.134  1.00  0.00     0.339 C 
ATOM     64  O   UNL A   1      32.978  23.912  26.030  1.00  0.00    -0.246 OA
BRANCH  63  65
ATOM     65  C   UNL A   1      32.992  22.263  24.353  1.00  0.00     0.079 A 
ATOM     66  C   UNL A   1      33.238  20.938  24.749  1.00  0.00     0.026 A 
ATOM     67  C   UNL A   1      32.360  22.539  23.138  1.00  0.00     0.055 A 
ATOM     68  C   UNL A   1      32.853  19.881  23.915  1.00  0.00    -0.012 A 
ATOM     69  C   UNL A   1      31.985  21.484  22.306  1.00  0.00     0.022 A 
ATOM     70  Cl  UNL A   1      32.039  24.147  22.599  1.00  0.00    -0.083 Cl
ATOM     71  C   UNL A   1      32.225  20.164  22.694  1.00  0.00     0.010 A 
BRANCH  68  72
ATOM     72  C   UNL A   1      33.153  18.481  24.252  1.00  0.00     0.047 A 
ATOM     73  C   UNL A   1      33.687  17.644  23.343  1.00  0.00     0.016 A 
ATOM     74  C   UNL A   1      32.933  17.971  25.653  1.00  0.00     0.255 A 
ATOM     75  C   UNL A   1      34.047  16.286  23.693  1.00  0.00     0.019 A 
ATOM     76  N   UNL A   1      33.309  16.669  25.887  1.00  0.00    -0.329 N 
ATOM     77  O   UNL A   1      32.457  18.670  26.541  1.00  0.00    -0.269 OA
ATOM     78  C   UNL A   1      33.853  15.844  24.941  1.00  0.00     0.086 A 
ATOM     79  H   UNL A   1      33.178  16.308  26.794  1.00  0.00     0.169 HD
ENDBRANCH  68  72
ENDBRANCH  63  65
ENDBRANCH  62  63
ENDBRANCH  61  62
ENDBRANCH  60  61
ENDBRANCH  59  60
ENDBRANCH  58  59
ENDBRANCH   1  58
TORSDOF 18
ENDMDL
MODEL 3
REMARK VINA RESULT:      -8.6      5.684     12.145
REMARK SMILES O=C(OCCOCCOCCOC(=O)c1cc(-c2ccc[nH]c2=O)ccc1Cl)c1ccc(-c2c3nc(c(-c4ccccc4)c4ccc([nH]4)c(-c4ccccc4)c4nc(c(-c5ccccc5)c5ccc2[nH]5)C=C4)C=C3)cc1
REMARK SMILES IDX 7 1 6 2 5 3 4 4 3 5 2 6 1 7 29 8 30 9 76 10 31 11 75 12
REMARK SMILES IDX 32 13 33 14 34 15 69 16 35 17 74 18 68 19 70 20 36 21 73 22
REMARK SMILES IDX 67 23 66 24 37 26 59 27 44 28 58 29 45 30 48 31 57 32 71 33
REMARK SMILES IDX 46 34 47 35 56 37 72 38 49 39 38 40 39 41 43 42 40 43 42 44
REMARK SMILES IDX 41 45 60 46 61 47 65 48 62 49 64 50 63 51 50 52 51 53 55 54
REMARK SMILES IDX 52 55 54 56 53 57 8 58 9 59 10 60 11 61 12 62 13 63 14 64
REMARK SMILES IDX 15 65 16 66 27 67 17 68 26 69 28 70 25 71 18 72 19 73 23 74
REMARK SMILES IDX 20 75 22 76 24 77 21 78
REMARK H PARENT 70 25 48 36 22 79
REMARK Flexibility Score: inf
ROOT
ATOM      1  C   UNL A   1      40.455  21.450  26.641  1.00  0.00     0.188 C 
ENDROOT
BRANCH   1   2
ATOM      2  O   UNL A   1      41.537  20.772  25.986  1.00  0.00    -0.376 OA
BRANCH   2   3
ATOM      3  C   UNL A   1      42.826  21.279  26.336  1.00  0.00     0.202 C 
BRANCH   3   4
ATOM      4  C   UNL A   1      43.578  21.901  25.155  1.00  0.00     0.261 C 
BRANCH   4   5
ATOM      5  O   UNL A   1      43.099  23.226  24.861  1.00  0.00    -0.460 OA
BRANCH   5   6
ATOM      6  C   UNL A   1      43.664  24.411  25.198  1.00  0.00     0.338 C 
ATOM      7  O   UNL A   1      44.638  24.808  24.558  1.00  0.00    -0.246 OA
BRANCH   6   8
ATOM      8  C   UNL A   1      43.124  25.316  26.259  1.00  0.00     0.060 A 
ATOM      9  C   UNL A   1      43.522  26.636  26.465  1.00  0.00     0.016 A 
ATOM     10  C   UNL A   1      42.090  24.807  27.065  1.00  0.00     0.016 A 
ATOM     11  C   UNL A   1      43.010  27.384  27.522  1.00  0.00     0.010 A 
ATOM     12  C   UNL A   1      41.515  25.580  28.082  1.00  0.00     0.010 A 
ATOM     13  C   UNL A   1      42.006  26.864  28.342  1.00  0.00    -0.014 A 
BRANCH  13  14
ATOM     14  C   UNL A   1      41.547  27.666  29.499  1.00  0.00     0.031 A 
ATOM     15  C   UNL A   1      42.345  27.656  30.769  1.00  0.00     0.074 A 
ATOM     16  C   UNL A   1      40.506  28.507  29.358  1.00  0.00     0.049 A 
ATOM     17  N   UNL A   1      42.158  28.348  31.864  1.00  0.00    -0.248 NA
ATOM     18  C   UNL A   1      43.521  26.772  30.807  1.00  0.00     0.031 C 
ATOM     19  C   UNL A   1      39.717  28.673  28.135  1.00  0.00     0.029 A 
ATOM     20  N   UNL A   1      39.966  29.417  30.229  1.00  0.00    -0.354 N 
ATOM     21  C   UNL A   1      43.195  27.990  32.715  1.00  0.00     0.074 A 
ATOM     22  C   UNL A   1      43.990  26.997  32.025  1.00  0.00     0.031 C 
ATOM     23  C   UNL A   1      38.831  29.663  28.322  1.00  0.00     0.029 A 
ATOM     24  C   UNL A   1      38.939  30.151  29.688  1.00  0.00     0.049 A 
ATOM     25  H   UNL A   1      40.283  29.534  31.153  1.00  0.00     0.167 HD
ATOM     26  C   UNL A   1      43.470  28.454  33.956  1.00  0.00     0.031 A 
ATOM     27  C   UNL A   1      38.160  31.104  30.231  1.00  0.00     0.031 A 
ATOM     28  C   UNL A   1      42.669  29.424  34.650  1.00  0.00     0.049 A 
ATOM     29  C   UNL A   1      38.418  31.524  31.647  1.00  0.00     0.074 A 
ATOM     30  C   UNL A   1      42.812  29.902  35.940  1.00  0.00     0.029 A 
ATOM     31  N   UNL A   1      41.569  30.068  34.103  1.00  0.00    -0.354 N 
ATOM     32  N   UNL A   1      39.370  31.133  32.459  1.00  0.00    -0.248 NA
ATOM     33  C   UNL A   1      37.497  32.512  32.223  1.00  0.00     0.031 C 
ATOM     34  C   UNL A   1      41.778  30.814  36.184  1.00  0.00     0.029 A 
ATOM     35  C   UNL A   1      41.016  30.930  35.032  1.00  0.00     0.049 A 
ATOM     36  H   UNL A   1      41.233  29.932  33.188  1.00  0.00     0.167 HD
ATOM     37  C   UNL A   1      39.169  31.831  33.639  1.00  0.00     0.074 A 
ATOM     38  C   UNL A   1      38.020  32.690  33.428  1.00  0.00     0.031 C 
ATOM     39  C   UNL A   1      39.867  31.764  34.798  1.00  0.00     0.031 A 
BRANCH  26  40
ATOM     40  C   UNL A   1      44.672  27.875  34.641  1.00  0.00    -0.014 A 
ATOM     41  C   UNL A   1      44.571  26.704  35.408  1.00  0.00     0.009 A 
ATOM     42  C   UNL A   1      45.913  28.520  34.537  1.00  0.00     0.009 A 
ATOM     43  C   UNL A   1      45.686  26.208  36.086  1.00  0.00     0.001 A 
ATOM     44  C   UNL A   1      47.030  28.011  35.202  1.00  0.00     0.001 A 
ATOM     45  C   UNL A   1      46.914  26.861  35.982  1.00  0.00     0.000 A 
ENDBRANCH  26  40
BRANCH  27  46
ATOM     46  C   UNL A   1      37.041  31.692  29.447  1.00  0.00    -0.014 A 
ATOM     47  C   UNL A   1      37.215  32.872  28.711  1.00  0.00     0.009 A 
ATOM     48  C   UNL A   1      35.782  31.068  29.443  1.00  0.00     0.009 A 
ATOM     49  C   UNL A   1      36.145  33.427  28.003  1.00  0.00     0.001 A 
ATOM     50  C   UNL A   1      34.722  31.610  28.714  1.00  0.00     0.001 A 
ATOM     51  C   UNL A   1      34.902  32.794  28.001  1.00  0.00     0.000 A 
ENDBRANCH  27  46
BRANCH  39  52
ATOM     52  C   UNL A   1      39.399  32.647  35.915  1.00  0.00    -0.014 A 
ATOM     53  C   UNL A   1      38.283  32.295  36.689  1.00  0.00     0.009 A 
ATOM     54  C   UNL A   1      40.090  33.832  36.205  1.00  0.00     0.009 A 
ATOM     55  C   UNL A   1      37.849  33.132  37.716  1.00  0.00     0.001 A 
ATOM     56  C   UNL A   1      39.666  34.656  37.246  1.00  0.00     0.001 A 
ATOM     57  C   UNL A   1      38.541  34.310  37.995  1.00  0.00     0.000 A 
ENDBRANCH  39  52
ENDBRANCH  13  14
ENDBRANCH   6   8
ENDBRANCH   5   6
ENDBRANCH   4   5
ENDBRANCH   3   4
ENDBRANCH   2   3
ENDBRANCH   1   2
BRANCH   1  58
ATOM     58  C   UNL A   1      39.216  21.455  25.743  1.00  0.00     0.188 C 
BRANCH  58  59
ATOM     59  O   UNL A   1      38.192  22.353  26.181  1.00  0.00    -0.376 OA
BRANCH  59  60
ATOM     60  C   UNL A   1      37.186  22.687  25.228  1.00  0.00     0.202 C 
BRANCH  60  61
ATOM     61  C   UNL A   1      36.013  23.507  25.772  1.00  0.00     0.261 C 
BRANCH  61  62
ATOM     62  O   UNL A   1      34.906  23.639  24.862  1.00  0.00    -0.460 OA
BRANCH  62  63
ATOM     63  C   UNL A   1      33.704  23.309  25.394  1.00  0.00     0.339 C 
ATOM     64  O   UNL A   1      33.136  23.828  26.338  1.00  0.00    -0.246 OA
BRANCH  63  65
ATOM     65  C   UNL A   1      33.125  22.171  24.668  1.00  0.00     0.079 A 
ATOM     66  C   UNL A   1      33.399  20.871  25.121  1.00  0.00     0.026 A 
ATOM     67  C   UNL A   1      32.478  22.379  23.448  1.00  0.00     0.055 A 
ATOM     68  C   UNL A   1      33.029  19.769  24.340  1.00  0.00    -0.012 A 
ATOM     69  C   UNL A   1      32.117  21.281  22.667  1.00  0.00     0.022 A 
ATOM     70  Cl  UNL A   1      32.121  23.955  22.840  1.00  0.00    -0.083 Cl
ATOM     71  C   UNL A   1      32.386  19.984  23.112  1.00  0.00     0.010 A 
BRANCH  68  72
ATOM     72  C   UNL A   1      33.359  18.392  24.736  1.00  0.00     0.047 A 
ATOM     73  C   UNL A   1      32.395  17.505  25.047  1.00  0.00     0.016 A 
ATOM     74  C   UNL A   1      34.790  17.920  24.732  1.00  0.00     0.255 A 
ATOM     75  C   UNL A   1      32.715  16.131  25.369  1.00  0.00     0.019 A 
ATOM     76  N   UNL A   1      34.991  16.597  25.049  1.00  0.00    -0.329 N 
ATOM     77  O   UNL A   1      35.727  18.662  24.455  1.00  0.00    -0.269 OA
ATOM     78  C   UNL A   1      33.988  15.720  25.358  1.00  0.00     0.086 A 
ATOM     79  H   UNL A   1      35.916  16.261  25.054  1.00  0.00     0.169 HD
ENDBRANCH  68  72
ENDBRANCH  63  65
ENDBRANCH  62  63
ENDBRANCH  61  62
ENDBRANCH  60  61
ENDBRANCH  59  60
ENDBRANCH  58  59
ENDBRANCH   1  58
TORSDOF 18
ENDMDL
