MODEL 1
REMARK VINA RESULT:      -9.9      0.000      0.000
REMARK SMILES CSc1cccc(N2C[C@@H](C(=O)OCCOCCOCCOC(=O)c3ccc(-c4c5nc(c(-c6ccccc6)c6ccc([nH]6)c(-c6ccccc6)c6nc(c(-c7ccccc7)c7ccc4[nH]7)C=C6)C=C5)cc3)CC2=O)c1
REMARK SMILES IDX 17 1 16 2 15 3 14 4 13 5 11 6 12 7 10 8 8 9 9 10 74 11 73 12
REMARK SMILES IDX 75 13 7 14 3 15 4 16 76 17 5 18 6 19 2 20 1 21 18 22 19 23
REMARK SMILES IDX 20 24 21 25 22 26 23 27 24 28 25 29 26 30 72 31 27 32 71 33
REMARK SMILES IDX 28 34 29 35 30 36 65 37 31 38 70 39 64 40 66 41 32 42 69 43
REMARK SMILES IDX 63 44 62 45 33 47 55 48 40 49 54 50 41 51 44 52 53 53 67 54
REMARK SMILES IDX 42 55 43 56 52 58 68 59 45 60 34 61 35 62 39 63 36 64 38 65
REMARK SMILES IDX 37 66 56 67 57 68 61 69 58 70 60 71 59 72 46 73 47 74 51 75
REMARK SMILES IDX 48 76 50 77 49 78
REMARK H PARENT 66 46 44 57
REMARK Flexibility Score: inf
ROOT
ATOM      1  C   UNL A   1      41.413  20.625  26.834  1.00  0.00     0.188 C 
ENDROOT
BRANCH   1   2
ATOM      2  O   UNL A   1      40.453  21.274  26.007  1.00  0.00    -0.376 OA
BRANCH   2   3
ATOM      3  C   UNL A   1      39.681  22.345  26.542  1.00  0.00     0.202 C 
BRANCH   3   4
ATOM      4  C   UNL A   1      38.267  22.580  25.983  1.00  0.00     0.261 C 
BRANCH   4   5
ATOM      5  O   UNL A   1      37.595  21.389  25.520  1.00  0.00    -0.463 OA
BRANCH   5   6
ATOM      6  C   UNL A   1      36.316  21.532  25.100  1.00  0.00     0.311 C 
ATOM      7  O   UNL A   1      35.477  20.637  25.114  1.00  0.00    -0.252 OA
BRANCH   6   8
ATOM      8  C   UNL A   1      35.955  22.938  24.659  1.00  0.00     0.128 C 
ATOM      9  N   UNL A   1      34.027  24.285  24.693  1.00  0.00    -0.311 N 
ATOM     10  C   UNL A   1      34.792  23.389  25.520  1.00  0.00     0.141 C 
ATOM     11  C   UNL A   1      34.366  24.188  23.352  1.00  0.00     0.227 C 
ATOM     12  C   UNL A   1      35.483  23.197  23.231  1.00  0.00     0.117 C 
ATOM     13  O   UNL A   1      33.897  24.786  22.397  1.00  0.00    -0.274 OA
BRANCH   9  14
ATOM     14  C   UNL A   1      32.886  24.943  25.189  1.00  0.00     0.045 A 
ATOM     15  C   UNL A   1      31.722  27.009  25.719  1.00  0.00     0.009 A 
ATOM     16  C   UNL A   1      30.577  26.269  26.026  1.00  0.00     0.015 A 
ATOM     17  C   UNL A   1      32.884  26.334  25.340  1.00  0.00     0.041 A 
ATOM     18  C   UNL A   1      30.582  24.878  25.913  1.00  0.00     0.003 A 
ATOM     19  C   UNL A   1      31.726  24.218  25.474  1.00  0.00     0.026 A 
BRANCH  15  20
ATOM     20  S   UNL A   1      31.771  28.791  25.799  1.00  0.00    -0.130 SA
ATOM     21  C   UNL A   1      31.025  29.226  24.206  1.00  0.00     0.091 C 
ENDBRANCH  15  20
ENDBRANCH   9  14
ENDBRANCH   6   8
ENDBRANCH   5   6
ENDBRANCH   4   5
ENDBRANCH   3   4
ENDBRANCH   2   3
ENDBRANCH   1   2
BRANCH   1  22
ATOM     22  C   UNL A   1      42.292  19.513  26.242  1.00  0.00     0.188 C 
BRANCH  22  23
ATOM     23  O   UNL A   1      42.947  19.844  25.041  1.00  0.00    -0.376 OA
BRANCH  23  24
ATOM     24  C   UNL A   1      44.333  20.117  25.108  1.00  0.00     0.202 C 
BRANCH  24  25
ATOM     25  C   UNL A   1      44.791  21.542  24.752  1.00  0.00     0.261 C 
BRANCH  25  26
ATOM     26  O   UNL A   1      44.505  22.568  25.720  1.00  0.00    -0.460 OA
BRANCH  26  27
ATOM     27  C   UNL A   1      44.756  23.846  25.347  1.00  0.00     0.338 C 
ATOM     28  O   UNL A   1      45.424  24.210  24.399  1.00  0.00    -0.246 OA
BRANCH  27  29
ATOM     29  C   UNL A   1      43.883  24.744  26.144  1.00  0.00     0.060 A 
ATOM     30  C   UNL A   1      44.183  26.114  26.186  1.00  0.00     0.016 A 
ATOM     31  C   UNL A   1      42.798  24.241  26.864  1.00  0.00     0.016 A 
ATOM     32  C   UNL A   1      43.436  26.974  26.992  1.00  0.00     0.010 A 
ATOM     33  C   UNL A   1      42.062  25.101  27.690  1.00  0.00     0.010 A 
ATOM     34  C   UNL A   1      42.409  26.461  27.796  1.00  0.00    -0.014 A 
BRANCH  34  35
ATOM     35  C   UNL A   1      41.874  27.284  28.911  1.00  0.00     0.031 A 
ATOM     36  C   UNL A   1      42.599  27.246  30.232  1.00  0.00     0.074 A 
ATOM     37  C   UNL A   1      40.801  28.082  28.762  1.00  0.00     0.049 A 
ATOM     38  N   UNL A   1      42.320  27.859  31.355  1.00  0.00    -0.248 NA
ATOM     39  C   UNL A   1      43.803  26.400  30.292  1.00  0.00     0.031 C 
ATOM     40  C   UNL A   1      40.036  28.257  27.531  1.00  0.00     0.029 A 
ATOM     41  N   UNL A   1      40.171  28.898  29.671  1.00  0.00    -0.354 N 
ATOM     42  C   UNL A   1      43.304  27.461  32.254  1.00  0.00     0.074 A 
ATOM     43  C   UNL A   1      44.165  26.531  31.558  1.00  0.00     0.031 C 
ATOM     44  C   UNL A   1      39.033  29.125  27.762  1.00  0.00     0.029 A 
ATOM     45  C   UNL A   1      39.067  29.539  29.164  1.00  0.00     0.049 A 
ATOM     46  H   UNL A   1      40.481  29.012  30.598  1.00  0.00     0.167 HD
ATOM     47  C   UNL A   1      43.484  27.839  33.542  1.00  0.00     0.031 A 
ATOM     48  C   UNL A   1      38.179  30.354  29.767  1.00  0.00     0.031 A 
ATOM     49  C   UNL A   1      42.625  28.752  34.245  1.00  0.00     0.049 A 
ATOM     50  C   UNL A   1      38.354  30.700  31.225  1.00  0.00     0.074 A 
ATOM     51  C   UNL A   1      42.732  29.204  35.550  1.00  0.00     0.029 A 
ATOM     52  N   UNL A   1      41.496  29.348  33.706  1.00  0.00    -0.354 N 
ATOM     53  N   UNL A   1      39.299  30.335  32.056  1.00  0.00    -0.248 NA
ATOM     54  C   UNL A   1      37.342  31.586  31.820  1.00  0.00     0.031 C 
ATOM     55  C   UNL A   1      41.631  30.024  35.818  1.00  0.00     0.029 A 
ATOM     56  C   UNL A   1      40.883  30.144  34.658  1.00  0.00     0.049 A 
ATOM     57  H   UNL A   1      41.178  29.224  32.783  1.00  0.00     0.167 HD
ATOM     58  C   UNL A   1      39.019  30.978  33.259  1.00  0.00     0.074 A 
ATOM     59  C   UNL A   1      37.823  31.765  33.041  1.00  0.00     0.031 C 
ATOM     60  C   UNL A   1      39.694  30.927  34.433  1.00  0.00     0.031 A 
BRANCH  47  61
ATOM     61  C   UNL A   1      44.639  27.225  34.286  1.00  0.00    -0.014 A 
ATOM     62  C   UNL A   1      45.964  27.611  34.032  1.00  0.00     0.009 A 
ATOM     63  C   UNL A   1      44.391  26.259  35.274  1.00  0.00     0.009 A 
ATOM     64  C   UNL A   1      47.020  27.016  34.727  1.00  0.00     0.001 A 
ATOM     65  C   UNL A   1      45.445  25.690  35.990  1.00  0.00     0.001 A 
ATOM     66  C   UNL A   1      46.759  26.060  35.709  1.00  0.00     0.000 A 
ENDBRANCH  47  61
BRANCH  48  67
ATOM     67  C   UNL A   1      37.022  30.898  29.003  1.00  0.00    -0.014 A 
ATOM     68  C   UNL A   1      36.982  32.249  28.625  1.00  0.00     0.009 A 
ATOM     69  C   UNL A   1      35.932  30.074  28.683  1.00  0.00     0.009 A 
ATOM     70  C   UNL A   1      35.862  32.768  27.969  1.00  0.00     0.001 A 
ATOM     71  C   UNL A   1      34.829  30.588  27.998  1.00  0.00     0.001 A 
ATOM     72  C   UNL A   1      34.789  31.937  27.652  1.00  0.00     0.000 A 
ENDBRANCH  48  67
BRANCH  60  73
ATOM     73  C   UNL A   1      39.193  31.791  35.561  1.00  0.00    -0.014 A 
ATOM     74  C   UNL A   1      39.589  33.130  35.700  1.00  0.00     0.009 A 
ATOM     75  C   UNL A   1      38.280  31.256  36.485  1.00  0.00     0.009 A 
ATOM     76  C   UNL A   1      39.119  33.899  36.767  1.00  0.00     0.001 A 
ATOM     77  C   UNL A   1      37.785  32.037  37.530  1.00  0.00     0.001 A 
ATOM     78  C   UNL A   1      38.215  33.354  37.678  1.00  0.00     0.000 A 
ENDBRANCH  60  73
ENDBRANCH  34  35
ENDBRANCH  27  29
ENDBRANCH  26  27
ENDBRANCH  25  26
ENDBRANCH  24  25
ENDBRANCH  23  24
ENDBRANCH  22  23
ENDBRANCH   1  22
TORSDOF 19
ENDMDL
MODEL 2
REMARK VINA RESULT:      -9.6      3.737      4.894
REMARK SMILES CSc1cccc(N2C[C@@H](C(=O)OCCOCCOCCOC(=O)c3ccc(-c4c5nc(c(-c6ccccc6)c6ccc([nH]6)c(-c6ccccc6)c6nc(c(-c7ccccc7)c7ccc4[nH]7)C=C6)C=C5)cc3)CC2=O)c1
REMARK SMILES IDX 17 1 16 2 15 3 14 4 13 5 11 6 12 7 10 8 8 9 9 10 74 11 73 12
REMARK SMILES IDX 75 13 7 14 3 15 4 16 76 17 5 18 6 19 2 20 1 21 18 22 19 23
REMARK SMILES IDX 20 24 21 25 22 26 23 27 24 28 25 29 26 30 72 31 27 32 71 33
REMARK SMILES IDX 28 34 29 35 30 36 65 37 31 38 70 39 64 40 66 41 32 42 69 43
REMARK SMILES IDX 63 44 62 45 33 47 55 48 40 49 54 50 41 51 44 52 53 53 67 54
REMARK SMILES IDX 42 55 43 56 52 58 68 59 45 60 34 61 35 62 39 63 36 64 38 65
REMARK SMILES IDX 37 66 56 67 57 68 61 69 58 70 60 71 59 72 46 73 47 74 51 75
REMARK SMILES IDX 48 76 50 77 49 78
REMARK H PARENT 66 46 44 57
REMARK Flexibility Score: inf
ROOT
ATOM      1  C   UNL A   1      40.649  21.423  27.031  1.00  0.00     0.188 C 
ENDROOT
BRANCH   1   2
ATOM      2  O   UNL A   1      40.213  22.570  26.311  1.00  0.00    -0.376 OA
BRANCH   2   3
ATOM      3  C   UNL A   1      38.875  23.031  26.474  1.00  0.00     0.202 C 
BRANCH   3   4
ATOM      4  C   UNL A   1      37.821  22.608  25.436  1.00  0.00     0.261 C 
BRANCH   4   5
ATOM      5  O   UNL A   1      36.484  22.463  25.959  1.00  0.00    -0.463 OA
BRANCH   5   6
ATOM      6  C   UNL A   1      35.801  21.353  25.591  1.00  0.00     0.311 C 
ATOM      7  O   UNL A   1      36.321  20.328  25.163  1.00  0.00    -0.252 OA
BRANCH   6   8
ATOM      8  C   UNL A   1      34.303  21.437  25.815  1.00  0.00     0.128 C 
ATOM      9  N   UNL A   1      32.657  23.113  25.687  1.00  0.00    -0.311 N 
ATOM     10  C   UNL A   1      33.790  22.587  24.972  1.00  0.00     0.141 C 
ATOM     11  C   UNL A   1      32.607  22.668  27.000  1.00  0.00     0.227 C 
ATOM     12  C   UNL A   1      33.749  21.722  27.208  1.00  0.00     0.117 C 
ATOM     13  O   UNL A   1      31.797  22.941  27.870  1.00  0.00    -0.274 OA
BRANCH   9  14
ATOM     14  C   UNL A   1      31.892  24.173  25.167  1.00  0.00     0.045 A 
ATOM     15  C   UNL A   1      31.442  26.556  25.014  1.00  0.00     0.009 A 
ATOM     16  C   UNL A   1      30.485  26.298  24.029  1.00  0.00     0.015 A 
ATOM     17  C   UNL A   1      32.112  25.483  25.606  1.00  0.00     0.041 A 
ATOM     18  C   UNL A   1      30.234  24.991  23.611  1.00  0.00     0.003 A 
ATOM     19  C   UNL A   1      30.951  23.933  24.162  1.00  0.00     0.026 A 
BRANCH  15  20
ATOM     20  S   UNL A   1      31.844  28.206  25.562  1.00  0.00    -0.130 SA
ATOM     21  C   UNL A   1      30.991  29.200  24.310  1.00  0.00     0.091 C 
ENDBRANCH  15  20
ENDBRANCH   9  14
ENDBRANCH   6   8
ENDBRANCH   5   6
ENDBRANCH   4   5
ENDBRANCH   3   4
ENDBRANCH   2   3
ENDBRANCH   1   2
BRANCH   1  22
ATOM     22  C   UNL A   1      40.458  20.027  26.419  1.00  0.00     0.188 C 
BRANCH  22  23
ATOM     23  O   UNL A   1      41.493  19.603  25.564  1.00  0.00    -0.376 OA
BRANCH  23  24
ATOM     24  C   UNL A   1      42.530  18.826  26.131  1.00  0.00     0.202 C 
BRANCH  24  25
ATOM     25  C   UNL A   1      43.840  18.705  25.334  1.00  0.00     0.261 C 
BRANCH  25  26
ATOM     26  O   UNL A   1      44.746  19.819  25.419  1.00  0.00    -0.460 OA
BRANCH  26  27
ATOM     27  C   UNL A   1      44.592  20.804  24.500  1.00  0.00     0.338 C 
ATOM     28  O   UNL A   1      44.586  20.677  23.292  1.00  0.00    -0.246 OA
BRANCH  27  29
ATOM     29  C   UNL A   1      44.187  22.043  25.210  1.00  0.00     0.060 A 
ATOM     30  C   UNL A   1      43.781  23.152  24.452  1.00  0.00     0.016 A 
ATOM     31  C   UNL A   1      44.232  22.124  26.602  1.00  0.00     0.016 A 
ATOM     32  C   UNL A   1      43.475  24.361  25.081  1.00  0.00     0.010 A 
ATOM     33  C   UNL A   1      43.945  23.343  27.231  1.00  0.00     0.010 A 
ATOM     34  C   UNL A   1      43.614  24.479  26.470  1.00  0.00    -0.014 A 
BRANCH  34  35
ATOM     35  C   UNL A   1      43.657  25.831  27.086  1.00  0.00     0.031 A 
ATOM     36  C   UNL A   1      45.002  26.483  27.273  1.00  0.00     0.074 A 
ATOM     37  C   UNL A   1      42.539  26.493  27.437  1.00  0.00     0.049 A 
ATOM     38  N   UNL A   1      45.301  27.644  27.800  1.00  0.00    -0.248 NA
ATOM     39  C   UNL A   1      46.169  25.719  26.801  1.00  0.00     0.031 C 
ATOM     40  C   UNL A   1      41.173  26.007  27.267  1.00  0.00     0.029 A 
ATOM     41  N   UNL A   1      42.388  27.730  28.017  1.00  0.00    -0.354 N 
ATOM     42  C   UNL A   1      46.686  27.741  27.734  1.00  0.00     0.074 A 
ATOM     43  C   UNL A   1      47.171  26.511  27.149  1.00  0.00     0.031 C 
ATOM     44  C   UNL A   1      40.319  26.935  27.737  1.00  0.00     0.029 A 
ATOM     45  C   UNL A   1      41.080  28.064  28.270  1.00  0.00     0.049 A 
ATOM     46  H   UNL A   1      43.146  28.320  28.231  1.00  0.00     0.167 HD
ATOM     47  C   UNL A   1      47.488  28.764  28.118  1.00  0.00     0.031 A 
ATOM     48  C   UNL A   1      40.560  29.149  28.877  1.00  0.00     0.031 A 
ATOM     49  C   UNL A   1      47.015  29.984  28.713  1.00  0.00     0.049 A 
ATOM     50  C   UNL A   1      41.478  30.242  29.368  1.00  0.00     0.074 A 
ATOM     51  C   UNL A   1      47.750  31.082  29.126  1.00  0.00     0.029 A 
ATOM     52  N   UNL A   1      45.686  30.265  28.987  1.00  0.00    -0.354 N 
ATOM     53  N   UNL A   1      42.782  30.331  29.280  1.00  0.00    -0.248 NA
ATOM     54  C   UNL A   1      40.842  31.391  30.029  1.00  0.00     0.031 C 
ATOM     55  C   UNL A   1      46.870  32.001  29.708  1.00  0.00     0.029 A 
ATOM     56  C   UNL A   1      45.581  31.508  29.587  1.00  0.00     0.049 A 
ATOM     57  H   UNL A   1      44.929  29.669  28.785  1.00  0.00     0.167 HD
ATOM     58  C   UNL A   1      43.119  31.561  29.837  1.00  0.00     0.074 A 
ATOM     59  C   UNL A   1      41.879  32.187  30.245  1.00  0.00     0.031 C 
ATOM     60  C   UNL A   1      44.343  32.125  29.988  1.00  0.00     0.031 A 
BRANCH  47  61
ATOM     61  C   UNL A   1      48.971  28.580  27.941  1.00  0.00    -0.014 A 
ATOM     62  C   UNL A   1      49.623  28.972  26.761  1.00  0.00     0.009 A 
ATOM     63  C   UNL A   1      49.730  28.028  28.984  1.00  0.00     0.009 A 
ATOM     64  C   UNL A   1      50.999  28.778  26.616  1.00  0.00     0.001 A 
ATOM     65  C   UNL A   1      51.109  27.867  28.850  1.00  0.00     0.001 A 
ATOM     66  C   UNL A   1      51.742  28.231  27.663  1.00  0.00     0.000 A 
ENDBRANCH  47  61
BRANCH  48  67
ATOM     67  C   UNL A   1      39.089  29.264  29.076  1.00  0.00    -0.014 A 
ATOM     68  C   UNL A   1      38.264  29.781  28.064  1.00  0.00     0.009 A 
ATOM     69  C   UNL A   1      38.506  28.891  30.297  1.00  0.00     0.009 A 
ATOM     70  C   UNL A   1      36.894  29.949  28.284  1.00  0.00     0.001 A 
ATOM     71  C   UNL A   1      37.132  29.029  30.502  1.00  0.00     0.001 A 
ATOM     72  C   UNL A   1      36.328  29.570  29.499  1.00  0.00     0.000 A 
ENDBRANCH  48  67
BRANCH  60  73
ATOM     73  C   UNL A   1      44.401  33.514  30.569  1.00  0.00    -0.014 A 
ATOM     74  C   UNL A   1      44.633  33.736  31.935  1.00  0.00     0.009 A 
ATOM     75  C   UNL A   1      44.248  34.622  29.719  1.00  0.00     0.009 A 
ATOM     76  C   UNL A   1      44.665  35.037  32.444  1.00  0.00     0.001 A 
ATOM     77  C   UNL A   1      44.315  35.921  30.225  1.00  0.00     0.001 A 
ATOM     78  C   UNL A   1      44.509  36.127  31.589  1.00  0.00     0.000 A 
ENDBRANCH  60  73
ENDBRANCH  34  35
ENDBRANCH  27  29
ENDBRANCH  26  27
ENDBRANCH  25  26
ENDBRANCH  24  25
ENDBRANCH  23  24
ENDBRANCH  22  23
ENDBRANCH   1  22
TORSDOF 19
ENDMDL
MODEL 3
REMARK VINA RESULT:      -8.7      5.155     11.612
REMARK SMILES CSc1cccc(N2C[C@@H](C(=O)OCCOCCOCCOC(=O)c3ccc(-c4c5nc(c(-c6ccccc6)c6ccc([nH]6)c(-c6ccccc6)c6nc(c(-c7ccccc7)c7ccc4[nH]7)C=C6)C=C5)cc3)CC2=O)c1
REMARK SMILES IDX 17 1 16 2 15 3 14 4 13 5 11 6 12 7 10 8 8 9 9 10 74 11 73 12
REMARK SMILES IDX 75 13 7 14 3 15 4 16 76 17 5 18 6 19 2 20 1 21 18 22 19 23
REMARK SMILES IDX 20 24 21 25 22 26 23 27 24 28 25 29 26 30 72 31 27 32 71 33
REMARK SMILES IDX 28 34 29 35 30 36 65 37 31 38 70 39 64 40 66 41 32 42 69 43
REMARK SMILES IDX 63 44 62 45 33 47 55 48 40 49 54 50 41 51 44 52 53 53 67 54
REMARK SMILES IDX 42 55 43 56 52 58 68 59 45 60 34 61 35 62 39 63 36 64 38 65
REMARK SMILES IDX 37 66 56 67 57 68 61 69 58 70 60 71 59 72 46 73 47 74 51 75
REMARK SMILES IDX 48 76 50 77 49 78
REMARK H PARENT 66 46 44 57
REMARK Flexibility Score: inf
ROOT
ATOM      1  C   UNL A   1      33.998  35.285  30.980  1.00  0.00     0.188 C 
ENDROOT
BRANCH   1   2
ATOM      2  O   UNL A   1      33.428  34.525  32.040  1.00  0.00    -0.376 OA
BRANCH   2   3
ATOM      3  C   UNL A   1      34.224  33.550  32.707  1.00  0.00     0.202 C 
BRANCH   3   4
ATOM      4  C   UNL A   1      34.891  32.448  31.867  1.00  0.00     0.261 C 
BRANCH   4   5
ATOM      5  O   UNL A   1      36.318  32.590  31.708  1.00  0.00    -0.463 OA
BRANCH   5   6
ATOM      6  C   UNL A   1      37.007  33.074  32.768  1.00  0.00     0.311 C 
ATOM      7  O   UNL A   1      37.604  34.146  32.777  1.00  0.00    -0.252 OA
BRANCH   6   8
ATOM      8  C   UNL A   1      36.934  32.207  34.010  1.00  0.00     0.128 C 
ATOM      9  N   UNL A   1      37.933  32.205  36.141  1.00  0.00    -0.311 N 
ATOM     10  C   UNL A   1      37.308  33.085  35.188  1.00  0.00     0.141 C 
ATOM     11  C   UNL A   1      38.294  30.989  35.580  1.00  0.00     0.227 C 
ATOM     12  C   UNL A   1      37.844  30.989  34.152  1.00  0.00     0.117 C 
ATOM     13  O   UNL A   1      38.857  30.041  36.104  1.00  0.00    -0.274 OA
BRANCH   9  14
ATOM     14  C   UNL A   1      38.369  32.675  37.393  1.00  0.00     0.045 A 
ATOM     15  C   UNL A   1      37.980  32.962  39.775  1.00  0.00     0.009 A 
ATOM     16  C   UNL A   1      39.277  33.463  39.912  1.00  0.00     0.015 A 
ATOM     17  C   UNL A   1      37.521  32.608  38.504  1.00  0.00     0.041 A 
ATOM     18  C   UNL A   1      40.117  33.566  38.803  1.00  0.00     0.003 A 
ATOM     19  C   UNL A   1      39.672  33.152  37.551  1.00  0.00     0.026 A 
BRANCH  15  20
ATOM     20  S   UNL A   1      36.871  32.761  41.158  1.00  0.00    -0.130 SA
ATOM     21  C   UNL A   1      35.721  31.526  40.498  1.00  0.00     0.091 C 
ENDBRANCH  15  20
ENDBRANCH   9  14
ENDBRANCH   6   8
ENDBRANCH   5   6
ENDBRANCH   4   5
ENDBRANCH   3   4
ENDBRANCH   2   3
ENDBRANCH   1   2
BRANCH   1  22
ATOM     22  C   UNL A   1      33.078  35.934  29.935  1.00  0.00     0.188 C 
BRANCH  22  23
ATOM     23  O   UNL A   1      32.711  35.100  28.862  1.00  0.00    -0.376 OA
BRANCH  23  24
ATOM     24  C   UNL A   1      33.753  34.482  28.131  1.00  0.00     0.202 C 
BRANCH  24  25
ATOM     25  C   UNL A   1      33.715  32.950  28.003  1.00  0.00     0.261 C 
BRANCH  25  26
ATOM     26  O   UNL A   1      34.950  32.307  27.638  1.00  0.00    -0.460 OA
BRANCH  26  27
ATOM     27  C   UNL A   1      35.043  30.978  27.889  1.00  0.00     0.338 C 
ATOM     28  O   UNL A   1      34.380  30.094  27.385  1.00  0.00    -0.246 OA
BRANCH  27  29
ATOM     29  C   UNL A   1      36.258  30.744  28.709  1.00  0.00     0.060 A 
ATOM     30  C   UNL A   1      37.335  31.635  28.589  1.00  0.00     0.016 A 
ATOM     31  C   UNL A   1      36.349  29.646  29.566  1.00  0.00     0.016 A 
ATOM     32  C   UNL A   1      38.525  31.400  29.280  1.00  0.00     0.010 A 
ATOM     33  C   UNL A   1      37.551  29.398  30.243  1.00  0.00     0.010 A 
ATOM     34  C   UNL A   1      38.660  30.246  30.064  1.00  0.00    -0.014 A 
BRANCH  34  35
ATOM     35  C   UNL A   1      40.014  29.805  30.486  1.00  0.00     0.031 A 
ATOM     36  C   UNL A   1      40.596  28.577  29.833  1.00  0.00     0.074 A 
ATOM     37  C   UNL A   1      40.740  30.486  31.391  1.00  0.00     0.049 A 
ATOM     38  N   UNL A   1      41.745  27.986  30.041  1.00  0.00    -0.248 NA
ATOM     39  C   UNL A   1      39.765  27.929  28.804  1.00  0.00     0.031 C 
ATOM     40  C   UNL A   1      40.326  31.714  32.063  1.00  0.00     0.029 A 
ATOM     41  N   UNL A   1      41.990  30.227  31.900  1.00  0.00    -0.354 N 
ATOM     42  C   UNL A   1      41.767  26.893  29.182  1.00  0.00     0.074 A 
ATOM     43  C   UNL A   1      40.506  26.883  28.475  1.00  0.00     0.031 C 
ATOM     44  C   UNL A   1      41.305  32.102  32.902  1.00  0.00     0.029 A 
ATOM     45  C   UNL A   1      42.397  31.132  32.850  1.00  0.00     0.049 A 
ATOM     46  H   UNL A   1      42.541  29.465  31.612  1.00  0.00     0.167 HD
ATOM     47  C   UNL A   1      42.750  25.981  28.989  1.00  0.00     0.031 A 
ATOM     48  C   UNL A   1      43.516  31.164  33.601  1.00  0.00     0.031 A 
ATOM     49  C   UNL A   1      44.000  25.976  29.697  1.00  0.00     0.049 A 
ATOM     50  C   UNL A   1      44.564  30.092  33.424  1.00  0.00     0.074 A 
ATOM     51  C   UNL A   1      45.062  25.098  29.563  1.00  0.00     0.029 A 
ATOM     52  N   UNL A   1      44.356  26.887  30.678  1.00  0.00    -0.354 N 
ATOM     53  N   UNL A   1      44.582  29.078  32.594  1.00  0.00    -0.248 NA
ATOM     54  C   UNL A   1      45.754  30.184  34.283  1.00  0.00     0.031 C 
ATOM     55  C   UNL A   1      46.034  25.442  30.508  1.00  0.00     0.029 A 
ATOM     56  C   UNL A   1      45.610  26.579  31.176  1.00  0.00     0.049 A 
ATOM     57  H   UNL A   1      43.799  27.643  30.975  1.00  0.00     0.167 HD
ATOM     58  C   UNL A   1      45.799  28.436  32.802  1.00  0.00     0.074 A 
ATOM     59  C   UNL A   1      46.495  29.185  33.827  1.00  0.00     0.031 C 
ATOM     60  C   UNL A   1      46.298  27.332  32.194  1.00  0.00     0.031 A 
BRANCH  47  61
ATOM     61  C   UNL A   1      42.485  24.883  27.994  1.00  0.00    -0.014 A 
ATOM     62  C   UNL A   1      42.880  24.998  26.652  1.00  0.00     0.009 A 
ATOM     63  C   UNL A   1      41.850  23.705  28.415  1.00  0.00     0.009 A 
ATOM     64  C   UNL A   1      42.610  23.970  25.744  1.00  0.00     0.001 A 
ATOM     65  C   UNL A   1      41.611  22.666  27.514  1.00  0.00     0.001 A 
ATOM     66  C   UNL A   1      41.982  22.803  26.178  1.00  0.00     0.000 A 
ENDBRANCH  47  61
BRANCH  48  67
ATOM     67  C   UNL A   1      43.712  32.241  34.609  1.00  0.00    -0.014 A 
ATOM     68  C   UNL A   1      43.226  32.099  35.918  1.00  0.00     0.009 A 
ATOM     69  C   UNL A   1      44.355  33.438  34.253  1.00  0.00     0.009 A 
ATOM     70  C   UNL A   1      43.354  33.143  36.839  1.00  0.00     0.001 A 
ATOM     71  C   UNL A   1      44.510  34.466  35.185  1.00  0.00     0.001 A 
ATOM     72  C   UNL A   1      43.999  34.323  36.474  1.00  0.00     0.000 A 
ENDBRANCH  48  67
BRANCH  60  73
ATOM     73  C   UNL A   1      47.688  26.897  32.576  1.00  0.00    -0.014 A 
ATOM     74  C   UNL A   1      47.913  25.872  33.508  1.00  0.00     0.009 A 
ATOM     75  C   UNL A   1      48.794  27.510  31.965  1.00  0.00     0.009 A 
ATOM     76  C   UNL A   1      49.216  25.504  33.853  1.00  0.00     0.001 A 
ATOM     77  C   UNL A   1      50.094  27.117  32.285  1.00  0.00     0.001 A 
ATOM     78  C   UNL A   1      50.305  26.123  33.238  1.00  0.00     0.000 A 
ENDBRANCH  60  73
ENDBRANCH  34  35
ENDBRANCH  27  29
ENDBRANCH  26  27
ENDBRANCH  25  26
ENDBRANCH  24  25
ENDBRANCH  23  24
ENDBRANCH  22  23
ENDBRANCH   1  22
TORSDOF 19
ENDMDL
