MODEL 1
REMARK VINA RESULT:     -10.4      0.000      0.000
REMARK SMILES [NH3+][C@]1(C(=O)OCCOCCOCCOC(=O)c2ccc(-c3c4nc(c(-c5ccccc5)c5ccc([nH]5)c(-c5ccccc5)c5nc(c(-c6ccccc6)c6ccc3[nH]6)C=C5)C=C4)cc2)CCC[C@@H](Oc2ccc3c(c2)CCC3)C1
REMARK SMILES IDX 9 1 8 2 7 3 6 4 5 5 3 6 4 7 2 8 65 9 79 10 66 11 68 12 67 13
REMARK SMILES IDX 1 14 69 18 70 19 71 20 75 21 72 22 74 23 73 24 76 25 78 26
REMARK SMILES IDX 77 27 10 28 11 29 12 30 13 31 14 32 15 33 16 34 17 35 18 36
REMARK SMILES IDX 64 37 19 38 63 39 20 40 21 41 22 42 57 43 23 44 62 45 56 46
REMARK SMILES IDX 58 47 24 48 61 49 55 50 54 51 25 53 47 54 32 55 46 56 33 57
REMARK SMILES IDX 36 58 45 59 59 60 34 61 35 62 44 64 60 65 37 66 26 67 27 68
REMARK SMILES IDX 31 69 28 70 30 71 29 72 48 73 49 74 53 75 50 76 52 77 51 78
REMARK SMILES IDX 38 79 39 80 43 81 40 82 42 83 41 84
REMARK H PARENT 1 15 1 16 1 17 58 52 36 63
REMARK Flexibility Score: inf
ROOT
ATOM      1  C   UNL A   1      40.571  20.657  26.450  1.00  0.00     0.188 C 
ENDROOT
BRANCH   1   2
ATOM      2  O   UNL A   1      40.094  21.958  26.182  1.00  0.00    -0.376 OA
BRANCH   2   3
ATOM      3  C   UNL A   1      38.685  22.068  25.937  1.00  0.00     0.202 C 
BRANCH   3   4
ATOM      4  C   UNL A   1      37.941  23.410  26.216  1.00  0.00     0.261 C 
BRANCH   4   5
ATOM      5  O   UNL A   1      36.767  23.662  25.399  1.00  0.00    -0.459 OA
BRANCH   5   6
ATOM      6  C   UNL A   1      35.571  23.092  25.803  1.00  0.00     0.368 C 
ATOM      7  O   UNL A   1      35.106  23.255  26.926  1.00  0.00    -0.245 OA
BRANCH   6   8
ATOM      8  C   UNL A   1      34.868  22.177  24.640  1.00  0.00     0.196 C 
ATOM      9  C   UNL A   1      33.443  21.540  24.958  1.00  0.00     0.081 C 
ATOM     10  C   UNL A   1      34.898  22.961  23.304  1.00  0.00     0.126 C 
ATOM     11  C   UNL A   1      32.295  21.635  23.911  1.00  0.00     0.011 C 
ATOM     12  C   UNL A   1      33.545  23.406  22.723  1.00  0.00     0.180 C 
ATOM     13  C   UNL A   1      32.679  22.178  22.552  1.00  0.00     0.046 C 
BRANCH   8  14
ATOM     14  N   UNL A   1      35.732  20.963  24.564  1.00  0.00    -0.343 N 
ATOM     15  H   UNL A   1      35.270  20.250  24.000  1.00  0.00     0.345 HD
ATOM     16  H   UNL A   1      35.894  20.601  25.504  1.00  0.00     0.345 HD
ATOM     17  H   UNL A   1      36.625  21.208  24.136  1.00  0.00     0.345 HD
ENDBRANCH   8  14
BRANCH  12  18
ATOM     18  O   UNL A   1      32.775  24.550  23.144  1.00  0.00    -0.490 OA
BRANCH  18  19
ATOM     19  C   UNL A   1      32.832  25.331  24.254  1.00  0.00     0.120 A 
ATOM     20  C   UNL A   1      32.117  24.920  25.390  1.00  0.00     0.047 A 
ATOM     21  C   UNL A   1      33.368  26.593  24.303  1.00  0.00     0.050 A 
ATOM     22  C   UNL A   1      31.911  25.775  26.499  1.00  0.00     0.008 A 
ATOM     23  C   UNL A   1      33.130  27.468  25.340  1.00  0.00    -0.041 A 
ATOM     24  C   UNL A   1      32.382  27.074  26.433  1.00  0.00    -0.045 A 
ATOM     25  C   UNL A   1      33.458  28.927  25.370  1.00  0.00     0.036 C 
ATOM     26  C   UNL A   1      32.157  28.255  27.325  1.00  0.00     0.036 C 
ATOM     27  C   UNL A   1      32.366  29.411  26.325  1.00  0.00     0.010 C 
ENDBRANCH  18  19
ENDBRANCH  12  18
ENDBRANCH   6   8
ENDBRANCH   5   6
ENDBRANCH   4   5
ENDBRANCH   3   4
ENDBRANCH   2   3
ENDBRANCH   1   2
BRANCH   1  28
ATOM     28  C   UNL A   1      42.075  20.434  26.577  1.00  0.00     0.188 C 
BRANCH  28  29
ATOM     29  O   UNL A   1      42.818  20.326  25.371  1.00  0.00    -0.376 OA
BRANCH  29  30
ATOM     30  C   UNL A   1      44.050  21.038  25.446  1.00  0.00     0.202 C 
BRANCH  30  31
ATOM     31  C   UNL A   1      44.410  21.993  24.274  1.00  0.00     0.261 C 
BRANCH  31  32
ATOM     32  O   UNL A   1      43.803  23.304  24.280  1.00  0.00    -0.460 OA
BRANCH  32  33
ATOM     33  C   UNL A   1      44.536  24.284  24.874  1.00  0.00     0.338 C 
ATOM     34  O   UNL A   1      45.678  24.586  24.589  1.00  0.00    -0.246 OA
BRANCH  33  35
ATOM     35  C   UNL A   1      43.734  25.032  25.896  1.00  0.00     0.060 A 
ATOM     36  C   UNL A   1      44.078  26.369  26.120  1.00  0.00     0.016 A 
ATOM     37  C   UNL A   1      42.704  24.474  26.659  1.00  0.00     0.016 A 
ATOM     38  C   UNL A   1      43.392  27.157  27.057  1.00  0.00     0.010 A 
ATOM     39  C   UNL A   1      42.035  25.255  27.633  1.00  0.00     0.010 A 
ATOM     40  C   UNL A   1      42.374  26.608  27.843  1.00  0.00    -0.014 A 
BRANCH  40  41
ATOM     41  C   UNL A   1      41.822  27.411  28.980  1.00  0.00     0.031 A 
ATOM     42  C   UNL A   1      42.523  27.361  30.315  1.00  0.00     0.074 A 
ATOM     43  C   UNL A   1      40.782  28.261  28.845  1.00  0.00     0.049 A 
ATOM     44  N   UNL A   1      42.255  28.007  31.424  1.00  0.00    -0.248 NA
ATOM     45  C   UNL A   1      43.693  26.475  30.401  1.00  0.00     0.031 C 
ATOM     46  C   UNL A   1      40.046  28.515  27.613  1.00  0.00     0.029 A 
ATOM     47  N   UNL A   1      40.172  29.086  29.768  1.00  0.00    -0.354 N 
ATOM     48  C   UNL A   1      43.225  27.611  32.336  1.00  0.00     0.074 A 
ATOM     49  C   UNL A   1      44.068  26.646  31.660  1.00  0.00     0.031 C 
ATOM     50  C   UNL A   1      39.079  29.420  27.852  1.00  0.00     0.029 A 
ATOM     51  C   UNL A   1      39.110  29.800  29.262  1.00  0.00     0.049 A 
ATOM     52  H   UNL A   1      40.470  29.156  30.704  1.00  0.00     0.167 HD
ATOM     53  C   UNL A   1      43.412  28.010  33.619  1.00  0.00     0.031 A 
ATOM     54  C   UNL A   1      38.252  30.655  29.859  1.00  0.00     0.031 A 
ATOM     55  C   UNL A   1      42.576  28.944  34.329  1.00  0.00     0.049 A 
ATOM     56  C   UNL A   1      38.405  30.988  31.323  1.00  0.00     0.074 A 
ATOM     57  C   UNL A   1      42.699  29.385  35.638  1.00  0.00     0.029 A 
ATOM     58  N   UNL A   1      41.459  29.571  33.804  1.00  0.00    -0.354 N 
ATOM     59  N   UNL A   1      39.332  30.610  32.168  1.00  0.00    -0.248 NA
ATOM     60  C   UNL A   1      37.391  31.880  31.911  1.00  0.00     0.031 C 
ATOM     61  C   UNL A   1      41.616  30.224  35.925  1.00  0.00     0.029 A 
ATOM     62  C   UNL A   1      40.863  30.366  34.772  1.00  0.00     0.049 A 
ATOM     63  H   UNL A   1      41.136  29.468  32.879  1.00  0.00     0.167 HD
ATOM     64  C   UNL A   1      39.032  31.243  33.371  1.00  0.00     0.074 A 
ATOM     65  C   UNL A   1      37.852  32.047  33.142  1.00  0.00     0.031 C 
ATOM     66  C   UNL A   1      39.681  31.163  34.559  1.00  0.00     0.031 A 
BRANCH  53  67
ATOM     67  C   UNL A   1      44.555  27.380  34.367  1.00  0.00    -0.014 A 
ATOM     68  C   UNL A   1      44.382  26.211  35.123  1.00  0.00     0.009 A 
ATOM     69  C   UNL A   1      45.832  27.961  34.295  1.00  0.00     0.009 A 
ATOM     70  C   UNL A   1      45.457  25.659  35.824  1.00  0.00     0.001 A 
ATOM     71  C   UNL A   1      46.910  27.389  34.969  1.00  0.00     0.001 A 
ATOM     72  C   UNL A   1      46.719  26.245  35.742  1.00  0.00     0.000 A 
ENDBRANCH  53  67
BRANCH  54  73
ATOM     73  C   UNL A   1      37.120  31.252  29.091  1.00  0.00    -0.014 A 
ATOM     74  C   UNL A   1      37.133  32.606  28.715  1.00  0.00     0.009 A 
ATOM     75  C   UNL A   1      35.981  30.485  28.801  1.00  0.00     0.009 A 
ATOM     76  C   UNL A   1      36.018  33.184  28.101  1.00  0.00     0.001 A 
ATOM     77  C   UNL A   1      34.881  31.056  28.156  1.00  0.00     0.001 A 
ATOM     78  C   UNL A   1      34.895  32.408  27.819  1.00  0.00     0.000 A 
ENDBRANCH  54  73
BRANCH  66  79
ATOM     79  C   UNL A   1      39.154  31.996  35.700  1.00  0.00    -0.014 A 
ATOM     80  C   UNL A   1      38.180  31.504  36.585  1.00  0.00     0.009 A 
ATOM     81  C   UNL A   1      39.650  33.294  35.903  1.00  0.00     0.009 A 
ATOM     82  C   UNL A   1      37.678  32.311  37.611  1.00  0.00     0.001 A 
ATOM     83  C   UNL A   1      39.174  34.087  36.950  1.00  0.00     0.001 A 
ATOM     84  C   UNL A   1      38.177  33.600  37.794  1.00  0.00     0.000 A 
ENDBRANCH  66  79
ENDBRANCH  40  41
ENDBRANCH  33  35
ENDBRANCH  32  33
ENDBRANCH  31  32
ENDBRANCH  30  31
ENDBRANCH  29  30
ENDBRANCH  28  29
ENDBRANCH   1  28
TORSDOF 20
ENDMDL
MODEL 2
REMARK VINA RESULT:      -9.9      3.547      8.819
REMARK SMILES [NH3+][C@]1(C(=O)OCCOCCOCCOC(=O)c2ccc(-c3c4nc(c(-c5ccccc5)c5ccc([nH]5)c(-c5ccccc5)c5nc(c(-c6ccccc6)c6ccc3[nH]6)C=C5)C=C4)cc2)CCC[C@@H](Oc2ccc3c(c2)CCC3)C1
REMARK SMILES IDX 9 1 8 2 7 3 6 4 5 5 3 6 4 7 2 8 65 9 79 10 66 11 68 12 67 13
REMARK SMILES IDX 1 14 69 18 70 19 71 20 75 21 72 22 74 23 73 24 76 25 78 26
REMARK SMILES IDX 77 27 10 28 11 29 12 30 13 31 14 32 15 33 16 34 17 35 18 36
REMARK SMILES IDX 64 37 19 38 63 39 20 40 21 41 22 42 57 43 23 44 62 45 56 46
REMARK SMILES IDX 58 47 24 48 61 49 55 50 54 51 25 53 47 54 32 55 46 56 33 57
REMARK SMILES IDX 36 58 45 59 59 60 34 61 35 62 44 64 60 65 37 66 26 67 27 68
REMARK SMILES IDX 31 69 28 70 30 71 29 72 48 73 49 74 53 75 50 76 52 77 51 78
REMARK SMILES IDX 38 79 39 80 43 81 40 82 42 83 41 84
REMARK H PARENT 1 15 1 16 1 17 58 52 36 63
REMARK Flexibility Score: inf
ROOT
ATOM      1  C   UNL A   1      34.439  32.348  28.304  1.00  0.00     0.188 C 
ENDROOT
BRANCH   1   2
ATOM      2  O   UNL A   1      34.147  31.456  27.249  1.00  0.00    -0.376 OA
BRANCH   2   3
ATOM      3  C   UNL A   1      34.066  30.071  27.609  1.00  0.00     0.202 C 
BRANCH   3   4
ATOM      4  C   UNL A   1      34.898  29.006  26.828  1.00  0.00     0.261 C 
BRANCH   4   5
ATOM      5  O   UNL A   1      34.133  27.934  26.215  1.00  0.00    -0.459 OA
BRANCH   5   6
ATOM      6  C   UNL A   1      33.497  28.206  25.015  1.00  0.00     0.368 C 
ATOM      7  O   UNL A   1      34.103  28.568  24.012  1.00  0.00    -0.245 OA
BRANCH   6   8
ATOM      8  C   UNL A   1      31.873  28.009  25.088  1.00  0.00     0.196 C 
ATOM      9  C   UNL A   1      31.118  27.566  23.757  1.00  0.00     0.081 C 
ATOM     10  C   UNL A   1      31.533  27.113  26.305  1.00  0.00     0.126 C 
ATOM     11  C   UNL A   1      30.066  26.420  23.802  1.00  0.00     0.011 C 
ATOM     12  C   UNL A   1      30.937  25.726  26.009  1.00  0.00     0.180 C 
ATOM     13  C   UNL A   1      29.688  25.919  25.179  1.00  0.00     0.046 C 
BRANCH   8  14
ATOM     14  N   UNL A   1      31.350  29.394  25.285  1.00  0.00    -0.343 N 
ATOM     15  H   UNL A   1      31.824  29.827  26.077  1.00  0.00     0.345 HD
ATOM     16  H   UNL A   1      30.348  29.356  25.467  1.00  0.00     0.345 HD
ATOM     17  H   UNL A   1      31.523  29.944  24.444  1.00  0.00     0.345 HD
ENDBRANCH   8  14
BRANCH  12  18
ATOM     18  O   UNL A   1      31.672  24.553  25.606  1.00  0.00    -0.490 OA
BRANCH  18  19
ATOM     19  C   UNL A   1      32.852  24.397  24.952  1.00  0.00     0.120 A 
ATOM     20  C   UNL A   1      32.820  23.909  23.636  1.00  0.00     0.047 A 
ATOM     21  C   UNL A   1      34.093  24.485  25.532  1.00  0.00     0.050 A 
ATOM     22  C   UNL A   1      33.989  23.478  22.965  1.00  0.00     0.008 A 
ATOM     23  C   UNL A   1      35.238  24.014  24.926  1.00  0.00    -0.041 A 
ATOM     24  C   UNL A   1      35.191  23.487  23.650  1.00  0.00    -0.045 A 
ATOM     25  C   UNL A   1      36.578  23.840  25.566  1.00  0.00     0.036 C 
ATOM     26  C   UNL A   1      36.533  22.922  23.303  1.00  0.00     0.036 C 
ATOM     27  C   UNL A   1      37.118  22.692  24.713  1.00  0.00     0.010 C 
ENDBRANCH  18  19
ENDBRANCH  12  18
ENDBRANCH   6   8
ENDBRANCH   5   6
ENDBRANCH   4   5
ENDBRANCH   3   4
ENDBRANCH   2   3
ENDBRANCH   1   2
BRANCH   1  28
ATOM     28  C   UNL A   1      33.627  33.634  28.428  1.00  0.00     0.188 C 
BRANCH  28  29
ATOM     29  O   UNL A   1      34.251  34.836  28.000  1.00  0.00    -0.376 OA
BRANCH  29  30
ATOM     30  C   UNL A   1      33.842  35.951  28.788  1.00  0.00     0.202 C 
BRANCH  30  31
ATOM     31  C   UNL A   1      33.025  35.669  30.078  1.00  0.00     0.261 C 
BRANCH  31  32
ATOM     32  O   UNL A   1      33.717  35.799  31.341  1.00  0.00    -0.460 OA
BRANCH  32  33
ATOM     33  C   UNL A   1      33.735  34.680  32.114  1.00  0.00     0.338 C 
ATOM     34  O   UNL A   1      32.831  34.298  32.831  1.00  0.00    -0.246 OA
BRANCH  33  35
ATOM     35  C   UNL A   1      34.997  33.895  31.920  1.00  0.00     0.060 A 
ATOM     36  C   UNL A   1      35.050  32.623  32.500  1.00  0.00     0.016 A 
ATOM     37  C   UNL A   1      36.126  34.363  31.240  1.00  0.00     0.016 A 
ATOM     38  C   UNL A   1      36.186  31.808  32.380  1.00  0.00     0.010 A 
ATOM     39  C   UNL A   1      37.287  33.559  31.150  1.00  0.00     0.010 A 
ATOM     40  C   UNL A   1      37.331  32.270  31.722  1.00  0.00    -0.014 A 
BRANCH  40  41
ATOM     41  C   UNL A   1      38.592  31.466  31.808  1.00  0.00     0.031 A 
ATOM     42  C   UNL A   1      39.563  31.754  32.926  1.00  0.00     0.074 A 
ATOM     43  C   UNL A   1      38.859  30.425  30.992  1.00  0.00     0.049 A 
ATOM     44  N   UNL A   1      40.691  31.157  33.227  1.00  0.00    -0.248 NA
ATOM     45  C   UNL A   1      39.202  32.852  33.834  1.00  0.00     0.031 C 
ATOM     46  C   UNL A   1      37.995  29.939  29.922  1.00  0.00     0.029 A 
ATOM     47  N   UNL A   1      39.943  29.573  30.951  1.00  0.00    -0.354 N 
ATOM     48  C   UNL A   1      41.169  31.801  34.361  1.00  0.00     0.074 A 
ATOM     49  C   UNL A   1      40.225  32.854  34.674  1.00  0.00     0.031 C 
ATOM     50  C   UNL A   1      38.581  28.887  29.322  1.00  0.00     0.029 A 
ATOM     51  C   UNL A   1      39.875  28.631  29.950  1.00  0.00     0.049 A 
ATOM     52  H   UNL A   1      40.698  29.634  31.581  1.00  0.00     0.167 HD
ATOM     53  C   UNL A   1      42.287  31.547  35.086  1.00  0.00     0.031 A 
ATOM     54  C   UNL A   1      40.751  27.676  29.570  1.00  0.00     0.031 A 
ATOM     55  C   UNL A   1      43.259  30.527  34.784  1.00  0.00     0.049 A 
ATOM     56  C   UNL A   1      42.049  27.494  30.319  1.00  0.00     0.074 A 
ATOM     57  C   UNL A   1      44.424  30.221  35.470  1.00  0.00     0.029 A 
ATOM     58  N   UNL A   1      43.194  29.659  33.709  1.00  0.00    -0.354 N 
ATOM     59  N   UNL A   1      42.482  28.107  31.393  1.00  0.00    -0.248 NA
ATOM     60  C   UNL A   1      42.976  26.472  29.802  1.00  0.00     0.031 C 
ATOM     61  C   UNL A   1      45.099  29.215  34.769  1.00  0.00     0.029 A 
ATOM     62  C   UNL A   1      44.315  28.842  33.691  1.00  0.00     0.049 A 
ATOM     63  H   UNL A   1      42.460  29.625  33.053  1.00  0.00     0.167 HD
ATOM     64  C   UNL A   1      43.709  27.524  31.696  1.00  0.00     0.074 A 
ATOM     65  C   UNL A   1      43.942  26.493  30.709  1.00  0.00     0.031 C 
ATOM     66  C   UNL A   1      44.564  27.819  32.706  1.00  0.00     0.031 A 
BRANCH  53  67
ATOM     67  C   UNL A   1      42.548  32.440  36.268  1.00  0.00    -0.014 A 
ATOM     68  C   UNL A   1      43.351  33.585  36.158  1.00  0.00     0.009 A 
ATOM     69  C   UNL A   1      41.961  32.136  37.507  1.00  0.00     0.009 A 
ATOM     70  C   UNL A   1      43.594  34.387  37.277  1.00  0.00     0.001 A 
ATOM     71  C   UNL A   1      42.178  32.957  38.613  1.00  0.00     0.001 A 
ATOM     72  C   UNL A   1      43.003  34.075  38.501  1.00  0.00     0.000 A 
ENDBRANCH  53  67
BRANCH  54  73
ATOM     73  C   UNL A   1      40.468  26.815  28.385  1.00  0.00    -0.014 A 
ATOM     74  C   UNL A   1      39.697  25.647  28.505  1.00  0.00     0.009 A 
ATOM     75  C   UNL A   1      41.039  27.119  27.138  1.00  0.00     0.009 A 
ATOM     76  C   UNL A   1      39.536  24.786  27.416  1.00  0.00     0.001 A 
ATOM     77  C   UNL A   1      40.848  26.274  26.042  1.00  0.00     0.001 A 
ATOM     78  C   UNL A   1      40.108  25.102  26.184  1.00  0.00     0.000 A 
ENDBRANCH  54  73
BRANCH  66  79
ATOM     79  C   UNL A   1      45.820  26.992  32.823  1.00  0.00    -0.014 A 
ATOM     80  C   UNL A   1      47.020  27.381  32.206  1.00  0.00     0.009 A 
ATOM     81  C   UNL A   1      45.805  25.805  33.575  1.00  0.00     0.009 A 
ATOM     82  C   UNL A   1      48.160  26.575  32.296  1.00  0.00     0.001 A 
ATOM     83  C   UNL A   1      46.954  25.020  33.693  1.00  0.00     0.001 A 
ATOM     84  C   UNL A   1      48.126  25.397  33.041  1.00  0.00     0.000 A 
ENDBRANCH  66  79
ENDBRANCH  40  41
ENDBRANCH  33  35
ENDBRANCH  32  33
ENDBRANCH  31  32
ENDBRANCH  30  31
ENDBRANCH  29  30
ENDBRANCH  28  29
ENDBRANCH   1  28
TORSDOF 20
ENDMDL
MODEL 3
REMARK VINA RESULT:      -9.8      4.342      9.737
REMARK SMILES [NH3+][C@]1(C(=O)OCCOCCOCCOC(=O)c2ccc(-c3c4nc(c(-c5ccccc5)c5ccc([nH]5)c(-c5ccccc5)c5nc(c(-c6ccccc6)c6ccc3[nH]6)C=C5)C=C4)cc2)CCC[C@@H](Oc2ccc3c(c2)CCC3)C1
REMARK SMILES IDX 9 1 8 2 7 3 6 4 5 5 3 6 4 7 2 8 65 9 79 10 66 11 68 12 67 13
REMARK SMILES IDX 1 14 69 18 70 19 71 20 75 21 72 22 74 23 73 24 76 25 78 26
REMARK SMILES IDX 77 27 10 28 11 29 12 30 13 31 14 32 15 33 16 34 17 35 18 36
REMARK SMILES IDX 64 37 19 38 63 39 20 40 21 41 22 42 57 43 23 44 62 45 56 46
REMARK SMILES IDX 58 47 24 48 61 49 55 50 54 51 25 53 47 54 32 55 46 56 33 57
REMARK SMILES IDX 36 58 45 59 59 60 34 61 35 62 44 64 60 65 37 66 26 67 27 68
REMARK SMILES IDX 31 69 28 70 30 71 29 72 48 73 49 74 53 75 50 76 52 77 51 78
REMARK SMILES IDX 38 79 39 80 43 81 40 82 42 83 41 84
REMARK H PARENT 1 15 1 16 1 17 58 52 36 63
REMARK Flexibility Score: inf
ROOT
ATOM      1  C   UNL A   1      34.096  33.165  28.052  1.00  0.00     0.188 C 
ENDROOT
BRANCH   1   2
ATOM      2  O   UNL A   1      34.742  31.997  27.590  1.00  0.00    -0.376 OA
BRANCH   2   3
ATOM      3  C   UNL A   1      33.970  30.791  27.655  1.00  0.00     0.202 C 
BRANCH   3   4
ATOM      4  C   UNL A   1      34.541  29.460  27.075  1.00  0.00     0.261 C 
BRANCH   4   5
ATOM      5  O   UNL A   1      33.662  28.306  27.161  1.00  0.00    -0.459 OA
BRANCH   5   6
ATOM      6  C   UNL A   1      33.409  27.606  25.993  1.00  0.00     0.368 C 
ATOM      7  O   UNL A   1      34.274  26.968  25.402  1.00  0.00    -0.245 OA
BRANCH   6   8
ATOM      8  C   UNL A   1      31.855  27.737  25.489  1.00  0.00     0.196 C 
ATOM      9  C   UNL A   1      31.590  27.836  23.921  1.00  0.00     0.081 C 
ATOM     10  C   UNL A   1      31.013  26.634  26.178  1.00  0.00     0.126 C 
ATOM     11  C   UNL A   1      30.483  26.964  23.261  1.00  0.00     0.011 C 
ATOM     12  C   UNL A   1      30.428  25.534  25.276  1.00  0.00     0.180 C 
ATOM     13  C   UNL A   1      29.587  26.198  24.209  1.00  0.00     0.046 C 
BRANCH   8  14
ATOM     14  N   UNL A   1      31.438  29.093  25.953  1.00  0.00    -0.343 N 
ATOM     15  H   UNL A   1      30.983  29.016  26.863  1.00  0.00     0.345 HD
ATOM     16  H   UNL A   1      30.788  29.498  25.280  1.00  0.00     0.345 HD
ATOM     17  H   UNL A   1      32.261  29.691  26.035  1.00  0.00     0.345 HD
ENDBRANCH   8  14
BRANCH  12  18
ATOM     18  O   UNL A   1      31.138  24.389  24.763  1.00  0.00    -0.490 OA
BRANCH  18  19
ATOM     19  C   UNL A   1      32.463  24.128  24.614  1.00  0.00     0.120 A 
ATOM     20  C   UNL A   1      33.029  24.286  23.339  1.00  0.00     0.047 A 
ATOM     21  C   UNL A   1      33.259  23.530  25.558  1.00  0.00     0.050 A 
ATOM     22  C   UNL A   1      34.324  23.807  23.027  1.00  0.00     0.008 A 
ATOM     23  C   UNL A   1      34.497  22.998  25.265  1.00  0.00    -0.041 A 
ATOM     24  C   UNL A   1      35.027  23.112  23.994  1.00  0.00    -0.045 A 
ATOM     25  C   UNL A   1      35.323  22.122  26.151  1.00  0.00     0.036 C 
ATOM     26  C   UNL A   1      36.297  22.323  23.920  1.00  0.00     0.036 C 
ATOM     27  C   UNL A   1      36.086  21.334  25.086  1.00  0.00     0.010 C 
ENDBRANCH  18  19
ENDBRANCH  12  18
ENDBRANCH   6   8
ENDBRANCH   5   6
ENDBRANCH   4   5
ENDBRANCH   3   4
ENDBRANCH   2   3
ENDBRANCH   1   2
BRANCH   1  28
ATOM     28  C   UNL A   1      34.203  33.531  29.530  1.00  0.00     0.188 C 
BRANCH  28  29
ATOM     29  O   UNL A   1      33.272  34.480  30.030  1.00  0.00    -0.376 OA
BRANCH  29  30
ATOM     30  C   UNL A   1      33.865  35.337  31.002  1.00  0.00     0.202 C 
BRANCH  30  31
ATOM     31  C   UNL A   1      34.300  34.712  32.355  1.00  0.00     0.261 C 
BRANCH  31  32
ATOM     32  O   UNL A   1      35.711  34.467  32.548  1.00  0.00    -0.460 OA
BRANCH  32  33
ATOM     33  C   UNL A   1      36.027  33.246  33.057  1.00  0.00     0.338 C 
ATOM     34  O   UNL A   1      35.567  32.761  34.072  1.00  0.00    -0.246 OA
BRANCH  33  35
ATOM     35  C   UNL A   1      36.971  32.501  32.163  1.00  0.00     0.060 A 
ATOM     36  C   UNL A   1      37.935  31.698  32.782  1.00  0.00     0.016 A 
ATOM     37  C   UNL A   1      36.977  32.588  30.767  1.00  0.00     0.016 A 
ATOM     38  C   UNL A   1      38.867  30.961  32.036  1.00  0.00     0.010 A 
ATOM     39  C   UNL A   1      37.941  31.877  30.013  1.00  0.00     0.010 A 
ATOM     40  C   UNL A   1      38.899  31.055  30.641  1.00  0.00    -0.014 A 
BRANCH  40  41
ATOM     41  C   UNL A   1      40.043  30.435  29.898  1.00  0.00     0.031 A 
ATOM     42  C   UNL A   1      41.319  31.224  29.738  1.00  0.00     0.074 A 
ATOM     43  C   UNL A   1      40.027  29.162  29.449  1.00  0.00     0.049 A 
ATOM     44  N   UNL A   1      42.452  30.874  29.178  1.00  0.00    -0.248 NA
ATOM     45  C   UNL A   1      41.319  32.581  30.302  1.00  0.00     0.031 C 
ATOM     46  C   UNL A   1      38.923  28.221  29.600  1.00  0.00     0.029 A 
ATOM     47  N   UNL A   1      40.990  28.435  28.780  1.00  0.00    -0.354 N 
ATOM     48  C   UNL A   1      43.300  31.964  29.327  1.00  0.00     0.074 A 
ATOM     49  C   UNL A   1      42.540  32.997  30.002  1.00  0.00     0.031 C 
ATOM     50  C   UNL A   1      39.260  27.048  29.034  1.00  0.00     0.029 A 
ATOM     51  C   UNL A   1      40.599  27.155  28.459  1.00  0.00     0.049 A 
ATOM     52  H   UNL A   1      41.876  28.800  28.552  1.00  0.00     0.167 HD
ATOM     53  C   UNL A   1      44.594  32.104  28.947  1.00  0.00     0.031 A 
ATOM     54  C   UNL A   1      41.234  26.179  27.775  1.00  0.00     0.031 A 
ATOM     55  C   UNL A   1      45.368  31.109  28.249  1.00  0.00     0.049 A 
ATOM     56  C   UNL A   1      42.632  26.405  27.252  1.00  0.00     0.074 A 
ATOM     57  C   UNL A   1      46.684  31.188  27.820  1.00  0.00     0.029 A 
ATOM     58  N   UNL A   1      44.901  29.864  27.865  1.00  0.00    -0.354 N 
ATOM     59  N   UNL A   1      43.422  27.438  27.409  1.00  0.00    -0.248 NA
ATOM     60  C   UNL A   1      43.230  25.313  26.463  1.00  0.00     0.031 C 
ATOM     61  C   UNL A   1      46.990  30.019  27.115  1.00  0.00     0.029 A 
ATOM     62  C   UNL A   1      45.890  29.180  27.173  1.00  0.00     0.049 A 
ATOM     63  H   UNL A   1      44.000  29.514  28.055  1.00  0.00     0.167 HD
ATOM     64  C   UNL A   1      44.614  27.108  26.770  1.00  0.00     0.074 A 
ATOM     65  C   UNL A   1      44.454  25.770  26.245  1.00  0.00     0.031 C 
ATOM     66  C   UNL A   1      45.740  27.852  26.635  1.00  0.00     0.031 A 
BRANCH  53  67
ATOM     67  C   UNL A   1      45.249  33.428  29.236  1.00  0.00    -0.014 A 
ATOM     68  C   UNL A   1      45.960  33.650  30.425  1.00  0.00     0.009 A 
ATOM     69  C   UNL A   1      45.166  34.461  28.289  1.00  0.00     0.009 A 
ATOM     70  C   UNL A   1      46.541  34.895  30.677  1.00  0.00     0.001 A 
ATOM     71  C   UNL A   1      45.776  35.692  28.529  1.00  0.00     0.001 A 
ATOM     72  C   UNL A   1      46.453  35.912  29.728  1.00  0.00     0.000 A 
ENDBRANCH  53  67
BRANCH  54  73
ATOM     73  C   UNL A   1      40.553  24.882  27.494  1.00  0.00    -0.014 A 
ATOM     74  C   UNL A   1      41.066  23.671  27.987  1.00  0.00     0.009 A 
ATOM     75  C   UNL A   1      39.424  24.844  26.660  1.00  0.00     0.009 A 
ATOM     76  C   UNL A   1      40.488  22.452  27.621  1.00  0.00     0.001 A 
ATOM     77  C   UNL A   1      38.827  23.627  26.323  1.00  0.00     0.001 A 
ATOM     78  C   UNL A   1      39.367  22.431  26.793  1.00  0.00     0.000 A 
ENDBRANCH  54  73
BRANCH  66  79
ATOM     79  C   UNL A   1      46.910  27.223  25.920  1.00  0.00    -0.014 A 
ATOM     80  C   UNL A   1      47.077  27.343  24.530  1.00  0.00     0.009 A 
ATOM     81  C   UNL A   1      47.871  26.507  26.652  1.00  0.00     0.009 A 
ATOM     82  C   UNL A   1      48.148  26.717  23.886  1.00  0.00     0.001 A 
ATOM     83  C   UNL A   1      48.960  25.912  26.012  1.00  0.00     0.001 A 
ATOM     84  C   UNL A   1      49.090  26.004  24.627  1.00  0.00     0.000 A 
ENDBRANCH  66  79
ENDBRANCH  40  41
ENDBRANCH  33  35
ENDBRANCH  32  33
ENDBRANCH  31  32
ENDBRANCH  30  31
ENDBRANCH  29  30
ENDBRANCH  28  29
ENDBRANCH   1  28
TORSDOF 20
ENDMDL
