MODEL 1
REMARK VINA RESULT:     -10.9      0.000      0.000
REMARK SMILES COc1cc2c(CC(=O)OCCOCCOCCOC(=O)c3ccc(-c4c5nc(c(-c6ccccc6)c6ccc([nH]6)c(-c6ccccc6)c6nc(c(-c7ccccc7)c7ccc4[nH]7)C=C6)C=C5)cc3)c(C)n(C(=O)c3ccc(Cl)cc3)c2cc1Cl
REMARK SMILES IDX 14 1 13 2 12 3 11 4 10 5 8 6 9 7 7 8 6 9 3 10 4 11 84 12
REMARK SMILES IDX 5 13 83 14 85 15 82 16 70 17 72 18 71 19 2 20 1 21 73 22
REMARK SMILES IDX 74 23 75 24 76 25 81 26 77 27 80 28 78 29 79 30 15 31 16 32
REMARK SMILES IDX 17 33 18 34 19 35 20 36 21 37 22 38 23 39 69 40 24 41 68 42
REMARK SMILES IDX 25 43 26 44 27 45 62 46 28 47 67 48 61 49 63 50 29 51 66 52
REMARK SMILES IDX 60 53 59 54 30 56 52 57 37 58 51 59 38 60 41 61 50 62 64 63
REMARK SMILES IDX 39 64 40 65 49 67 65 68 42 69 31 70 32 71 36 72 33 73 35 74
REMARK SMILES IDX 34 75 53 76 54 77 58 78 55 79 57 80 56 81 43 82 44 83 48 84
REMARK SMILES IDX 45 85 47 86 46 87
REMARK H PARENT 63 55 41 66
REMARK Flexibility Score: inf
ROOT
ATOM      1  C   UNL A   1      34.554  22.721  26.250  1.00  0.00     0.188 C 
ENDROOT
BRANCH   1   2
ATOM      2  O   UNL A   1      33.206  22.398  25.976  1.00  0.00    -0.376 OA
BRANCH   2   3
ATOM      3  C   UNL A   1      32.804  22.395  24.614  1.00  0.00     0.202 C 
BRANCH   3   4
ATOM      4  C   UNL A   1      31.683  23.380  24.252  1.00  0.00     0.261 C 
BRANCH   4   5
ATOM      5  O   UNL A   1      31.717  23.713  22.840  1.00  0.00    -0.463 OA
BRANCH   5   6
ATOM      6  C   UNL A   1      32.794  24.421  22.409  1.00  0.00     0.310 C 
ATOM      7  O   UNL A   1      33.799  23.885  21.949  1.00  0.00    -0.252 OA
BRANCH   6   8
ATOM      8  C   UNL A   1      32.543  25.923  22.279  1.00  0.00     0.160 C 
BRANCH   8   9
ATOM      9  C   UNL A   1      32.040  26.783  23.406  1.00  0.00    -0.008 A 
ATOM     10  C   UNL A   1      29.420  29.509  22.457  1.00  0.00     0.138 A 
ATOM     11  C   UNL A   1      30.115  28.280  22.400  1.00  0.00     0.058 A 
ATOM     12  C   UNL A   1      29.688  30.340  23.523  1.00  0.00     0.085 A 
ATOM     13  C   UNL A   1      31.064  27.836  23.340  1.00  0.00     0.008 A 
ATOM     14  C   UNL A   1      30.593  29.917  24.515  1.00  0.00     0.051 A 
ATOM     15  Cl  UNL A   1      28.961  31.885  23.773  1.00  0.00    -0.080 Cl
ATOM     16  C   UNL A   1      31.232  28.649  24.451  1.00  0.00     0.058 A 
ATOM     17  C   UNL A   1      32.721  26.965  24.605  1.00  0.00     0.028 A 
ATOM     18  N   UNL A   1      32.052  27.941  25.343  1.00  0.00    -0.280 N 
ATOM     19  C   UNL A   1      33.983  26.276  25.011  1.00  0.00     0.065 C 
BRANCH  10  20
ATOM     20  O   UNL A   1      28.583  29.663  21.394  1.00  0.00    -0.495 OA
ATOM     21  C   UNL A   1      28.001  30.894  21.003  1.00  0.00     0.278 C 
ENDBRANCH  10  20
BRANCH  18  22
ATOM     22  C   UNL A   1      32.126  28.190  26.735  1.00  0.00     0.262 C 
ATOM     23  O   UNL A   1      31.417  27.554  27.513  1.00  0.00    -0.268 OA
BRANCH  22  24
ATOM     24  C   UNL A   1      33.008  29.234  27.281  1.00  0.00     0.040 A 
ATOM     25  C   UNL A   1      32.534  30.553  27.346  1.00  0.00     0.015 A 
ATOM     26  C   UNL A   1      34.358  28.934  27.472  1.00  0.00     0.015 A 
ATOM     27  C   UNL A   1      33.442  31.592  27.535  1.00  0.00     0.021 A 
ATOM     28  C   UNL A   1      35.262  29.984  27.647  1.00  0.00     0.021 A 
ATOM     29  C   UNL A   1      34.802  31.305  27.661  1.00  0.00     0.041 A 
ATOM     30  Cl  UNL A   1      35.933  32.596  27.771  1.00  0.00    -0.084 Cl
ENDBRANCH  22  24
ENDBRANCH  18  22
ENDBRANCH   8   9
ENDBRANCH   6   8
ENDBRANCH   5   6
ENDBRANCH   4   5
ENDBRANCH   3   4
ENDBRANCH   2   3
ENDBRANCH   1   2
BRANCH   1  31
ATOM     31  C   UNL A   1      35.665  22.099  25.386  1.00  0.00     0.188 C 
BRANCH  31  32
ATOM     32  O   UNL A   1      36.963  21.974  25.904  1.00  0.00    -0.376 OA
BRANCH  32  33
ATOM     33  C   UNL A   1      37.881  21.174  25.182  1.00  0.00     0.202 C 
BRANCH  33  34
ATOM     34  C   UNL A   1      39.349  21.025  25.662  1.00  0.00     0.261 C 
BRANCH  34  35
ATOM     35  O   UNL A   1      39.590  21.482  27.023  1.00  0.00    -0.460 OA
BRANCH  35  36
ATOM     36  C   UNL A   1      40.765  22.155  27.226  1.00  0.00     0.338 C 
ATOM     37  O   UNL A   1      41.853  21.813  26.787  1.00  0.00    -0.246 OA
BRANCH  36  38
ATOM     38  C   UNL A   1      40.490  23.560  27.682  1.00  0.00     0.060 A 
ATOM     39  C   UNL A   1      39.396  24.354  27.352  1.00  0.00     0.016 A 
ATOM     40  C   UNL A   1      41.508  24.153  28.427  1.00  0.00     0.016 A 
ATOM     41  C   UNL A   1      39.411  25.738  27.670  1.00  0.00     0.010 A 
ATOM     42  C   UNL A   1      41.583  25.526  28.656  1.00  0.00     0.010 A 
ATOM     43  C   UNL A   1      40.541  26.349  28.257  1.00  0.00    -0.014 A 
BRANCH  43  44
ATOM     44  C   UNL A   1      40.518  27.710  28.833  1.00  0.00     0.031 A 
ATOM     45  C   UNL A   1      41.513  28.579  28.193  1.00  0.00     0.074 A 
ATOM     46  C   UNL A   1      39.716  28.314  29.740  1.00  0.00     0.049 A 
ATOM     47  N   UNL A   1      42.700  28.743  28.661  1.00  0.00    -0.248 NA
ATOM     48  C   UNL A   1      41.266  29.196  26.888  1.00  0.00     0.031 C 
ATOM     49  C   UNL A   1      38.623  27.741  30.500  1.00  0.00     0.029 A 
ATOM     50  N   UNL A   1      39.707  29.622  30.170  1.00  0.00    -0.354 N 
ATOM     51  C   UNL A   1      43.293  29.667  27.835  1.00  0.00     0.074 A 
ATOM     52  C   UNL A   1      42.460  29.749  26.657  1.00  0.00     0.031 C 
ATOM     53  C   UNL A   1      37.899  28.709  31.117  1.00  0.00     0.029 A 
ATOM     54  C   UNL A   1      38.617  29.966  30.970  1.00  0.00     0.049 A 
ATOM     55  H   UNL A   1      40.414  30.264  29.931  1.00  0.00     0.167 HD
ATOM     56  C   UNL A   1      44.273  30.476  28.315  1.00  0.00     0.031 A 
ATOM     57  C   UNL A   1      38.447  31.071  31.741  1.00  0.00     0.031 A 
ATOM     58  C   UNL A   1      44.708  30.072  29.635  1.00  0.00     0.049 A 
ATOM     59  C   UNL A   1      39.792  31.505  32.155  1.00  0.00     0.074 A 
ATOM     60  C   UNL A   1      45.261  28.922  30.166  1.00  0.00     0.029 A 
ATOM     61  N   UNL A   1      44.165  30.763  30.694  1.00  0.00    -0.354 N 
ATOM     62  N   UNL A   1      40.535  30.839  32.988  1.00  0.00    -0.248 NA
ATOM     63  C   UNL A   1      40.471  32.548  31.407  1.00  0.00     0.031 C 
ATOM     64  C   UNL A   1      44.699  28.788  31.472  1.00  0.00     0.029 A 
ATOM     65  C   UNL A   1      43.869  29.884  31.711  1.00  0.00     0.049 A 
ATOM     66  H   UNL A   1      44.011  31.736  30.719  1.00  0.00     0.167 HD
ATOM     67  C   UNL A   1      41.823  31.039  32.528  1.00  0.00     0.074 A 
ATOM     68  C   UNL A   1      41.735  32.222  31.681  1.00  0.00     0.031 C 
ATOM     69  C   UNL A   1      42.767  30.059  32.644  1.00  0.00     0.031 A 
BRANCH  56  70
ATOM     70  C   UNL A   1      44.556  31.828  27.739  1.00  0.00    -0.014 A 
ATOM     71  C   UNL A   1      45.483  32.043  26.699  1.00  0.00     0.009 A 
ATOM     72  C   UNL A   1      43.748  32.912  28.108  1.00  0.00     0.009 A 
ATOM     73  C   UNL A   1      45.649  33.292  26.102  1.00  0.00     0.001 A 
ATOM     74  C   UNL A   1      43.878  34.155  27.477  1.00  0.00     0.001 A 
ATOM     75  C   UNL A   1      44.837  34.348  26.486  1.00  0.00     0.000 A 
ENDBRANCH  56  70
BRANCH  57  76
ATOM     76  C   UNL A   1      37.260  31.923  31.980  1.00  0.00    -0.014 A 
ATOM     77  C   UNL A   1      37.036  32.489  33.246  1.00  0.00     0.009 A 
ATOM     78  C   UNL A   1      36.184  31.920  31.069  1.00  0.00     0.009 A 
ATOM     79  C   UNL A   1      35.767  32.963  33.613  1.00  0.00     0.001 A 
ATOM     80  C   UNL A   1      34.916  32.393  31.437  1.00  0.00     0.001 A 
ATOM     81  C   UNL A   1      34.702  32.893  32.717  1.00  0.00     0.000 A 
ENDBRANCH  57  76
BRANCH  69  82
ATOM     82  C   UNL A   1      42.516  28.955  33.655  1.00  0.00    -0.014 A 
ATOM     83  C   UNL A   1      42.064  27.712  33.181  1.00  0.00     0.009 A 
ATOM     84  C   UNL A   1      42.630  29.119  35.048  1.00  0.00     0.009 A 
ATOM     85  C   UNL A   1      41.734  26.676  34.060  1.00  0.00     0.001 A 
ATOM     86  C   UNL A   1      42.328  28.072  35.929  1.00  0.00     0.001 A 
ATOM     87  C   UNL A   1      41.873  26.853  35.434  1.00  0.00     0.000 A 
ENDBRANCH  69  82
ENDBRANCH  43  44
ENDBRANCH  36  38
ENDBRANCH  35  36
ENDBRANCH  34  35
ENDBRANCH  33  34
ENDBRANCH  32  33
ENDBRANCH  31  32
ENDBRANCH   1  31
TORSDOF 21
ENDMDL
MODEL 2
REMARK VINA RESULT:     -10.8      1.462      3.429
REMARK SMILES COc1cc2c(CC(=O)OCCOCCOCCOC(=O)c3ccc(-c4c5nc(c(-c6ccccc6)c6ccc([nH]6)c(-c6ccccc6)c6nc(c(-c7ccccc7)c7ccc4[nH]7)C=C6)C=C5)cc3)c(C)n(C(=O)c3ccc(Cl)cc3)c2cc1Cl
REMARK SMILES IDX 14 1 13 2 12 3 11 4 10 5 8 6 9 7 7 8 6 9 3 10 4 11 84 12
REMARK SMILES IDX 5 13 83 14 85 15 82 16 70 17 72 18 71 19 2 20 1 21 73 22
REMARK SMILES IDX 74 23 75 24 76 25 81 26 77 27 80 28 78 29 79 30 15 31 16 32
REMARK SMILES IDX 17 33 18 34 19 35 20 36 21 37 22 38 23 39 69 40 24 41 68 42
REMARK SMILES IDX 25 43 26 44 27 45 62 46 28 47 67 48 61 49 63 50 29 51 66 52
REMARK SMILES IDX 60 53 59 54 30 56 52 57 37 58 51 59 38 60 41 61 50 62 64 63
REMARK SMILES IDX 39 64 40 65 49 67 65 68 42 69 31 70 32 71 36 72 33 73 35 74
REMARK SMILES IDX 34 75 53 76 54 77 58 78 55 79 57 80 56 81 43 82 44 83 48 84
REMARK SMILES IDX 45 85 47 86 46 87
REMARK H PARENT 63 55 41 66
REMARK Flexibility Score: inf
ROOT
ATOM      1  C   UNL A   1      35.784  21.659  24.481  1.00  0.00     0.188 C 
ENDROOT
BRANCH   1   2
ATOM      2  O   UNL A   1      34.427  21.550  24.099  1.00  0.00    -0.376 OA
BRANCH   2   3
ATOM      3  C   UNL A   1      33.621  20.635  24.825  1.00  0.00     0.202 C 
BRANCH   3   4
ATOM      4  C   UNL A   1      33.140  21.121  26.200  1.00  0.00     0.261 C 
BRANCH   4   5
ATOM      5  O   UNL A   1      31.935  21.921  26.079  1.00  0.00    -0.463 OA
BRANCH   5   6
ATOM      6  C   UNL A   1      31.998  23.189  26.563  1.00  0.00     0.310 C 
ATOM      7  O   UNL A   1      31.469  23.522  27.621  1.00  0.00    -0.252 OA
BRANCH   6   8
ATOM      8  C   UNL A   1      33.005  24.084  25.842  1.00  0.00     0.160 C 
BRANCH   8   9
ATOM      9  C   UNL A   1      32.620  25.318  25.073  1.00  0.00    -0.008 A 
ATOM     10  C   UNL A   1      33.365  28.729  26.807  1.00  0.00     0.138 A 
ATOM     11  C   UNL A   1      33.534  27.372  26.455  1.00  0.00     0.058 A 
ATOM     12  C   UNL A   1      32.411  29.448  26.120  1.00  0.00     0.085 A 
ATOM     13  C   UNL A   1      32.803  26.690  25.464  1.00  0.00     0.008 A 
ATOM     14  C   UNL A   1      31.688  28.822  25.087  1.00  0.00     0.051 A 
ATOM     15  Cl  UNL A   1      32.037  31.109  26.404  1.00  0.00    -0.080 Cl
ATOM     16  C   UNL A   1      31.925  27.468  24.725  1.00  0.00     0.058 A 
ATOM     17  C   UNL A   1      31.677  25.332  24.051  1.00  0.00     0.028 A 
ATOM     18  N   UNL A   1      31.457  26.658  23.678  1.00  0.00    -0.280 N 
ATOM     19  C   UNL A   1      30.978  24.140  23.486  1.00  0.00     0.065 C 
BRANCH  10  20
ATOM     20  O   UNL A   1      34.204  29.096  27.814  1.00  0.00    -0.495 OA
ATOM     21  C   UNL A   1      35.467  29.710  27.623  1.00  0.00     0.278 C 
ENDBRANCH  10  20
BRANCH  18  22
ATOM     22  C   UNL A   1      30.901  27.148  22.472  1.00  0.00     0.262 C 
ATOM     23  O   UNL A   1      31.294  26.714  21.391  1.00  0.00    -0.268 OA
BRANCH  22  24
ATOM     24  C   UNL A   1      29.882  28.210  22.473  1.00  0.00     0.040 A 
ATOM     25  C   UNL A   1      30.252  29.502  22.069  1.00  0.00     0.015 A 
ATOM     26  C   UNL A   1      28.665  27.967  23.113  1.00  0.00     0.015 A 
ATOM     27  C   UNL A   1      29.418  30.574  22.377  1.00  0.00     0.021 A 
ATOM     28  C   UNL A   1      27.843  29.050  23.429  1.00  0.00     0.021 A 
ATOM     29  C   UNL A   1      28.230  30.346  23.075  1.00  0.00     0.041 A 
ATOM     30  Cl  UNL A   1      27.264  31.683  23.561  1.00  0.00    -0.084 Cl
ENDBRANCH  22  24
ENDBRANCH  18  22
ENDBRANCH   8   9
ENDBRANCH   6   8
ENDBRANCH   5   6
ENDBRANCH   4   5
ENDBRANCH   3   4
ENDBRANCH   2   3
ENDBRANCH   1   2
BRANCH   1  31
ATOM     31  C   UNL A   1      36.527  20.406  24.976  1.00  0.00     0.188 C 
BRANCH  31  32
ATOM     32  O   UNL A   1      37.924  20.334  24.863  1.00  0.00    -0.376 OA
BRANCH  32  33
ATOM     33  C   UNL A   1      38.690  21.263  25.610  1.00  0.00     0.202 C 
BRANCH  33  34
ATOM     34  C   UNL A   1      39.988  20.816  26.333  1.00  0.00     0.261 C 
BRANCH  34  35
ATOM     35  O   UNL A   1      41.053  21.809  26.334  1.00  0.00    -0.460 OA
BRANCH  35  36
ATOM     36  C   UNL A   1      41.521  22.178  27.567  1.00  0.00     0.338 C 
ATOM     37  O   UNL A   1      42.392  21.590  28.189  1.00  0.00    -0.246 OA
BRANCH  36  38
ATOM     38  C   UNL A   1      41.145  23.603  27.863  1.00  0.00     0.060 A 
ATOM     39  C   UNL A   1      39.926  24.222  27.608  1.00  0.00     0.016 A 
ATOM     40  C   UNL A   1      42.181  24.403  28.342  1.00  0.00     0.016 A 
ATOM     41  C   UNL A   1      39.817  25.634  27.725  1.00  0.00     0.010 A 
ATOM     42  C   UNL A   1      42.119  25.796  28.364  1.00  0.00     0.010 A 
ATOM     43  C   UNL A   1      40.937  26.439  28.029  1.00  0.00    -0.014 A 
BRANCH  43  44
ATOM     44  C   UNL A   1      40.832  27.863  28.408  1.00  0.00     0.031 A 
ATOM     45  C   UNL A   1      41.884  28.665  27.770  1.00  0.00     0.074 A 
ATOM     46  C   UNL A   1      39.924  28.561  29.128  1.00  0.00     0.049 A 
ATOM     47  N   UNL A   1      43.007  28.923  28.342  1.00  0.00    -0.248 NA
ATOM     48  C   UNL A   1      41.781  29.093  26.374  1.00  0.00     0.031 C 
ATOM     49  C   UNL A   1      38.758  28.067  29.831  1.00  0.00     0.029 A 
ATOM     50  N   UNL A   1      39.851  29.915  29.371  1.00  0.00    -0.354 N 
ATOM     51  C   UNL A   1      43.681  29.743  27.469  1.00  0.00     0.074 A 
ATOM     52  C   UNL A   1      42.987  29.643  26.204  1.00  0.00     0.031 C 
ATOM     53  C   UNL A   1      37.957  29.088  30.224  1.00  0.00     0.029 A 
ATOM     54  C   UNL A   1      38.671  30.334  29.988  1.00  0.00     0.049 A 
ATOM     55  H   UNL A   1      40.572  30.538  29.127  1.00  0.00     0.167 HD
ATOM     56  C   UNL A   1      44.589  30.636  27.940  1.00  0.00     0.031 A 
ATOM     57  C   UNL A   1      38.401  31.527  30.576  1.00  0.00     0.031 A 
ATOM     58  C   UNL A   1      44.874  30.425  29.344  1.00  0.00     0.049 A 
ATOM     59  C   UNL A   1      39.685  32.050  31.076  1.00  0.00     0.074 A 
ATOM     60  C   UNL A   1      45.376  29.373  30.086  1.00  0.00     0.029 A 
ATOM     61  N   UNL A   1      44.205  31.238  30.230  1.00  0.00    -0.354 N 
ATOM     62  N   UNL A   1      40.335  31.523  32.071  1.00  0.00    -0.248 NA
ATOM     63  C   UNL A   1      40.432  33.001  30.272  1.00  0.00     0.031 C 
ATOM     64  C   UNL A   1      44.669  29.401  31.327  1.00  0.00     0.029 A 
ATOM     65  C   UNL A   1      43.804  30.496  31.319  1.00  0.00     0.049 A 
ATOM     66  H   UNL A   1      44.038  32.200  30.105  1.00  0.00     0.167 HD
ATOM     67  C   UNL A   1      41.664  31.694  31.735  1.00  0.00     0.074 A 
ATOM     68  C   UNL A   1      41.661  32.750  30.729  1.00  0.00     0.031 C 
ATOM     69  C   UNL A   1      42.600  30.765  32.089  1.00  0.00     0.031 A 
BRANCH  56  70
ATOM     70  C   UNL A   1      44.920  31.906  27.220  1.00  0.00    -0.014 A 
ATOM     71  C   UNL A   1      43.938  32.801  26.750  1.00  0.00     0.009 A 
ATOM     72  C   UNL A   1      46.253  32.331  27.160  1.00  0.00     0.009 A 
ATOM     73  C   UNL A   1      44.269  34.031  26.182  1.00  0.00     0.001 A 
ATOM     74  C   UNL A   1      46.587  33.585  26.635  1.00  0.00     0.001 A 
ATOM     75  C   UNL A   1      45.597  34.428  26.134  1.00  0.00     0.000 A 
ENDBRANCH  56  70
BRANCH  57  76
ATOM     76  C   UNL A   1      37.184  32.371  30.562  1.00  0.00    -0.014 A 
ATOM     77  C   UNL A   1      36.215  32.237  31.570  1.00  0.00     0.009 A 
ATOM     78  C   UNL A   1      36.818  33.076  29.397  1.00  0.00     0.009 A 
ATOM     79  C   UNL A   1      34.910  32.719  31.388  1.00  0.00     0.001 A 
ATOM     80  C   UNL A   1      35.514  33.557  29.216  1.00  0.00     0.001 A 
ATOM     81  C   UNL A   1      34.553  33.358  30.202  1.00  0.00     0.000 A 
ENDBRANCH  57  76
BRANCH  69  82
ATOM     82  C   UNL A   1      42.248  29.801  33.207  1.00  0.00    -0.014 A 
ATOM     83  C   UNL A   1      42.670  30.114  34.511  1.00  0.00     0.009 A 
ATOM     84  C   UNL A   1      41.595  28.570  33.012  1.00  0.00     0.009 A 
ATOM     85  C   UNL A   1      42.455  29.234  35.575  1.00  0.00     0.001 A 
ATOM     86  C   UNL A   1      41.352  27.700  34.083  1.00  0.00     0.001 A 
ATOM     87  C   UNL A   1      41.789  28.029  35.363  1.00  0.00     0.000 A 
ENDBRANCH  69  82
ENDBRANCH  43  44
ENDBRANCH  36  38
ENDBRANCH  35  36
ENDBRANCH  34  35
ENDBRANCH  33  34
ENDBRANCH  32  33
ENDBRANCH  31  32
ENDBRANCH   1  31
TORSDOF 21
ENDMDL
MODEL 3
REMARK VINA RESULT:     -10.5      5.234     11.177
REMARK SMILES COc1cc2c(CC(=O)OCCOCCOCCOC(=O)c3ccc(-c4c5nc(c(-c6ccccc6)c6ccc([nH]6)c(-c6ccccc6)c6nc(c(-c7ccccc7)c7ccc4[nH]7)C=C6)C=C5)cc3)c(C)n(C(=O)c3ccc(Cl)cc3)c2cc1Cl
REMARK SMILES IDX 14 1 13 2 12 3 11 4 10 5 8 6 9 7 7 8 6 9 3 10 4 11 84 12
REMARK SMILES IDX 5 13 83 14 85 15 82 16 70 17 72 18 71 19 2 20 1 21 73 22
REMARK SMILES IDX 74 23 75 24 76 25 81 26 77 27 80 28 78 29 79 30 15 31 16 32
REMARK SMILES IDX 17 33 18 34 19 35 20 36 21 37 22 38 23 39 69 40 24 41 68 42
REMARK SMILES IDX 25 43 26 44 27 45 62 46 28 47 67 48 61 49 63 50 29 51 66 52
REMARK SMILES IDX 60 53 59 54 30 56 52 57 37 58 51 59 38 60 41 61 50 62 64 63
REMARK SMILES IDX 39 64 40 65 49 67 65 68 42 69 31 70 32 71 36 72 33 73 35 74
REMARK SMILES IDX 34 75 53 76 54 77 58 78 55 79 57 80 56 81 43 82 44 83 48 84
REMARK SMILES IDX 45 85 47 86 46 87
REMARK H PARENT 63 55 41 66
REMARK Flexibility Score: inf
ROOT
ATOM      1  C   UNL A   1      32.967  35.908  31.365  1.00  0.00     0.188 C 
ENDROOT
BRANCH   1   2
ATOM      2  O   UNL A   1      34.108  35.618  32.147  1.00  0.00    -0.376 OA
BRANCH   2   3
ATOM      3  C   UNL A   1      34.942  34.558  31.706  1.00  0.00     0.202 C 
BRANCH   3   4
ATOM      4  C   UNL A   1      34.527  33.153  32.165  1.00  0.00     0.261 C 
BRANCH   4   5
ATOM      5  O   UNL A   1      35.559  32.178  31.864  1.00  0.00    -0.463 OA
BRANCH   5   6
ATOM      6  C   UNL A   1      36.351  31.793  32.899  1.00  0.00     0.310 C 
ATOM      7  O   UNL A   1      37.175  30.887  32.802  1.00  0.00    -0.252 OA
BRANCH   6   8
ATOM      8  C   UNL A   1      36.335  32.754  34.087  1.00  0.00     0.160 C 
BRANCH   8   9
ATOM      9  C   UNL A   1      37.484  33.657  34.443  1.00  0.00    -0.008 A 
ATOM     10  C   UNL A   1      40.135  34.255  31.648  1.00  0.00     0.138 A 
ATOM     11  C   UNL A   1      38.869  34.010  32.225  1.00  0.00     0.058 A 
ATOM     12  C   UNL A   1      41.169  34.577  32.500  1.00  0.00     0.085 A 
ATOM     13  C   UNL A   1      38.577  34.062  33.602  1.00  0.00     0.008 A 
ATOM     14  C   UNL A   1      40.914  34.688  33.880  1.00  0.00     0.051 A 
ATOM     15  Cl  UNL A   1      42.790  34.898  32.003  1.00  0.00    -0.080 Cl
ATOM     16  C   UNL A   1      39.613  34.488  34.418  1.00  0.00     0.058 A 
ATOM     17  C   UNL A   1      37.884  33.924  35.748  1.00  0.00     0.028 A 
ATOM     18  N   UNL A   1      39.068  34.661  35.700  1.00  0.00    -0.280 N 
ATOM     19  C   UNL A   1      37.198  33.456  36.989  1.00  0.00     0.065 C 
BRANCH  10  20
ATOM     20  O   UNL A   1      40.107  34.110  30.295  1.00  0.00    -0.495 OA
ATOM     21  C   UNL A   1      39.279  34.862  29.424  1.00  0.00     0.278 C 
ENDBRANCH  10  20
BRANCH  18  22
ATOM     22  C   UNL A   1      39.636  35.473  36.711  1.00  0.00     0.262 C 
ATOM     23  O   UNL A   1      39.943  36.638  36.466  1.00  0.00    -0.268 OA
BRANCH  22  24
ATOM     24  C   UNL A   1      39.914  34.940  38.054  1.00  0.00     0.040 A 
ATOM     25  C   UNL A   1      40.589  33.716  38.169  1.00  0.00     0.015 A 
ATOM     26  C   UNL A   1      39.279  35.528  39.150  1.00  0.00     0.015 A 
ATOM     27  C   UNL A   1      40.565  33.039  39.386  1.00  0.00     0.021 A 
ATOM     28  C   UNL A   1      39.249  34.836  40.362  1.00  0.00     0.021 A 
ATOM     29  C   UNL A   1      39.876  33.590  40.469  1.00  0.00     0.041 A 
ATOM     30  Cl  UNL A   1      39.744  32.696  41.932  1.00  0.00    -0.084 Cl
ENDBRANCH  22  24
ENDBRANCH  18  22
ENDBRANCH   8   9
ENDBRANCH   6   8
ENDBRANCH   5   6
ENDBRANCH   4   5
ENDBRANCH   3   4
ENDBRANCH   2   3
ENDBRANCH   1   2
BRANCH   1  31
ATOM     31  C   UNL A   1      33.153  36.476  29.948  1.00  0.00     0.188 C 
BRANCH  31  32
ATOM     32  O   UNL A   1      32.538  35.844  28.857  1.00  0.00    -0.376 OA
BRANCH  32  33
ATOM     33  C   UNL A   1      33.150  34.670  28.351  1.00  0.00     0.202 C 
BRANCH  33  34
ATOM     34  C   UNL A   1      34.696  34.544  28.298  1.00  0.00     0.261 C 
BRANCH  34  35
ATOM     35  O   UNL A   1      35.185  33.416  27.520  1.00  0.00    -0.460 OA
BRANCH  35  36
ATOM     36  C   UNL A   1      34.854  32.176  27.996  1.00  0.00     0.338 C 
ATOM     37  O   UNL A   1      33.795  31.604  27.785  1.00  0.00    -0.246 OA
BRANCH  36  38
ATOM     38  C   UNL A   1      36.088  31.442  28.441  1.00  0.00     0.060 A 
ATOM     39  C   UNL A   1      37.160  31.957  29.163  1.00  0.00     0.016 A 
ATOM     40  C   UNL A   1      36.201  30.133  27.974  1.00  0.00     0.016 A 
ATOM     41  C   UNL A   1      38.352  31.194  29.289  1.00  0.00     0.010 A 
ATOM     42  C   UNL A   1      37.396  29.416  28.002  1.00  0.00     0.010 A 
ATOM     43  C   UNL A   1      38.505  29.948  28.643  1.00  0.00    -0.014 A 
BRANCH  43  44
ATOM     44  C   UNL A   1      39.607  29.010  28.941  1.00  0.00     0.031 A 
ATOM     45  C   UNL A   1      39.724  28.764  30.384  1.00  0.00     0.074 A 
ATOM     46  C   UNL A   1      40.437  28.284  28.158  1.00  0.00     0.049 A 
ATOM     47  N   UNL A   1      40.514  29.438  31.144  1.00  0.00    -0.248 NA
ATOM     48  C   UNL A   1      38.830  27.836  31.079  1.00  0.00     0.031 C 
ATOM     49  C   UNL A   1      40.530  28.269  26.713  1.00  0.00     0.029 A 
ATOM     50  N   UNL A   1      41.395  27.361  28.514  1.00  0.00    -0.354 N 
ATOM     51  C   UNL A   1      40.390  28.871  32.391  1.00  0.00     0.074 A 
ATOM     52  C   UNL A   1      39.203  28.048  32.344  1.00  0.00     0.031 C 
ATOM     53  C   UNL A   1      41.301  27.238  26.284  1.00  0.00     0.029 A 
ATOM     54  C   UNL A   1      41.939  26.643  27.448  1.00  0.00     0.049 A 
ATOM     55  H   UNL A   1      41.673  27.217  29.448  1.00  0.00     0.167 HD
ATOM     56  C   UNL A   1      41.428  28.925  33.265  1.00  0.00     0.031 A 
ATOM     57  C   UNL A   1      43.051  25.864  27.432  1.00  0.00     0.031 A 
ATOM     58  C   UNL A   1      42.482  29.800  32.799  1.00  0.00     0.049 A 
ATOM     59  C   UNL A   1      43.960  26.406  28.456  1.00  0.00     0.074 A 
ATOM     60  C   UNL A   1      42.559  31.141  32.475  1.00  0.00     0.029 A 
ATOM     61  N   UNL A   1      43.551  29.193  32.181  1.00  0.00    -0.354 N 
ATOM     62  N   UNL A   1      44.564  27.552  28.343  1.00  0.00    -0.248 NA
ATOM     63  C   UNL A   1      43.980  25.815  29.782  1.00  0.00     0.031 C 
ATOM     64  C   UNL A   1      43.457  31.222  31.368  1.00  0.00     0.029 A 
ATOM     65  C   UNL A   1      43.937  29.941  31.093  1.00  0.00     0.049 A 
ATOM     66  H   UNL A   1      43.973  28.351  32.472  1.00  0.00     0.167 HD
ATOM     67  C   UNL A   1      44.608  28.040  29.636  1.00  0.00     0.074 A 
ATOM     68  C   UNL A   1      44.403  26.870  30.482  1.00  0.00     0.031 C 
ATOM     69  C   UNL A   1      44.514  29.379  29.881  1.00  0.00     0.031 A 
BRANCH  56  70
ATOM     70  C   UNL A   1      41.629  27.902  34.340  1.00  0.00    -0.014 A 
ATOM     71  C   UNL A   1      42.090  26.596  34.082  1.00  0.00     0.009 A 
ATOM     72  C   UNL A   1      41.535  28.292  35.682  1.00  0.00     0.009 A 
ATOM     73  C   UNL A   1      42.377  25.695  35.107  1.00  0.00     0.001 A 
ATOM     74  C   UNL A   1      41.869  27.408  36.715  1.00  0.00     0.001 A 
ATOM     75  C   UNL A   1      42.276  26.107  36.428  1.00  0.00     0.000 A 
ENDBRANCH  56  70
BRANCH  57  76
ATOM     76  C   UNL A   1      43.324  24.564  26.776  1.00  0.00    -0.014 A 
ATOM     77  C   UNL A   1      43.680  24.515  25.418  1.00  0.00     0.009 A 
ATOM     78  C   UNL A   1      42.926  23.358  27.389  1.00  0.00     0.009 A 
ATOM     79  C   UNL A   1      43.568  23.325  24.684  1.00  0.00     0.001 A 
ATOM     80  C   UNL A   1      42.814  22.170  26.654  1.00  0.00     0.001 A 
ATOM     81  C   UNL A   1      43.114  22.158  25.295  1.00  0.00     0.000 A 
ENDBRANCH  57  76
BRANCH  69  82
ATOM     82  C   UNL A   1      44.804  30.329  28.733  1.00  0.00    -0.014 A 
ATOM     83  C   UNL A   1      43.746  30.676  27.876  1.00  0.00     0.009 A 
ATOM     84  C   UNL A   1      46.084  30.822  28.420  1.00  0.00     0.009 A 
ATOM     85  C   UNL A   1      43.956  31.478  26.750  1.00  0.00     0.001 A 
ATOM     86  C   UNL A   1      46.292  31.651  27.309  1.00  0.00     0.001 A 
ATOM     87  C   UNL A   1      45.228  31.972  26.470  1.00  0.00     0.000 A 
ENDBRANCH  69  82
ENDBRANCH  43  44
ENDBRANCH  36  38
ENDBRANCH  35  36
ENDBRANCH  34  35
ENDBRANCH  33  34
ENDBRANCH  32  33
ENDBRANCH  31  32
ENDBRANCH   1  31
TORSDOF 21
ENDMDL
