MODEL 1
REMARK VINA RESULT:      -8.9      0.000      0.000
REMARK SMILES O=C(OCCOCCOCCOC(=O)[C@H](F)[C@H](O)C1CCOCC1)c1ccc(-c2c3nc(c(-c4ccccc4)c4ccc([nH]4)c(-c4ccccc4)c4nc(c(-c5ccccc5)c5ccc2[nH]5)C=C4)C=C3)cc1
REMARK SMILES IDX 7 1 6 2 5 3 4 4 3 5 2 6 1 7 25 8 26 9 72 10 27 11 71 12
REMARK SMILES IDX 28 13 29 14 30 15 65 16 31 17 70 18 64 19 66 20 32 21 69 22
REMARK SMILES IDX 63 23 62 24 33 26 55 27 40 28 54 29 41 30 44 31 53 32 67 33
REMARK SMILES IDX 42 34 43 35 52 37 68 38 45 39 34 40 35 41 39 42 36 43 38 44
REMARK SMILES IDX 37 45 56 46 57 47 61 48 58 49 60 50 59 51 46 52 47 53 51 54
REMARK SMILES IDX 48 55 50 56 49 57 8 58 9 59 10 60 11 61 12 62 13 63 14 64
REMARK SMILES IDX 15 65 16 66 17 67 19 68 20 69 24 70 21 71 23 72 22 73 18 74
REMARK H PARENT 66 25 44 36 18 75
REMARK Flexibility Score: inf
ROOT
ATOM      1  C   UNL A   1      37.354  22.191  25.489  1.00  0.00     0.188 C 
ENDROOT
BRANCH   1   2
ATOM      2  O   UNL A   1      38.580  21.468  25.616  1.00  0.00    -0.376 OA
BRANCH   2   3
ATOM      3  C   UNL A   1      38.514  20.184  24.995  1.00  0.00     0.202 C 
BRANCH   3   4
ATOM      4  C   UNL A   1      39.243  19.074  25.770  1.00  0.00     0.261 C 
BRANCH   4   5
ATOM      5  O   UNL A   1      40.641  18.965  25.441  1.00  0.00    -0.460 OA
BRANCH   5   6
ATOM      6  C   UNL A   1      41.718  19.510  26.059  1.00  0.00     0.338 C 
ATOM      7  O   UNL A   1      42.688  18.781  26.264  1.00  0.00    -0.246 OA
BRANCH   6   8
ATOM      8  C   UNL A   1      41.818  20.936  26.528  1.00  0.00     0.060 A 
ATOM      9  C   UNL A   1      42.058  22.050  25.725  1.00  0.00     0.016 A 
ATOM     10  C   UNL A   1      41.628  21.165  27.909  1.00  0.00     0.016 A 
ATOM     11  C   UNL A   1      42.184  23.327  26.266  1.00  0.00     0.010 A 
ATOM     12  C   UNL A   1      41.735  22.448  28.463  1.00  0.00     0.010 A 
ATOM     13  C   UNL A   1      42.056  23.526  27.640  1.00  0.00    -0.014 A 
BRANCH  13  14
ATOM     14  C   UNL A   1      42.456  24.841  28.173  1.00  0.00     0.031 A 
ATOM     15  C   UNL A   1      43.922  25.153  28.235  1.00  0.00     0.074 A 
ATOM     16  C   UNL A   1      41.533  25.785  28.420  1.00  0.00     0.049 A 
ATOM     17  N   UNL A   1      44.517  26.288  28.480  1.00  0.00    -0.248 NA
ATOM     18  C   UNL A   1      44.840  24.039  27.934  1.00  0.00     0.031 C 
ATOM     19  C   UNL A   1      40.087  25.606  28.288  1.00  0.00     0.029 A 
ATOM     20  N   UNL A   1      41.678  27.094  28.796  1.00  0.00    -0.354 N 
ATOM     21  C   UNL A   1      45.873  26.037  28.326  1.00  0.00     0.074 A 
ATOM     22  C   UNL A   1      46.019  24.636  28.000  1.00  0.00     0.031 C 
ATOM     23  C   UNL A   1      39.476  26.770  28.568  1.00  0.00     0.029 A 
ATOM     24  C   UNL A   1      40.487  27.765  28.917  1.00  0.00     0.049 A 
ATOM     25  H   UNL A   1      42.553  27.512  28.963  1.00  0.00     0.167 HD
ATOM     26  C   UNL A   1      46.908  26.899  28.441  1.00  0.00     0.031 A 
ATOM     27  C   UNL A   1      40.251  29.041  29.277  1.00  0.00     0.031 A 
ATOM     28  C   UNL A   1      46.762  28.269  28.845  1.00  0.00     0.049 A 
ATOM     29  C   UNL A   1      41.426  29.938  29.558  1.00  0.00     0.074 A 
ATOM     30  C   UNL A   1      47.743  29.208  29.098  1.00  0.00     0.029 A 
ATOM     31  N   UNL A   1      45.541  28.884  29.079  1.00  0.00    -0.354 N 
ATOM     32  N   UNL A   1      42.707  29.689  29.421  1.00  0.00    -0.248 NA
ATOM     33  C   UNL A   1      41.124  31.293  30.041  1.00  0.00     0.031 C 
ATOM     34  C   UNL A   1      47.114  30.382  29.531  1.00  0.00     0.029 A 
ATOM     35  C   UNL A   1      45.742  30.185  29.499  1.00  0.00     0.049 A 
ATOM     36  H   UNL A   1      44.661  28.456  28.962  1.00  0.00     0.167 HD
ATOM     37  C   UNL A   1      43.363  30.858  29.785  1.00  0.00     0.074 A 
ATOM     38  C   UNL A   1      42.337  31.822  30.128  1.00  0.00     0.031 C 
ATOM     39  C   UNL A   1      44.694  31.114  29.835  1.00  0.00     0.031 A 
BRANCH  26  40
ATOM     40  C   UNL A   1      48.276  26.343  28.180  1.00  0.00    -0.014 A 
ATOM     41  C   UNL A   1      49.032  25.773  29.216  1.00  0.00     0.009 A 
ATOM     42  C   UNL A   1      48.836  26.436  26.897  1.00  0.00     0.009 A 
ATOM     43  C   UNL A   1      50.338  25.338  28.979  1.00  0.00     0.001 A 
ATOM     44  C   UNL A   1      50.135  25.983  26.660  1.00  0.00     0.001 A 
ATOM     45  C   UNL A   1      50.888  25.444  27.702  1.00  0.00     0.000 A 
ENDBRANCH  26  40
BRANCH  27  46
ATOM     46  C   UNL A   1      38.856  29.536  29.423  1.00  0.00    -0.014 A 
ATOM     47  C   UNL A   1      38.139  29.347  30.613  1.00  0.00     0.009 A 
ATOM     48  C   UNL A   1      38.221  30.180  28.348  1.00  0.00     0.009 A 
ATOM     49  C   UNL A   1      36.811  29.772  30.716  1.00  0.00     0.001 A 
ATOM     50  C   UNL A   1      36.903  30.628  28.461  1.00  0.00     0.001 A 
ATOM     51  C   UNL A   1      36.196  30.415  29.642  1.00  0.00     0.000 A 
ENDBRANCH  27  46
BRANCH  39  52
ATOM     52  C   UNL A   1      45.105  32.493  30.258  1.00  0.00    -0.014 A 
ATOM     53  C   UNL A   1      45.400  32.780  31.599  1.00  0.00     0.009 A 
ATOM     54  C   UNL A   1      45.246  33.503  29.294  1.00  0.00     0.009 A 
ATOM     55  C   UNL A   1      45.805  34.063  31.971  1.00  0.00     0.001 A 
ATOM     56  C   UNL A   1      45.674  34.777  29.665  1.00  0.00     0.001 A 
ATOM     57  C   UNL A   1      45.946  35.058  31.004  1.00  0.00     0.000 A 
ENDBRANCH  39  52
ENDBRANCH  13  14
ENDBRANCH   6   8
ENDBRANCH   5   6
ENDBRANCH   4   5
ENDBRANCH   3   4
ENDBRANCH   2   3
ENDBRANCH   1   2
BRANCH   1  58
ATOM     58  C   UNL A   1      36.131  21.284  25.399  1.00  0.00     0.188 C 
BRANCH  58  59
ATOM     59  O   UNL A   1      35.084  21.518  26.336  1.00  0.00    -0.376 OA
BRANCH  59  60
ATOM     60  C   UNL A   1      33.810  21.900  25.801  1.00  0.00     0.202 C 
BRANCH  60  61
ATOM     61  C   UNL A   1      32.770  22.377  26.828  1.00  0.00     0.261 C 
BRANCH  61  62
ATOM     62  O   UNL A   1      31.523  22.623  26.154  1.00  0.00    -0.461 OA
BRANCH  62  63
ATOM     63  C   UNL A   1      30.840  23.738  26.529  1.00  0.00     0.343 C 
ATOM     64  O   UNL A   1      29.863  23.744  27.270  1.00  0.00    -0.249 OA
BRANCH  63  65
ATOM     65  C   UNL A   1      31.494  24.975  25.943  1.00  0.00     0.304 C 
ATOM     66  F   UNL A   1      31.656  25.985  26.859  1.00  0.00    -0.232 F 
BRANCH  65  67
ATOM     67  C   UNL A   1      30.768  25.566  24.720  1.00  0.00     0.163 C 
BRANCH  67  68
ATOM     68  C   UNL A   1      31.578  26.148  23.523  1.00  0.00     0.026 C 
ATOM     69  C   UNL A   1      31.658  25.225  22.295  1.00  0.00     0.035 C 
ATOM     70  C   UNL A   1      32.957  26.705  23.909  1.00  0.00     0.035 C 
ATOM     71  C   UNL A   1      32.538  25.827  21.206  1.00  0.00     0.160 C 
ATOM     72  C   UNL A   1      33.800  27.130  22.713  1.00  0.00     0.160 C 
ATOM     73  O   UNL A   1      33.835  26.107  21.723  1.00  0.00    -0.381 OA
ENDBRANCH  67  68
BRANCH  67  74
ATOM     74  O   UNL A   1      29.911  24.526  24.196  1.00  0.00    -0.389 OA
ATOM     75  H   UNL A   1      30.023  24.469  23.234  1.00  0.00     0.211 HD
ENDBRANCH  67  74
ENDBRANCH  65  67
ENDBRANCH  63  65
ENDBRANCH  62  63
ENDBRANCH  61  62
ENDBRANCH  60  61
ENDBRANCH  59  60
ENDBRANCH  58  59
ENDBRANCH   1  58
TORSDOF 20
ENDMDL
MODEL 2
REMARK VINA RESULT:      -8.8      2.277      7.541
REMARK SMILES O=C(OCCOCCOCCOC(=O)[C@H](F)[C@H](O)C1CCOCC1)c1ccc(-c2c3nc(c(-c4ccccc4)c4ccc([nH]4)c(-c4ccccc4)c4nc(c(-c5ccccc5)c5ccc2[nH]5)C=C4)C=C3)cc1
REMARK SMILES IDX 7 1 6 2 5 3 4 4 3 5 2 6 1 7 25 8 26 9 72 10 27 11 71 12
REMARK SMILES IDX 28 13 29 14 30 15 65 16 31 17 70 18 64 19 66 20 32 21 69 22
REMARK SMILES IDX 63 23 62 24 33 26 55 27 40 28 54 29 41 30 44 31 53 32 67 33
REMARK SMILES IDX 42 34 43 35 52 37 68 38 45 39 34 40 35 41 39 42 36 43 38 44
REMARK SMILES IDX 37 45 56 46 57 47 61 48 58 49 60 50 59 51 46 52 47 53 51 54
REMARK SMILES IDX 48 55 50 56 49 57 8 58 9 59 10 60 11 61 12 62 13 63 14 64
REMARK SMILES IDX 15 65 16 66 17 67 19 68 20 69 24 70 21 71 23 72 22 73 18 74
REMARK H PARENT 66 25 44 36 18 75
REMARK Flexibility Score: inf
ROOT
ATOM      1  C   UNL A   1      31.101  29.334  24.395  1.00  0.00     0.188 C 
ENDROOT
BRANCH   1   2
ATOM      2  O   UNL A   1      32.491  29.109  24.151  1.00  0.00    -0.376 OA
BRANCH   2   3
ATOM      3  C   UNL A   1      33.270  29.217  25.343  1.00  0.00     0.202 C 
BRANCH   3   4
ATOM      4  C   UNL A   1      32.726  30.235  26.359  1.00  0.00     0.261 C 
BRANCH   4   5
ATOM      5  O   UNL A   1      33.433  30.230  27.613  1.00  0.00    -0.460 OA
BRANCH   5   6
ATOM      6  C   UNL A   1      34.568  30.884  27.967  1.00  0.00     0.338 C 
ATOM      7  O   UNL A   1      34.541  32.115  27.967  1.00  0.00    -0.246 OA
BRANCH   6   8
ATOM      8  C   UNL A   1      35.865  30.225  28.346  1.00  0.00     0.060 A 
ATOM      9  C   UNL A   1      36.174  29.674  29.590  1.00  0.00     0.016 A 
ATOM     10  C   UNL A   1      36.853  30.139  27.339  1.00  0.00     0.016 A 
ATOM     11  C   UNL A   1      37.428  29.131  29.856  1.00  0.00     0.010 A 
ATOM     12  C   UNL A   1      38.112  29.578  27.591  1.00  0.00     0.010 A 
ATOM     13  C   UNL A   1      38.411  29.110  28.869  1.00  0.00    -0.014 A 
BRANCH  13  14
ATOM     14  C   UNL A   1      39.783  28.766  29.288  1.00  0.00     0.031 A 
ATOM     15  C   UNL A   1      40.299  27.403  28.934  1.00  0.00     0.074 A 
ATOM     16  C   UNL A   1      40.593  29.704  29.804  1.00  0.00     0.049 A 
ATOM     17  N   UNL A   1      41.513  26.930  29.019  1.00  0.00    -0.248 NA
ATOM     18  C   UNL A   1      39.319  26.460  28.365  1.00  0.00     0.031 C 
ATOM     19  C   UNL A   1      40.209  31.087  30.088  1.00  0.00     0.029 A 
ATOM     20  N   UNL A   1      41.918  29.645  30.145  1.00  0.00    -0.354 N 
ATOM     21  C   UNL A   1      41.452  25.653  28.479  1.00  0.00     0.074 A 
ATOM     22  C   UNL A   1      40.078  25.408  28.102  1.00  0.00     0.031 C 
ATOM     23  C   UNL A   1      41.282  31.752  30.550  1.00  0.00     0.029 A 
ATOM     24  C   UNL A   1      42.417  30.836  30.613  1.00  0.00     0.049 A 
ATOM     25  H   UNL A   1      42.460  28.828  30.062  1.00  0.00     0.167 HD
ATOM     26  C   UNL A   1      42.454  24.762  28.308  1.00  0.00     0.031 A 
ATOM     27  C   UNL A   1      43.656  31.138  31.046  1.00  0.00     0.031 A 
ATOM     28  C   UNL A   1      43.799  24.979  28.761  1.00  0.00     0.049 A 
ATOM     29  C   UNL A   1      44.717  30.072  30.995  1.00  0.00     0.074 A 
ATOM     30  C   UNL A   1      44.873  24.111  28.738  1.00  0.00     0.029 A 
ATOM     31  N   UNL A   1      44.241  26.158  29.343  1.00  0.00    -0.354 N 
ATOM     32  N   UNL A   1      44.647  28.861  30.494  1.00  0.00    -0.248 NA
ATOM     33  C   UNL A   1      46.027  30.413  31.567  1.00  0.00     0.031 C 
ATOM     34  C   UNL A   1      45.957  24.751  29.353  1.00  0.00     0.029 A 
ATOM     35  C   UNL A   1      45.567  26.032  29.711  1.00  0.00     0.049 A 
ATOM     36  H   UNL A   1      43.691  26.964  29.476  1.00  0.00     0.167 HD
ATOM     37  C   UNL A   1      45.905  28.301  30.675  1.00  0.00     0.074 A 
ATOM     38  C   UNL A   1      46.724  29.313  31.313  1.00  0.00     0.031 C 
ATOM     39  C   UNL A   1      46.348  27.062  30.347  1.00  0.00     0.031 A 
BRANCH  26  40
ATOM     40  C   UNL A   1      42.090  23.460  27.658  1.00  0.00    -0.014 A 
ATOM     41  C   UNL A   1      42.293  23.259  26.283  1.00  0.00     0.009 A 
ATOM     42  C   UNL A   1      41.492  22.443  28.416  1.00  0.00     0.009 A 
ATOM     43  C   UNL A   1      41.870  22.075  25.674  1.00  0.00     0.001 A 
ATOM     44  C   UNL A   1      41.087  21.254  27.806  1.00  0.00     0.001 A 
ATOM     45  C   UNL A   1      41.267  21.075  26.436  1.00  0.00     0.000 A 
ENDBRANCH  26  40
BRANCH  27  46
ATOM     46  C   UNL A   1      43.952  32.490  31.593  1.00  0.00    -0.014 A 
ATOM     47  C   UNL A   1      43.743  32.787  32.947  1.00  0.00     0.009 A 
ATOM     48  C   UNL A   1      44.423  33.505  30.743  1.00  0.00     0.009 A 
ATOM     49  C   UNL A   1      43.978  34.077  33.434  1.00  0.00     0.001 A 
ATOM     50  C   UNL A   1      44.683  34.785  31.237  1.00  0.00     0.001 A 
ATOM     51  C   UNL A   1      44.450  35.073  32.580  1.00  0.00     0.000 A 
ENDBRANCH  27  46
BRANCH  39  52
ATOM     52  C   UNL A   1      47.781  26.748  30.658  1.00  0.00    -0.014 A 
ATOM     53  C   UNL A   1      48.142  26.144  31.872  1.00  0.00     0.009 A 
ATOM     54  C   UNL A   1      48.774  27.015  29.704  1.00  0.00     0.009 A 
ATOM     55  C   UNL A   1      49.477  25.836  32.134  1.00  0.00     0.001 A 
ATOM     56  C   UNL A   1      50.104  26.684  29.959  1.00  0.00     0.001 A 
ATOM     57  C   UNL A   1      50.456  26.101  31.177  1.00  0.00     0.000 A 
ENDBRANCH  39  52
ENDBRANCH  13  14
ENDBRANCH   6   8
ENDBRANCH   5   6
ENDBRANCH   4   5
ENDBRANCH   3   4
ENDBRANCH   2   3
ENDBRANCH   1   2
BRANCH   1  58
ATOM     58  C   UNL A   1      30.206  28.832  23.266  1.00  0.00     0.188 C 
BRANCH  58  59
ATOM     59  O   UNL A   1      29.499  27.617  23.496  1.00  0.00    -0.376 OA
BRANCH  59  60
ATOM     60  C   UNL A   1      30.244  26.534  24.069  1.00  0.00     0.202 C 
BRANCH  60  61
ATOM     61  C   UNL A   1      31.175  25.780  23.104  1.00  0.00     0.261 C 
BRANCH  61  62
ATOM     62  O   UNL A   1      32.506  25.768  23.649  1.00  0.00    -0.461 OA
BRANCH  62  63
ATOM     63  C   UNL A   1      33.501  25.364  22.813  1.00  0.00     0.343 C 
ATOM     64  O   UNL A   1      33.911  26.006  21.852  1.00  0.00    -0.249 OA
BRANCH  63  65
ATOM     65  C   UNL A   1      34.065  24.033  23.272  1.00  0.00     0.304 C 
ATOM     66  F   UNL A   1      33.262  22.967  22.952  1.00  0.00    -0.232 F 
BRANCH  65  67
ATOM     67  C   UNL A   1      34.369  23.952  24.780  1.00  0.00     0.163 C 
BRANCH  67  68
ATOM     68  C   UNL A   1      35.524  23.048  25.308  1.00  0.00     0.026 C 
ATOM     69  C   UNL A   1      36.899  23.736  25.368  1.00  0.00     0.035 C 
ATOM     70  C   UNL A   1      35.603  21.671  24.630  1.00  0.00     0.035 C 
ATOM     71  C   UNL A   1      37.986  22.762  25.807  1.00  0.00     0.160 C 
ATOM     72  C   UNL A   1      36.824  20.857  25.043  1.00  0.00     0.160 C 
ATOM     73  O   UNL A   1      38.014  21.633  24.940  1.00  0.00    -0.381 OA
ENDBRANCH  67  68
BRANCH  67  74
ATOM     74  O   UNL A   1      34.638  25.300  25.229  1.00  0.00    -0.389 OA
ATOM     75  H   UNL A   1      35.493  25.594  24.878  1.00  0.00     0.211 HD
ENDBRANCH  67  74
ENDBRANCH  65  67
ENDBRANCH  63  65
ENDBRANCH  62  63
ENDBRANCH  61  62
ENDBRANCH  60  61
ENDBRANCH  59  60
ENDBRANCH  58  59
ENDBRANCH   1  58
TORSDOF 20
ENDMDL
MODEL 3
REMARK VINA RESULT:      -8.6      2.531      7.890
REMARK SMILES O=C(OCCOCCOCCOC(=O)[C@H](F)[C@H](O)C1CCOCC1)c1ccc(-c2c3nc(c(-c4ccccc4)c4ccc([nH]4)c(-c4ccccc4)c4nc(c(-c5ccccc5)c5ccc2[nH]5)C=C4)C=C3)cc1
REMARK SMILES IDX 7 1 6 2 5 3 4 4 3 5 2 6 1 7 25 8 26 9 72 10 27 11 71 12
REMARK SMILES IDX 28 13 29 14 30 15 65 16 31 17 70 18 64 19 66 20 32 21 69 22
REMARK SMILES IDX 63 23 62 24 33 26 55 27 40 28 54 29 41 30 44 31 53 32 67 33
REMARK SMILES IDX 42 34 43 35 52 37 68 38 45 39 34 40 35 41 39 42 36 43 38 44
REMARK SMILES IDX 37 45 56 46 57 47 61 48 58 49 60 50 59 51 46 52 47 53 51 54
REMARK SMILES IDX 48 55 50 56 49 57 8 58 9 59 10 60 11 61 12 62 13 63 14 64
REMARK SMILES IDX 15 65 16 66 17 67 19 68 20 69 24 70 21 71 23 72 22 73 18 74
REMARK H PARENT 66 25 44 36 18 75
REMARK Flexibility Score: inf
ROOT
ATOM      1  C   UNL A   1      31.101  29.090  24.034  1.00  0.00     0.188 C 
ENDROOT
BRANCH   1   2
ATOM      2  O   UNL A   1      32.448  28.701  23.759  1.00  0.00    -0.376 OA
BRANCH   2   3
ATOM      3  C   UNL A   1      33.289  28.826  24.906  1.00  0.00     0.202 C 
BRANCH   3   4
ATOM      4  C   UNL A   1      32.525  28.902  26.239  1.00  0.00     0.261 C 
BRANCH   4   5
ATOM      5  O   UNL A   1      33.382  29.084  27.382  1.00  0.00    -0.460 OA
BRANCH   5   6
ATOM      6  C   UNL A   1      34.256  30.084  27.656  1.00  0.00     0.338 C 
ATOM      7  O   UNL A   1      33.841  31.241  27.582  1.00  0.00    -0.246 OA
BRANCH   6   8
ATOM      8  C   UNL A   1      35.700  29.894  28.029  1.00  0.00     0.060 A 
ATOM      9  C   UNL A   1      36.799  30.110  27.198  1.00  0.00     0.016 A 
ATOM     10  C   UNL A   1      35.966  29.480  29.354  1.00  0.00     0.016 A 
ATOM     11  C   UNL A   1      38.099  29.855  27.625  1.00  0.00     0.010 A 
ATOM     12  C   UNL A   1      37.271  29.236  29.800  1.00  0.00     0.010 A 
ATOM     13  C   UNL A   1      38.338  29.386  28.915  1.00  0.00    -0.014 A 
BRANCH  13  14
ATOM     14  C   UNL A   1      39.694  28.891  29.215  1.00  0.00     0.031 A 
ATOM     15  C   UNL A   1      40.538  29.696  30.159  1.00  0.00     0.074 A 
ATOM     16  C   UNL A   1      40.082  27.675  28.799  1.00  0.00     0.049 A 
ATOM     17  N   UNL A   1      41.673  29.385  30.723  1.00  0.00    -0.248 NA
ATOM     18  C   UNL A   1      40.004  31.012  30.553  1.00  0.00     0.031 C 
ATOM     19  C   UNL A   1      39.287  26.775  27.962  1.00  0.00     0.029 A 
ATOM     20  N   UNL A   1      41.228  26.971  29.057  1.00  0.00    -0.354 N 
ATOM     21  C   UNL A   1      41.970  30.446  31.568  1.00  0.00     0.074 A 
ATOM     22  C   UNL A   1      40.917  31.425  31.418  1.00  0.00     0.031 C 
ATOM     23  C   UNL A   1      39.967  25.630  27.786  1.00  0.00     0.029 A 
ATOM     24  C   UNL A   1      41.249  25.726  28.478  1.00  0.00     0.049 A 
ATOM     25  H   UNL A   1      41.965  27.324  29.605  1.00  0.00     0.167 HD
ATOM     26  C   UNL A   1      43.025  30.592  32.400  1.00  0.00     0.031 A 
ATOM     27  C   UNL A   1      42.207  24.780  28.507  1.00  0.00     0.031 A 
ATOM     28  C   UNL A   1      44.109  29.654  32.481  1.00  0.00     0.049 A 
ATOM     29  C   UNL A   1      43.450  25.038  29.315  1.00  0.00     0.074 A 
ATOM     30  C   UNL A   1      45.281  29.744  33.207  1.00  0.00     0.029 A 
ATOM     31  N   UNL A   1      44.154  28.456  31.784  1.00  0.00    -0.354 N 
ATOM     32  N   UNL A   1      43.728  26.051  30.101  1.00  0.00    -0.248 NA
ATOM     33  C   UNL A   1      44.510  24.024  29.241  1.00  0.00     0.031 C 
ATOM     34  C   UNL A   1      46.059  28.617  32.911  1.00  0.00     0.029 A 
ATOM     35  C   UNL A   1      45.346  27.806  32.041  1.00  0.00     0.049 A 
ATOM     36  H   UNL A   1      43.441  28.118  31.194  1.00  0.00     0.167 HD
ATOM     37  C   UNL A   1      44.986  25.790  30.628  1.00  0.00     0.074 A 
ATOM     38  C   UNL A   1      45.407  24.512  30.088  1.00  0.00     0.031 C 
ATOM     39  C   UNL A   1      45.731  26.536  31.481  1.00  0.00     0.031 A 
BRANCH  26  40
ATOM     40  C   UNL A   1      43.061  31.844  33.225  1.00  0.00    -0.014 A 
ATOM     41  C   UNL A   1      43.695  33.003  32.749  1.00  0.00     0.009 A 
ATOM     42  C   UNL A   1      42.502  31.850  34.511  1.00  0.00     0.009 A 
ATOM     43  C   UNL A   1      43.797  34.134  33.562  1.00  0.00     0.001 A 
ATOM     44  C   UNL A   1      42.591  32.989  35.313  1.00  0.00     0.001 A 
ATOM     45  C   UNL A   1      43.246  34.125  34.842  1.00  0.00     0.000 A 
ENDBRANCH  26  40
BRANCH  27  46
ATOM     46  C   UNL A   1      42.046  23.523  27.727  1.00  0.00    -0.014 A 
ATOM     47  C   UNL A   1      42.473  23.435  26.395  1.00  0.00     0.009 A 
ATOM     48  C   UNL A   1      41.431  22.405  28.315  1.00  0.00     0.009 A 
ATOM     49  C   UNL A   1      42.267  22.263  25.660  1.00  0.00     0.001 A 
ATOM     50  C   UNL A   1      41.251  21.226  27.588  1.00  0.00     0.001 A 
ATOM     51  C   UNL A   1      41.660  21.159  26.258  1.00  0.00     0.000 A 
ENDBRANCH  27  46
BRANCH  39  52
ATOM     52  C   UNL A   1      47.062  25.977  31.888  1.00  0.00    -0.014 A 
ATOM     53  C   UNL A   1      48.184  26.102  31.055  1.00  0.00     0.009 A 
ATOM     54  C   UNL A   1      47.204  25.364  33.142  1.00  0.00     0.009 A 
ATOM     55  C   UNL A   1      49.420  25.598  31.462  1.00  0.00     0.001 A 
ATOM     56  C   UNL A   1      48.445  24.883  33.555  1.00  0.00     0.001 A 
ATOM     57  C   UNL A   1      49.551  24.994  32.712  1.00  0.00     0.000 A 
ENDBRANCH  39  52
ENDBRANCH  13  14
ENDBRANCH   6   8
ENDBRANCH   5   6
ENDBRANCH   4   5
ENDBRANCH   3   4
ENDBRANCH   2   3
ENDBRANCH   1   2
BRANCH   1  58
ATOM     58  C   UNL A   1      30.071  28.273  23.260  1.00  0.00     0.188 C 
BRANCH  58  59
ATOM     59  O   UNL A   1      29.466  27.182  23.947  1.00  0.00    -0.376 OA
BRANCH  59  60
ATOM     60  C   UNL A   1      30.107  25.905  23.823  1.00  0.00     0.202 C 
BRANCH  60  61
ATOM     61  C   UNL A   1      30.852  25.408  25.073  1.00  0.00     0.261 C 
BRANCH  61  62
ATOM     62  O   UNL A   1      30.693  23.982  25.178  1.00  0.00    -0.461 OA
BRANCH  62  63
ATOM     63  C   UNL A   1      30.883  23.439  26.411  1.00  0.00     0.343 C 
ATOM     64  O   UNL A   1      30.096  23.534  27.346  1.00  0.00    -0.249 OA
BRANCH  63  65
ATOM     65  C   UNL A   1      32.182  22.655  26.445  1.00  0.00     0.304 C 
ATOM     66  F   UNL A   1      33.284  23.446  26.655  1.00  0.00    -0.232 F 
BRANCH  65  67
ATOM     67  C   UNL A   1      32.450  21.804  25.190  1.00  0.00     0.163 C 
BRANCH  67  68
ATOM     68  C   UNL A   1      33.898  21.639  24.638  1.00  0.00     0.026 C 
ATOM     69  C   UNL A   1      34.921  21.131  25.669  1.00  0.00     0.035 C 
ATOM     70  C   UNL A   1      34.421  22.863  23.870  1.00  0.00     0.035 C 
ATOM     71  C   UNL A   1      36.325  21.083  25.078  1.00  0.00     0.160 C 
ATOM     72  C   UNL A   1      35.887  22.752  23.469  1.00  0.00     0.160 C 
ATOM     73  O   UNL A   1      36.692  22.365  24.579  1.00  0.00    -0.381 OA
ENDBRANCH  67  68
BRANCH  67  74
ATOM     74  O   UNL A   1      31.938  20.480  25.461  1.00  0.00    -0.389 OA
ATOM     75  H   UNL A   1      31.437  20.491  26.292  1.00  0.00     0.211 HD
ENDBRANCH  67  74
ENDBRANCH  65  67
ENDBRANCH  63  65
ENDBRANCH  62  63
ENDBRANCH  61  62
ENDBRANCH  60  61
ENDBRANCH  59  60
ENDBRANCH  58  59
ENDBRANCH   1  58
TORSDOF 20
ENDMDL
