MODEL 1
REMARK VINA RESULT:     -10.5      0.000      0.000
REMARK SMILES C=CCn1nc(C(=O)OCCOCCOCCOC(=O)c2ccc(-c3c4nc(c(-c5ccccc5)c5ccc([nH]5)c(-c5ccccc5)c5nc(c(-c6ccccc6)c6ccc3[nH]6)C=C5)C=C4)cc2)c2c1CC[C@@H]([NH+]1CCC(C(C)(C)O)CC1)C2
REMARK SMILES IDX 13 1 12 2 11 3 10 4 9 5 7 6 8 7 6 8 4 9 5 10 70 11 69 12
REMARK SMILES IDX 71 13 84 14 72 15 73 16 3 17 2 18 1 19 74 20 75 21 83 22
REMARK SMILES IDX 76 24 82 25 77 26 78 27 79 28 80 29 81 30 14 32 15 33 16 34
REMARK SMILES IDX 17 35 18 36 19 37 20 38 21 39 22 40 68 41 23 42 67 43 24 44
REMARK SMILES IDX 25 45 26 46 61 47 27 48 66 49 60 50 62 51 28 52 65 53 59 54
REMARK SMILES IDX 58 55 29 57 51 58 36 59 50 60 37 61 40 62 49 63 63 64 38 65
REMARK SMILES IDX 39 66 48 68 64 69 41 70 30 71 31 72 35 73 32 74 34 75 33 76
REMARK SMILES IDX 52 77 53 78 57 79 54 80 56 81 55 82 42 83 43 84 47 85 44 86
REMARK SMILES IDX 46 87 45 88
REMARK H PARENT 74 23 81 31 62 56 40 67
REMARK Flexibility Score: inf
ROOT
ATOM      1  C   UNL A   1      35.484  32.714  28.198  1.00  0.00     0.188 C 
ENDROOT
BRANCH   1   2
ATOM      2  O   UNL A   1      35.251  31.651  27.285  1.00  0.00    -0.376 OA
BRANCH   2   3
ATOM      3  C   UNL A   1      35.193  30.311  27.757  1.00  0.00     0.202 C 
BRANCH   3   4
ATOM      4  C   UNL A   1      34.484  29.238  26.913  1.00  0.00     0.261 C 
BRANCH   4   5
ATOM      5  O   UNL A   1      33.109  29.013  27.255  1.00  0.00    -0.458 OA
BRANCH   5   6
ATOM      6  C   UNL A   1      32.203  29.796  26.592  1.00  0.00     0.359 C 
ATOM      7  O   UNL A   1      31.999  30.974  26.868  1.00  0.00    -0.244 OA
BRANCH   6   8
ATOM      8  C   UNL A   1      31.543  29.099  25.470  1.00  0.00     0.174 A 
ATOM      9  N   UNL A   1      30.299  28.878  23.742  1.00  0.00    -0.265 N 
ATOM     10  N   UNL A   1      30.838  29.806  24.556  1.00  0.00    -0.165 NA
ATOM     11  C   UNL A   1      30.475  27.620  24.234  1.00  0.00     0.043 A 
ATOM     12  C   UNL A   1      31.522  27.716  25.124  1.00  0.00     0.014 A 
ATOM     13  C   UNL A   1      29.755  26.389  23.854  1.00  0.00     0.062 C 
ATOM     14  C   UNL A   1      32.255  26.511  25.617  1.00  0.00     0.105 C 
ATOM     15  C   UNL A   1      30.388  25.172  24.547  1.00  0.00     0.072 C 
ATOM     16  C   UNL A   1      31.922  25.222  24.770  1.00  0.00     0.189 C 
BRANCH   9  17
ATOM     17  C   UNL A   1      29.694  29.287  22.476  1.00  0.00     0.171 C 
BRANCH  17  18
ATOM     18  C   UNL A   1      28.204  29.507  22.601  1.00  0.00    -0.011 C 
ATOM     19  C   UNL A   1      27.629  30.554  23.211  1.00  0.00     0.006 C 
ENDBRANCH  17  18
ENDBRANCH   9  17
BRANCH  16  20
ATOM     20  N   UNL A   1      32.849  24.959  23.641  1.00  0.00    -0.332 N 
ATOM     21  C   UNL A   1      32.683  23.802  22.779  1.00  0.00     0.262 C 
ATOM     22  C   UNL A   1      34.271  25.170  23.903  1.00  0.00     0.262 C 
ATOM     23  H   UNL A   1      32.471  25.726  23.084  1.00  0.00     0.348 HD
ATOM     24  C   UNL A   1      33.345  22.506  23.250  1.00  0.00     0.068 C 
ATOM     25  C   UNL A   1      34.965  24.016  24.615  1.00  0.00     0.068 C 
ATOM     26  C   UNL A   1      34.660  22.603  24.063  1.00  0.00     0.031 C 
BRANCH  26  27
ATOM     27  C   UNL A   1      34.788  21.506  25.191  1.00  0.00     0.062 C 
ATOM     28  C   UNL A   1      34.194  20.145  24.809  1.00  0.00     0.042 C 
ATOM     29  C   UNL A   1      36.253  21.311  25.607  1.00  0.00     0.042 C 
BRANCH  27  30
ATOM     30  O   UNL A   1      34.082  21.937  26.360  1.00  0.00    -0.390 OA
ATOM     31  H   UNL A   1      33.177  22.187  26.118  1.00  0.00     0.211 HD
ENDBRANCH  27  30
ENDBRANCH  26  27
ENDBRANCH  16  20
ENDBRANCH   6   8
ENDBRANCH   5   6
ENDBRANCH   4   5
ENDBRANCH   3   4
ENDBRANCH   2   3
ENDBRANCH   1   2
BRANCH   1  32
ATOM     32  C   UNL A   1      34.314  33.521  28.802  1.00  0.00     0.188 C 
BRANCH  32  33
ATOM     33  O   UNL A   1      34.681  34.575  29.683  1.00  0.00    -0.376 OA
BRANCH  33  34
ATOM     34  C   UNL A   1      34.146  34.492  31.002  1.00  0.00     0.202 C 
BRANCH  34  35
ATOM     35  C   UNL A   1      34.662  33.279  31.775  1.00  0.00     0.261 C 
BRANCH  35  36
ATOM     36  O   UNL A   1      36.077  33.140  31.710  1.00  0.00    -0.460 OA
BRANCH  36  37
ATOM     37  C   UNL A   1      36.579  31.998  32.216  1.00  0.00     0.338 C 
ATOM     38  O   UNL A   1      36.552  31.631  33.377  1.00  0.00    -0.246 OA
BRANCH  37  39
ATOM     39  C   UNL A   1      37.231  31.254  31.127  1.00  0.00     0.060 A 
ATOM     40  C   UNL A   1      36.858  29.918  30.976  1.00  0.00     0.016 A 
ATOM     41  C   UNL A   1      38.373  31.784  30.509  1.00  0.00     0.016 A 
ATOM     42  C   UNL A   1      37.798  29.043  30.486  1.00  0.00     0.010 A 
ATOM     43  C   UNL A   1      39.320  30.908  30.037  1.00  0.00     0.010 A 
ATOM     44  C   UNL A   1      39.061  29.547  30.166  1.00  0.00    -0.014 A 
BRANCH  44  45
ATOM     45  C   UNL A   1      40.164  28.613  30.227  1.00  0.00     0.031 A 
ATOM     46  C   UNL A   1      40.816  28.433  31.530  1.00  0.00     0.074 A 
ATOM     47  C   UNL A   1      40.521  27.909  29.135  1.00  0.00     0.049 A 
ATOM     48  N   UNL A   1      42.058  28.630  31.818  1.00  0.00    -0.248 NA
ATOM     49  C   UNL A   1      39.969  28.039  32.661  1.00  0.00     0.031 C 
ATOM     50  C   UNL A   1      39.791  27.775  27.869  1.00  0.00     0.029 A 
ATOM     51  N   UNL A   1      41.568  27.053  28.987  1.00  0.00    -0.354 N 
ATOM     52  C   UNL A   1      42.194  28.260  33.147  1.00  0.00     0.074 A 
ATOM     53  C   UNL A   1      40.864  28.004  33.647  1.00  0.00     0.031 C 
ATOM     54  C   UNL A   1      40.283  26.716  27.192  1.00  0.00     0.029 A 
ATOM     55  C   UNL A   1      41.423  26.182  27.920  1.00  0.00     0.049 A 
ATOM     56  H   UNL A   1      42.353  27.052  29.581  1.00  0.00     0.167 HD
ATOM     57  C   UNL A   1      43.404  28.019  33.713  1.00  0.00     0.031 A 
ATOM     58  C   UNL A   1      42.128  25.045  27.714  1.00  0.00     0.031 A 
ATOM     59  C   UNL A   1      44.496  28.539  32.938  1.00  0.00     0.049 A 
ATOM     60  C   UNL A   1      43.371  25.124  28.518  1.00  0.00     0.074 A 
ATOM     61  C   UNL A   1      44.877  29.802  32.532  1.00  0.00     0.029 A 
ATOM     62  N   UNL A   1      45.217  27.660  32.168  1.00  0.00    -0.354 N 
ATOM     63  N   UNL A   1      44.354  25.937  28.254  1.00  0.00    -0.248 NA
ATOM     64  C   UNL A   1      43.371  24.573  29.865  1.00  0.00     0.031 C 
ATOM     65  C   UNL A   1      45.469  29.623  31.249  1.00  0.00     0.029 A 
ATOM     66  C   UNL A   1      45.421  28.259  30.950  1.00  0.00     0.049 A 
ATOM     67  H   UNL A   1      45.530  26.767  32.439  1.00  0.00     0.167 HD
ATOM     68  C   UNL A   1      44.839  26.329  29.495  1.00  0.00     0.074 A 
ATOM     69  C   UNL A   1      44.289  25.359  30.436  1.00  0.00     0.031 C 
ATOM     70  C   UNL A   1      45.397  27.562  29.681  1.00  0.00     0.031 A 
BRANCH  57  71
ATOM     71  C   UNL A   1      43.593  27.047  34.836  1.00  0.00    -0.014 A 
ATOM     72  C   UNL A   1      43.506  25.671  34.579  1.00  0.00     0.009 A 
ATOM     73  C   UNL A   1      43.625  27.449  36.186  1.00  0.00     0.009 A 
ATOM     74  C   UNL A   1      43.440  24.745  35.626  1.00  0.00     0.001 A 
ATOM     75  C   UNL A   1      43.605  26.526  37.232  1.00  0.00     0.001 A 
ATOM     76  C   UNL A   1      43.493  25.173  36.950  1.00  0.00     0.000 A 
ENDBRANCH  57  71
BRANCH  58  77
ATOM     77  C   UNL A   1      41.658  23.802  27.067  1.00  0.00    -0.014 A 
ATOM     78  C   UNL A   1      42.516  23.039  26.262  1.00  0.00     0.009 A 
ATOM     79  C   UNL A   1      40.417  23.233  27.415  1.00  0.00     0.009 A 
ATOM     80  C   UNL A   1      42.153  21.752  25.841  1.00  0.00     0.001 A 
ATOM     81  C   UNL A   1      40.046  21.958  26.982  1.00  0.00     0.001 A 
ATOM     82  C   UNL A   1      40.922  21.211  26.205  1.00  0.00     0.000 A 
ENDBRANCH  58  77
BRANCH  70  83
ATOM     83  C   UNL A   1      45.701  28.391  28.454  1.00  0.00    -0.014 A 
ATOM     84  C   UNL A   1      44.745  29.239  27.865  1.00  0.00     0.009 A 
ATOM     85  C   UNL A   1      47.018  28.447  27.974  1.00  0.00     0.009 A 
ATOM     86  C   UNL A   1      45.084  30.083  26.804  1.00  0.00     0.001 A 
ATOM     87  C   UNL A   1      47.364  29.308  26.929  1.00  0.00     0.001 A 
ATOM     88  C   UNL A   1      46.396  30.120  26.339  1.00  0.00     0.000 A 
ENDBRANCH  70  83
ENDBRANCH  44  45
ENDBRANCH  37  39
ENDBRANCH  36  37
ENDBRANCH  35  36
ENDBRANCH  34  35
ENDBRANCH  33  34
ENDBRANCH  32  33
ENDBRANCH   1  32
TORSDOF 22
ENDMDL
MODEL 2
REMARK VINA RESULT:     -10.5      3.505      8.716
REMARK SMILES C=CCn1nc(C(=O)OCCOCCOCCOC(=O)c2ccc(-c3c4nc(c(-c5ccccc5)c5ccc([nH]5)c(-c5ccccc5)c5nc(c(-c6ccccc6)c6ccc3[nH]6)C=C5)C=C4)cc2)c2c1CC[C@@H]([NH+]1CCC(C(C)(C)O)CC1)C2
REMARK SMILES IDX 13 1 12 2 11 3 10 4 9 5 7 6 8 7 6 8 4 9 5 10 70 11 69 12
REMARK SMILES IDX 71 13 84 14 72 15 73 16 3 17 2 18 1 19 74 20 75 21 83 22
REMARK SMILES IDX 76 24 82 25 77 26 78 27 79 28 80 29 81 30 14 32 15 33 16 34
REMARK SMILES IDX 17 35 18 36 19 37 20 38 21 39 22 40 68 41 23 42 67 43 24 44
REMARK SMILES IDX 25 45 26 46 61 47 27 48 66 49 60 50 62 51 28 52 65 53 59 54
REMARK SMILES IDX 58 55 29 57 51 58 36 59 50 60 37 61 40 62 49 63 63 64 38 65
REMARK SMILES IDX 39 66 48 68 64 69 41 70 30 71 31 72 35 73 32 74 34 75 33 76
REMARK SMILES IDX 52 77 53 78 57 79 54 80 56 81 55 82 42 83 43 84 47 85 44 86
REMARK SMILES IDX 46 87 45 88
REMARK H PARENT 74 23 81 31 62 56 40 67
REMARK Flexibility Score: inf
ROOT
ATOM      1  C   UNL A   1      40.613  21.213  26.714  1.00  0.00     0.188 C 
ENDROOT
BRANCH   1   2
ATOM      2  O   UNL A   1      40.015  22.261  25.965  1.00  0.00    -0.376 OA
BRANCH   2   3
ATOM      3  C   UNL A   1      39.057  23.114  26.579  1.00  0.00     0.202 C 
BRANCH   3   4
ATOM      4  C   UNL A   1      37.595  23.081  26.104  1.00  0.00     0.261 C 
BRANCH   4   5
ATOM      5  O   UNL A   1      37.398  22.532  24.793  1.00  0.00    -0.458 OA
BRANCH   5   6
ATOM      6  C   UNL A   1      36.968  21.233  24.758  1.00  0.00     0.359 C 
ATOM      7  O   UNL A   1      37.718  20.269  24.882  1.00  0.00    -0.244 OA
BRANCH   6   8
ATOM      8  C   UNL A   1      35.503  21.109  24.624  1.00  0.00     0.174 A 
ATOM      9  N   UNL A   1      33.595  20.139  24.639  1.00  0.00    -0.265 N 
ATOM     10  N   UNL A   1      34.888  19.953  24.967  1.00  0.00    -0.165 NA
ATOM     11  C   UNL A   1      33.422  21.284  23.922  1.00  0.00     0.043 A 
ATOM     12  C   UNL A   1      34.531  22.057  24.188  1.00  0.00     0.014 A 
ATOM     13  C   UNL A   1      32.265  21.665  23.087  1.00  0.00     0.062 C 
ATOM     14  C   UNL A   1      34.570  23.518  23.880  1.00  0.00     0.105 C 
ATOM     15  C   UNL A   1      32.426  23.111  22.591  1.00  0.00     0.072 C 
ATOM     16  C   UNL A   1      33.139  24.098  23.552  1.00  0.00     0.189 C 
BRANCH   9  17
ATOM     17  C   UNL A   1      32.583  19.200  25.117  1.00  0.00     0.171 C 
BRANCH  17  18
ATOM     18  C   UNL A   1      33.151  17.819  25.350  1.00  0.00    -0.011 C 
ATOM     19  C   UNL A   1      33.030  16.785  24.503  1.00  0.00     0.006 C 
ENDBRANCH  17  18
ENDBRANCH   9  17
BRANCH  16  20
ATOM     20  N   UNL A   1      32.412  24.663  24.716  1.00  0.00    -0.332 N 
ATOM     21  C   UNL A   1      30.968  24.812  24.706  1.00  0.00     0.262 C 
ATOM     22  C   UNL A   1      33.017  25.828  25.358  1.00  0.00     0.262 C 
ATOM     23  H   UNL A   1      32.561  23.828  25.281  1.00  0.00     0.348 HD
ATOM     24  C   UNL A   1      30.425  26.108  24.100  1.00  0.00     0.068 C 
ATOM     25  C   UNL A   1      32.739  27.155  24.662  1.00  0.00     0.068 C 
ATOM     26  C   UNL A   1      31.270  27.398  24.238  1.00  0.00     0.031 C 
BRANCH  26  27
ATOM     27  C   UNL A   1      31.186  28.347  22.979  1.00  0.00     0.062 C 
ATOM     28  C   UNL A   1      30.145  29.465  23.110  1.00  0.00     0.042 C 
ATOM     29  C   UNL A   1      32.553  28.972  22.667  1.00  0.00     0.042 C 
BRANCH  27  30
ATOM     30  O   UNL A   1      30.809  27.582  21.828  1.00  0.00    -0.390 OA
ATOM     31  H   UNL A   1      31.558  27.533  21.213  1.00  0.00     0.211 HD
ENDBRANCH  27  30
ENDBRANCH  26  27
ENDBRANCH  16  20
ENDBRANCH   6   8
ENDBRANCH   5   6
ENDBRANCH   4   5
ENDBRANCH   3   4
ENDBRANCH   2   3
ENDBRANCH   1   2
BRANCH   1  32
ATOM     32  C   UNL A   1      42.020  20.681  26.363  1.00  0.00     0.188 C 
BRANCH  32  33
ATOM     33  O   UNL A   1      42.762  21.464  25.435  1.00  0.00    -0.376 OA
BRANCH  33  34
ATOM     34  C   UNL A   1      43.366  22.641  25.965  1.00  0.00     0.202 C 
BRANCH  34  35
ATOM     35  C   UNL A   1      43.221  23.849  25.038  1.00  0.00     0.261 C 
BRANCH  35  36
ATOM     36  O   UNL A   1      42.242  24.778  25.487  1.00  0.00    -0.460 OA
BRANCH  36  37
ATOM     37  C   UNL A   1      42.576  26.079  25.386  1.00  0.00     0.338 C 
ATOM     38  O   UNL A   1      43.614  26.541  24.948  1.00  0.00    -0.246 OA
BRANCH  37  39
ATOM     39  C   UNL A   1      41.483  26.885  25.949  1.00  0.00     0.060 A 
ATOM     40  C   UNL A   1      41.591  28.269  25.803  1.00  0.00     0.016 A 
ATOM     41  C   UNL A   1      40.574  26.298  26.842  1.00  0.00     0.016 A 
ATOM     42  C   UNL A   1      41.034  29.060  26.779  1.00  0.00     0.010 A 
ATOM     43  C   UNL A   1      40.032  27.086  27.827  1.00  0.00     0.010 A 
ATOM     44  C   UNL A   1      40.391  28.431  27.848  1.00  0.00    -0.014 A 
BRANCH  44  45
ATOM     45  C   UNL A   1      40.341  29.163  29.094  1.00  0.00     0.031 A 
ATOM     46  C   UNL A   1      39.191  30.053  29.300  1.00  0.00     0.074 A 
ATOM     47  C   UNL A   1      41.288  28.975  30.034  1.00  0.00     0.049 A 
ATOM     48  N   UNL A   1      39.214  31.324  29.520  1.00  0.00    -0.248 NA
ATOM     49  C   UNL A   1      37.852  29.464  29.192  1.00  0.00     0.031 C 
ATOM     50  C   UNL A   1      42.313  27.927  30.084  1.00  0.00     0.029 A 
ATOM     51  N   UNL A   1      41.442  29.624  31.220  1.00  0.00    -0.354 N 
ATOM     52  C   UNL A   1      37.891  31.691  29.712  1.00  0.00     0.074 A 
ATOM     53  C   UNL A   1      37.087  30.534  29.398  1.00  0.00     0.031 C 
ATOM     54  C   UNL A   1      42.811  27.864  31.337  1.00  0.00     0.029 A 
ATOM     55  C   UNL A   1      42.226  28.933  32.130  1.00  0.00     0.049 A 
ATOM     56  H   UNL A   1      41.036  30.499  31.413  1.00  0.00     0.167 HD
ATOM     57  C   UNL A   1      37.542  32.873  30.284  1.00  0.00     0.031 A 
ATOM     58  C   UNL A   1      42.301  29.167  33.461  1.00  0.00     0.031 A 
ATOM     59  C   UNL A   1      38.621  33.820  30.310  1.00  0.00     0.049 A 
ATOM     60  C   UNL A   1      41.806  30.542  33.713  1.00  0.00     0.074 A 
ATOM     61  C   UNL A   1      39.378  34.450  29.343  1.00  0.00     0.029 A 
ATOM     62  N   UNL A   1      39.296  33.997  31.494  1.00  0.00    -0.354 N 
ATOM     63  N   UNL A   1      42.444  31.619  33.355  1.00  0.00    -0.248 NA
ATOM     64  C   UNL A   1      40.396  30.734  34.020  1.00  0.00     0.031 C 
ATOM     65  C   UNL A   1      40.677  34.588  29.911  1.00  0.00     0.029 A 
ATOM     66  C   UNL A   1      40.635  34.040  31.196  1.00  0.00     0.049 A 
ATOM     67  H   UNL A   1      38.894  34.078  32.388  1.00  0.00     0.167 HD
ATOM     68  C   UNL A   1      41.453  32.517  32.982  1.00  0.00     0.074 A 
ATOM     69  C   UNL A   1      40.222  31.969  33.540  1.00  0.00     0.031 C 
ATOM     70  C   UNL A   1      41.676  33.459  32.018  1.00  0.00     0.031 A 
BRANCH  57  71
ATOM     71  C   UNL A   1      36.286  33.046  31.081  1.00  0.00    -0.014 A 
ATOM     72  C   UNL A   1      35.319  33.967  30.653  1.00  0.00     0.009 A 
ATOM     73  C   UNL A   1      36.127  32.497  32.368  1.00  0.00     0.009 A 
ATOM     74  C   UNL A   1      34.253  34.330  31.482  1.00  0.00     0.001 A 
ATOM     75  C   UNL A   1      35.040  32.822  33.180  1.00  0.00     0.001 A 
ATOM     76  C   UNL A   1      34.112  33.755  32.742  1.00  0.00     0.000 A 
ENDBRANCH  57  71
BRANCH  58  77
ATOM     77  C   UNL A   1      42.532  28.178  34.535  1.00  0.00    -0.014 A 
ATOM     78  C   UNL A   1      43.480  28.415  35.540  1.00  0.00     0.009 A 
ATOM     79  C   UNL A   1      41.662  27.084  34.706  1.00  0.00     0.009 A 
ATOM     80  C   UNL A   1      43.540  27.600  36.679  1.00  0.00     0.001 A 
ATOM     81  C   UNL A   1      41.731  26.261  35.832  1.00  0.00     0.001 A 
ATOM     82  C   UNL A   1      42.662  26.528  36.827  1.00  0.00     0.000 A 
ENDBRANCH  58  77
BRANCH  70  83
ATOM     83  C   UNL A   1      43.097  33.663  31.545  1.00  0.00    -0.014 A 
ATOM     84  C   UNL A   1      43.944  34.634  32.110  1.00  0.00     0.009 A 
ATOM     85  C   UNL A   1      43.650  32.758  30.628  1.00  0.00     0.009 A 
ATOM     86  C   UNL A   1      45.288  34.724  31.738  1.00  0.00     0.001 A 
ATOM     87  C   UNL A   1      45.000  32.832  30.273  1.00  0.00     0.001 A 
ATOM     88  C   UNL A   1      45.817  33.819  30.822  1.00  0.00     0.000 A 
ENDBRANCH  70  83
ENDBRANCH  44  45
ENDBRANCH  37  39
ENDBRANCH  36  37
ENDBRANCH  35  36
ENDBRANCH  34  35
ENDBRANCH  33  34
ENDBRANCH  32  33
ENDBRANCH   1  32
TORSDOF 22
ENDMDL
MODEL 3
REMARK VINA RESULT:     -10.3      1.936      2.480
REMARK SMILES C=CCn1nc(C(=O)OCCOCCOCCOC(=O)c2ccc(-c3c4nc(c(-c5ccccc5)c5ccc([nH]5)c(-c5ccccc5)c5nc(c(-c6ccccc6)c6ccc3[nH]6)C=C5)C=C4)cc2)c2c1CC[C@@H]([NH+]1CCC(C(C)(C)O)CC1)C2
REMARK SMILES IDX 13 1 12 2 11 3 10 4 9 5 7 6 8 7 6 8 4 9 5 10 70 11 69 12
REMARK SMILES IDX 71 13 84 14 72 15 73 16 3 17 2 18 1 19 74 20 75 21 83 22
REMARK SMILES IDX 76 24 82 25 77 26 78 27 79 28 80 29 81 30 14 32 15 33 16 34
REMARK SMILES IDX 17 35 18 36 19 37 20 38 21 39 22 40 68 41 23 42 67 43 24 44
REMARK SMILES IDX 25 45 26 46 61 47 27 48 66 49 60 50 62 51 28 52 65 53 59 54
REMARK SMILES IDX 58 55 29 57 51 58 36 59 50 60 37 61 40 62 49 63 63 64 38 65
REMARK SMILES IDX 39 66 48 68 64 69 41 70 30 71 31 72 35 73 32 74 34 75 33 76
REMARK SMILES IDX 52 77 53 78 57 79 54 80 56 81 55 82 42 83 43 84 47 85 44 86
REMARK SMILES IDX 46 87 45 88
REMARK H PARENT 74 23 81 31 62 56 40 67
REMARK Flexibility Score: inf
ROOT
ATOM      1  C   UNL A   1      35.550  34.104  28.752  1.00  0.00     0.188 C 
ENDROOT
BRANCH   1   2
ATOM      2  O   UNL A   1      34.346  33.419  29.070  1.00  0.00    -0.376 OA
BRANCH   2   3
ATOM      3  C   UNL A   1      33.644  32.712  28.056  1.00  0.00     0.202 C 
BRANCH   3   4
ATOM      4  C   UNL A   1      34.027  31.257  27.739  1.00  0.00     0.261 C 
BRANCH   4   5
ATOM      5  O   UNL A   1      32.999  30.487  27.100  1.00  0.00    -0.458 OA
BRANCH   5   6
ATOM      6  C   UNL A   1      33.412  29.315  26.528  1.00  0.00     0.359 C 
ATOM      7  O   UNL A   1      34.470  28.761  26.810  1.00  0.00    -0.244 OA
BRANCH   6   8
ATOM      8  C   UNL A   1      32.428  28.750  25.584  1.00  0.00     0.174 A 
ATOM      9  N   UNL A   1      30.875  28.759  24.110  1.00  0.00    -0.265 N 
ATOM     10  N   UNL A   1      31.738  29.568  24.755  1.00  0.00    -0.165 NA
ATOM     11  C   UNL A   1      30.864  27.509  24.651  1.00  0.00     0.043 A 
ATOM     12  C   UNL A   1      32.050  27.396  25.342  1.00  0.00     0.014 A 
ATOM     13  C   UNL A   1      29.840  26.458  24.484  1.00  0.00     0.062 C 
ATOM     14  C   UNL A   1      32.584  26.073  25.786  1.00  0.00     0.105 C 
ATOM     15  C   UNL A   1      30.313  25.152  25.143  1.00  0.00     0.072 C 
ATOM     16  C   UNL A   1      31.837  24.866  25.099  1.00  0.00     0.189 C 
BRANCH   9  17
ATOM     17  C   UNL A   1      30.154  29.253  22.940  1.00  0.00     0.171 C 
BRANCH  17  18
ATOM     18  C   UNL A   1      28.908  30.021  23.319  1.00  0.00    -0.011 C 
ATOM     19  C   UNL A   1      28.451  31.109  22.683  1.00  0.00     0.006 C 
ENDBRANCH  17  18
ENDBRANCH   9  17
BRANCH  16  20
ATOM     20  N   UNL A   1      32.467  24.369  23.851  1.00  0.00    -0.332 N 
ATOM     21  C   UNL A   1      31.966  23.190  23.167  1.00  0.00     0.262 C 
ATOM     22  C   UNL A   1      33.928  24.368  23.814  1.00  0.00     0.262 C 
ATOM     23  H   UNL A   1      32.097  25.140  23.295  1.00  0.00     0.348 HD
ATOM     24  C   UNL A   1      32.519  21.845  23.643  1.00  0.00     0.068 C 
ATOM     25  C   UNL A   1      34.580  23.177  24.504  1.00  0.00     0.068 C 
ATOM     26  C   UNL A   1      33.972  21.792  24.176  1.00  0.00     0.031 C 
BRANCH  26  27
ATOM     27  C   UNL A   1      34.169  20.781  25.373  1.00  0.00     0.062 C 
ATOM     28  C   UNL A   1      34.297  21.456  26.744  1.00  0.00     0.042 C 
ATOM     29  C   UNL A   1      33.025  19.758  25.425  1.00  0.00     0.042 C 
BRANCH  27  30
ATOM     30  O   UNL A   1      35.378  20.038  25.178  1.00  0.00    -0.390 OA
ATOM     31  H   UNL A   1      35.631  19.607  26.009  1.00  0.00     0.211 HD
ENDBRANCH  27  30
ENDBRANCH  26  27
ENDBRANCH  16  20
ENDBRANCH   6   8
ENDBRANCH   5   6
ENDBRANCH   4   5
ENDBRANCH   3   4
ENDBRANCH   2   3
ENDBRANCH   1   2
BRANCH   1  32
ATOM     32  C   UNL A   1      36.927  33.431  28.937  1.00  0.00     0.188 C 
BRANCH  32  33
ATOM     33  O   UNL A   1      37.854  34.137  29.752  1.00  0.00    -0.376 OA
BRANCH  33  34
ATOM     34  C   UNL A   1      37.428  34.400  31.087  1.00  0.00     0.202 C 
BRANCH  34  35
ATOM     35  C   UNL A   1      38.558  34.261  32.107  1.00  0.00     0.261 C 
BRANCH  35  36
ATOM     36  O   UNL A   1      39.846  34.204  31.505  1.00  0.00    -0.460 OA
BRANCH  36  37
ATOM     37  C   UNL A   1      40.626  33.174  31.883  1.00  0.00     0.338 C 
ATOM     38  O   UNL A   1      41.115  32.984  32.982  1.00  0.00    -0.246 OA
BRANCH  37  39
ATOM     39  C   UNL A   1      40.846  32.305  30.717  1.00  0.00     0.060 A 
ATOM     40  C   UNL A   1      39.835  31.389  30.425  1.00  0.00     0.016 A 
ATOM     41  C   UNL A   1      42.127  32.207  30.153  1.00  0.00     0.016 A 
ATOM     42  C   UNL A   1      40.199  30.200  29.838  1.00  0.00     0.010 A 
ATOM     43  C   UNL A   1      42.495  31.014  29.584  1.00  0.00     0.010 A 
ATOM     44  C   UNL A   1      41.553  29.989  29.567  1.00  0.00    -0.014 A 
BRANCH  44  45
ATOM     45  C   UNL A   1      41.997  28.613  29.520  1.00  0.00     0.031 A 
ATOM     46  C   UNL A   1      42.658  28.084  30.719  1.00  0.00     0.074 A 
ATOM     47  C   UNL A   1      41.749  27.854  28.435  1.00  0.00     0.049 A 
ATOM     48  N   UNL A   1      43.847  27.589  30.803  1.00  0.00    -0.248 NA
ATOM     49  C   UNL A   1      41.928  28.166  31.988  1.00  0.00     0.031 C 
ATOM     50  C   UNL A   1      40.863  28.157  27.305  1.00  0.00     0.029 A 
ATOM     51  N   UNL A   1      42.152  26.579  28.186  1.00  0.00    -0.354 N 
ATOM     52  C   UNL A   1      43.983  27.170  32.117  1.00  0.00     0.074 A 
ATOM     53  C   UNL A   1      42.817  27.640  32.828  1.00  0.00     0.031 C 
ATOM     54  C   UNL A   1      40.610  27.015  26.631  1.00  0.00     0.029 A 
ATOM     55  C   UNL A   1      41.401  25.942  27.211  1.00  0.00     0.049 A 
ATOM     56  H   UNL A   1      42.904  26.149  28.653  1.00  0.00     0.167 HD
ATOM     57  C   UNL A   1      44.961  26.312  32.508  1.00  0.00     0.031 A 
ATOM     58  C   UNL A   1      41.361  24.610  26.974  1.00  0.00     0.031 A 
ATOM     59  C   UNL A   1      46.020  26.198  31.545  1.00  0.00     0.049 A 
ATOM     60  C   UNL A   1      42.573  24.002  27.575  1.00  0.00     0.074 A 
ATOM     61  C   UNL A   1      46.934  27.080  31.005  1.00  0.00     0.029 A 
ATOM     62  N   UNL A   1      46.038  25.090  30.733  1.00  0.00    -0.354 N 
ATOM     63  N   UNL A   1      43.779  24.181  27.114  1.00  0.00    -0.248 NA
ATOM     64  C   UNL A   1      42.504  23.500  28.939  1.00  0.00     0.031 C 
ATOM     65  C   UNL A   1      47.127  26.648  29.662  1.00  0.00     0.029 A 
ATOM     66  C   UNL A   1      46.324  25.522  29.462  1.00  0.00     0.049 A 
ATOM     67  H   UNL A   1      45.876  24.160  31.011  1.00  0.00     0.167 HD
ATOM     68  C   UNL A   1      44.590  24.227  28.239  1.00  0.00     0.074 A 
ATOM     69  C   UNL A   1      43.775  23.668  29.313  1.00  0.00     0.031 C 
ATOM     70  C   UNL A   1      45.733  24.976  28.259  1.00  0.00     0.031 A 
BRANCH  57  71
ATOM     71  C   UNL A   1      44.791  25.358  33.650  1.00  0.00    -0.014 A 
ATOM     72  C   UNL A   1      44.129  24.140  33.439  1.00  0.00     0.009 A 
ATOM     73  C   UNL A   1      45.060  25.722  34.984  1.00  0.00     0.009 A 
ATOM     74  C   UNL A   1      43.743  23.334  34.515  1.00  0.00     0.001 A 
ATOM     75  C   UNL A   1      44.718  24.899  36.057  1.00  0.00     0.001 A 
ATOM     76  C   UNL A   1      44.041  23.712  35.822  1.00  0.00     0.000 A 
ENDBRANCH  57  71
BRANCH  58  77
ATOM     77  C   UNL A   1      40.213  23.818  26.487  1.00  0.00    -0.014 A 
ATOM     78  C   UNL A   1      40.330  22.439  26.266  1.00  0.00     0.009 A 
ATOM     79  C   UNL A   1      38.920  24.376  26.444  1.00  0.00     0.009 A 
ATOM     80  C   UNL A   1      39.196  21.649  26.032  1.00  0.00     0.001 A 
ATOM     81  C   UNL A   1      37.790  23.593  26.194  1.00  0.00     0.001 A 
ATOM     82  C   UNL A   1      37.927  22.225  26.002  1.00  0.00     0.000 A 
ENDBRANCH  58  77
BRANCH  70  83
ATOM     83  C   UNL A   1      46.223  25.550  26.949  1.00  0.00    -0.014 A 
ATOM     84  C   UNL A   1      45.693  26.735  26.405  1.00  0.00     0.009 A 
ATOM     85  C   UNL A   1      47.345  24.983  26.329  1.00  0.00     0.009 A 
ATOM     86  C   UNL A   1      46.242  27.309  25.255  1.00  0.00     0.001 A 
ATOM     87  C   UNL A   1      47.910  25.570  25.193  1.00  0.00     0.001 A 
ATOM     88  C   UNL A   1      47.354  26.728  24.652  1.00  0.00     0.000 A 
ENDBRANCH  70  83
ENDBRANCH  44  45
ENDBRANCH  37  39
ENDBRANCH  36  37
ENDBRANCH  35  36
ENDBRANCH  34  35
ENDBRANCH  33  34
ENDBRANCH  32  33
ENDBRANCH   1  32
TORSDOF 22
ENDMDL
