MODEL 1
REMARK VINA RESULT:      -9.3      0.000      0.000
REMARK SMILES CC[C@H](C(=O)OCCOCCOCCOC(=O)c1ccc(-c2c3nc(c(-c4ccccc4)c4ccc([nH]4)c(-c4ccccc4)c4nc(c(-c5ccccc5)c5ccc2[nH]5)C=C4)C=C3)cc1)N(C)c1cc(C)ccc1[N+](=O)[O-]
REMARK SMILES IDX 10 1 9 2 8 3 7 4 6 5 4 6 5 7 3 8 2 9 1 10 66 11 67 12 68 13
REMARK SMILES IDX 69 14 74 15 70 16 73 17 71 18 72 19 75 20 76 21 77 22 11 23
REMARK SMILES IDX 12 24 13 25 14 26 15 27 16 28 17 29 18 30 19 31 65 32 20 33
REMARK SMILES IDX 64 34 21 35 22 36 23 37 58 38 24 39 63 40 57 41 59 42 25 43
REMARK SMILES IDX 62 44 56 45 55 46 26 48 48 49 33 50 47 51 34 52 37 53 46 54
REMARK SMILES IDX 60 55 35 56 36 57 45 59 61 60 38 61 27 62 28 63 32 64 29 65
REMARK SMILES IDX 31 66 30 67 49 68 50 69 54 70 51 71 53 72 52 73 39 74 40 75
REMARK SMILES IDX 44 76 41 77 43 78 42 79
REMARK H PARENT 59 47 37 58
REMARK Flexibility Score: inf
ROOT
ATOM      1  C   UNL A   1      31.124  29.482  24.575  1.00  0.00     0.188 C 
ENDROOT
BRANCH   1   2
ATOM      2  O   UNL A   1      31.530  28.545  23.582  1.00  0.00    -0.376 OA
BRANCH   2   3
ATOM      3  C   UNL A   1      30.550  27.623  23.120  1.00  0.00     0.202 C 
BRANCH   3   4
ATOM      4  C   UNL A   1      29.875  26.825  24.230  1.00  0.00     0.261 C 
BRANCH   4   5
ATOM      5  O   UNL A   1      30.735  25.730  24.588  1.00  0.00    -0.462 OA
BRANCH   5   6
ATOM      6  C   UNL A   1      30.708  25.236  25.848  1.00  0.00     0.328 C 
ATOM      7  O   UNL A   1      29.733  25.269  26.587  1.00  0.00    -0.250 OA
BRANCH   6   8
ATOM      8  C   UNL A   1      32.129  24.814  26.259  1.00  0.00     0.192 C 
BRANCH   8   9
ATOM      9  C   UNL A   1      32.256  23.340  26.657  1.00  0.00     0.034 C 
ATOM     10  C   UNL A   1      31.558  22.337  25.756  1.00  0.00     0.007 C 
ENDBRANCH   8   9
BRANCH   8  11
ATOM     11  N   UNL A   1      33.293  25.356  25.450  1.00  0.00    -0.356 N 
ATOM     12  C   UNL A   1      33.734  26.687  25.907  1.00  0.00     0.145 C 
BRANCH  11  13
ATOM     13  C   UNL A   1      34.288  24.542  24.888  1.00  0.00     0.116 A 
ATOM     14  C   UNL A   1      35.475  24.274  25.617  1.00  0.00     0.036 A 
ATOM     15  C   UNL A   1      34.278  23.964  23.605  1.00  0.00     0.292 A 
ATOM     16  C   UNL A   1      36.544  23.497  25.118  1.00  0.00    -0.049 A 
ATOM     17  C   UNL A   1      35.305  23.135  23.105  1.00  0.00     0.088 A 
ATOM     18  C   UNL A   1      37.804  23.347  25.919  1.00  0.00     0.044 C 
ATOM     19  C   UNL A   1      36.431  22.893  23.871  1.00  0.00     0.010 A 
BRANCH  15  20
ATOM     20  N   UNL A   1      33.318  24.334  22.601  1.00  0.00     0.064 N 
ATOM     21  O   UNL A   1      32.245  23.714  22.610  1.00  0.00    -0.258 OA
ATOM     22  O   UNL A   1      33.572  25.326  21.907  1.00  0.00    -0.258 OA
ENDBRANCH  15  20
ENDBRANCH  11  13
ENDBRANCH   8  11
ENDBRANCH   6   8
ENDBRANCH   5   6
ENDBRANCH   4   5
ENDBRANCH   3   4
ENDBRANCH   2   3
ENDBRANCH   1   2
BRANCH   1  23
ATOM     23  C   UNL A   1      32.227  29.823  25.597  1.00  0.00     0.188 C 
BRANCH  23  24
ATOM     24  O   UNL A   1      31.961  30.713  26.676  1.00  0.00    -0.376 OA
BRANCH  24  25
ATOM     25  C   UNL A   1      31.248  31.913  26.419  1.00  0.00     0.202 C 
BRANCH  25  26
ATOM     26  C   UNL A   1      31.867  33.211  26.945  1.00  0.00     0.261 C 
BRANCH  26  27
ATOM     27  O   UNL A   1      33.121  33.032  27.629  1.00  0.00    -0.460 OA
BRANCH  27  28
ATOM     28  C   UNL A   1      33.442  33.993  28.528  1.00  0.00     0.338 C 
ATOM     29  O   UNL A   1      32.826  35.013  28.777  1.00  0.00    -0.246 OA
BRANCH  28  30
ATOM     30  C   UNL A   1      34.616  33.572  29.322  1.00  0.00     0.060 A 
ATOM     31  C   UNL A   1      35.871  34.079  28.960  1.00  0.00     0.016 A 
ATOM     32  C   UNL A   1      34.507  32.629  30.345  1.00  0.00     0.016 A 
ATOM     33  C   UNL A   1      37.024  33.636  29.609  1.00  0.00     0.010 A 
ATOM     34  C   UNL A   1      35.667  32.162  30.975  1.00  0.00     0.010 A 
ATOM     35  C   UNL A   1      36.932  32.647  30.597  1.00  0.00    -0.014 A 
BRANCH  35  36
ATOM     36  C   UNL A   1      38.163  32.029  31.145  1.00  0.00     0.031 A 
ATOM     37  C   UNL A   1      38.862  30.957  30.357  1.00  0.00     0.074 A 
ATOM     38  C   UNL A   1      38.658  32.412  32.334  1.00  0.00     0.049 A 
ATOM     39  N   UNL A   1      39.898  30.229  30.687  1.00  0.00    -0.248 NA
ATOM     40  C   UNL A   1      38.318  30.666  29.021  1.00  0.00     0.031 C 
ATOM     41  C   UNL A   1      38.103  33.467  33.177  1.00  0.00     0.029 A 
ATOM     42  N   UNL A   1      39.739  31.944  33.041  1.00  0.00    -0.354 N 
ATOM     43  C   UNL A   1      40.114  29.374  29.614  1.00  0.00     0.074 A 
ATOM     44  C   UNL A   1      39.106  29.678  28.620  1.00  0.00     0.031 C 
ATOM     45  C   UNL A   1      38.849  33.564  34.291  1.00  0.00     0.029 A 
ATOM     46  C   UNL A   1      39.915  32.568  34.252  1.00  0.00     0.049 A 
ATOM     47  H   UNL A   1      40.331  31.231  32.710  1.00  0.00     0.167 HD
ATOM     48  C   UNL A   1      41.054  28.408  29.475  1.00  0.00     0.031 A 
ATOM     49  C   UNL A   1      40.817  32.344  35.227  1.00  0.00     0.031 A 
ATOM     50  C   UNL A   1      42.040  28.081  30.469  1.00  0.00     0.049 A 
ATOM     51  C   UNL A   1      41.804  31.217  35.080  1.00  0.00     0.074 A 
ATOM     52  C   UNL A   1      43.031  27.115  30.416  1.00  0.00     0.029 A 
ATOM     53  N   UNL A   1      42.150  28.701  31.704  1.00  0.00    -0.354 N 
ATOM     54  N   UNL A   1      42.000  30.417  34.061  1.00  0.00    -0.248 NA
ATOM     55  C   UNL A   1      42.675  30.945  36.235  1.00  0.00     0.031 C 
ATOM     56  C   UNL A   1      43.705  27.114  31.643  1.00  0.00     0.029 A 
ATOM     57  C   UNL A   1      43.167  28.113  32.438  1.00  0.00     0.049 A 
ATOM     58  H   UNL A   1      41.588  29.447  32.013  1.00  0.00     0.167 HD
ATOM     59  C   UNL A   1      43.006  29.541  34.453  1.00  0.00     0.074 A 
ATOM     60  C   UNL A   1      43.407  29.933  35.789  1.00  0.00     0.031 C 
ATOM     61  C   UNL A   1      43.541  28.498  33.773  1.00  0.00     0.031 A 
BRANCH  48  62
ATOM     62  C   UNL A   1      41.011  27.588  28.217  1.00  0.00    -0.014 A 
ATOM     63  C   UNL A   1      41.676  27.998  27.053  1.00  0.00     0.009 A 
ATOM     64  C   UNL A   1      40.299  26.378  28.207  1.00  0.00     0.009 A 
ATOM     65  C   UNL A   1      41.601  27.226  25.890  1.00  0.00     0.001 A 
ATOM     66  C   UNL A   1      40.246  25.598  27.052  1.00  0.00     0.001 A 
ATOM     67  C   UNL A   1      40.889  26.028  25.892  1.00  0.00     0.000 A 
ENDBRANCH  48  62
BRANCH  49  68
ATOM     68  C   UNL A   1      40.813  33.184  36.453  1.00  0.00    -0.014 A 
ATOM     69  C   UNL A   1      41.615  34.334  36.526  1.00  0.00     0.009 A 
ATOM     70  C   UNL A   1      40.023  32.838  37.560  1.00  0.00     0.009 A 
ATOM     71  C   UNL A   1      41.632  35.112  37.687  1.00  0.00     0.001 A 
ATOM     72  C   UNL A   1      40.022  33.632  38.708  1.00  0.00     0.001 A 
ATOM     73  C   UNL A   1      40.831  34.764  38.773  1.00  0.00     0.000 A 
ENDBRANCH  49  68
BRANCH  61  74
ATOM     74  C   UNL A   1      44.605  27.695  34.466  1.00  0.00    -0.014 A 
ATOM     75  C   UNL A   1      44.274  26.549  35.205  1.00  0.00     0.009 A 
ATOM     76  C   UNL A   1      45.955  28.055  34.338  1.00  0.00     0.009 A 
ATOM     77  C   UNL A   1      45.273  25.792  35.820  1.00  0.00     0.001 A 
ATOM     78  C   UNL A   1      46.953  27.282  34.934  1.00  0.00     0.001 A 
ATOM     79  C   UNL A   1      46.611  26.155  35.679  1.00  0.00     0.000 A 
ENDBRANCH  61  74
ENDBRANCH  35  36
ENDBRANCH  28  30
ENDBRANCH  27  28
ENDBRANCH  26  27
ENDBRANCH  25  26
ENDBRANCH  24  25
ENDBRANCH  23  24
ENDBRANCH   1  23
TORSDOF 21
ENDMDL
MODEL 2
REMARK VINA RESULT:      -9.1      5.902     10.318
REMARK SMILES CC[C@H](C(=O)OCCOCCOCCOC(=O)c1ccc(-c2c3nc(c(-c4ccccc4)c4ccc([nH]4)c(-c4ccccc4)c4nc(c(-c5ccccc5)c5ccc2[nH]5)C=C4)C=C3)cc1)N(C)c1cc(C)ccc1[N+](=O)[O-]
REMARK SMILES IDX 10 1 9 2 8 3 7 4 6 5 4 6 5 7 3 8 2 9 1 10 66 11 67 12 68 13
REMARK SMILES IDX 69 14 74 15 70 16 73 17 71 18 72 19 75 20 76 21 77 22 11 23
REMARK SMILES IDX 12 24 13 25 14 26 15 27 16 28 17 29 18 30 19 31 65 32 20 33
REMARK SMILES IDX 64 34 21 35 22 36 23 37 58 38 24 39 63 40 57 41 59 42 25 43
REMARK SMILES IDX 62 44 56 45 55 46 26 48 48 49 33 50 47 51 34 52 37 53 46 54
REMARK SMILES IDX 60 55 35 56 36 57 45 59 61 60 38 61 27 62 28 63 32 64 29 65
REMARK SMILES IDX 31 66 30 67 49 68 50 69 54 70 51 71 53 72 52 73 39 74 40 75
REMARK SMILES IDX 44 76 41 77 43 78 42 79
REMARK H PARENT 59 47 37 58
REMARK Flexibility Score: inf
ROOT
ATOM      1  C   UNL A   1      39.773  22.358  26.711  1.00  0.00     0.188 C 
ENDROOT
BRANCH   1   2
ATOM      2  O   UNL A   1      38.918  21.824  25.706  1.00  0.00    -0.376 OA
BRANCH   2   3
ATOM      3  C   UNL A   1      37.565  22.263  25.703  1.00  0.00     0.202 C 
BRANCH   3   4
ATOM      4  C   UNL A   1      37.336  23.567  24.947  1.00  0.00     0.261 C 
BRANCH   4   5
ATOM      5  O   UNL A   1      35.940  23.901  25.033  1.00  0.00    -0.462 OA
BRANCH   5   6
ATOM      6  C   UNL A   1      35.176  23.893  23.916  1.00  0.00     0.328 C 
ATOM      7  O   UNL A   1      35.570  23.564  22.805  1.00  0.00    -0.250 OA
BRANCH   6   8
ATOM      8  C   UNL A   1      33.814  24.539  24.228  1.00  0.00     0.192 C 
BRANCH   8   9
ATOM      9  C   UNL A   1      33.355  25.569  23.190  1.00  0.00     0.034 C 
ATOM     10  C   UNL A   1      33.701  27.019  23.483  1.00  0.00     0.007 C 
ENDBRANCH   8   9
BRANCH   8  11
ATOM     11  N   UNL A   1      32.712  23.648  24.768  1.00  0.00    -0.356 N 
ATOM     12  C   UNL A   1      31.367  24.088  24.353  1.00  0.00     0.145 C 
BRANCH  11  13
ATOM     13  C   UNL A   1      32.866  22.269  24.977  1.00  0.00     0.116 A 
ATOM     14  C   UNL A   1      32.554  21.359  23.935  1.00  0.00     0.036 A 
ATOM     15  C   UNL A   1      33.270  21.637  26.169  1.00  0.00     0.292 A 
ATOM     16  C   UNL A   1      32.643  19.955  24.066  1.00  0.00    -0.049 A 
ATOM     17  C   UNL A   1      33.425  20.242  26.308  1.00  0.00     0.088 A 
ATOM     18  C   UNL A   1      32.199  19.064  22.943  1.00  0.00     0.044 C 
ATOM     19  C   UNL A   1      33.124  19.405  25.248  1.00  0.00     0.010 A 
BRANCH  15  20
ATOM     20  N   UNL A   1      33.358  22.339  27.420  1.00  0.00     0.064 N 
ATOM     21  O   UNL A   1      34.443  22.884  27.670  1.00  0.00    -0.258 OA
ATOM     22  O   UNL A   1      32.318  22.468  28.077  1.00  0.00    -0.258 OA
ENDBRANCH  15  20
ENDBRANCH  11  13
ENDBRANCH   8  11
ENDBRANCH   6   8
ENDBRANCH   5   6
ENDBRANCH   4   5
ENDBRANCH   3   4
ENDBRANCH   2   3
ENDBRANCH   1   2
BRANCH   1  23
ATOM     23  C   UNL A   1      40.845  21.367  27.208  1.00  0.00     0.188 C 
BRANCH  23  24
ATOM     24  O   UNL A   1      41.428  20.426  26.312  1.00  0.00    -0.376 OA
BRANCH  24  25
ATOM     25  C   UNL A   1      42.159  19.331  26.843  1.00  0.00     0.202 C 
BRANCH  25  26
ATOM     26  C   UNL A   1      43.164  18.652  25.909  1.00  0.00     0.261 C 
BRANCH  26  27
ATOM     27  O   UNL A   1      43.367  19.340  24.661  1.00  0.00    -0.460 OA
BRANCH  27  28
ATOM     28  C   UNL A   1      44.657  19.590  24.330  1.00  0.00     0.338 C 
ATOM     29  O   UNL A   1      45.432  18.850  23.752  1.00  0.00    -0.246 OA
BRANCH  28  30
ATOM     30  C   UNL A   1      44.996  20.995  24.641  1.00  0.00     0.060 A 
ATOM     31  C   UNL A   1      45.514  21.282  25.910  1.00  0.00     0.016 A 
ATOM     32  C   UNL A   1      44.729  22.027  23.740  1.00  0.00     0.016 A 
ATOM     33  C   UNL A   1      45.755  22.603  26.291  1.00  0.00     0.010 A 
ATOM     34  C   UNL A   1      44.941  23.354  24.134  1.00  0.00     0.010 A 
ATOM     35  C   UNL A   1      45.436  23.649  25.417  1.00  0.00    -0.014 A 
BRANCH  35  36
ATOM     36  C   UNL A   1      45.498  25.054  25.888  1.00  0.00     0.031 A 
ATOM     37  C   UNL A   1      46.804  25.794  25.823  1.00  0.00     0.074 A 
ATOM     38  C   UNL A   1      44.406  25.670  26.371  1.00  0.00     0.049 A 
ATOM     39  N   UNL A   1      47.099  26.993  26.258  1.00  0.00    -0.248 NA
ATOM     40  C   UNL A   1      47.927  25.087  25.187  1.00  0.00     0.031 C 
ATOM     41  C   UNL A   1      43.072  25.082  26.448  1.00  0.00     0.029 A 
ATOM     42  N   UNL A   1      44.255  26.929  26.899  1.00  0.00    -0.354 N 
ATOM     43  C   UNL A   1      48.447  27.175  25.974  1.00  0.00     0.074 A 
ATOM     44  C   UNL A   1      48.910  25.966  25.325  1.00  0.00     0.031 C 
ATOM     45  C   UNL A   1      42.237  25.981  26.996  1.00  0.00     0.029 A 
ATOM     46  C   UNL A   1      42.977  27.195  27.328  1.00  0.00     0.049 A 
ATOM     47  H   UNL A   1      44.991  27.579  26.964  1.00  0.00     0.167 HD
ATOM     48  C   UNL A   1      49.235  28.242  26.248  1.00  0.00     0.031 A 
ATOM     49  C   UNL A   1      42.469  28.282  27.940  1.00  0.00     0.031 A 
ATOM     50  C   UNL A   1      48.788  29.433  26.918  1.00  0.00     0.049 A 
ATOM     51  C   UNL A   1      43.380  29.425  28.299  1.00  0.00     0.074 A 
ATOM     52  C   UNL A   1      49.517  30.566  27.240  1.00  0.00     0.029 A 
ATOM     53  N   UNL A   1      47.500  29.641  27.384  1.00  0.00    -0.354 N 
ATOM     54  N   UNL A   1      44.652  29.586  28.025  1.00  0.00    -0.248 NA
ATOM     55  C   UNL A   1      42.789  30.523  29.080  1.00  0.00     0.031 C 
ATOM     56  C   UNL A   1      48.681  31.436  27.951  1.00  0.00     0.029 A 
ATOM     57  C   UNL A   1      47.421  30.866  28.025  1.00  0.00     0.049 A 
ATOM     58  H   UNL A   1      46.752  29.011  27.275  1.00  0.00     0.167 HD
ATOM     59  C   UNL A   1      45.016  30.796  28.606  1.00  0.00     0.074 A 
ATOM     60  C   UNL A   1      43.821  31.345  29.215  1.00  0.00     0.031 C 
ATOM     61  C   UNL A   1      46.232  31.390  28.644  1.00  0.00     0.031 A 
BRANCH  48  62
ATOM     62  C   UNL A   1      50.686  28.134  25.877  1.00  0.00    -0.014 A 
ATOM     63  C   UNL A   1      51.646  27.690  26.797  1.00  0.00     0.009 A 
ATOM     64  C   UNL A   1      51.092  28.473  24.577  1.00  0.00     0.009 A 
ATOM     65  C   UNL A   1      52.993  27.618  26.432  1.00  0.00     0.001 A 
ATOM     66  C   UNL A   1      52.434  28.378  24.208  1.00  0.00     0.001 A 
ATOM     67  C   UNL A   1      53.385  27.961  25.139  1.00  0.00     0.000 A 
ENDBRANCH  48  62
BRANCH  49  68
ATOM     68  C   UNL A   1      41.025  28.335  28.288  1.00  0.00    -0.014 A 
ATOM     69  C   UNL A   1      40.114  28.970  27.430  1.00  0.00     0.009 A 
ATOM     70  C   UNL A   1      40.551  27.767  29.480  1.00  0.00     0.009 A 
ATOM     71  C   UNL A   1      38.759  29.043  27.766  1.00  0.00     0.001 A 
ATOM     72  C   UNL A   1      39.193  27.818  29.800  1.00  0.00     0.001 A 
ATOM     73  C   UNL A   1      38.300  28.462  28.947  1.00  0.00     0.000 A 
ENDBRANCH  49  68
BRANCH  61  74
ATOM     74  C   UNL A   1      46.339  32.696  29.382  1.00  0.00    -0.014 A 
ATOM     75  C   UNL A   1      46.138  33.915  28.717  1.00  0.00     0.009 A 
ATOM     76  C   UNL A   1      46.591  32.706  30.762  1.00  0.00     0.009 A 
ATOM     77  C   UNL A   1      46.209  35.121  29.417  1.00  0.00     0.001 A 
ATOM     78  C   UNL A   1      46.637  33.913  31.463  1.00  0.00     0.001 A 
ATOM     79  C   UNL A   1      46.452  35.119  30.790  1.00  0.00     0.000 A 
ENDBRANCH  61  74
ENDBRANCH  35  36
ENDBRANCH  28  30
ENDBRANCH  27  28
ENDBRANCH  26  27
ENDBRANCH  25  26
ENDBRANCH  24  25
ENDBRANCH  23  24
ENDBRANCH   1  23
TORSDOF 21
ENDMDL
MODEL 3
REMARK VINA RESULT:      -9.0      1.696      6.160
REMARK SMILES CC[C@H](C(=O)OCCOCCOCCOC(=O)c1ccc(-c2c3nc(c(-c4ccccc4)c4ccc([nH]4)c(-c4ccccc4)c4nc(c(-c5ccccc5)c5ccc2[nH]5)C=C4)C=C3)cc1)N(C)c1cc(C)ccc1[N+](=O)[O-]
REMARK SMILES IDX 10 1 9 2 8 3 7 4 6 5 4 6 5 7 3 8 2 9 1 10 66 11 67 12 68 13
REMARK SMILES IDX 69 14 74 15 70 16 73 17 71 18 72 19 75 20 76 21 77 22 11 23
REMARK SMILES IDX 12 24 13 25 14 26 15 27 16 28 17 29 18 30 19 31 65 32 20 33
REMARK SMILES IDX 64 34 21 35 22 36 23 37 58 38 24 39 63 40 57 41 59 42 25 43
REMARK SMILES IDX 62 44 56 45 55 46 26 48 48 49 33 50 47 51 34 52 37 53 46 54
REMARK SMILES IDX 60 55 35 56 36 57 45 59 61 60 38 61 27 62 28 63 32 64 29 65
REMARK SMILES IDX 31 66 30 67 49 68 50 69 54 70 51 71 53 72 52 73 39 74 40 75
REMARK SMILES IDX 44 76 41 77 43 78 42 79
REMARK H PARENT 59 47 37 58
REMARK Flexibility Score: inf
ROOT
ATOM      1  C   UNL A   1      31.409  29.198  24.723  1.00  0.00     0.188 C 
ENDROOT
BRANCH   1   2
ATOM      2  O   UNL A   1      31.647  29.009  23.333  1.00  0.00    -0.376 OA
BRANCH   2   3
ATOM      3  C   UNL A   1      30.692  28.243  22.608  1.00  0.00     0.202 C 
BRANCH   3   4
ATOM      4  C   UNL A   1      30.744  26.747  22.899  1.00  0.00     0.261 C 
BRANCH   4   5
ATOM      5  O   UNL A   1      31.474  26.105  21.840  1.00  0.00    -0.462 OA
BRANCH   5   6
ATOM      6  C   UNL A   1      32.816  25.958  21.940  1.00  0.00     0.328 C 
ATOM      7  O   UNL A   1      33.634  26.564  21.262  1.00  0.00    -0.250 OA
BRANCH   6   8
ATOM      8  C   UNL A   1      33.129  24.785  22.886  1.00  0.00     0.192 C 
BRANCH   8   9
ATOM      9  C   UNL A   1      33.400  23.457  22.171  1.00  0.00     0.034 C 
ATOM     10  C   UNL A   1      32.475  22.304  22.520  1.00  0.00     0.007 C 
ENDBRANCH   8   9
BRANCH   8  11
ATOM     11  N   UNL A   1      34.022  25.056  24.083  1.00  0.00    -0.356 N 
ATOM     12  C   UNL A   1      33.870  26.426  24.609  1.00  0.00     0.145 C 
BRANCH  11  13
ATOM     13  C   UNL A   1      34.372  24.076  25.023  1.00  0.00     0.116 A 
ATOM     14  C   UNL A   1      35.641  23.446  24.946  1.00  0.00     0.036 A 
ATOM     15  C   UNL A   1      33.563  23.578  26.062  1.00  0.00     0.292 A 
ATOM     16  C   UNL A   1      36.064  22.426  25.826  1.00  0.00    -0.049 A 
ATOM     17  C   UNL A   1      33.983  22.602  26.990  1.00  0.00     0.088 A 
ATOM     18  C   UNL A   1      37.385  21.747  25.611  1.00  0.00     0.044 C 
ATOM     19  C   UNL A   1      35.241  22.038  26.877  1.00  0.00     0.010 A 
BRANCH  15  20
ATOM     20  N   UNL A   1      32.156  23.863  26.146  1.00  0.00     0.064 N 
ATOM     21  O   UNL A   1      31.394  23.029  25.634  1.00  0.00    -0.258 OA
ATOM     22  O   UNL A   1      31.810  24.827  26.838  1.00  0.00    -0.258 OA
ENDBRANCH  15  20
ENDBRANCH  11  13
ENDBRANCH   8  11
ENDBRANCH   6   8
ENDBRANCH   5   6
ENDBRANCH   4   5
ENDBRANCH   3   4
ENDBRANCH   2   3
ENDBRANCH   1   2
BRANCH   1  23
ATOM     23  C   UNL A   1      32.609  29.793  25.486  1.00  0.00     0.188 C 
BRANCH  23  24
ATOM     24  O   UNL A   1      32.401  30.681  26.580  1.00  0.00    -0.376 OA
BRANCH  24  25
ATOM     25  C   UNL A   1      31.303  31.579  26.539  1.00  0.00     0.202 C 
BRANCH  25  26
ATOM     26  C   UNL A   1      31.587  33.036  26.913  1.00  0.00     0.261 C 
BRANCH  26  27
ATOM     27  O   UNL A   1      32.977  33.324  27.151  1.00  0.00    -0.460 OA
BRANCH  27  28
ATOM     28  C   UNL A   1      33.243  34.063  28.256  1.00  0.00     0.338 C 
ATOM     29  O   UNL A   1      32.533  34.904  28.774  1.00  0.00    -0.246 OA
BRANCH  28  30
ATOM     30  C   UNL A   1      34.502  33.605  28.880  1.00  0.00     0.060 A 
ATOM     31  C   UNL A   1      35.705  33.895  28.225  1.00  0.00     0.016 A 
ATOM     32  C   UNL A   1      34.502  32.827  30.040  1.00  0.00     0.016 A 
ATOM     33  C   UNL A   1      36.914  33.399  28.717  1.00  0.00     0.010 A 
ATOM     34  C   UNL A   1      35.711  32.304  30.515  1.00  0.00     0.010 A 
ATOM     35  C   UNL A   1      36.919  32.570  29.845  1.00  0.00    -0.014 A 
BRANCH  35  36
ATOM     36  C   UNL A   1      38.166  31.879  30.252  1.00  0.00     0.031 A 
ATOM     37  C   UNL A   1      39.064  32.519  31.272  1.00  0.00     0.074 A 
ATOM     38  C   UNL A   1      38.503  30.691  29.720  1.00  0.00     0.049 A 
ATOM     39  N   UNL A   1      40.236  32.130  31.705  1.00  0.00    -0.248 NA
ATOM     40  C   UNL A   1      38.576  33.766  31.883  1.00  0.00     0.031 C 
ATOM     41  C   UNL A   1      37.701  29.943  28.756  1.00  0.00     0.029 A 
ATOM     42  N   UNL A   1      39.619  29.914  29.913  1.00  0.00    -0.354 N 
ATOM     43  C   UNL A   1      40.640  33.097  32.617  1.00  0.00     0.074 A 
ATOM     44  C   UNL A   1      39.585  34.087  32.679  1.00  0.00     0.031 C 
ATOM     45  C   UNL A   1      38.355  28.812  28.439  1.00  0.00     0.029 A 
ATOM     46  C   UNL A   1      39.626  28.767  29.157  1.00  0.00     0.049 A 
ATOM     47  H   UNL A   1      40.343  30.155  30.534  1.00  0.00     0.167 HD
ATOM     48  C   UNL A   1      41.794  33.167  33.324  1.00  0.00     0.031 A 
ATOM     49  C   UNL A   1      40.561  27.804  29.039  1.00  0.00     0.031 A 
ATOM     50  C   UNL A   1      42.857  32.203  33.244  1.00  0.00     0.049 A 
ATOM     51  C   UNL A   1      41.865  27.942  29.778  1.00  0.00     0.074 A 
ATOM     52  C   UNL A   1      44.065  32.193  33.922  1.00  0.00     0.029 A 
ATOM     53  N   UNL A   1      42.848  31.084  32.426  1.00  0.00    -0.354 N 
ATOM     54  N   UNL A   1      42.235  28.859  30.638  1.00  0.00    -0.248 NA
ATOM     55  C   UNL A   1      42.892  26.924  29.504  1.00  0.00     0.031 C 
ATOM     56  C   UNL A   1      44.810  31.097  33.471  1.00  0.00     0.029 A 
ATOM     57  C   UNL A   1      44.045  30.397  32.552  1.00  0.00     0.049 A 
ATOM     58  H   UNL A   1      42.102  30.818  31.842  1.00  0.00     0.167 HD
ATOM     59  C   UNL A   1      43.538  28.536  31.000  1.00  0.00     0.074 A 
ATOM     60  C   UNL A   1      43.880  27.317  30.296  1.00  0.00     0.031 C 
ATOM     61  C   UNL A   1      44.380  29.198  31.830  1.00  0.00     0.031 A 
BRANCH  48  62
ATOM     62  C   UNL A   1      41.988  34.373  34.197  1.00  0.00    -0.014 A 
ATOM     63  C   UNL A   1      41.629  34.360  35.553  1.00  0.00     0.009 A 
ATOM     64  C   UNL A   1      42.552  35.536  33.651  1.00  0.00     0.009 A 
ATOM     65  C   UNL A   1      41.801  35.503  36.338  1.00  0.00     0.001 A 
ATOM     66  C   UNL A   1      42.746  36.668  34.444  1.00  0.00     0.001 A 
ATOM     67  C   UNL A   1      42.360  36.654  35.784  1.00  0.00     0.000 A 
ENDBRANCH  48  62
BRANCH  49  68
ATOM     68  C   UNL A   1      40.318  26.633  28.156  1.00  0.00    -0.014 A 
ATOM     69  C   UNL A   1      39.574  25.539  28.623  1.00  0.00     0.009 A 
ATOM     70  C   UNL A   1      40.837  26.595  26.853  1.00  0.00     0.009 A 
ATOM     71  C   UNL A   1      39.365  24.425  27.804  1.00  0.00     0.001 A 
ATOM     72  C   UNL A   1      40.602  25.492  26.028  1.00  0.00     0.001 A 
ATOM     73  C   UNL A   1      39.873  24.406  26.507  1.00  0.00     0.000 A 
ENDBRANCH  49  68
BRANCH  61  74
ATOM     74  C   UNL A   1      45.759  28.629  32.012  1.00  0.00    -0.014 A 
ATOM     75  C   UNL A   1      46.823  29.049  31.199  1.00  0.00     0.009 A 
ATOM     76  C   UNL A   1      46.010  27.705  33.038  1.00  0.00     0.009 A 
ATOM     77  C   UNL A   1      48.107  28.538  31.395  1.00  0.00     0.001 A 
ATOM     78  C   UNL A   1      47.300  27.214  33.247  1.00  0.00     0.001 A 
ATOM     79  C   UNL A   1      48.345  27.625  32.423  1.00  0.00     0.000 A 
ENDBRANCH  61  74
ENDBRANCH  35  36
ENDBRANCH  28  30
ENDBRANCH  27  28
ENDBRANCH  26  27
ENDBRANCH  25  26
ENDBRANCH  24  25
ENDBRANCH  23  24
ENDBRANCH   1  23
TORSDOF 21
ENDMDL
