MODEL 1
REMARK VINA RESULT:     -11.3      0.000      0.000
REMARK SMILES O=C(OCCOCCOCCOC(=O)c1cnccc1C(=O)Nc1ccc(Cl)c(Cl)c1)c1ccc(-c2c3nc(c(-c4ccccc4)c4ccc([nH]4)c(-c4ccccc4)c4nc(c(-c5ccccc5)c5ccc2[nH]5)C=C4)C=C3)cc1
REMARK SMILES IDX 7 1 6 2 5 3 4 4 3 5 2 6 1 7 32 8 33 9 79 10 34 11 78 12
REMARK SMILES IDX 35 13 36 14 37 15 72 16 38 17 77 18 71 19 73 20 39 21 76 22
REMARK SMILES IDX 70 23 69 24 40 26 62 27 47 28 61 29 48 30 51 31 60 32 74 33
REMARK SMILES IDX 49 34 50 35 59 37 75 38 52 39 41 40 42 41 46 42 43 43 45 44
REMARK SMILES IDX 44 45 63 46 64 47 68 48 65 49 67 50 66 51 53 52 54 53 58 54
REMARK SMILES IDX 55 55 57 56 56 57 8 58 9 59 10 60 11 61 12 62 13 63 14 64
REMARK SMILES IDX 15 65 16 66 20 67 17 68 19 69 18 70 21 71 22 72 23 73 24 75
REMARK SMILES IDX 25 76 31 77 26 78 29 79 27 80 30 81 28 82
REMARK H PARENT 73 25 51 36 23 74
REMARK Flexibility Score: inf
ROOT
ATOM      1  C   UNL A   1      40.899  20.631  26.518  1.00  0.00     0.188 C 
ENDROOT
BRANCH   1   2
ATOM      2  O   UNL A   1      42.075  20.804  25.765  1.00  0.00    -0.376 OA
BRANCH   2   3
ATOM      3  C   UNL A   1      43.146  21.560  26.270  1.00  0.00     0.202 C 
BRANCH   3   4
ATOM      4  C   UNL A   1      43.787  22.317  25.114  1.00  0.00     0.261 C 
BRANCH   4   5
ATOM      5  O   UNL A   1      43.187  23.618  24.934  1.00  0.00    -0.460 OA
BRANCH   5   6
ATOM      6  C   UNL A   1      43.705  24.830  25.265  1.00  0.00     0.338 C 
ATOM      7  O   UNL A   1      44.668  25.255  24.627  1.00  0.00    -0.246 OA
BRANCH   6   8
ATOM      8  C   UNL A   1      43.129  25.734  26.311  1.00  0.00     0.060 A 
ATOM      9  C   UNL A   1      43.627  26.994  26.634  1.00  0.00     0.016 A 
ATOM     10  C   UNL A   1      41.957  25.315  26.962  1.00  0.00     0.016 A 
ATOM     11  C   UNL A   1      43.060  27.779  27.622  1.00  0.00     0.010 A 
ATOM     12  C   UNL A   1      41.348  26.115  27.940  1.00  0.00     0.010 A 
ATOM     13  C   UNL A   1      41.931  27.338  28.296  1.00  0.00    -0.014 A 
BRANCH  13  14
ATOM     14  C   UNL A   1      41.550  28.092  29.503  1.00  0.00     0.031 A 
ATOM     15  C   UNL A   1      40.326  28.953  29.420  1.00  0.00     0.074 A 
ATOM     16  C   UNL A   1      42.147  27.827  30.679  1.00  0.00     0.049 A 
ATOM     17  N   UNL A   1      39.796  29.729  30.326  1.00  0.00    -0.248 NA
ATOM     18  C   UNL A   1      39.581  28.915  28.147  1.00  0.00     0.031 C 
ATOM     19  C   UNL A   1      43.219  26.845  30.881  1.00  0.00     0.029 A 
ATOM     20  N   UNL A   1      41.908  28.317  31.934  1.00  0.00    -0.354 N 
ATOM     21  C   UNL A   1      38.677  30.290  29.722  1.00  0.00     0.074 A 
ATOM     22  C   UNL A   1      38.608  29.782  28.373  1.00  0.00     0.031 C 
ATOM     23  C   UNL A   1      43.531  26.801  32.186  1.00  0.00     0.029 A 
ATOM     24  C   UNL A   1      42.755  27.811  32.889  1.00  0.00     0.049 A 
ATOM     25  H   UNL A   1      41.199  28.971  32.131  1.00  0.00     0.167 HD
ATOM     26  C   UNL A   1      37.792  31.158  30.258  1.00  0.00     0.031 A 
ATOM     27  C   UNL A   1      42.917  28.173  34.174  1.00  0.00     0.031 A 
ATOM     28  C   UNL A   1      37.906  31.656  31.599  1.00  0.00     0.049 A 
ATOM     29  C   UNL A   1      42.026  29.265  34.696  1.00  0.00     0.074 A 
ATOM     30  C   UNL A   1      37.150  32.617  32.238  1.00  0.00     0.029 A 
ATOM     31  N   UNL A   1      38.856  31.212  32.511  1.00  0.00    -0.354 N 
ATOM     32  N   UNL A   1      41.034  29.880  34.093  1.00  0.00    -0.248 NA
ATOM     33  C   UNL A   1      42.275  29.719  36.068  1.00  0.00     0.031 C 
ATOM     34  C   UNL A   1      37.680  32.795  33.521  1.00  0.00     0.029 A 
ATOM     35  C   UNL A   1      38.719  31.892  33.704  1.00  0.00     0.049 A 
ATOM     36  H   UNL A   1      39.529  30.515  32.332  1.00  0.00     0.167 HD
ATOM     37  C   UNL A   1      40.525  30.778  35.018  1.00  0.00     0.074 A 
ATOM     38  C   UNL A   1      41.299  30.601  36.233  1.00  0.00     0.031 C 
ATOM     39  C   UNL A   1      39.518  31.677  34.883  1.00  0.00     0.031 A 
BRANCH  26  40
ATOM     40  C   UNL A   1      36.707  31.669  29.354  1.00  0.00    -0.014 A 
ATOM     41  C   UNL A   1      36.818  32.902  28.691  1.00  0.00     0.009 A 
ATOM     42  C   UNL A   1      35.527  30.923  29.205  1.00  0.00     0.009 A 
ATOM     43  C   UNL A   1      35.755  33.392  27.927  1.00  0.00     0.001 A 
ATOM     44  C   UNL A   1      34.478  31.402  28.419  1.00  0.00     0.001 A 
ATOM     45  C   UNL A   1      34.589  32.641  27.790  1.00  0.00     0.000 A 
ENDBRANCH  26  40
BRANCH  27  46
ATOM     46  C   UNL A   1      44.010  27.594  35.005  1.00  0.00    -0.014 A 
ATOM     47  C   UNL A   1      43.794  26.478  35.826  1.00  0.00     0.009 A 
ATOM     48  C   UNL A   1      45.279  28.203  35.026  1.00  0.00     0.009 A 
ATOM     49  C   UNL A   1      44.803  26.012  36.675  1.00  0.00     0.001 A 
ATOM     50  C   UNL A   1      46.297  27.713  35.845  1.00  0.00     0.001 A 
ATOM     51  C   UNL A   1      46.054  26.628  36.682  1.00  0.00     0.000 A 
ENDBRANCH  27  46
BRANCH  39  52
ATOM     52  C   UNL A   1      39.185  32.491  36.099  1.00  0.00    -0.014 A 
ATOM     53  C   UNL A   1      39.811  33.722  36.348  1.00  0.00     0.009 A 
ATOM     54  C   UNL A   1      38.209  32.024  36.992  1.00  0.00     0.009 A 
ATOM     55  C   UNL A   1      39.498  34.447  37.498  1.00  0.00     0.001 A 
ATOM     56  C   UNL A   1      37.870  32.770  38.118  1.00  0.00     0.001 A 
ATOM     57  C   UNL A   1      38.525  33.973  38.377  1.00  0.00     0.000 A 
ENDBRANCH  39  52
ENDBRANCH  13  14
ENDBRANCH   6   8
ENDBRANCH   5   6
ENDBRANCH   4   5
ENDBRANCH   3   4
ENDBRANCH   2   3
ENDBRANCH   1   2
BRANCH   1  58
ATOM     58  C   UNL A   1      40.362  21.913  27.273  1.00  0.00     0.188 C 
BRANCH  58  59
ATOM     59  O   UNL A   1      39.281  22.684  26.672  1.00  0.00    -0.376 OA
BRANCH  59  60
ATOM     60  C   UNL A   1      38.240  22.225  25.751  1.00  0.00     0.202 C 
BRANCH  60  61
ATOM     61  C   UNL A   1      37.077  23.308  24.823  1.00  0.00     0.261 C 
BRANCH  61  62
ATOM     62  O   UNL A   1      35.244  23.880  25.469  1.00  0.00    -0.460 OA
BRANCH  62  63
ATOM     63  C   UNL A   1      33.876  23.894  25.771  1.00  0.00     0.340 C 
ATOM     64  O   UNL A   1      33.302  24.713  26.489  1.00  0.00    -0.246 OA
BRANCH  63  65
ATOM     65  C   UNL A   1      33.024  22.983  25.003  1.00  0.00     0.091 A 
ATOM     66  C   UNL A   1      32.476  21.973  25.818  1.00  0.00     0.127 A 
ATOM     67  C   UNL A   1      32.983  22.823  23.621  1.00  0.00     0.057 A 
ATOM     68  N   UNL A   1      32.019  20.783  25.377  1.00  0.00    -0.264 NA
ATOM     69  C   UNL A   1      32.593  21.534  23.178  1.00  0.00     0.035 A 
ATOM     70  C   UNL A   1      32.153  20.562  24.066  1.00  0.00     0.112 A 
BRANCH  67  71
ATOM     71  C   UNL A   1      33.277  23.788  22.494  1.00  0.00     0.256 C 
ATOM     72  O   UNL A   1      33.829  23.328  21.488  1.00  0.00    -0.269 OA
ATOM     73  N   UNL A   1      32.953  25.128  22.420  1.00  0.00    -0.322 N 
ATOM     74  H   UNL A   1      33.224  25.595  21.596  1.00  0.00     0.170 HD
BRANCH  73  75
ATOM     75  C   UNL A   1      32.290  25.895  23.369  1.00  0.00     0.043 A 
ATOM     76  C   UNL A   1      30.529  26.004  23.152  1.00  0.00     0.028 A 
ATOM     77  C   UNL A   1      33.245  27.261  23.929  1.00  0.00     0.048 A 
ATOM     78  C   UNL A   1      29.664  27.539  23.478  1.00  0.00     0.024 A 
ATOM     79  C   UNL A   1      32.458  28.842  24.270  1.00  0.00     0.061 A 
ATOM     80  C   UNL A   1      30.616  29.010  24.002  1.00  0.00     0.059 A 
ATOM     81  Cl  UNL A   1      33.560  29.230  25.621  1.00  0.00    -0.083 Cl
ATOM     82  Cl  UNL A   1      29.595  30.395  23.683  1.00  0.00    -0.083 Cl
ENDBRANCH  73  75
ENDBRANCH  67  71
ENDBRANCH  63  65
ENDBRANCH  62  63
ENDBRANCH  61  62
ENDBRANCH  60  61
ENDBRANCH  59  60
ENDBRANCH  58  59
ENDBRANCH   1  58
TORSDOF 19
ENDMDL
MODEL 2
REMARK VINA RESULT:     -11.1      4.752      8.406
REMARK SMILES O=C(OCCOCCOCCOC(=O)c1cnccc1C(=O)Nc1ccc(Cl)c(Cl)c1)c1ccc(-c2c3nc(c(-c4ccccc4)c4ccc([nH]4)c(-c4ccccc4)c4nc(c(-c5ccccc5)c5ccc2[nH]5)C=C4)C=C3)cc1
REMARK SMILES IDX 7 1 6 2 5 3 4 4 3 5 2 6 1 7 32 8 33 9 79 10 34 11 78 12
REMARK SMILES IDX 35 13 36 14 37 15 72 16 38 17 77 18 71 19 73 20 39 21 76 22
REMARK SMILES IDX 70 23 69 24 40 26 62 27 47 28 61 29 48 30 51 31 60 32 74 33
REMARK SMILES IDX 49 34 50 35 59 37 75 38 52 39 41 40 42 41 46 42 43 43 45 44
REMARK SMILES IDX 44 45 63 46 64 47 68 48 65 49 67 50 66 51 53 52 54 53 58 54
REMARK SMILES IDX 55 55 57 56 56 57 8 58 9 59 10 60 11 61 12 62 13 63 14 64
REMARK SMILES IDX 15 65 16 66 20 67 17 68 19 69 18 70 21 71 22 72 23 73 24 75
REMARK SMILES IDX 25 76 31 77 26 78 29 79 27 80 30 81 28 82
REMARK H PARENT 73 25 51 36 23 74
REMARK Flexibility Score: inf
ROOT
ATOM      1  C   UNL A   1      40.029  19.935  25.933  1.00  0.00     0.188 C 
ENDROOT
BRANCH   1   2
ATOM      2  O   UNL A   1      41.177  19.226  25.534  1.00  0.00    -0.376 OA
BRANCH   2   3
ATOM      3  C   UNL A   1      42.349  19.264  26.309  1.00  0.00     0.202 C 
BRANCH   3   4
ATOM      4  C   UNL A   1      43.293  18.178  25.808  1.00  0.00     0.261 C 
BRANCH   4   5
ATOM      5  O   UNL A   1      44.494  18.741  25.238  1.00  0.00    -0.460 OA
BRANCH   5   6
ATOM      6  C   UNL A   1      44.602  19.817  24.414  1.00  0.00     0.338 C 
ATOM      7  O   UNL A   1      44.327  19.678  23.222  1.00  0.00    -0.246 OA
BRANCH   6   8
ATOM      8  C   UNL A   1      44.961  21.196  24.874  1.00  0.00     0.060 A 
ATOM      9  C   UNL A   1      45.415  21.514  26.151  1.00  0.00     0.016 A 
ATOM     10  C   UNL A   1      44.910  22.233  23.928  1.00  0.00     0.016 A 
ATOM     11  C   UNL A   1      45.718  22.812  26.523  1.00  0.00     0.010 A 
ATOM     12  C   UNL A   1      45.250  23.548  24.278  1.00  0.00     0.010 A 
ATOM     13  C   UNL A   1      45.618  23.841  25.597  1.00  0.00    -0.014 A 
BRANCH  13  14
ATOM     14  C   UNL A   1      45.692  25.212  26.129  1.00  0.00     0.031 A 
ATOM     15  C   UNL A   1      47.007  25.925  26.017  1.00  0.00     0.074 A 
ATOM     16  C   UNL A   1      44.567  25.860  26.481  1.00  0.00     0.049 A 
ATOM     17  N   UNL A   1      47.338  27.119  26.425  1.00  0.00    -0.248 NA
ATOM     18  C   UNL A   1      48.089  25.201  25.325  1.00  0.00     0.031 C 
ATOM     19  C   UNL A   1      43.213  25.296  26.426  1.00  0.00     0.029 A 
ATOM     20  N   UNL A   1      44.371  27.146  26.906  1.00  0.00    -0.354 N 
ATOM     21  C   UNL A   1      48.671  27.274  26.066  1.00  0.00     0.074 A 
ATOM     22  C   UNL A   1      49.095  26.054  25.421  1.00  0.00     0.031 C 
ATOM     23  C   UNL A   1      42.331  26.240  26.790  1.00  0.00     0.029 A 
ATOM     24  C   UNL A   1      43.059  27.433  27.194  1.00  0.00     0.049 A 
ATOM     25  H   UNL A   1      45.100  27.801  26.998  1.00  0.00     0.167 HD
ATOM     26  C   UNL A   1      49.467  28.348  26.267  1.00  0.00     0.031 A 
ATOM     27  C   UNL A   1      42.523  28.521  27.775  1.00  0.00     0.031 A 
ATOM     28  C   UNL A   1      49.013  29.537  26.930  1.00  0.00     0.049 A 
ATOM     29  C   UNL A   1      43.464  29.635  28.141  1.00  0.00     0.074 A 
ATOM     30  C   UNL A   1      49.733  30.656  27.299  1.00  0.00     0.029 A 
ATOM     31  N   UNL A   1      47.698  29.750  27.323  1.00  0.00    -0.354 N 
ATOM     32  N   UNL A   1      44.751  29.741  27.902  1.00  0.00    -0.248 NA
ATOM     33  C   UNL A   1      42.886  30.775  28.860  1.00  0.00     0.031 C 
ATOM     34  C   UNL A   1      48.861  31.523  27.967  1.00  0.00     0.029 A 
ATOM     35  C   UNL A   1      47.585  30.976  27.948  1.00  0.00     0.049 A 
ATOM     36  H   UNL A   1      46.955  29.120  27.178  1.00  0.00     0.167 HD
ATOM     37  C   UNL A   1      45.135  30.967  28.421  1.00  0.00     0.074 A 
ATOM     38  C   UNL A   1      43.933  31.581  28.957  1.00  0.00     0.031 C 
ATOM     39  C   UNL A   1      46.363  31.539  28.464  1.00  0.00     0.031 A 
BRANCH  26  40
ATOM     40  C   UNL A   1      50.902  28.221  25.843  1.00  0.00    -0.014 A 
ATOM     41  C   UNL A   1      51.892  27.749  26.720  1.00  0.00     0.009 A 
ATOM     42  C   UNL A   1      51.278  28.632  24.554  1.00  0.00     0.009 A 
ATOM     43  C   UNL A   1      53.233  27.726  26.326  1.00  0.00     0.001 A 
ATOM     44  C   UNL A   1      52.614  28.582  24.154  1.00  0.00     0.001 A 
ATOM     45  C   UNL A   1      53.591  28.140  25.044  1.00  0.00     0.000 A 
ENDBRANCH  26  40
BRANCH  27  46
ATOM     46  C   UNL A   1      41.079  28.567  28.140  1.00  0.00    -0.014 A 
ATOM     47  C   UNL A   1      40.599  27.961  29.311  1.00  0.00     0.009 A 
ATOM     48  C   UNL A   1      40.152  29.177  27.275  1.00  0.00     0.009 A 
ATOM     49  C   UNL A   1      39.229  27.927  29.584  1.00  0.00     0.001 A 
ATOM     50  C   UNL A   1      38.787  29.176  27.569  1.00  0.00     0.001 A 
ATOM     51  C   UNL A   1      38.325  28.537  28.715  1.00  0.00     0.000 A 
ENDBRANCH  27  46
BRANCH  39  52
ATOM     52  C   UNL A   1      46.440  32.908  29.073  1.00  0.00    -0.014 A 
ATOM     53  C   UNL A   1      46.222  34.062  28.305  1.00  0.00     0.009 A 
ATOM     54  C   UNL A   1      46.711  33.036  30.444  1.00  0.00     0.009 A 
ATOM     55  C   UNL A   1      46.322  35.323  28.893  1.00  0.00     0.001 A 
ATOM     56  C   UNL A   1      46.769  34.296  31.036  1.00  0.00     0.001 A 
ATOM     57  C   UNL A   1      46.589  35.438  30.256  1.00  0.00     0.000 A 
ENDBRANCH  39  52
ENDBRANCH  13  14
ENDBRANCH   6   8
ENDBRANCH   5   6
ENDBRANCH   4   5
ENDBRANCH   3   4
ENDBRANCH   2   3
ENDBRANCH   1   2
BRANCH   1  58
ATOM     58  C   UNL A   1      40.258  21.435  26.379  1.00  0.00     0.188 C 
BRANCH  58  59
ATOM     59  O   UNL A   1      39.101  22.310  26.527  1.00  0.00    -0.376 OA
BRANCH  59  60
ATOM     60  C   UNL A   1      37.903  22.383  25.690  1.00  0.00     0.202 C 
BRANCH  60  61
ATOM     61  C   UNL A   1      36.455  23.479  25.985  1.00  0.00     0.261 C 
BRANCH  61  62
ATOM     62  O   UNL A   1      34.742  22.930  26.919  1.00  0.00    -0.460 OA
BRANCH  62  63
ATOM     63  C   UNL A   1      33.415  22.562  27.170  1.00  0.00     0.340 C 
ATOM     64  O   UNL A   1      32.868  22.535  28.273  1.00  0.00    -0.246 OA
BRANCH  63  65
ATOM     65  C   UNL A   1      32.546  22.395  26.003  1.00  0.00     0.091 A 
ATOM     66  C   UNL A   1      33.161  21.613  25.005  1.00  0.00     0.127 A 
ATOM     67  C   UNL A   1      31.425  23.147  25.665  1.00  0.00     0.057 A 
ATOM     68  N   UNL A   1      32.830  21.623  23.698  1.00  0.00    -0.264 NA
ATOM     69  C   UNL A   1      31.150  23.226  24.277  1.00  0.00     0.035 A 
ATOM     70  C   UNL A   1      31.873  22.487  23.350  1.00  0.00     0.112 A 
BRANCH  67  71
ATOM     71  C   UNL A   1      30.432  23.900  26.523  1.00  0.00     0.256 C 
ATOM     72  O   UNL A   1      29.669  23.228  27.226  1.00  0.00    -0.269 OA
ATOM     73  N   UNL A   1      30.303  25.267  26.667  1.00  0.00    -0.322 N 
ATOM     74  H   UNL A   1      29.597  25.575  27.281  1.00  0.00     0.170 HD
BRANCH  73  75
ATOM     75  C   UNL A   1      31.051  26.261  26.048  1.00  0.00     0.043 A 
ATOM     76  C   UNL A   1      31.908  27.357  27.155  1.00  0.00     0.028 A 
ATOM     77  C   UNL A   1      30.323  26.831  24.553  1.00  0.00     0.048 A 
ATOM     78  C   UNL A   1      32.036  29.106  26.788  1.00  0.00     0.024 A 
ATOM     79  C   UNL A   1      30.396  28.573  24.112  1.00  0.00     0.061 A 
ATOM     80  C   UNL A   1      31.242  29.765  25.278  1.00  0.00     0.059 A 
ATOM     81  Cl  UNL A   1      30.522  28.243  22.361  1.00  0.00    -0.083 Cl
ATOM     82  Cl  UNL A   1      31.076  31.489  25.522  1.00  0.00    -0.083 Cl
ENDBRANCH  73  75
ENDBRANCH  67  71
ENDBRANCH  63  65
ENDBRANCH  62  63
ENDBRANCH  61  62
ENDBRANCH  60  61
ENDBRANCH  59  60
ENDBRANCH  58  59
ENDBRANCH   1  58
TORSDOF 19
ENDMDL
MODEL 3
REMARK VINA RESULT:     -10.7      4.300      6.676
REMARK SMILES O=C(OCCOCCOCCOC(=O)c1cnccc1C(=O)Nc1ccc(Cl)c(Cl)c1)c1ccc(-c2c3nc(c(-c4ccccc4)c4ccc([nH]4)c(-c4ccccc4)c4nc(c(-c5ccccc5)c5ccc2[nH]5)C=C4)C=C3)cc1
REMARK SMILES IDX 7 1 6 2 5 3 4 4 3 5 2 6 1 7 32 8 33 9 79 10 34 11 78 12
REMARK SMILES IDX 35 13 36 14 37 15 72 16 38 17 77 18 71 19 73 20 39 21 76 22
REMARK SMILES IDX 70 23 69 24 40 26 62 27 47 28 61 29 48 30 51 31 60 32 74 33
REMARK SMILES IDX 49 34 50 35 59 37 75 38 52 39 41 40 42 41 46 42 43 43 45 44
REMARK SMILES IDX 44 45 63 46 64 47 68 48 65 49 67 50 66 51 53 52 54 53 58 54
REMARK SMILES IDX 55 55 57 56 56 57 8 58 9 59 10 60 11 61 12 62 13 63 14 64
REMARK SMILES IDX 15 65 16 66 20 67 17 68 19 69 18 70 21 71 22 72 23 73 24 75
REMARK SMILES IDX 25 76 31 77 26 78 29 79 27 80 30 81 28 82
REMARK H PARENT 73 25 51 36 23 74
REMARK Flexibility Score: inf
ROOT
ATOM      1  C   UNL A   1      40.344  20.850  26.503  1.00  0.00     0.188 C 
ENDROOT
BRANCH   1   2
ATOM      2  O   UNL A   1      40.861  20.253  27.668  1.00  0.00    -0.376 OA
BRANCH   2   3
ATOM      3  C   UNL A   1      41.833  19.242  27.585  1.00  0.00     0.202 C 
BRANCH   3   4
ATOM      4  C   UNL A   1      41.979  18.834  26.124  1.00  0.00     0.261 C 
BRANCH   4   5
ATOM      5  O   UNL A   1      43.351  18.926  25.683  1.00  0.00    -0.460 OA
BRANCH   5   6
ATOM      6  C   UNL A   1      43.925  19.910  24.940  1.00  0.00     0.338 C 
ATOM      7  O   UNL A   1      44.353  19.631  23.821  1.00  0.00    -0.246 OA
BRANCH   6   8
ATOM      8  C   UNL A   1      44.002  21.345  25.361  1.00  0.00     0.060 A 
ATOM      9  C   UNL A   1      43.808  22.433  24.513  1.00  0.00     0.016 A 
ATOM     10  C   UNL A   1      44.208  21.616  26.724  1.00  0.00     0.016 A 
ATOM     11  C   UNL A   1      43.905  23.739  24.957  1.00  0.00     0.010 A 
ATOM     12  C   UNL A   1      44.273  22.934  27.198  1.00  0.00     0.010 A 
ATOM     13  C   UNL A   1      44.159  24.000  26.296  1.00  0.00    -0.014 A 
BRANCH  13  14
ATOM     14  C   UNL A   1      44.515  25.388  26.639  1.00  0.00     0.031 A 
ATOM     15  C   UNL A   1      43.449  26.239  27.261  1.00  0.00     0.074 A 
ATOM     16  C   UNL A   1      45.801  25.782  26.604  1.00  0.00     0.049 A 
ATOM     17  N   UNL A   1      43.499  27.489  27.631  1.00  0.00    -0.248 NA
ATOM     18  C   UNL A   1      42.156  25.582  27.529  1.00  0.00     0.031 C 
ATOM     19  C   UNL A   1      46.933  24.941  26.198  1.00  0.00     0.029 A 
ATOM     20  N   UNL A   1      46.382  26.968  26.959  1.00  0.00    -0.354 N 
ATOM     21  C   UNL A   1      42.239  27.773  28.144  1.00  0.00     0.074 A 
ATOM     22  C   UNL A   1      41.442  26.576  28.029  1.00  0.00     0.031 C 
ATOM     23  C   UNL A   1      48.070  25.639  26.343  1.00  0.00     0.029 A 
ATOM     24  C   UNL A   1      47.740  26.994  26.755  1.00  0.00     0.049 A 
ATOM     25  H   UNL A   1      45.876  27.730  27.324  1.00  0.00     0.167 HD
ATOM     26  C   UNL A   1      41.796  28.939  28.662  1.00  0.00     0.031 A 
ATOM     27  C   UNL A   1      48.604  28.022  26.838  1.00  0.00     0.031 A 
ATOM     28  C   UNL A   1      42.615  30.115  28.742  1.00  0.00     0.049 A 
ATOM     29  C   UNL A   1      48.046  29.353  27.257  1.00  0.00     0.074 A 
ATOM     30  C   UNL A   1      42.270  31.391  29.139  1.00  0.00     0.029 A 
ATOM     31  N   UNL A   1      43.964  30.142  28.410  1.00  0.00    -0.354 N 
ATOM     32  N   UNL A   1      46.826  29.653  27.639  1.00  0.00    -0.248 NA
ATOM     33  C   UNL A   1      48.975  30.488  27.252  1.00  0.00     0.031 C 
ATOM     34  C   UNL A   1      43.400  32.204  28.994  1.00  0.00     0.029 A 
ATOM     35  C   UNL A   1      44.465  31.418  28.576  1.00  0.00     0.049 A 
ATOM     36  H   UNL A   1      44.486  29.366  28.101  1.00  0.00     0.167 HD
ATOM     37  C   UNL A   1      46.844  31.006  27.942  1.00  0.00     0.074 A 
ATOM     38  C   UNL A   1      48.207  31.457  27.729  1.00  0.00     0.031 C 
ATOM     39  C   UNL A   1      45.832  31.812  28.349  1.00  0.00     0.031 A 
BRANCH  26  40
ATOM     40  C   UNL A   1      40.355  28.994  29.080  1.00  0.00    -0.014 A 
ATOM     41  C   UNL A   1      39.956  28.711  30.397  1.00  0.00     0.009 A 
ATOM     42  C   UNL A   1      39.371  29.286  28.122  1.00  0.00     0.009 A 
ATOM     43  C   UNL A   1      38.600  28.684  30.734  1.00  0.00     0.001 A 
ATOM     44  C   UNL A   1      38.019  29.284  28.469  1.00  0.00     0.001 A 
ATOM     45  C   UNL A   1      37.635  28.973  29.772  1.00  0.00     0.000 A 
ENDBRANCH  26  40
BRANCH  27  46
ATOM     46  C   UNL A   1      50.026  27.869  26.422  1.00  0.00    -0.014 A 
ATOM     47  C   UNL A   1      50.450  28.192  25.125  1.00  0.00     0.009 A 
ATOM     48  C   UNL A   1      50.970  27.334  27.319  1.00  0.00     0.009 A 
ATOM     49  C   UNL A   1      51.766  27.945  24.723  1.00  0.00     0.001 A 
ATOM     50  C   UNL A   1      52.294  27.124  26.928  1.00  0.00     0.001 A 
ATOM     51  C   UNL A   1      52.687  27.415  25.625  1.00  0.00     0.000 A 
ENDBRANCH  27  46
BRANCH  39  52
ATOM     52  C   UNL A   1      46.191  33.243  28.627  1.00  0.00    -0.014 A 
ATOM     53  C   UNL A   1      46.076  34.230  27.637  1.00  0.00     0.009 A 
ATOM     54  C   UNL A   1      46.626  33.604  29.911  1.00  0.00     0.009 A 
ATOM     55  C   UNL A   1      46.438  35.548  27.917  1.00  0.00     0.001 A 
ATOM     56  C   UNL A   1      46.947  34.929  30.199  1.00  0.00     0.001 A 
ATOM     57  C   UNL A   1      46.867  35.896  29.197  1.00  0.00     0.000 A 
ENDBRANCH  39  52
ENDBRANCH  13  14
ENDBRANCH   6   8
ENDBRANCH   5   6
ENDBRANCH   4   5
ENDBRANCH   3   4
ENDBRANCH   2   3
ENDBRANCH   1   2
BRANCH   1  58
ATOM     58  C   UNL A   1      40.399  22.430  26.447  1.00  0.00     0.188 C 
BRANCH  58  59
ATOM     59  O   UNL A   1      39.363  23.195  27.130  1.00  0.00    -0.376 OA
BRANCH  59  60
ATOM     60  C   UNL A   1      38.389  24.124  26.554  1.00  0.00     0.202 C 
BRANCH  60  61
ATOM     61  C   UNL A   1      36.851  23.648  25.663  1.00  0.00     0.261 C 
BRANCH  61  62
ATOM     62  O   UNL A   1      35.057  23.292  26.535  1.00  0.00    -0.460 OA
BRANCH  62  63
ATOM     63  C   UNL A   1      33.800  22.752  26.837  1.00  0.00     0.340 C 
ATOM     64  O   UNL A   1      33.320  22.625  27.964  1.00  0.00    -0.246 OA
BRANCH  63  65
ATOM     65  C   UNL A   1      32.900  22.511  25.708  1.00  0.00     0.091 A 
ATOM     66  C   UNL A   1      33.577  21.931  24.618  1.00  0.00     0.127 A 
ATOM     67  C   UNL A   1      31.640  23.063  25.496  1.00  0.00     0.057 A 
ATOM     68  N   UNL A   1      33.162  21.974  23.335  1.00  0.00    -0.264 NA
ATOM     69  C   UNL A   1      31.261  23.189  24.136  1.00  0.00     0.035 A 
ATOM     70  C   UNL A   1      32.041  22.667  23.113  1.00  0.00     0.112 A 
BRANCH  67  71
ATOM     71  C   UNL A   1      30.587  23.554  26.465  1.00  0.00     0.256 C 
ATOM     72  O   UNL A   1      30.055  22.710  27.194  1.00  0.00    -0.269 OA
ATOM     73  N   UNL A   1      30.177  24.854  26.683  1.00  0.00    -0.322 N 
ATOM     74  H   UNL A   1      29.479  24.981  27.366  1.00  0.00     0.170 HD
BRANCH  73  75
ATOM     75  C   UNL A   1      30.634  26.006  26.054  1.00  0.00     0.043 A 
ATOM     76  C   UNL A   1      30.019  26.256  24.406  1.00  0.00     0.028 A 
ATOM     77  C   UNL A   1      32.281  26.422  26.507  1.00  0.00     0.048 A 
ATOM     78  C   UNL A   1      31.082  26.928  23.129  1.00  0.00     0.024 A 
ATOM     79  C   UNL A   1      33.418  27.092  25.286  1.00  0.00     0.061 A 
ATOM     80  C   UNL A   1      32.824  27.319  23.528  1.00  0.00     0.059 A 
ATOM     81  Cl  UNL A   1      34.247  28.145  26.465  1.00  0.00    -0.083 Cl
ATOM     82  Cl  UNL A   1      33.672  27.397  21.999  1.00  0.00    -0.083 Cl
ENDBRANCH  73  75
ENDBRANCH  67  71
ENDBRANCH  63  65
ENDBRANCH  62  63
ENDBRANCH  61  62
ENDBRANCH  60  61
ENDBRANCH  59  60
ENDBRANCH  58  59
ENDBRANCH   1  58
TORSDOF 19
ENDMDL
