MODEL 1
REMARK VINA RESULT:     -10.5      0.000      0.000
REMARK SMILES COc1ccc(-n2cccn2)c(C[N@H+]2C[C@H]3C(=O)NC[C@]3(C(=O)OCCOCCOCCOC(=O)c3ccc(-c4c5nc(c(-c6ccccc6)c6ccc([nH]6)c(-c6ccccc6)c6nc(c(-c7ccccc7)c7ccc4[nH]7)C=C6)C=C5)cc3)C2)c1
REMARK SMILES IDX 28 1 27 2 26 3 25 4 24 5 22 6 23 7 21 8 14 9 15 10 84 11
REMARK SMILES IDX 16 13 17 14 20 15 18 16 19 17 13 19 12 20 3 21 4 22 85 23
REMARK SMILES IDX 5 24 6 25 2 26 1 27 7 28 8 29 11 30 9 31 10 32 29 33 30 34
REMARK SMILES IDX 31 35 32 36 33 37 34 38 35 39 36 40 37 41 83 42 38 43 82 44
REMARK SMILES IDX 39 45 40 46 41 47 76 48 42 49 81 50 75 51 77 52 43 53 80 54
REMARK SMILES IDX 74 55 73 56 44 58 66 59 51 60 65 61 52 62 55 63 64 64 78 65
REMARK SMILES IDX 53 66 54 67 63 69 79 70 56 71 45 72 46 73 50 74 47 75 49 76
REMARK SMILES IDX 48 77 67 78 68 79 72 80 69 81 71 82 70 83 57 84 58 85 62 86
REMARK SMILES IDX 59 87 61 88 60 89
REMARK H PARENT 14 12 19 18 77 57 55 68
REMARK Flexibility Score: inf
ROOT
ATOM      1  C   UNL A   1      33.460  33.640  28.072  1.00  0.00     0.188 C 
ENDROOT
BRANCH   1   2
ATOM      2  O   UNL A   1      33.454  32.269  27.685  1.00  0.00    -0.376 OA
BRANCH   2   3
ATOM      3  C   UNL A   1      34.740  31.633  27.673  1.00  0.00     0.202 C 
BRANCH   3   4
ATOM      4  C   UNL A   1      34.724  30.119  27.412  1.00  0.00     0.261 C 
BRANCH   4   5
ATOM      5  O   UNL A   1      33.613  29.856  26.553  1.00  0.00    -0.463 OA
BRANCH   5   6
ATOM      6  C   UNL A   1      33.243  28.588  26.293  1.00  0.00     0.320 C 
ATOM      7  O   UNL A   1      32.980  27.768  27.162  1.00  0.00    -0.251 OA
BRANCH   6   8
ATOM      8  C   UNL A   1      33.214  28.433  24.750  1.00  0.00     0.151 C 
ATOM      9  N   UNL A   1      33.966  26.229  23.790  1.00  0.00    -0.329 N 
ATOM     10  C   UNL A   1      33.409  26.933  22.665  1.00  0.00     0.277 C 
ATOM     11  C   UNL A   1      33.506  26.903  24.998  1.00  0.00     0.284 C 
ATOM     12  H   UNL A   1      34.982  26.286  23.707  1.00  0.00     0.348 HD
ATOM     13  C   UNL A   1      32.734  28.140  23.284  1.00  0.00     0.158 C 
ATOM     14  C   UNL A   1      31.229  27.987  23.292  1.00  0.00     0.230 C 
ATOM     15  C   UNL A   1      31.938  29.434  24.876  1.00  0.00     0.141 C 
ATOM     16  O   UNL A   1      30.507  27.378  22.533  1.00  0.00    -0.275 OA
ATOM     17  N   UNL A   1      30.809  28.812  24.292  1.00  0.00    -0.354 N 
ATOM     18  H   UNL A   1      29.873  28.951  24.565  1.00  0.00     0.163 HD
BRANCH   9  19
ATOM     19  C   UNL A   1      33.830  24.755  23.816  1.00  0.00     0.301 C 
BRANCH  19  20
ATOM     20  C   UNL A   1      34.476  24.047  25.006  1.00  0.00     0.036 A 
ATOM     21  C   UNL A   1      36.584  23.181  25.903  1.00  0.00     0.119 A 
ATOM     22  C   UNL A   1      35.872  22.262  26.672  1.00  0.00     0.048 A 
ATOM     23  C   UNL A   1      35.889  24.057  25.069  1.00  0.00     0.058 A 
ATOM     24  C   UNL A   1      34.476  22.281  26.689  1.00  0.00     0.033 A 
ATOM     25  C   UNL A   1      33.779  23.215  25.910  1.00  0.00     0.074 A 
BRANCH  21  26
ATOM     26  O   UNL A   1      37.946  23.084  25.991  1.00  0.00    -0.497 OA
ATOM     27  C   UNL A   1      38.510  21.853  25.554  1.00  0.00     0.278 C 
ENDBRANCH  21  26
BRANCH  25  28
ATOM     28  N   UNL A   1      32.369  23.284  26.057  1.00  0.00    -0.240 N 
ATOM     29  C   UNL A   1      31.645  24.317  26.619  1.00  0.00     0.115 A 
ATOM     30  N   UNL A   1      31.561  22.266  25.671  1.00  0.00    -0.177 NA
ATOM     31  C   UNL A   1      30.332  23.909  26.654  1.00  0.00     0.042 A 
ATOM     32  C   UNL A   1      30.336  22.663  26.013  1.00  0.00     0.135 A 
ENDBRANCH  25  28
ENDBRANCH  19  20
ENDBRANCH   9  19
ENDBRANCH   6   8
ENDBRANCH   5   6
ENDBRANCH   4   5
ENDBRANCH   3   4
ENDBRANCH   2   3
ENDBRANCH   1   2
BRANCH   1  33
ATOM     33  C   UNL A   1      34.238  33.965  29.371  1.00  0.00     0.188 C 
BRANCH  33  34
ATOM     34  O   UNL A   1      33.968  33.327  30.614  1.00  0.00    -0.376 OA
BRANCH  34  35
ATOM     35  C   UNL A   1      34.997  32.988  31.536  1.00  0.00     0.202 C 
BRANCH  35  36
ATOM     36  C   UNL A   1      36.276  32.300  31.058  1.00  0.00     0.261 C 
BRANCH  36  37
ATOM     37  O   UNL A   1      36.058  30.966  30.635  1.00  0.00    -0.460 OA
BRANCH  37  38
ATOM     38  C   UNL A   1      36.620  30.051  31.451  1.00  0.00     0.338 C 
ATOM     39  O   UNL A   1      36.520  29.971  32.662  1.00  0.00    -0.246 OA
BRANCH  38  40
ATOM     40  C   UNL A   1      37.351  29.077  30.625  1.00  0.00     0.060 A 
ATOM     41  C   UNL A   1      37.964  28.019  31.300  1.00  0.00     0.016 A 
ATOM     42  C   UNL A   1      37.515  29.269  29.244  1.00  0.00     0.016 A 
ATOM     43  C   UNL A   1      38.953  27.317  30.654  1.00  0.00     0.010 A 
ATOM     44  C   UNL A   1      38.499  28.563  28.590  1.00  0.00     0.010 A 
ATOM     45  C   UNL A   1      39.290  27.707  29.355  1.00  0.00    -0.014 A 
BRANCH  45  46
ATOM     46  C   UNL A   1      40.675  27.509  28.982  1.00  0.00     0.031 A 
ATOM     47  C   UNL A   1      41.044  26.250  28.323  1.00  0.00     0.074 A 
ATOM     48  C   UNL A   1      41.560  28.501  29.207  1.00  0.00     0.049 A 
ATOM     49  N   UNL A   1      41.887  25.366  28.738  1.00  0.00    -0.248 NA
ATOM     50  C   UNL A   1      40.365  25.916  27.067  1.00  0.00     0.031 C 
ATOM     51  C   UNL A   1      41.267  29.893  29.578  1.00  0.00     0.029 A 
ATOM     52  N   UNL A   1      42.906  28.507  29.019  1.00  0.00    -0.354 N 
ATOM     53  C   UNL A   1      41.977  24.430  27.717  1.00  0.00     0.074 A 
ATOM     54  C   UNL A   1      40.935  24.749  26.771  1.00  0.00     0.031 C 
ATOM     55  C   UNL A   1      42.358  30.649  29.341  1.00  0.00     0.029 A 
ATOM     56  C   UNL A   1      43.443  29.780  28.921  1.00  0.00     0.049 A 
ATOM     57  H   UNL A   1      43.446  27.686  28.957  1.00  0.00     0.167 HD
ATOM     58  C   UNL A   1      43.038  23.589  27.604  1.00  0.00     0.031 A 
ATOM     59  C   UNL A   1      44.659  30.102  28.424  1.00  0.00     0.031 A 
ATOM     60  C   UNL A   1      43.806  23.488  28.815  1.00  0.00     0.049 A 
ATOM     61  C   UNL A   1      45.498  28.880  28.435  1.00  0.00     0.074 A 
ATOM     62  C   UNL A   1      43.523  23.123  30.116  1.00  0.00     0.029 A 
ATOM     63  N   UNL A   1      45.031  24.111  28.859  1.00  0.00    -0.354 N 
ATOM     64  N   UNL A   1      45.954  28.320  29.518  1.00  0.00    -0.248 NA
ATOM     65  C   UNL A   1      45.503  28.035  27.250  1.00  0.00     0.031 C 
ATOM     66  C   UNL A   1      44.358  23.946  30.926  1.00  0.00     0.029 A 
ATOM     67  C   UNL A   1      45.109  24.752  30.069  1.00  0.00     0.049 A 
ATOM     68  H   UNL A   1      45.720  24.099  28.157  1.00  0.00     0.167 HD
ATOM     69  C   UNL A   1      45.909  26.957  29.262  1.00  0.00     0.074 A 
ATOM     70  C   UNL A   1      45.743  26.849  27.817  1.00  0.00     0.031 C 
ATOM     71  C   UNL A   1      45.719  26.049  30.267  1.00  0.00     0.031 A 
BRANCH  58  72
ATOM     72  C   UNL A   1      43.563  23.133  26.273  1.00  0.00    -0.014 A 
ATOM     73  C   UNL A   1      43.558  21.764  25.965  1.00  0.00     0.009 A 
ATOM     74  C   UNL A   1      44.298  23.980  25.419  1.00  0.00     0.009 A 
ATOM     75  C   UNL A   1      44.276  21.267  24.872  1.00  0.00     0.001 A 
ATOM     76  C   UNL A   1      44.975  23.494  24.300  1.00  0.00     0.001 A 
ATOM     77  C   UNL A   1      44.982  22.132  24.039  1.00  0.00     0.000 A 
ENDBRANCH  58  72
BRANCH  59  78
ATOM     78  C   UNL A   1      45.023  31.334  27.690  1.00  0.00    -0.014 A 
ATOM     79  C   UNL A   1      44.473  31.607  26.432  1.00  0.00     0.009 A 
ATOM     80  C   UNL A   1      45.753  32.362  28.320  1.00  0.00     0.009 A 
ATOM     81  C   UNL A   1      44.633  32.867  25.836  1.00  0.00     0.001 A 
ATOM     82  C   UNL A   1      45.928  33.612  27.722  1.00  0.00     0.001 A 
ATOM     83  C   UNL A   1      45.355  33.868  26.483  1.00  0.00     0.000 A 
ENDBRANCH  59  78
BRANCH  71  84
ATOM     84  C   UNL A   1      45.827  26.527  31.695  1.00  0.00    -0.014 A 
ATOM     85  C   UNL A   1      44.723  27.023  32.410  1.00  0.00     0.009 A 
ATOM     86  C   UNL A   1      47.027  26.315  32.390  1.00  0.00     0.009 A 
ATOM     87  C   UNL A   1      44.828  27.333  33.769  1.00  0.00     0.001 A 
ATOM     88  C   UNL A   1      47.126  26.604  33.755  1.00  0.00     0.001 A 
ATOM     89  C   UNL A   1      46.028  27.118  34.442  1.00  0.00     0.000 A 
ENDBRANCH  71  84
ENDBRANCH  45  46
ENDBRANCH  38  40
ENDBRANCH  37  38
ENDBRANCH  36  37
ENDBRANCH  35  36
ENDBRANCH  34  35
ENDBRANCH  33  34
ENDBRANCH   1  33
TORSDOF 21
ENDMDL
MODEL 2
REMARK VINA RESULT:     -10.4      2.319      7.811
REMARK SMILES COc1ccc(-n2cccn2)c(C[N@H+]2C[C@H]3C(=O)NC[C@]3(C(=O)OCCOCCOCCOC(=O)c3ccc(-c4c5nc(c(-c6ccccc6)c6ccc([nH]6)c(-c6ccccc6)c6nc(c(-c7ccccc7)c7ccc4[nH]7)C=C6)C=C5)cc3)C2)c1
REMARK SMILES IDX 28 1 27 2 26 3 25 4 24 5 22 6 23 7 21 8 14 9 15 10 84 11
REMARK SMILES IDX 16 13 17 14 20 15 18 16 19 17 13 19 12 20 3 21 4 22 85 23
REMARK SMILES IDX 5 24 6 25 2 26 1 27 7 28 8 29 11 30 9 31 10 32 29 33 30 34
REMARK SMILES IDX 31 35 32 36 33 37 34 38 35 39 36 40 37 41 83 42 38 43 82 44
REMARK SMILES IDX 39 45 40 46 41 47 76 48 42 49 81 50 75 51 77 52 43 53 80 54
REMARK SMILES IDX 74 55 73 56 44 58 66 59 51 60 65 61 52 62 55 63 64 64 78 65
REMARK SMILES IDX 53 66 54 67 63 69 79 70 56 71 45 72 46 73 50 74 47 75 49 76
REMARK SMILES IDX 48 77 67 78 68 79 72 80 69 81 71 82 70 83 57 84 58 85 62 86
REMARK SMILES IDX 59 87 61 88 60 89
REMARK H PARENT 14 12 19 18 77 57 55 68
REMARK Flexibility Score: inf
ROOT
ATOM      1  C   UNL A   1      38.460  22.075  25.761  1.00  0.00     0.188 C 
ENDROOT
BRANCH   1   2
ATOM      2  O   UNL A   1      37.586  21.892  24.651  1.00  0.00    -0.376 OA
BRANCH   2   3
ATOM      3  C   UNL A   1      36.464  22.785  24.604  1.00  0.00     0.202 C 
BRANCH   3   4
ATOM      4  C   UNL A   1      35.114  22.168  24.998  1.00  0.00     0.261 C 
BRANCH   4   5
ATOM      5  O   UNL A   1      34.237  22.338  23.883  1.00  0.00    -0.463 OA
BRANCH   5   6
ATOM      6  C   UNL A   1      32.913  22.488  24.078  1.00  0.00     0.320 C 
ATOM      7  O   UNL A   1      32.062  21.928  23.401  1.00  0.00    -0.251 OA
BRANCH   6   8
ATOM      8  C   UNL A   1      32.740  23.451  25.281  1.00  0.00     0.151 C 
ATOM      9  N   UNL A   1      33.308  25.878  24.918  1.00  0.00    -0.329 N 
ATOM     10  C   UNL A   1      32.683  25.852  26.215  1.00  0.00     0.277 C 
ATOM     11  C   UNL A   1      32.987  24.621  24.253  1.00  0.00     0.284 C 
ATOM     12  H   UNL A   1      34.313  25.962  25.071  1.00  0.00     0.348 HD
ATOM     13  C   UNL A   1      32.119  24.449  26.322  1.00  0.00     0.158 C 
ATOM     14  C   UNL A   1      30.615  24.446  26.154  1.00  0.00     0.230 C 
ATOM     15  C   UNL A   1      31.524  22.437  25.658  1.00  0.00     0.141 C 
ATOM     16  O   UNL A   1      29.803  25.305  26.419  1.00  0.00    -0.275 OA
ATOM     17  N   UNL A   1      30.322  23.178  25.747  1.00  0.00    -0.354 N 
ATOM     18  H   UNL A   1      29.421  22.835  25.547  1.00  0.00     0.163 HD
BRANCH   9  19
ATOM     19  C   UNL A   1      33.111  27.085  24.084  1.00  0.00     0.301 C 
BRANCH  19  20
ATOM     20  C   UNL A   1      32.930  28.398  24.845  1.00  0.00     0.036 A 
ATOM     21  C   UNL A   1      33.802  29.781  26.668  1.00  0.00     0.119 A 
ATOM     22  C   UNL A   1      32.544  30.357  26.826  1.00  0.00     0.048 A 
ATOM     23  C   UNL A   1      33.988  28.801  25.692  1.00  0.00     0.058 A 
ATOM     24  C   UNL A   1      31.502  30.035  25.955  1.00  0.00     0.033 A 
ATOM     25  C   UNL A   1      31.711  29.108  24.924  1.00  0.00     0.074 A 
BRANCH  21  26
ATOM     26  O   UNL A   1      34.751  30.196  27.563  1.00  0.00    -0.497 OA
ATOM     27  C   UNL A   1      34.737  31.581  27.885  1.00  0.00     0.278 C 
ENDBRANCH  21  26
BRANCH  25  28
ATOM     28  N   UNL A   1      30.666  28.910  23.985  1.00  0.00    -0.240 N 
ATOM     29  C   UNL A   1      30.271  29.781  22.988  1.00  0.00     0.115 A 
ATOM     30  N   UNL A   1      29.889  27.798  24.007  1.00  0.00    -0.177 NA
ATOM     31  C   UNL A   1      29.157  29.233  22.399  1.00  0.00     0.042 A 
ATOM     32  C   UNL A   1      29.000  27.992  23.033  1.00  0.00     0.135 A 
ENDBRANCH  25  28
ENDBRANCH  19  20
ENDBRANCH   9  19
ENDBRANCH   6   8
ENDBRANCH   5   6
ENDBRANCH   4   5
ENDBRANCH   3   4
ENDBRANCH   2   3
ENDBRANCH   1   2
BRANCH   1  33
ATOM     33  C   UNL A   1      39.478  20.934  26.007  1.00  0.00     0.188 C 
BRANCH  33  34
ATOM     34  O   UNL A   1      40.667  21.109  26.768  1.00  0.00    -0.376 OA
BRANCH  34  35
ATOM     35  C   UNL A   1      41.387  20.013  27.319  1.00  0.00     0.202 C 
BRANCH  35  36
ATOM     36  C   UNL A   1      42.644  19.481  26.629  1.00  0.00     0.261 C 
BRANCH  36  37
ATOM     37  O   UNL A   1      42.728  19.861  25.268  1.00  0.00    -0.460 OA
BRANCH  37  38
ATOM     38  C   UNL A   1      43.992  19.868  24.795  1.00  0.00     0.338 C 
ATOM     39  O   UNL A   1      44.621  18.931  24.340  1.00  0.00    -0.246 OA
BRANCH  38  40
ATOM     40  C   UNL A   1      44.501  21.247  24.849  1.00  0.00     0.060 A 
ATOM     41  C   UNL A   1      45.668  21.455  25.588  1.00  0.00     0.016 A 
ATOM     42  C   UNL A   1      43.786  22.313  24.280  1.00  0.00     0.016 A 
ATOM     43  C   UNL A   1      45.970  22.735  25.988  1.00  0.00     0.010 A 
ATOM     44  C   UNL A   1      44.088  23.597  24.670  1.00  0.00     0.010 A 
ATOM     45  C   UNL A   1      45.086  23.757  25.632  1.00  0.00    -0.014 A 
BRANCH  45  46
ATOM     46  C   UNL A   1      44.987  24.853  26.572  1.00  0.00     0.031 A 
ATOM     47  C   UNL A   1      46.109  25.795  26.662  1.00  0.00     0.074 A 
ATOM     48  C   UNL A   1      43.854  24.998  27.290  1.00  0.00     0.049 A 
ATOM     49  N   UNL A   1      46.833  26.056  27.697  1.00  0.00    -0.248 NA
ATOM     50  C   UNL A   1      46.500  26.507  25.440  1.00  0.00     0.031 C 
ATOM     51  C   UNL A   1      42.570  24.314  27.081  1.00  0.00     0.029 A 
ATOM     52  N   UNL A   1      43.574  25.890  28.276  1.00  0.00    -0.354 N 
ATOM     53  C   UNL A   1      47.674  27.090  27.314  1.00  0.00     0.074 A 
ATOM     54  C   UNL A   1      47.513  27.246  25.888  1.00  0.00     0.031 C 
ATOM     55  C   UNL A   1      41.603  24.988  27.734  1.00  0.00     0.029 A 
ATOM     56  C   UNL A   1      42.217  26.065  28.491  1.00  0.00     0.049 A 
ATOM     57  H   UNL A   1      44.268  26.367  28.787  1.00  0.00     0.167 HD
ATOM     58  C   UNL A   1      48.282  27.898  28.221  1.00  0.00     0.031 A 
ATOM     59  C   UNL A   1      41.635  27.090  29.155  1.00  0.00     0.031 A 
ATOM     60  C   UNL A   1      48.299  27.340  29.546  1.00  0.00     0.049 A 
ATOM     61  C   UNL A   1      42.667  27.732  30.002  1.00  0.00     0.074 A 
ATOM     62  C   UNL A   1      48.785  26.173  30.102  1.00  0.00     0.029 A 
ATOM     63  N   UNL A   1      47.451  27.878  30.485  1.00  0.00    -0.354 N 
ATOM     64  N   UNL A   1      43.187  27.181  31.061  1.00  0.00    -0.248 NA
ATOM     65  C   UNL A   1      43.427  28.842  29.444  1.00  0.00     0.031 C 
ATOM     66  C   UNL A   1      47.861  25.837  31.133  1.00  0.00     0.029 A 
ATOM     67  C   UNL A   1      46.877  26.826  31.152  1.00  0.00     0.049 A 
ATOM     68  H   UNL A   1      47.288  28.834  30.648  1.00  0.00     0.167 HD
ATOM     69  C   UNL A   1      44.516  27.581  31.057  1.00  0.00     0.074 A 
ATOM     70  C   UNL A   1      44.572  28.694  30.115  1.00  0.00     0.031 C 
ATOM     71  C   UNL A   1      45.498  26.794  31.592  1.00  0.00     0.031 A 
BRANCH  58  72
ATOM     72  C   UNL A   1      48.551  29.350  27.952  1.00  0.00    -0.014 A 
ATOM     73  C   UNL A   1      47.471  30.237  27.828  1.00  0.00     0.009 A 
ATOM     74  C   UNL A   1      49.820  29.825  27.563  1.00  0.00     0.009 A 
ATOM     75  C   UNL A   1      47.651  31.526  27.313  1.00  0.00     0.001 A 
ATOM     76  C   UNL A   1      50.011  31.126  27.095  1.00  0.00     0.001 A 
ATOM     77  C   UNL A   1      48.920  31.970  26.950  1.00  0.00     0.000 A 
ENDBRANCH  58  72
BRANCH  59  78
ATOM     78  C   UNL A   1      40.316  27.698  28.874  1.00  0.00    -0.014 A 
ATOM     79  C   UNL A   1      39.282  27.634  29.816  1.00  0.00     0.009 A 
ATOM     80  C   UNL A   1      40.131  28.539  27.758  1.00  0.00     0.009 A 
ATOM     81  C   UNL A   1      38.116  28.396  29.655  1.00  0.00     0.001 A 
ATOM     82  C   UNL A   1      38.964  29.287  27.587  1.00  0.00     0.001 A 
ATOM     83  C   UNL A   1      37.960  29.224  28.544  1.00  0.00     0.000 A 
ENDBRANCH  59  78
BRANCH  71  84
ATOM     84  C   UNL A   1      45.089  25.606  32.428  1.00  0.00    -0.014 A 
ATOM     85  C   UNL A   1      44.991  25.667  33.828  1.00  0.00     0.009 A 
ATOM     86  C   UNL A   1      44.629  24.449  31.780  1.00  0.00     0.009 A 
ATOM     87  C   UNL A   1      44.482  24.590  34.561  1.00  0.00     0.001 A 
ATOM     88  C   UNL A   1      44.100  23.381  32.511  1.00  0.00     0.001 A 
ATOM     89  C   UNL A   1      44.032  23.449  33.901  1.00  0.00     0.000 A 
ENDBRANCH  71  84
ENDBRANCH  45  46
ENDBRANCH  38  40
ENDBRANCH  37  38
ENDBRANCH  36  37
ENDBRANCH  35  36
ENDBRANCH  34  35
ENDBRANCH  33  34
ENDBRANCH   1  33
TORSDOF 21
ENDMDL
MODEL 3
REMARK VINA RESULT:      -9.8      2.277      6.174
REMARK SMILES COc1ccc(-n2cccn2)c(C[N@H+]2C[C@H]3C(=O)NC[C@]3(C(=O)OCCOCCOCCOC(=O)c3ccc(-c4c5nc(c(-c6ccccc6)c6ccc([nH]6)c(-c6ccccc6)c6nc(c(-c7ccccc7)c7ccc4[nH]7)C=C6)C=C5)cc3)C2)c1
REMARK SMILES IDX 28 1 27 2 26 3 25 4 24 5 22 6 23 7 21 8 14 9 15 10 84 11
REMARK SMILES IDX 16 13 17 14 20 15 18 16 19 17 13 19 12 20 3 21 4 22 85 23
REMARK SMILES IDX 5 24 6 25 2 26 1 27 7 28 8 29 11 30 9 31 10 32 29 33 30 34
REMARK SMILES IDX 31 35 32 36 33 37 34 38 35 39 36 40 37 41 83 42 38 43 82 44
REMARK SMILES IDX 39 45 40 46 41 47 76 48 42 49 81 50 75 51 77 52 43 53 80 54
REMARK SMILES IDX 74 55 73 56 44 58 66 59 51 60 65 61 52 62 55 63 64 64 78 65
REMARK SMILES IDX 53 66 54 67 63 69 79 70 56 71 45 72 46 73 50 74 47 75 49 76
REMARK SMILES IDX 48 77 67 78 68 79 72 80 69 81 71 82 70 83 57 84 58 85 62 86
REMARK SMILES IDX 59 87 61 88 60 89
REMARK H PARENT 14 12 19 18 77 57 55 68
REMARK Flexibility Score: inf
ROOT
ATOM      1  C   UNL A   1      31.313  29.624  25.453  1.00  0.00     0.188 C 
ENDROOT
BRANCH   1   2
ATOM      2  O   UNL A   1      30.641  30.554  24.608  1.00  0.00    -0.376 OA
BRANCH   2   3
ATOM      3  C   UNL A   1      29.746  29.972  23.649  1.00  0.00     0.202 C 
BRANCH   3   4
ATOM      4  C   UNL A   1      30.407  29.445  22.367  1.00  0.00     0.261 C 
BRANCH   4   5
ATOM      5  O   UNL A   1      29.980  28.091  22.204  1.00  0.00    -0.463 OA
BRANCH   5   6
ATOM      6  C   UNL A   1      30.376  27.146  23.077  1.00  0.00     0.320 C 
ATOM      7  O   UNL A   1      29.616  26.573  23.846  1.00  0.00    -0.251 OA
BRANCH   6   8
ATOM      8  C   UNL A   1      31.903  26.957  22.877  1.00  0.00     0.151 C 
ATOM      9  N   UNL A   1      33.273  26.350  24.901  1.00  0.00    -0.329 N 
ATOM     10  C   UNL A   1      34.187  26.202  23.799  1.00  0.00     0.277 C 
ATOM     11  C   UNL A   1      31.925  26.390  24.348  1.00  0.00     0.284 C 
ATOM     12  H   UNL A   1      33.502  27.229  25.365  1.00  0.00     0.348 HD
ATOM     13  C   UNL A   1      33.304  26.319  22.572  1.00  0.00     0.158 C 
ATOM     14  C   UNL A   1      33.088  24.972  21.918  1.00  0.00     0.230 C 
ATOM     15  C   UNL A   1      31.440  26.431  21.408  1.00  0.00     0.141 C 
ATOM     16  O   UNL A   1      33.808  23.997  21.894  1.00  0.00    -0.275 OA
ATOM     17  N   UNL A   1      31.928  25.116  21.218  1.00  0.00    -0.354 N 
ATOM     18  H   UNL A   1      31.498  24.419  20.672  1.00  0.00     0.163 HD
BRANCH   9  19
ATOM     19  C   UNL A   1      33.439  25.441  26.058  1.00  0.00     0.301 C 
BRANCH  19  20
ATOM     20  C   UNL A   1      33.045  23.983  25.821  1.00  0.00     0.036 A 
ATOM     21  C   UNL A   1      31.244  22.341  26.068  1.00  0.00     0.119 A 
ATOM     22  C   UNL A   1      32.191  21.320  26.116  1.00  0.00     0.048 A 
ATOM     23  C   UNL A   1      31.672  23.662  25.933  1.00  0.00     0.058 A 
ATOM     24  C   UNL A   1      33.546  21.598  25.930  1.00  0.00     0.033 A 
ATOM     25  C   UNL A   1      33.967  22.918  25.716  1.00  0.00     0.074 A 
BRANCH  21  26
ATOM     26  O   UNL A   1      29.946  21.943  26.233  1.00  0.00    -0.497 OA
ATOM     27  C   UNL A   1      29.220  22.604  27.262  1.00  0.00     0.278 C 
ENDBRANCH  21  26
BRANCH  25  28
ATOM     28  N   UNL A   1      35.334  23.138  25.404  1.00  0.00    -0.240 N 
ATOM     29  C   UNL A   1      36.344  23.458  26.288  1.00  0.00     0.115 A 
ATOM     30  N   UNL A   1      35.790  23.087  24.128  1.00  0.00    -0.177 NA
ATOM     31  C   UNL A   1      37.473  23.688  25.538  1.00  0.00     0.042 A 
ATOM     32  C   UNL A   1      37.083  23.396  24.223  1.00  0.00     0.135 A 
ENDBRANCH  25  28
ENDBRANCH  19  20
ENDBRANCH   9  19
ENDBRANCH   6   8
ENDBRANCH   5   6
ENDBRANCH   4   5
ENDBRANCH   3   4
ENDBRANCH   2   3
ENDBRANCH   1   2
BRANCH   1  33
ATOM     33  C   UNL A   1      32.809  29.922  25.720  1.00  0.00     0.188 C 
BRANCH  33  34
ATOM     34  O   UNL A   1      33.640  29.068  26.497  1.00  0.00    -0.376 OA
BRANCH  34  35
ATOM     35  C   UNL A   1      34.638  29.571  27.376  1.00  0.00     0.202 C 
BRANCH  35  36
ATOM     36  C   UNL A   1      34.576  31.012  27.883  1.00  0.00     0.261 C 
BRANCH  36  37
ATOM     37  O   UNL A   1      35.856  31.564  28.130  1.00  0.00    -0.460 OA
BRANCH  37  38
ATOM     38  C   UNL A   1      36.434  31.085  29.252  1.00  0.00     0.338 C 
ATOM     39  O   UNL A   1      35.943  30.992  30.362  1.00  0.00    -0.246 OA
BRANCH  38  40
ATOM     40  C   UNL A   1      37.783  30.606  28.911  1.00  0.00     0.060 A 
ATOM     41  C   UNL A   1      37.859  29.473  28.098  1.00  0.00     0.016 A 
ATOM     42  C   UNL A   1      38.929  31.195  29.471  1.00  0.00     0.016 A 
ATOM     43  C   UNL A   1      39.040  28.770  28.065  1.00  0.00     0.010 A 
ATOM     44  C   UNL A   1      40.116  30.499  29.433  1.00  0.00     0.010 A 
ATOM     45  C   UNL A   1      40.098  29.231  28.852  1.00  0.00    -0.014 A 
BRANCH  45  46
ATOM     46  C   UNL A   1      40.986  28.210  29.366  1.00  0.00     0.031 A 
ATOM     47  C   UNL A   1      41.246  28.178  30.810  1.00  0.00     0.074 A 
ATOM     48  C   UNL A   1      41.501  27.302  28.512  1.00  0.00     0.049 A 
ATOM     49  N   UNL A   1      42.384  28.304  31.405  1.00  0.00    -0.248 NA
ATOM     50  C   UNL A   1      40.095  28.022  31.705  1.00  0.00     0.031 C 
ATOM     51  C   UNL A   1      41.091  27.050  27.122  1.00  0.00     0.029 A 
ATOM     52  N   UNL A   1      42.409  26.319  28.751  1.00  0.00    -0.354 N 
ATOM     53  C   UNL A   1      42.128  28.081  32.750  1.00  0.00     0.074 A 
ATOM     54  C   UNL A   1      40.693  28.034  32.896  1.00  0.00     0.031 C 
ATOM     55  C   UNL A   1      41.560  25.845  26.739  1.00  0.00     0.029 A 
ATOM     56  C   UNL A   1      42.389  25.308  27.805  1.00  0.00     0.049 A 
ATOM     57  H   UNL A   1      43.020  26.325  29.523  1.00  0.00     0.167 HD
ATOM     58  C   UNL A   1      43.109  27.730  33.622  1.00  0.00     0.031 A 
ATOM     59  C   UNL A   1      42.926  24.074  27.936  1.00  0.00     0.031 A 
ATOM     60  C   UNL A   1      44.428  28.008  33.123  1.00  0.00     0.049 A 
ATOM     61  C   UNL A   1      43.923  24.123  29.032  1.00  0.00     0.074 A 
ATOM     62  C   UNL A   1      45.080  29.143  32.682  1.00  0.00     0.029 A 
ATOM     63  N   UNL A   1      45.201  26.949  32.710  1.00  0.00    -0.354 N 
ATOM     64  N   UNL A   1      45.064  24.744  28.951  1.00  0.00    -0.248 NA
ATOM     65  C   UNL A   1      43.479  23.813  30.384  1.00  0.00     0.031 C 
ATOM     66  C   UNL A   1      45.947  28.698  31.644  1.00  0.00     0.029 A 
ATOM     67  C   UNL A   1      45.782  27.318  31.523  1.00  0.00     0.049 A 
ATOM     68  H   UNL A   1      45.316  26.090  33.176  1.00  0.00     0.167 HD
ATOM     69  C   UNL A   1      45.276  25.269  30.218  1.00  0.00     0.074 A 
ATOM     70  C   UNL A   1      44.336  24.562  31.082  1.00  0.00     0.031 C 
ATOM     71  C   UNL A   1      45.983  26.425  30.402  1.00  0.00     0.031 A 
BRANCH  58  72
ATOM     72  C   UNL A   1      42.862  26.813  34.784  1.00  0.00    -0.014 A 
ATOM     73  C   UNL A   1      43.173  25.450  34.663  1.00  0.00     0.009 A 
ATOM     74  C   UNL A   1      42.096  27.199  35.902  1.00  0.00     0.009 A 
ATOM     75  C   UNL A   1      42.715  24.518  35.601  1.00  0.00     0.001 A 
ATOM     76  C   UNL A   1      41.679  26.280  36.866  1.00  0.00     0.001 A 
ATOM     77  C   UNL A   1      41.971  24.933  36.702  1.00  0.00     0.000 A 
ENDBRANCH  58  72
BRANCH  59  78
ATOM     78  C   UNL A   1      42.415  22.814  27.354  1.00  0.00    -0.014 A 
ATOM     79  C   UNL A   1      43.151  22.124  26.382  1.00  0.00     0.009 A 
ATOM     80  C   UNL A   1      41.295  22.162  27.909  1.00  0.00     0.009 A 
ATOM     81  C   UNL A   1      42.788  20.826  25.995  1.00  0.00     0.001 A 
ATOM     82  C   UNL A   1      40.923  20.876  27.513  1.00  0.00     0.001 A 
ATOM     83  C   UNL A   1      41.678  20.203  26.563  1.00  0.00     0.000 A 
ENDBRANCH  59  78
BRANCH  71  84
ATOM     84  C   UNL A   1      46.761  26.982  29.234  1.00  0.00    -0.014 A 
ATOM     85  C   UNL A   1      48.096  26.626  28.979  1.00  0.00     0.009 A 
ATOM     86  C   UNL A   1      46.083  27.748  28.273  1.00  0.00     0.009 A 
ATOM     87  C   UNL A   1      48.745  27.056  27.817  1.00  0.00     0.001 A 
ATOM     88  C   UNL A   1      46.724  28.159  27.100  1.00  0.00     0.001 A 
ATOM     89  C   UNL A   1      48.056  27.817  26.876  1.00  0.00     0.000 A 
ENDBRANCH  71  84
ENDBRANCH  45  46
ENDBRANCH  38  40
ENDBRANCH  37  38
ENDBRANCH  36  37
ENDBRANCH  35  36
ENDBRANCH  34  35
ENDBRANCH  33  34
ENDBRANCH   1  33
TORSDOF 21
ENDMDL
