MODEL 1
REMARK VINA RESULT:      -8.9      0.000      0.000
REMARK SMILES CC[N@H+](CC(C)(C)C(=O)OCCOCCOCCOC(=O)c1ccc(-c2c3nc(c(-c4ccccc4)c4ccc([nH]4)c(-c4ccccc4)c4nc(c(-c5ccccc5)c5ccc2[nH]5)C=C4)C=C3)cc1)[C@H]1CC[NH2+]C1
REMARK SMILES IDX 14 1 13 2 12 3 11 4 10 5 8 6 9 7 5 8 6 9 7 10 4 11 3 12 2 14
REMARK SMILES IDX 1 15 70 16 71 17 74 18 72 19 73 20 15 23 16 24 17 25 18 26
REMARK SMILES IDX 19 27 20 28 21 29 22 30 23 31 69 32 24 33 68 34 25 35 26 36
REMARK SMILES IDX 27 37 62 38 28 39 67 40 61 41 63 42 29 43 66 44 60 45 59 46
REMARK SMILES IDX 30 48 52 49 37 50 51 51 38 52 41 53 50 54 64 55 39 56 40 57
REMARK SMILES IDX 49 59 65 60 42 61 31 62 32 63 36 64 33 65 35 66 34 67 53 68
REMARK SMILES IDX 54 69 58 70 55 71 57 72 56 73 43 74 44 75 48 76 45 77 47 78
REMARK SMILES IDX 46 79
REMARK H PARENT 3 13 73 21 73 22 63 47 41 58
REMARK Flexibility Score: inf
ROOT
ATOM      1  C   UNL A   1      33.299  28.263  26.057  1.00  0.00     0.188 C 
ENDROOT
BRANCH   1   2
ATOM      2  O   UNL A   1      33.053  26.927  25.640  1.00  0.00    -0.376 OA
BRANCH   2   3
ATOM      3  C   UNL A   1      33.181  26.667  24.245  1.00  0.00     0.202 C 
BRANCH   3   4
ATOM      4  C   UNL A   1      34.013  25.433  23.905  1.00  0.00     0.261 C 
BRANCH   4   5
ATOM      5  O   UNL A   1      33.192  24.477  23.207  1.00  0.00    -0.463 OA
BRANCH   5   6
ATOM      6  C   UNL A   1      33.646  23.213  23.033  1.00  0.00     0.317 C 
ATOM      7  O   UNL A   1      34.746  22.939  22.575  1.00  0.00    -0.251 OA
BRANCH   6   8
ATOM      8  C   UNL A   1      32.575  22.199  23.458  1.00  0.00     0.111 C 
ATOM      9  C   UNL A   1      32.150  21.390  22.221  1.00  0.00     0.029 C 
ATOM     10  C   UNL A   1      31.332  22.996  23.951  1.00  0.00     0.029 C 
BRANCH   8  11
ATOM     11  C   UNL A   1      33.052  21.250  24.609  1.00  0.00     0.280 C 
BRANCH  11  12
ATOM     12  N   UNL A   1      34.066  20.219  24.282  1.00  0.00    -0.327 N 
ATOM     13  H   UNL A   1      34.233  20.294  23.279  1.00  0.00     0.348 HD
BRANCH  12  14
ATOM     14  C   UNL A   1      35.334  20.489  24.999  1.00  0.00     0.259 C 
ATOM     15  C   UNL A   1      35.252  21.529  26.113  1.00  0.00     0.071 C 
ENDBRANCH  12  14
BRANCH  12  16
ATOM     16  C   UNL A   1      33.605  18.823  24.484  1.00  0.00     0.245 C 
ATOM     17  C   UNL A   1      34.639  17.710  24.319  1.00  0.00     0.132 C 
ATOM     18  C   UNL A   1      32.900  18.437  25.809  1.00  0.00     0.326 C 
ATOM     19  C   UNL A   1      33.899  16.509  24.879  1.00  0.00     0.267 C 
ATOM     20  N   UNL A   1      33.215  17.015  26.072  1.00  0.00    -0.341 N 
ATOM     21  H   UNL A   1      33.823  16.935  26.887  1.00  0.00     0.346 HD
ATOM     22  H   UNL A   1      32.368  16.481  26.264  1.00  0.00     0.346 HD
ENDBRANCH  12  16
ENDBRANCH  11  12
ENDBRANCH   8  11
ENDBRANCH   6   8
ENDBRANCH   5   6
ENDBRANCH   4   5
ENDBRANCH   3   4
ENDBRANCH   2   3
ENDBRANCH   1   2
BRANCH   1  23
ATOM     23  C   UNL A   1      33.216  29.327  24.941  1.00  0.00     0.188 C 
BRANCH  23  24
ATOM     24  O   UNL A   1      32.003  30.024  24.700  1.00  0.00    -0.376 OA
BRANCH  24  25
ATOM     25  C   UNL A   1      31.227  30.455  25.808  1.00  0.00     0.202 C 
BRANCH  25  26
ATOM     26  C   UNL A   1      31.624  31.766  26.494  1.00  0.00     0.261 C 
BRANCH  26  27
ATOM     27  O   UNL A   1      32.571  31.603  27.565  1.00  0.00    -0.460 OA
BRANCH  27  28
ATOM     28  C   UNL A   1      33.495  32.584  27.675  1.00  0.00     0.338 C 
ATOM     29  O   UNL A   1      33.300  33.797  27.672  1.00  0.00    -0.246 OA
BRANCH  28  30
ATOM     30  C   UNL A   1      34.814  32.006  27.992  1.00  0.00     0.060 A 
ATOM     31  C   UNL A   1      34.900  30.616  28.160  1.00  0.00     0.016 A 
ATOM     32  C   UNL A   1      35.932  32.815  28.197  1.00  0.00     0.016 A 
ATOM     33  C   UNL A   1      36.098  30.034  28.563  1.00  0.00     0.010 A 
ATOM     34  C   UNL A   1      37.127  32.232  28.637  1.00  0.00     0.010 A 
ATOM     35  C   UNL A   1      37.203  30.845  28.852  1.00  0.00    -0.014 A 
BRANCH  35  36
ATOM     36  C   UNL A   1      38.358  30.255  29.570  1.00  0.00     0.031 A 
ATOM     37  C   UNL A   1      38.493  30.516  31.045  1.00  0.00     0.074 A 
ATOM     38  C   UNL A   1      39.244  29.467  28.937  1.00  0.00     0.049 A 
ATOM     39  N   UNL A   1      39.409  30.097  31.881  1.00  0.00    -0.248 NA
ATOM     40  C   UNL A   1      37.463  31.372  31.656  1.00  0.00     0.031 C 
ATOM     41  C   UNL A   1      39.199  29.114  27.521  1.00  0.00     0.029 A 
ATOM     42  N   UNL A   1      40.336  28.793  29.421  1.00  0.00    -0.354 N 
ATOM     43  C   UNL A   1      39.087  30.670  33.104  1.00  0.00     0.074 A 
ATOM     44  C   UNL A   1      37.885  31.449  32.908  1.00  0.00     0.031 C 
ATOM     45  C   UNL A   1      40.185  28.236  27.262  1.00  0.00     0.029 A 
ATOM     46  C   UNL A   1      40.955  28.003  28.483  1.00  0.00     0.049 A 
ATOM     47  H   UNL A   1      40.646  28.866  30.353  1.00  0.00     0.167 HD
ATOM     48  C   UNL A   1      39.753  30.583  34.280  1.00  0.00     0.031 A 
ATOM     49  C   UNL A   1      42.018  27.185  28.604  1.00  0.00     0.031 A 
ATOM     50  C   UNL A   1      40.961  29.829  34.473  1.00  0.00     0.049 A 
ATOM     51  C   UNL A   1      42.736  27.097  29.926  1.00  0.00     0.074 A 
ATOM     52  C   UNL A   1      41.731  29.710  35.617  1.00  0.00     0.029 A 
ATOM     53  N   UNL A   1      41.576  29.067  33.493  1.00  0.00    -0.354 N 
ATOM     54  N   UNL A   1      42.436  27.663  31.071  1.00  0.00    -0.248 NA
ATOM     55  C   UNL A   1      43.956  26.275  29.963  1.00  0.00     0.031 C 
ATOM     56  C   UNL A   1      42.838  28.911  35.314  1.00  0.00     0.029 A 
ATOM     57  C   UNL A   1      42.728  28.491  33.999  1.00  0.00     0.049 A 
ATOM     58  H   UNL A   1      41.243  28.953  32.574  1.00  0.00     0.167 HD
ATOM     59  C   UNL A   1      43.430  27.270  31.960  1.00  0.00     0.074 A 
ATOM     60  C   UNL A   1      44.318  26.386  31.234  1.00  0.00     0.031 C 
ATOM     61  C   UNL A   1      43.605  27.624  33.256  1.00  0.00     0.031 A 
BRANCH  48  62
ATOM     62  C   UNL A   1      39.225  31.396  35.425  1.00  0.00    -0.014 A 
ATOM     63  C   UNL A   1      39.640  32.719  35.644  1.00  0.00     0.009 A 
ATOM     64  C   UNL A   1      38.287  30.823  36.299  1.00  0.00     0.009 A 
ATOM     65  C   UNL A   1      39.148  33.440  36.735  1.00  0.00     0.001 A 
ATOM     66  C   UNL A   1      37.779  31.553  37.374  1.00  0.00     0.001 A 
ATOM     67  C   UNL A   1      38.218  32.858  37.596  1.00  0.00     0.000 A 
ENDBRANCH  48  62
BRANCH  49  68
ATOM     68  C   UNL A   1      42.485  26.377  27.445  1.00  0.00    -0.014 A 
ATOM     69  C   UNL A   1      42.008  25.069  27.260  1.00  0.00     0.009 A 
ATOM     70  C   UNL A   1      43.426  26.889  26.540  1.00  0.00     0.009 A 
ATOM     71  C   UNL A   1      42.482  24.284  26.206  1.00  0.00     0.001 A 
ATOM     72  C   UNL A   1      43.875  26.113  25.469  1.00  0.00     0.001 A 
ATOM     73  C   UNL A   1      43.410  24.809  25.309  1.00  0.00     0.000 A 
ENDBRANCH  49  68
BRANCH  61  74
ATOM     74  C   UNL A   1      44.804  27.065  33.970  1.00  0.00    -0.014 A 
ATOM     75  C   UNL A   1      44.750  25.810  34.596  1.00  0.00     0.009 A 
ATOM     76  C   UNL A   1      46.015  27.774  33.968  1.00  0.00     0.009 A 
ATOM     77  C   UNL A   1      45.879  25.290  35.232  1.00  0.00     0.001 A 
ATOM     78  C   UNL A   1      47.148  27.241  34.583  1.00  0.00     0.001 A 
ATOM     79  C   UNL A   1      47.076  26.003  35.221  1.00  0.00     0.000 A 
ENDBRANCH  61  74
ENDBRANCH  35  36
ENDBRANCH  28  30
ENDBRANCH  27  28
ENDBRANCH  26  27
ENDBRANCH  25  26
ENDBRANCH  24  25
ENDBRANCH  23  24
ENDBRANCH   1  23
TORSDOF 21
ENDMDL
MODEL 2
REMARK VINA RESULT:      -8.8      0.730      6.033
REMARK SMILES CC[N@H+](CC(C)(C)C(=O)OCCOCCOCCOC(=O)c1ccc(-c2c3nc(c(-c4ccccc4)c4ccc([nH]4)c(-c4ccccc4)c4nc(c(-c5ccccc5)c5ccc2[nH]5)C=C4)C=C3)cc1)[C@H]1CC[NH2+]C1
REMARK SMILES IDX 14 1 13 2 12 3 11 4 10 5 8 6 9 7 5 8 6 9 7 10 4 11 3 12 2 14
REMARK SMILES IDX 1 15 70 16 71 17 74 18 72 19 73 20 15 23 16 24 17 25 18 26
REMARK SMILES IDX 19 27 20 28 21 29 22 30 23 31 69 32 24 33 68 34 25 35 26 36
REMARK SMILES IDX 27 37 62 38 28 39 67 40 61 41 63 42 29 43 66 44 60 45 59 46
REMARK SMILES IDX 30 48 52 49 37 50 51 51 38 52 41 53 50 54 64 55 39 56 40 57
REMARK SMILES IDX 49 59 65 60 42 61 31 62 32 63 36 64 33 65 35 66 34 67 53 68
REMARK SMILES IDX 54 69 58 70 55 71 57 72 56 73 43 74 44 75 48 76 45 77 47 78
REMARK SMILES IDX 46 79
REMARK H PARENT 3 13 73 21 73 22 63 47 41 58
REMARK Flexibility Score: inf
ROOT
ATOM      1  C   UNL A   1      33.276  28.192  25.855  1.00  0.00     0.188 C 
ENDROOT
BRANCH   1   2
ATOM      2  O   UNL A   1      33.013  26.823  25.577  1.00  0.00    -0.376 OA
BRANCH   2   3
ATOM      3  C   UNL A   1      32.853  26.476  24.203  1.00  0.00     0.202 C 
BRANCH   3   4
ATOM      4  C   UNL A   1      33.807  25.393  23.708  1.00  0.00     0.261 C 
BRANCH   4   5
ATOM      5  O   UNL A   1      33.069  24.408  22.960  1.00  0.00    -0.463 OA
BRANCH   5   6
ATOM      6  C   UNL A   1      33.531  23.136  22.901  1.00  0.00     0.317 C 
ATOM      7  O   UNL A   1      34.654  22.834  22.523  1.00  0.00    -0.251 OA
BRANCH   6   8
ATOM      8  C   UNL A   1      32.438  22.151  23.339  1.00  0.00     0.111 C 
ATOM      9  C   UNL A   1      32.037  21.295  22.126  1.00  0.00     0.029 C 
ATOM     10  C   UNL A   1      31.191  22.981  23.764  1.00  0.00     0.029 C 
BRANCH   8  11
ATOM     11  C   UNL A   1      32.874  21.247  24.541  1.00  0.00     0.280 C 
BRANCH  11  12
ATOM     12  N   UNL A   1      33.984  20.290  24.322  1.00  0.00    -0.327 N 
ATOM     13  H   UNL A   1      34.245  20.379  23.340  1.00  0.00     0.348 HD
BRANCH  12  14
ATOM     14  C   UNL A   1      35.152  20.645  25.161  1.00  0.00     0.259 C 
ATOM     15  C   UNL A   1      34.869  21.607  26.311  1.00  0.00     0.071 C 
ENDBRANCH  12  14
BRANCH  12  16
ATOM     16  C   UNL A   1      33.603  18.865  24.484  1.00  0.00     0.245 C 
ATOM     17  C   UNL A   1      34.720  17.826  24.416  1.00  0.00     0.132 C 
ATOM     18  C   UNL A   1      32.807  18.426  25.739  1.00  0.00     0.326 C 
ATOM     19  C   UNL A   1      34.016  16.575  24.909  1.00  0.00     0.267 C 
ATOM     20  N   UNL A   1      33.193  17.028  26.033  1.00  0.00    -0.341 N 
ATOM     21  H   UNL A   1      33.728  16.986  26.901  1.00  0.00     0.346 HD
ATOM     22  H   UNL A   1      32.370  16.436  26.148  1.00  0.00     0.346 HD
ENDBRANCH  12  16
ENDBRANCH  11  12
ENDBRANCH   8  11
ENDBRANCH   6   8
ENDBRANCH   5   6
ENDBRANCH   4   5
ENDBRANCH   3   4
ENDBRANCH   2   3
ENDBRANCH   1   2
BRANCH   1  23
ATOM     23  C   UNL A   1      33.215  29.135  24.635  1.00  0.00     0.188 C 
BRANCH  23  24
ATOM     24  O   UNL A   1      31.984  29.723  24.240  1.00  0.00    -0.376 OA
BRANCH  24  25
ATOM     25  C   UNL A   1      31.058  30.115  25.242  1.00  0.00     0.202 C 
BRANCH  25  26
ATOM     26  C   UNL A   1      31.303  31.446  25.962  1.00  0.00     0.261 C 
BRANCH  26  27
ATOM     27  O   UNL A   1      32.113  31.332  27.146  1.00  0.00    -0.460 OA
BRANCH  27  28
ATOM     28  C   UNL A   1      32.882  32.407  27.427  1.00  0.00     0.338 C 
ATOM     29  O   UNL A   1      32.534  33.584  27.468  1.00  0.00    -0.246 OA
BRANCH  28  30
ATOM     30  C   UNL A   1      34.218  31.971  27.876  1.00  0.00     0.060 A 
ATOM     31  C   UNL A   1      34.415  30.605  28.124  1.00  0.00     0.016 A 
ATOM     32  C   UNL A   1      35.238  32.891  28.123  1.00  0.00     0.016 A 
ATOM     33  C   UNL A   1      35.625  30.159  28.650  1.00  0.00     0.010 A 
ATOM     34  C   UNL A   1      36.440  32.445  28.685  1.00  0.00     0.010 A 
ATOM     35  C   UNL A   1      36.624  31.083  28.980  1.00  0.00    -0.014 A 
BRANCH  35  36
ATOM     36  C   UNL A   1      37.764  30.640  29.815  1.00  0.00     0.031 A 
ATOM     37  C   UNL A   1      38.867  29.853  29.161  1.00  0.00     0.074 A 
ATOM     38  C   UNL A   1      37.845  30.966  31.117  1.00  0.00     0.049 A 
ATOM     39  N   UNL A   1      39.965  29.371  29.686  1.00  0.00    -0.248 NA
ATOM     40  C   UNL A   1      38.704  29.564  27.728  1.00  0.00     0.031 C 
ATOM     41  C   UNL A   1      36.858  31.751  31.853  1.00  0.00     0.029 A 
ATOM     42  N   UNL A   1      38.825  30.702  32.039  1.00  0.00    -0.354 N 
ATOM     43  C   UNL A   1      40.601  28.689  28.657  1.00  0.00     0.074 A 
ATOM     44  C   UNL A   1      39.780  28.834  27.476  1.00  0.00     0.031 C 
ATOM     45  C   UNL A   1      37.313  31.959  33.102  1.00  0.00     0.029 A 
ATOM     46  C   UNL A   1      38.600  31.283  33.263  1.00  0.00     0.049 A 
ATOM     47  H   UNL A   1      39.616  30.149  31.843  1.00  0.00     0.167 HD
ATOM     48  C   UNL A   1      41.751  27.976  28.699  1.00  0.00     0.031 A 
ATOM     49  C   UNL A   1      39.351  31.270  34.381  1.00  0.00     0.031 A 
ATOM     50  C   UNL A   1      42.559  27.809  29.877  1.00  0.00     0.049 A 
ATOM     51  C   UNL A   1      40.633  30.478  34.399  1.00  0.00     0.074 A 
ATOM     52  C   UNL A   1      43.721  27.074  30.030  1.00  0.00     0.029 A 
ATOM     53  N   UNL A   1      42.283  28.387  31.106  1.00  0.00    -0.354 N 
ATOM     54  N   UNL A   1      41.213  29.817  33.426  1.00  0.00    -0.248 NA
ATOM     55  C   UNL A   1      41.350  30.411  35.683  1.00  0.00     0.031 C 
ATOM     56  C   UNL A   1      44.124  27.171  31.365  1.00  0.00     0.029 A 
ATOM     57  C   UNL A   1      43.242  28.008  32.029  1.00  0.00     0.049 A 
ATOM     58  H   UNL A   1      41.519  28.977  31.294  1.00  0.00     0.167 HD
ATOM     59  C   UNL A   1      42.357  29.253  33.980  1.00  0.00     0.074 A 
ATOM     60  C   UNL A   1      42.411  29.684  35.361  1.00  0.00     0.031 C 
ATOM     61  C   UNL A   1      43.271  28.436  33.402  1.00  0.00     0.031 A 
BRANCH  48  62
ATOM     62  C   UNL A   1      42.154  27.254  27.447  1.00  0.00    -0.014 A 
ATOM     63  C   UNL A   1      41.695  25.958  27.163  1.00  0.00     0.009 A 
ATOM     64  C   UNL A   1      43.006  27.892  26.531  1.00  0.00     0.009 A 
ATOM     65  C   UNL A   1      42.109  25.304  26.000  1.00  0.00     0.001 A 
ATOM     66  C   UNL A   1      43.399  27.245  25.359  1.00  0.00     0.001 A 
ATOM     67  C   UNL A   1      42.957  25.949  25.099  1.00  0.00     0.000 A 
ENDBRANCH  48  62
BRANCH  49  68
ATOM     68  C   UNL A   1      38.923  32.027  35.588  1.00  0.00    -0.014 A 
ATOM     69  C   UNL A   1      39.328  33.360  35.765  1.00  0.00     0.009 A 
ATOM     70  C   UNL A   1      38.139  31.420  36.580  1.00  0.00     0.009 A 
ATOM     71  C   UNL A   1      38.976  34.061  36.921  1.00  0.00     0.001 A 
ATOM     72  C   UNL A   1      37.762  32.133  37.721  1.00  0.00     0.001 A 
ATOM     73  C   UNL A   1      38.189  33.448  37.895  1.00  0.00     0.000 A 
ENDBRANCH  49  68
BRANCH  61  74
ATOM     74  C   UNL A   1      44.401  27.946  34.264  1.00  0.00    -0.014 A 
ATOM     75  C   UNL A   1      45.589  28.684  34.384  1.00  0.00     0.009 A 
ATOM     76  C   UNL A   1      44.255  26.764  35.005  1.00  0.00     0.009 A 
ATOM     77  C   UNL A   1      46.621  28.232  35.209  1.00  0.00     0.001 A 
ATOM     78  C   UNL A   1      45.279  26.327  35.847  1.00  0.00     0.001 A 
ATOM     79  C   UNL A   1      46.462  27.057  35.942  1.00  0.00     0.000 A 
ENDBRANCH  61  74
ENDBRANCH  35  36
ENDBRANCH  28  30
ENDBRANCH  27  28
ENDBRANCH  26  27
ENDBRANCH  25  26
ENDBRANCH  24  25
ENDBRANCH  23  24
ENDBRANCH   1  23
TORSDOF 21
ENDMDL
MODEL 3
REMARK VINA RESULT:      -8.6      4.203      7.870
REMARK SMILES CC[N@H+](CC(C)(C)C(=O)OCCOCCOCCOC(=O)c1ccc(-c2c3nc(c(-c4ccccc4)c4ccc([nH]4)c(-c4ccccc4)c4nc(c(-c5ccccc5)c5ccc2[nH]5)C=C4)C=C3)cc1)[C@H]1CC[NH2+]C1
REMARK SMILES IDX 14 1 13 2 12 3 11 4 10 5 8 6 9 7 5 8 6 9 7 10 4 11 3 12 2 14
REMARK SMILES IDX 1 15 70 16 71 17 74 18 72 19 73 20 15 23 16 24 17 25 18 26
REMARK SMILES IDX 19 27 20 28 21 29 22 30 23 31 69 32 24 33 68 34 25 35 26 36
REMARK SMILES IDX 27 37 62 38 28 39 67 40 61 41 63 42 29 43 66 44 60 45 59 46
REMARK SMILES IDX 30 48 52 49 37 50 51 51 38 52 41 53 50 54 64 55 39 56 40 57
REMARK SMILES IDX 49 59 65 60 42 61 31 62 32 63 36 64 33 65 35 66 34 67 53 68
REMARK SMILES IDX 54 69 58 70 55 71 57 72 56 73 43 74 44 75 48 76 45 77 47 78
REMARK SMILES IDX 46 79
REMARK H PARENT 3 13 73 21 73 22 63 47 41 58
REMARK Flexibility Score: inf
ROOT
ATOM      1  C   UNL A   1      32.319  22.356  24.989  1.00  0.00     0.188 C 
ENDROOT
BRANCH   1   2
ATOM      2  O   UNL A   1      32.580  23.121  26.159  1.00  0.00    -0.376 OA
BRANCH   2   3
ATOM      3  C   UNL A   1      33.575  24.135  26.041  1.00  0.00     0.202 C 
BRANCH   3   4
ATOM      4  C   UNL A   1      33.031  25.561  26.059  1.00  0.00     0.261 C 
BRANCH   4   5
ATOM      5  O   UNL A   1      32.100  25.733  24.974  1.00  0.00    -0.463 OA
BRANCH   5   6
ATOM      6  C   UNL A   1      30.881  26.267  25.223  1.00  0.00     0.317 C 
ATOM      7  O   UNL A   1      30.515  26.653  26.324  1.00  0.00    -0.251 OA
BRANCH   6   8
ATOM      8  C   UNL A   1      30.033  26.282  23.943  1.00  0.00     0.111 C 
ATOM      9  C   UNL A   1      28.549  26.218  24.339  1.00  0.00     0.029 C 
ATOM     10  C   UNL A   1      30.363  24.991  23.138  1.00  0.00     0.029 C 
BRANCH   8  11
ATOM     11  C   UNL A   1      30.315  27.526  23.035  1.00  0.00     0.280 C 
BRANCH  11  12
ATOM     12  N   UNL A   1      30.455  28.848  23.693  1.00  0.00    -0.327 N 
ATOM     13  H   UNL A   1      29.963  28.773  24.583  1.00  0.00     0.348 HD
BRANCH  12  14
ATOM     14  C   UNL A   1      31.880  29.151  23.956  1.00  0.00     0.259 C 
ATOM     15  C   UNL A   1      32.843  28.837  22.814  1.00  0.00     0.071 C 
ENDBRANCH  12  14
BRANCH  12  16
ATOM     16  C   UNL A   1      29.777  29.959  22.979  1.00  0.00     0.245 C 
ATOM     17  C   UNL A   1      28.745  29.586  21.917  1.00  0.00     0.132 C 
ATOM     18  C   UNL A   1      29.045  31.054  23.795  1.00  0.00     0.326 C 
ATOM     19  C   UNL A   1      28.080  30.923  21.643  1.00  0.00     0.267 C 
ATOM     20  N   UNL A   1      27.920  31.538  22.963  1.00  0.00    -0.341 N 
ATOM     21  H   UNL A   1      27.031  31.258  23.377  1.00  0.00     0.346 HD
ATOM     22  H   UNL A   1      27.924  32.556  22.897  1.00  0.00     0.346 HD
ENDBRANCH  12  16
ENDBRANCH  11  12
ENDBRANCH   8  11
ENDBRANCH   6   8
ENDBRANCH   5   6
ENDBRANCH   4   5
ENDBRANCH   3   4
ENDBRANCH   2   3
ENDBRANCH   1   2
BRANCH   1  23
ATOM     23  C   UNL A   1      33.433  21.368  24.585  1.00  0.00     0.188 C 
BRANCH  23  24
ATOM     24  O   UNL A   1      34.799  21.749  24.669  1.00  0.00    -0.376 OA
BRANCH  24  25
ATOM     25  C   UNL A   1      35.659  21.032  25.542  1.00  0.00     0.202 C 
BRANCH  25  26
ATOM     26  C   UNL A   1      36.922  20.402  24.943  1.00  0.00     0.261 C 
BRANCH  26  27
ATOM     27  O   UNL A   1      38.064  21.276  24.932  1.00  0.00    -0.460 OA
BRANCH  27  28
ATOM     28  C   UNL A   1      39.005  21.011  25.866  1.00  0.00     0.338 C 
ATOM     29  O   UNL A   1      39.511  19.923  26.128  1.00  0.00    -0.246 OA
BRANCH  28  30
ATOM     30  C   UNL A   1      39.512  22.269  26.446  1.00  0.00     0.060 A 
ATOM     31  C   UNL A   1      38.912  23.469  26.040  1.00  0.00     0.016 A 
ATOM     32  C   UNL A   1      40.606  22.281  27.313  1.00  0.00     0.016 A 
ATOM     33  C   UNL A   1      39.423  24.689  26.477  1.00  0.00     0.010 A 
ATOM     34  C   UNL A   1      41.141  23.508  27.723  1.00  0.00     0.010 A 
ATOM     35  C   UNL A   1      40.571  24.714  27.280  1.00  0.00    -0.014 A 
BRANCH  35  36
ATOM     36  C   UNL A   1      41.279  26.000  27.478  1.00  0.00     0.031 A 
ATOM     37  C   UNL A   1      40.694  26.999  28.438  1.00  0.00     0.074 A 
ATOM     38  C   UNL A   1      42.441  26.260  26.855  1.00  0.00     0.049 A 
ATOM     39  N   UNL A   1      41.141  28.181  28.780  1.00  0.00    -0.248 NA
ATOM     40  C   UNL A   1      39.431  26.618  29.091  1.00  0.00     0.031 C 
ATOM     41  C   UNL A   1      43.123  25.359  25.930  1.00  0.00     0.029 A 
ATOM     42  N   UNL A   1      43.269  27.351  26.938  1.00  0.00    -0.354 N 
ATOM     43  C   UNL A   1      40.195  28.698  29.655  1.00  0.00     0.074 A 
ATOM     44  C   UNL A   1      39.162  27.698  29.808  1.00  0.00     0.031 C 
ATOM     45  C   UNL A   1      44.300  25.908  25.578  1.00  0.00     0.029 A 
ATOM     46  C   UNL A   1      44.430  27.217  26.217  1.00  0.00     0.049 A 
ATOM     47  H   UNL A   1      43.053  28.153  27.467  1.00  0.00     0.167 HD
ATOM     48  C   UNL A   1      40.172  29.912  30.254  1.00  0.00     0.031 A 
ATOM     49  C   UNL A   1      45.476  28.057  26.092  1.00  0.00     0.031 A 
ATOM     50  C   UNL A   1      41.185  30.918  30.087  1.00  0.00     0.049 A 
ATOM     51  C   UNL A   1      45.430  29.398  26.778  1.00  0.00     0.074 A 
ATOM     52  C   UNL A   1      41.232  32.194  30.622  1.00  0.00     0.029 A 
ATOM     53  N   UNL A   1      42.331  30.759  29.324  1.00  0.00    -0.354 N 
ATOM     54  N   UNL A   1      44.519  29.886  27.585  1.00  0.00    -0.248 NA
ATOM     55  C   UNL A   1      46.551  30.315  26.512  1.00  0.00     0.031 C 
ATOM     56  C   UNL A   1      42.386  32.823  30.144  1.00  0.00     0.029 A 
ATOM     57  C   UNL A   1      43.082  31.921  29.356  1.00  0.00     0.049 A 
ATOM     58  H   UNL A   1      42.573  29.942  28.833  1.00  0.00     0.167 HD
ATOM     59  C   UNL A   1      44.953  31.165  27.918  1.00  0.00     0.074 A 
ATOM     60  C   UNL A   1      46.227  31.361  27.260  1.00  0.00     0.031 C 
ATOM     61  C   UNL A   1      44.341  32.101  28.684  1.00  0.00     0.031 A 
BRANCH  48  62
ATOM     62  C   UNL A   1      38.963  30.243  31.080  1.00  0.00    -0.014 A 
ATOM     63  C   UNL A   1      38.925  29.999  32.461  1.00  0.00     0.009 A 
ATOM     64  C   UNL A   1      37.843  30.817  30.457  1.00  0.00     0.009 A 
ATOM     65  C   UNL A   1      37.775  30.295  33.197  1.00  0.00     0.001 A 
ATOM     66  C   UNL A   1      36.704  31.133  31.198  1.00  0.00     0.001 A 
ATOM     67  C   UNL A   1      36.668  30.864  32.566  1.00  0.00     0.000 A 
ENDBRANCH  48  62
BRANCH  49  68
ATOM     68  C   UNL A   1      46.664  27.669  25.286  1.00  0.00    -0.014 A 
ATOM     69  C   UNL A   1      47.723  26.966  25.884  1.00  0.00     0.009 A 
ATOM     70  C   UNL A   1      46.765  28.023  23.933  1.00  0.00     0.009 A 
ATOM     71  C   UNL A   1      48.866  26.646  25.148  1.00  0.00     0.001 A 
ATOM     72  C   UNL A   1      47.896  27.674  23.191  1.00  0.00     0.001 A 
ATOM     73  C   UNL A   1      48.949  26.996  23.801  1.00  0.00     0.000 A 
ENDBRANCH  49  68
BRANCH  61  74
ATOM     74  C   UNL A   1      45.037  33.423  28.844  1.00  0.00    -0.014 A 
ATOM     75  C   UNL A   1      45.974  33.627  29.869  1.00  0.00     0.009 A 
ATOM     76  C   UNL A   1      44.794  34.458  27.928  1.00  0.00     0.009 A 
ATOM     77  C   UNL A   1      46.633  34.851  29.991  1.00  0.00     0.001 A 
ATOM     78  C   UNL A   1      45.472  35.673  28.037  1.00  0.00     0.001 A 
ATOM     79  C   UNL A   1      46.385  35.870  29.072  1.00  0.00     0.000 A 
ENDBRANCH  61  74
ENDBRANCH  35  36
ENDBRANCH  28  30
ENDBRANCH  27  28
ENDBRANCH  26  27
ENDBRANCH  25  26
ENDBRANCH  24  25
ENDBRANCH  23  24
ENDBRANCH   1  23
TORSDOF 21
ENDMDL
