MODEL 1
REMARK VINA RESULT:     -10.8      0.000      0.000
REMARK SMILES Cc1ccc2oc(C(=O)N[C@@H]3C=C[C@H](C(=O)OCCOCCOCCOC(=O)c4ccc(-c5c6nc(c(-c7ccccc7)c7ccc([nH]7)c(-c7ccccc7)c7nc(c(-c8ccccc8)c8ccc5[nH]8)C=C7)C=C6)cc4)C3)cc2c1
REMARK SMILES IDX 21 1 20 2 19 3 18 4 17 5 15 6 16 7 14 8 11 9 12 10 77 11
REMARK SMILES IDX 13 12 10 13 8 14 9 15 7 17 1 18 2 19 3 20 80 21 4 22 79 23
REMARK SMILES IDX 5 24 78 25 6 26 22 27 23 28 24 29 25 30 26 31 27 32 28 33
REMARK SMILES IDX 29 34 30 35 76 36 31 37 75 38 32 39 33 40 34 41 69 42 35 43
REMARK SMILES IDX 74 44 68 45 70 46 36 47 73 48 67 49 66 50 37 52 59 53 44 54
REMARK SMILES IDX 58 55 45 56 48 57 57 58 71 59 46 60 47 61 56 63 72 64 49 65
REMARK SMILES IDX 38 66 39 67 43 68 40 69 42 70 41 71 60 72 61 73 65 74 62 75
REMARK SMILES IDX 64 76 63 77 50 78 51 79 55 80 52 81 54 82 53 83
REMARK H PARENT 10 16 70 51 48 62
REMARK Flexibility Score: inf
ROOT
ATOM      1  C   UNL A   1      40.030  21.524  26.876  1.00  0.00     0.188 C 
ENDROOT
BRANCH   1   2
ATOM      2  O   UNL A   1      39.430  22.126  25.746  1.00  0.00    -0.376 OA
BRANCH   2   3
ATOM      3  C   UNL A   1      38.023  21.987  25.624  1.00  0.00     0.202 C 
BRANCH   3   4
ATOM      4  C   UNL A   1      37.151  23.226  25.925  1.00  0.00     0.261 C 
BRANCH   4   5
ATOM      5  O   UNL A   1      35.802  23.212  25.408  1.00  0.00    -0.463 OA
BRANCH   5   6
ATOM      6  C   UNL A   1      35.008  22.201  25.841  1.00  0.00     0.312 C 
ATOM      7  O   UNL A   1      34.628  22.105  27.001  1.00  0.00    -0.252 OA
BRANCH   6   8
ATOM      8  C   UNL A   1      34.467  21.344  24.675  1.00  0.00     0.124 C 
ATOM      9  C   UNL A   1      32.044  21.270  24.784  1.00  0.00     0.106 C 
ATOM     10  C   UNL A   1      32.619  19.913  24.910  1.00  0.00    -0.006 C 
ATOM     11  C   UNL A   1      33.205  22.022  24.126  1.00  0.00     0.048 C 
ATOM     12  C   UNL A   1      33.961  19.952  24.895  1.00  0.00    -0.014 C 
BRANCH   9  13
ATOM     13  N   UNL A   1      31.530  21.831  26.036  1.00  0.00    -0.343 N 
ATOM     14  C   UNL A   1      31.166  23.050  26.586  1.00  0.00     0.287 C 
ATOM     15  O   UNL A   1      30.503  22.952  27.626  1.00  0.00    -0.266 OA
ATOM     16  H   UNL A   1      31.404  21.113  26.697  1.00  0.00     0.164 HD
BRANCH  14  17
ATOM     17  C   UNL A   1      31.515  24.344  26.018  1.00  0.00     0.192 A 
ATOM     18  C   UNL A   1      34.044  28.571  22.613  1.00  0.00     0.044 C 
ATOM     19  C   UNL A   1      33.036  27.762  23.381  1.00  0.00    -0.050 A 
ATOM     20  C   UNL A   1      31.666  27.815  23.076  1.00  0.00     0.007 A 
ATOM     21  C   UNL A   1      33.490  26.894  24.384  1.00  0.00     0.015 A 
ATOM     22  C   UNL A   1      30.740  26.937  23.669  1.00  0.00     0.048 A 
ATOM     23  C   UNL A   1      32.564  26.062  25.029  1.00  0.00     0.021 A 
ATOM     24  C   UNL A   1      31.252  26.030  24.595  1.00  0.00     0.135 A 
ATOM     25  C   UNL A   1      32.607  25.180  26.126  1.00  0.00     0.065 A 
ATOM     26  O   UNL A   1      30.602  24.981  25.185  1.00  0.00    -0.451 OA
ENDBRANCH  14  17
ENDBRANCH   9  13
ENDBRANCH   6   8
ENDBRANCH   5   6
ENDBRANCH   4   5
ENDBRANCH   3   4
ENDBRANCH   2   3
ENDBRANCH   1   2
BRANCH   1  27
ATOM     27  C   UNL A   1      40.637  20.138  26.570  1.00  0.00     0.188 C 
BRANCH  27  28
ATOM     28  O   UNL A   1      41.600  19.985  25.543  1.00  0.00    -0.376 OA
BRANCH  28  29
ATOM     29  C   UNL A   1      42.968  20.030  25.895  1.00  0.00     0.202 C 
BRANCH  29  30
ATOM     30  C   UNL A   1      43.777  21.304  25.586  1.00  0.00     0.261 C 
BRANCH  30  31
ATOM     31  O   UNL A   1      43.471  22.469  26.381  1.00  0.00    -0.460 OA
BRANCH  31  32
ATOM     32  C   UNL A   1      43.575  23.670  25.758  1.00  0.00     0.338 C 
ATOM     33  O   UNL A   1      43.991  23.880  24.626  1.00  0.00    -0.246 OA
BRANCH  32  34
ATOM     34  C   UNL A   1      42.915  24.724  26.566  1.00  0.00     0.060 A 
ATOM     35  C   UNL A   1      43.433  26.030  26.543  1.00  0.00     0.016 A 
ATOM     36  C   UNL A   1      41.833  24.420  27.392  1.00  0.00     0.016 A 
ATOM     37  C   UNL A   1      42.882  27.031  27.349  1.00  0.00     0.010 A 
ATOM     38  C   UNL A   1      41.305  25.414  28.227  1.00  0.00     0.010 A 
ATOM     39  C   UNL A   1      41.843  26.716  28.232  1.00  0.00    -0.014 A 
BRANCH  39  40
ATOM     40  C   UNL A   1      41.459  27.674  29.303  1.00  0.00     0.031 A 
ATOM     41  C   UNL A   1      42.218  27.635  30.603  1.00  0.00     0.074 A 
ATOM     42  C   UNL A   1      40.465  28.565  29.138  1.00  0.00     0.049 A 
ATOM     43  N   UNL A   1      42.012  28.305  31.708  1.00  0.00    -0.248 NA
ATOM     44  C   UNL A   1      43.364  26.711  30.661  1.00  0.00     0.031 C 
ATOM     45  C   UNL A   1      39.687  28.757  27.917  1.00  0.00     0.029 A 
ATOM     46  N   UNL A   1      39.932  29.470  30.025  1.00  0.00    -0.354 N 
ATOM     47  C   UNL A   1      42.987  27.869  32.599  1.00  0.00     0.074 A 
ATOM     48  C   UNL A   1      43.769  26.865  31.913  1.00  0.00     0.031 C 
ATOM     49  C   UNL A   1      38.763  29.710  28.136  1.00  0.00     0.029 A 
ATOM     50  C   UNL A   1      38.858  30.164  29.523  1.00  0.00     0.049 A 
ATOM     51  H   UNL A   1      40.285  29.607  30.932  1.00  0.00     0.167 HD
ATOM     52  C   UNL A   1      43.215  28.269  33.872  1.00  0.00     0.031 A 
ATOM     53  C   UNL A   1      38.028  31.043  30.122  1.00  0.00     0.031 A 
ATOM     54  C   UNL A   1      42.428  29.252  34.568  1.00  0.00     0.049 A 
ATOM     55  C   UNL A   1      38.238  31.397  31.573  1.00  0.00     0.074 A 
ATOM     56  C   UNL A   1      42.590  29.730  35.856  1.00  0.00     0.029 A 
ATOM     57  N   UNL A   1      41.325  29.900  34.037  1.00  0.00    -0.354 N 
ATOM     58  N   UNL A   1      39.177  30.998  32.398  1.00  0.00    -0.248 NA
ATOM     59  C   UNL A   1      37.274  32.333  32.173  1.00  0.00     0.031 C 
ATOM     60  C   UNL A   1      41.544  30.618  36.128  1.00  0.00     0.029 A 
ATOM     61  C   UNL A   1      40.775  30.749  34.983  1.00  0.00     0.049 A 
ATOM     62  H   UNL A   1      40.981  29.775  33.122  1.00  0.00     0.167 HD
ATOM     63  C   UNL A   1      38.936  31.658  33.599  1.00  0.00     0.074 A 
ATOM     64  C   UNL A   1      37.773  32.495  33.391  1.00  0.00     0.031 C 
ATOM     65  C   UNL A   1      39.620  31.582  34.766  1.00  0.00     0.031 A 
BRANCH  52  66
ATOM     66  C   UNL A   1      44.339  27.600  34.616  1.00  0.00    -0.014 A 
ATOM     67  C   UNL A   1      44.134  26.422  35.351  1.00  0.00     0.009 A 
ATOM     68  C   UNL A   1      45.632  28.145  34.553  1.00  0.00     0.009 A 
ATOM     69  C   UNL A   1      45.192  25.826  36.041  1.00  0.00     0.001 A 
ATOM     70  C   UNL A   1      46.694  27.528  35.215  1.00  0.00     0.001 A 
ATOM     71  C   UNL A   1      46.472  26.376  35.967  1.00  0.00     0.000 A 
ENDBRANCH  52  66
BRANCH  53  72
ATOM     72  C   UNL A   1      36.893  31.640  29.365  1.00  0.00    -0.014 A 
ATOM     73  C   UNL A   1      35.685  30.940  29.217  1.00  0.00     0.009 A 
ATOM     74  C   UNL A   1      37.027  32.895  28.752  1.00  0.00     0.009 A 
ATOM     75  C   UNL A   1      34.647  31.474  28.448  1.00  0.00     0.001 A 
ATOM     76  C   UNL A   1      35.975  33.441  28.013  1.00  0.00     0.001 A 
ATOM     77  C   UNL A   1      34.791  32.725  27.853  1.00  0.00     0.000 A 
ENDBRANCH  53  72
BRANCH  65  78
ATOM     78  C   UNL A   1      39.166  32.462  35.901  1.00  0.00    -0.014 A 
ATOM     79  C   UNL A   1      38.236  32.016  36.854  1.00  0.00     0.009 A 
ATOM     80  C   UNL A   1      39.717  33.746  36.043  1.00  0.00     0.009 A 
ATOM     81  C   UNL A   1      37.843  32.851  37.902  1.00  0.00     0.001 A 
ATOM     82  C   UNL A   1      39.347  34.566  37.111  1.00  0.00     0.001 A 
ATOM     83  C   UNL A   1      38.402  34.122  38.033  1.00  0.00     0.000 A 
ENDBRANCH  65  78
ENDBRANCH  39  40
ENDBRANCH  32  34
ENDBRANCH  31  32
ENDBRANCH  30  31
ENDBRANCH  29  30
ENDBRANCH  28  29
ENDBRANCH  27  28
ENDBRANCH   1  27
TORSDOF 19
ENDMDL
MODEL 2
REMARK VINA RESULT:     -10.3      3.532      8.987
REMARK SMILES Cc1ccc2oc(C(=O)N[C@@H]3C=C[C@H](C(=O)OCCOCCOCCOC(=O)c4ccc(-c5c6nc(c(-c7ccccc7)c7ccc([nH]7)c(-c7ccccc7)c7nc(c(-c8ccccc8)c8ccc5[nH]8)C=C7)C=C6)cc4)C3)cc2c1
REMARK SMILES IDX 21 1 20 2 19 3 18 4 17 5 15 6 16 7 14 8 11 9 12 10 77 11
REMARK SMILES IDX 13 12 10 13 8 14 9 15 7 17 1 18 2 19 3 20 80 21 4 22 79 23
REMARK SMILES IDX 5 24 78 25 6 26 22 27 23 28 24 29 25 30 26 31 27 32 28 33
REMARK SMILES IDX 29 34 30 35 76 36 31 37 75 38 32 39 33 40 34 41 69 42 35 43
REMARK SMILES IDX 74 44 68 45 70 46 36 47 73 48 67 49 66 50 37 52 59 53 44 54
REMARK SMILES IDX 58 55 45 56 48 57 57 58 71 59 46 60 47 61 56 63 72 64 49 65
REMARK SMILES IDX 38 66 39 67 43 68 40 69 42 70 41 71 60 72 61 73 65 74 62 75
REMARK SMILES IDX 64 76 63 77 50 78 51 79 55 80 52 81 54 82 53 83
REMARK H PARENT 10 16 70 51 48 62
REMARK Flexibility Score: inf
ROOT
ATOM      1  C   UNL A   1      34.435  31.966  28.623  1.00  0.00     0.188 C 
ENDROOT
BRANCH   1   2
ATOM      2  O   UNL A   1      34.295  31.211  27.436  1.00  0.00    -0.376 OA
BRANCH   2   3
ATOM      3  C   UNL A   1      33.328  30.172  27.455  1.00  0.00     0.202 C 
BRANCH   3   4
ATOM      4  C   UNL A   1      33.324  29.175  26.275  1.00  0.00     0.261 C 
BRANCH   4   5
ATOM      5  O   UNL A   1      33.474  29.735  24.951  1.00  0.00    -0.463 OA
BRANCH   5   6
ATOM      6  C   UNL A   1      32.914  29.026  23.938  1.00  0.00     0.312 C 
ATOM      7  O   UNL A   1      33.574  28.488  23.059  1.00  0.00    -0.252 OA
BRANCH   6   8
ATOM      8  C   UNL A   1      31.403  28.790  24.160  1.00  0.00     0.124 C 
ATOM      9  C   UNL A   1      30.635  27.028  22.678  1.00  0.00     0.106 C 
ATOM     10  C   UNL A   1      29.930  28.298  22.396  1.00  0.00    -0.006 C 
ATOM     11  C   UNL A   1      31.139  27.280  24.102  1.00  0.00     0.048 C 
ATOM     12  C   UNL A   1      30.382  29.288  23.184  1.00  0.00    -0.014 C 
BRANCH   9  13
ATOM     13  N   UNL A   1      31.648  26.663  21.684  1.00  0.00    -0.343 N 
ATOM     14  C   UNL A   1      32.659  25.735  21.485  1.00  0.00     0.287 C 
ATOM     15  O   UNL A   1      33.053  25.668  20.314  1.00  0.00    -0.266 OA
ATOM     16  H   UNL A   1      31.592  27.270  20.911  1.00  0.00     0.164 HD
BRANCH  14  17
ATOM     17  C   UNL A   1      33.226  24.903  22.535  1.00  0.00     0.192 A 
ATOM     18  C   UNL A   1      33.940  21.934  27.686  1.00  0.00     0.044 C 
ATOM     19  C   UNL A   1      33.929  22.287  26.225  1.00  0.00    -0.050 A 
ATOM     20  C   UNL A   1      33.898  21.296  25.230  1.00  0.00     0.007 A 
ATOM     21  C   UNL A   1      33.889  23.639  25.857  1.00  0.00     0.015 A 
ATOM     22  C   UNL A   1      33.713  21.615  23.872  1.00  0.00     0.048 A 
ATOM     23  C   UNL A   1      33.772  23.969  24.500  1.00  0.00     0.021 A 
ATOM     24  C   UNL A   1      33.588  22.967  23.565  1.00  0.00     0.135 A 
ATOM     25  C   UNL A   1      33.822  25.161  23.752  1.00  0.00     0.065 A 
ATOM     26  O   UNL A   1      33.247  23.524  22.362  1.00  0.00    -0.451 OA
ENDBRANCH  14  17
ENDBRANCH   9  13
ENDBRANCH   6   8
ENDBRANCH   5   6
ENDBRANCH   4   5
ENDBRANCH   3   4
ENDBRANCH   2   3
ENDBRANCH   1   2
BRANCH   1  27
ATOM     27  C   UNL A   1      35.147  33.317  28.399  1.00  0.00     0.188 C 
BRANCH  27  28
ATOM     28  O   UNL A   1      34.457  34.407  27.815  1.00  0.00    -0.376 OA
BRANCH  28  29
ATOM     29  C   UNL A   1      34.116  35.503  28.639  1.00  0.00     0.202 C 
BRANCH  29  30
ATOM     30  C   UNL A   1      32.974  35.342  29.660  1.00  0.00     0.261 C 
BRANCH  30  31
ATOM     31  O   UNL A   1      33.026  36.195  30.823  1.00  0.00    -0.460 OA
BRANCH  31  32
ATOM     32  C   UNL A   1      32.699  35.621  32.008  1.00  0.00     0.338 C 
ATOM     33  O   UNL A   1      31.579  35.508  32.489  1.00  0.00    -0.246 OA
BRANCH  32  34
ATOM     34  C   UNL A   1      33.882  34.941  32.590  1.00  0.00     0.060 A 
ATOM     35  C   UNL A   1      35.146  35.544  32.473  1.00  0.00     0.016 A 
ATOM     36  C   UNL A   1      33.763  33.689  33.193  1.00  0.00     0.016 A 
ATOM     37  C   UNL A   1      36.292  34.896  32.944  1.00  0.00     0.010 A 
ATOM     38  C   UNL A   1      34.916  33.025  33.631  1.00  0.00     0.010 A 
ATOM     39  C   UNL A   1      36.189  33.610  33.484  1.00  0.00    -0.014 A 
BRANCH  39  40
ATOM     40  C   UNL A   1      37.411  32.793  33.700  1.00  0.00     0.031 A 
ATOM     41  C   UNL A   1      38.198  33.004  34.967  1.00  0.00     0.074 A 
ATOM     42  C   UNL A   1      37.825  31.879  32.804  1.00  0.00     0.049 A 
ATOM     43  N   UNL A   1      39.338  32.478  35.338  1.00  0.00    -0.248 NA
ATOM     44  C   UNL A   1      37.617  33.939  35.946  1.00  0.00     0.031 C 
ATOM     45  C   UNL A   1      37.134  31.526  31.567  1.00  0.00     0.029 A 
ATOM     46  N   UNL A   1      38.950  31.088  32.801  1.00  0.00    -0.354 N 
ATOM     47  C   UNL A   1      39.621  33.032  36.581  1.00  0.00     0.074 A 
ATOM     48  C   UNL A   1      38.546  33.949  36.891  1.00  0.00     0.031 C 
ATOM     49  C   UNL A   1      37.859  30.599  30.913  1.00  0.00     0.029 A 
ATOM     50  C   UNL A   1      39.083  30.326  31.666  1.00  0.00     0.049 A 
ATOM     51  H   UNL A   1      39.599  31.071  33.540  1.00  0.00     0.167 HD
ATOM     52  C   UNL A   1      40.678  32.801  37.395  1.00  0.00     0.031 A 
ATOM     53  C   UNL A   1      40.090  29.523  31.265  1.00  0.00     0.031 A 
ATOM     54  C   UNL A   1      41.761  31.906  37.085  1.00  0.00     0.049 A 
ATOM     55  C   UNL A   1      41.306  29.358  32.143  1.00  0.00     0.074 A 
ATOM     56  C   UNL A   1      42.870  31.598  37.852  1.00  0.00     0.029 A 
ATOM     57  N   UNL A   1      41.876  31.186  35.907  1.00  0.00    -0.354 N 
ATOM     58  N   UNL A   1      41.552  29.868  33.326  1.00  0.00    -0.248 NA
ATOM     59  C   UNL A   1      42.383  28.497  31.628  1.00  0.00     0.031 C 
ATOM     60  C   UNL A   1      43.690  30.742  37.110  1.00  0.00     0.029 A 
ATOM     61  C   UNL A   1      43.055  30.458  35.912  1.00  0.00     0.049 A 
ATOM     62  H   UNL A   1      41.218  31.190  35.174  1.00  0.00     0.167 HD
ATOM     63  C   UNL A   1      42.791  29.363  33.709  1.00  0.00     0.074 A 
ATOM     64  C   UNL A   1      43.239  28.496  32.640  1.00  0.00     0.031 C 
ATOM     65  C   UNL A   1      43.491  29.594  34.846  1.00  0.00     0.031 A 
BRANCH  52  66
ATOM     66  C   UNL A   1      40.736  33.569  38.688  1.00  0.00    -0.014 A 
ATOM     67  C   UNL A   1      41.203  34.892  38.733  1.00  0.00     0.009 A 
ATOM     68  C   UNL A   1      40.288  32.966  39.873  1.00  0.00     0.009 A 
ATOM     69  C   UNL A   1      41.257  35.581  39.947  1.00  0.00     0.001 A 
ATOM     70  C   UNL A   1      40.312  33.668  41.079  1.00  0.00     0.001 A 
ATOM     71  C   UNL A   1      40.806  34.971  41.118  1.00  0.00     0.000 A 
ENDBRANCH  52  66
BRANCH  53  72
ATOM     72  C   UNL A   1      40.016  28.824  29.953  1.00  0.00    -0.014 A 
ATOM     73  C   UNL A   1      40.441  29.462  28.777  1.00  0.00     0.009 A 
ATOM     74  C   UNL A   1      39.483  27.528  29.864  1.00  0.00     0.009 A 
ATOM     75  C   UNL A   1      40.307  28.829  27.539  1.00  0.00     0.001 A 
ATOM     76  C   UNL A   1      39.381  26.885  28.628  1.00  0.00     0.001 A 
ATOM     77  C   UNL A   1      39.783  27.540  27.466  1.00  0.00     0.000 A 
ENDBRANCH  53  72
BRANCH  65  78
ATOM     78  C   UNL A   1      44.795  28.861  35.025  1.00  0.00    -0.014 A 
ATOM     79  C   UNL A   1      44.849  27.584  35.606  1.00  0.00     0.009 A 
ATOM     80  C   UNL A   1      45.985  29.442  34.559  1.00  0.00     0.009 A 
ATOM     81  C   UNL A   1      46.071  26.923  35.748  1.00  0.00     0.001 A 
ATOM     82  C   UNL A   1      47.200  28.765  34.671  1.00  0.00     0.001 A 
ATOM     83  C   UNL A   1      47.244  27.511  35.275  1.00  0.00     0.000 A 
ENDBRANCH  65  78
ENDBRANCH  39  40
ENDBRANCH  32  34
ENDBRANCH  31  32
ENDBRANCH  30  31
ENDBRANCH  29  30
ENDBRANCH  28  29
ENDBRANCH  27  28
ENDBRANCH   1  27
TORSDOF 19
ENDMDL
MODEL 3
REMARK VINA RESULT:     -10.3      3.593      5.796
REMARK SMILES Cc1ccc2oc(C(=O)N[C@@H]3C=C[C@H](C(=O)OCCOCCOCCOC(=O)c4ccc(-c5c6nc(c(-c7ccccc7)c7ccc([nH]7)c(-c7ccccc7)c7nc(c(-c8ccccc8)c8ccc5[nH]8)C=C7)C=C6)cc4)C3)cc2c1
REMARK SMILES IDX 21 1 20 2 19 3 18 4 17 5 15 6 16 7 14 8 11 9 12 10 77 11
REMARK SMILES IDX 13 12 10 13 8 14 9 15 7 17 1 18 2 19 3 20 80 21 4 22 79 23
REMARK SMILES IDX 5 24 78 25 6 26 22 27 23 28 24 29 25 30 26 31 27 32 28 33
REMARK SMILES IDX 29 34 30 35 76 36 31 37 75 38 32 39 33 40 34 41 69 42 35 43
REMARK SMILES IDX 74 44 68 45 70 46 36 47 73 48 67 49 66 50 37 52 59 53 44 54
REMARK SMILES IDX 58 55 45 56 48 57 57 58 71 59 46 60 47 61 56 63 72 64 49 65
REMARK SMILES IDX 38 66 39 67 43 68 40 69 42 70 41 71 60 72 61 73 65 74 62 75
REMARK SMILES IDX 64 76 63 77 50 78 51 79 55 80 52 81 54 82 53 83
REMARK H PARENT 10 16 70 51 48 62
REMARK Flexibility Score: inf
ROOT
ATOM      1  C   UNL A   1      36.058  22.418  24.145  1.00  0.00     0.188 C 
ENDROOT
BRANCH   1   2
ATOM      2  O   UNL A   1      35.824  23.788  24.405  1.00  0.00    -0.376 OA
BRANCH   2   3
ATOM      3  C   UNL A   1      35.037  24.093  25.546  1.00  0.00     0.202 C 
BRANCH   3   4
ATOM      4  C   UNL A   1      34.350  25.475  25.595  1.00  0.00     0.261 C 
BRANCH   4   5
ATOM      5  O   UNL A   1      33.007  25.515  26.129  1.00  0.00    -0.463 OA
BRANCH   5   6
ATOM      6  C   UNL A   1      32.325  26.673  25.940  1.00  0.00     0.312 C 
ATOM      7  O   UNL A   1      32.880  27.755  25.803  1.00  0.00    -0.252 OA
BRANCH   6   8
ATOM      8  C   UNL A   1      30.820  26.427  25.689  1.00  0.00     0.124 C 
ATOM      9  C   UNL A   1      30.552  24.862  23.854  1.00  0.00     0.106 C 
ATOM     10  C   UNL A   1      29.926  26.165  23.533  1.00  0.00    -0.006 C 
ATOM     11  C   UNL A   1      30.621  24.938  25.382  1.00  0.00     0.048 C 
ATOM     12  C   UNL A   1      30.109  27.048  24.527  1.00  0.00    -0.014 C 
BRANCH   9  13
ATOM     13  N   UNL A   1      31.816  24.608  23.156  1.00  0.00    -0.343 N 
ATOM     14  C   UNL A   1      32.586  23.550  22.700  1.00  0.00     0.287 C 
ATOM     15  O   UNL A   1      33.464  23.881  21.894  1.00  0.00    -0.266 OA
ATOM     16  H   UNL A   1      32.258  25.462  22.944  1.00  0.00     0.164 HD
BRANCH  14  17
ATOM     17  C   UNL A   1      32.404  22.166  23.113  1.00  0.00     0.192 A 
ATOM     18  C   UNL A   1      33.282  16.295  23.897  1.00  0.00     0.044 C 
ATOM     19  C   UNL A   1      32.945  17.739  24.142  1.00  0.00    -0.050 A 
ATOM     20  C   UNL A   1      32.980  18.292  25.433  1.00  0.00     0.007 A 
ATOM     21  C   UNL A   1      32.648  18.559  23.045  1.00  0.00     0.015 A 
ATOM     22  C   UNL A   1      32.837  19.675  25.652  1.00  0.00     0.048 A 
ATOM     23  C   UNL A   1      32.437  19.928  23.261  1.00  0.00     0.021 A 
ATOM     24  C   UNL A   1      32.632  20.461  24.521  1.00  0.00     0.135 A 
ATOM     25  C   UNL A   1      32.012  21.012  22.468  1.00  0.00     0.065 A 
ATOM     26  O   UNL A   1      32.622  21.828  24.444  1.00  0.00    -0.451 OA
ENDBRANCH  14  17
ENDBRANCH   9  13
ENDBRANCH   6   8
ENDBRANCH   5   6
ENDBRANCH   4   5
ENDBRANCH   3   4
ENDBRANCH   2   3
ENDBRANCH   1   2
BRANCH   1  27
ATOM     27  C   UNL A   1      36.430  21.619  25.412  1.00  0.00     0.188 C 
BRANCH  27  28
ATOM     28  O   UNL A   1      36.644  20.221  25.345  1.00  0.00    -0.376 OA
BRANCH  28  29
ATOM     29  C   UNL A   1      37.753  19.747  24.607  1.00  0.00     0.202 C 
BRANCH  29  30
ATOM     30  C   UNL A   1      38.924  19.089  25.361  1.00  0.00     0.261 C 
BRANCH  30  31
ATOM     31  O   UNL A   1      39.654  19.932  26.277  1.00  0.00    -0.460 OA
BRANCH  31  32
ATOM     32  C   UNL A   1      41.007  19.840  26.235  1.00  0.00     0.338 C 
ATOM     33  O   UNL A   1      41.671  18.935  25.746  1.00  0.00    -0.246 OA
BRANCH  32  34
ATOM     34  C   UNL A   1      41.620  21.110  26.694  1.00  0.00     0.060 A 
ATOM     35  C   UNL A   1      41.586  21.433  28.061  1.00  0.00     0.016 A 
ATOM     36  C   UNL A   1      42.171  22.010  25.782  1.00  0.00     0.016 A 
ATOM     37  C   UNL A   1      42.087  22.655  28.519  1.00  0.00     0.010 A 
ATOM     38  C   UNL A   1      42.640  23.249  26.236  1.00  0.00     0.010 A 
ATOM     39  C   UNL A   1      42.575  23.592  27.601  1.00  0.00    -0.014 A 
BRANCH  39  40
ATOM     40  C   UNL A   1      42.820  24.995  28.027  1.00  0.00     0.031 A 
ATOM     41  C   UNL A   1      44.235  25.412  28.334  1.00  0.00     0.074 A 
ATOM     42  C   UNL A   1      41.822  25.890  28.141  1.00  0.00     0.049 A 
ATOM     43  N   UNL A   1      44.685  26.548  28.805  1.00  0.00    -0.248 NA
ATOM     44  C   UNL A   1      45.281  24.408  28.076  1.00  0.00     0.031 C 
ATOM     45  C   UNL A   1      40.418  25.644  27.820  1.00  0.00     0.029 A 
ATOM     46  N   UNL A   1      41.847  27.193  28.578  1.00  0.00    -0.354 N 
ATOM     47  C   UNL A   1      46.061  26.388  28.919  1.00  0.00     0.074 A 
ATOM     48  C   UNL A   1      46.368  25.042  28.488  1.00  0.00     0.031 C 
ATOM     49  C   UNL A   1      39.711  26.758  28.088  1.00  0.00     0.029 A 
ATOM     50  C   UNL A   1      40.605  27.777  28.636  1.00  0.00     0.049 A 
ATOM     51  H   UNL A   1      42.675  27.662  28.827  1.00  0.00     0.167 HD
ATOM     52  C   UNL A   1      46.988  27.279  29.341  1.00  0.00     0.031 A 
ATOM     53  C   UNL A   1      40.228  28.984  29.106  1.00  0.00     0.031 A 
ATOM     54  C   UNL A   1      46.688  28.613  29.789  1.00  0.00     0.049 A 
ATOM     55  C   UNL A   1      41.267  29.924  29.667  1.00  0.00     0.074 A 
ATOM     56  C   UNL A   1      47.562  29.592  30.226  1.00  0.00     0.029 A 
ATOM     57  N   UNL A   1      45.413  29.150  29.871  1.00  0.00    -0.354 N 
ATOM     58  N   UNL A   1      42.567  29.772  29.747  1.00  0.00    -0.248 NA
ATOM     59  C   UNL A   1      40.782  31.208  30.196  1.00  0.00     0.031 C 
ATOM     60  C   UNL A   1      46.811  30.699  30.634  1.00  0.00     0.029 A 
ATOM     61  C   UNL A   1      45.475  30.436  30.381  1.00  0.00     0.049 A 
ATOM     62  H   UNL A   1      44.586  28.686  29.606  1.00  0.00     0.167 HD
ATOM     63  C   UNL A   1      43.055  30.951  30.302  1.00  0.00     0.074 A 
ATOM     64  C   UNL A   1      41.914  31.813  30.524  1.00  0.00     0.031 C 
ATOM     65  C   UNL A   1      44.335  31.289  30.596  1.00  0.00     0.031 A 
BRANCH  52  66
ATOM     66  C   UNL A   1      48.421  26.819  29.382  1.00  0.00    -0.014 A 
ATOM     67  C   UNL A   1      49.295  27.048  28.308  1.00  0.00     0.009 A 
ATOM     68  C   UNL A   1      48.908  26.172  30.528  1.00  0.00     0.009 A 
ATOM     69  C   UNL A   1      50.617  26.602  28.367  1.00  0.00     0.001 A 
ATOM     70  C   UNL A   1      50.239  25.758  30.597  1.00  0.00     0.001 A 
ATOM     71  C   UNL A   1      51.090  25.963  29.513  1.00  0.00     0.000 A 
ENDBRANCH  52  66
BRANCH  53  72
ATOM     72  C   UNL A   1      38.793  29.378  29.097  1.00  0.00    -0.014 A 
ATOM     73  C   UNL A   1      37.970  29.112  30.203  1.00  0.00     0.009 A 
ATOM     74  C   UNL A   1      38.227  29.987  27.966  1.00  0.00     0.009 A 
ATOM     75  C   UNL A   1      36.608  29.421  30.165  1.00  0.00     0.001 A 
ATOM     76  C   UNL A   1      36.872  30.326  27.943  1.00  0.00     0.001 A 
ATOM     77  C   UNL A   1      36.062  30.033  29.039  1.00  0.00     0.000 A 
ENDBRANCH  53  72
BRANCH  65  78
ATOM     78  C   UNL A   1      44.584  32.671  31.142  1.00  0.00    -0.014 A 
ATOM     79  C   UNL A   1      44.777  33.774  30.296  1.00  0.00     0.009 A 
ATOM     80  C   UNL A   1      44.578  32.876  32.531  1.00  0.00     0.009 A 
ATOM     81  C   UNL A   1      44.994  35.046  30.832  1.00  0.00     0.001 A 
ATOM     82  C   UNL A   1      44.761  34.153  33.064  1.00  0.00     0.001 A 
ATOM     83  C   UNL A   1      44.980  35.235  32.214  1.00  0.00     0.000 A 
ENDBRANCH  65  78
ENDBRANCH  39  40
ENDBRANCH  32  34
ENDBRANCH  31  32
ENDBRANCH  30  31
ENDBRANCH  29  30
ENDBRANCH  28  29
ENDBRANCH  27  28
ENDBRANCH   1  27
TORSDOF 19
ENDMDL
