MODEL 1
REMARK VINA RESULT:      -9.8      0.000      0.000
REMARK SMILES Cc1cscc1CNC(=O)N[C@@H](C)c1nc(C(=O)OCCOCCOCCOC(=O)c2ccc(-c3c4nc(c(-c5ccccc5)c5ccc([nH]5)c(-c5ccccc5)c5nc(c(-c6ccccc6)c6ccc3[nH]6)C=C5)C=C4)cc2)cs1
REMARK SMILES IDX 23 1 22 2 21 3 20 4 19 5 17 6 18 7 16 8 14 9 15 10 80 11
REMARK SMILES IDX 79 12 12 13 13 14 11 15 8 16 9 17 10 19 7 21 6 22 1 23 2 24
REMARK SMILES IDX 3 25 4 26 5 27 24 28 25 29 26 30 27 31 28 32 29 33 30 34
REMARK SMILES IDX 31 35 32 36 78 37 33 38 77 39 34 40 35 41 36 42 71 43 37 44
REMARK SMILES IDX 76 45 70 46 72 47 38 48 75 49 69 50 68 51 39 53 61 54 46 55
REMARK SMILES IDX 60 56 47 57 50 58 59 59 73 60 48 61 49 62 58 64 74 65 51 66
REMARK SMILES IDX 40 67 41 68 45 69 42 70 44 71 43 72 62 73 63 74 67 75 64 76
REMARK SMILES IDX 66 77 65 78 52 79 53 80 57 81 54 82 56 83 55 84
REMARK H PARENT 8 18 11 20 72 52 50 63
REMARK Flexibility Score: inf
ROOT
ATOM      1  C   UNL A   1      34.042  34.808  28.762  1.00  0.00     0.188 C 
ENDROOT
BRANCH   1   2
ATOM      2  O   UNL A   1      33.569  33.575  28.226  1.00  0.00    -0.376 OA
BRANCH   2   3
ATOM      3  C   UNL A   1      34.102  32.342  28.680  1.00  0.00     0.202 C 
BRANCH   3   4
ATOM      4  C   UNL A   1      34.656  31.399  27.609  1.00  0.00     0.261 C 
BRANCH   4   5
ATOM      5  O   UNL A   1      33.632  30.691  26.893  1.00  0.00    -0.458 OA
BRANCH   5   6
ATOM      6  C   UNL A   1      33.771  29.332  26.877  1.00  0.00     0.357 C 
ATOM      7  O   UNL A   1      34.498  28.698  27.625  1.00  0.00    -0.244 OA
BRANCH   6   8
ATOM      8  C   UNL A   1      32.840  28.668  25.952  1.00  0.00     0.159 A 
ATOM      9  C   UNL A   1      31.750  27.011  24.934  1.00  0.00     0.116 A 
ATOM     10  N   UNL A   1      32.722  27.282  25.787  1.00  0.00    -0.232 NA
ATOM     11  S   UNL A   1      31.050  28.387  24.161  1.00  0.00    -0.124 S 
ATOM     12  C   UNL A   1      32.001  29.407  25.136  1.00  0.00     0.102 A 
BRANCH   9  13
ATOM     13  C   UNL A   1      31.180  25.642  24.618  1.00  0.00     0.140 C 
ATOM     14  C   UNL A   1      29.943  25.755  23.730  1.00  0.00     0.039 C 
BRANCH  13  15
ATOM     15  N   UNL A   1      30.849  24.954  25.853  1.00  0.00    -0.329 N 
ATOM     16  N   UNL A   1      31.312  22.654  25.529  1.00  0.00    -0.334 N 
ATOM     17  C   UNL A   1      30.831  23.677  26.238  1.00  0.00     0.315 C 
ATOM     18  H   UNL A   1      31.174  21.794  25.986  1.00  0.00     0.165 HD
ATOM     19  O   UNL A   1      30.358  23.420  27.346  1.00  0.00    -0.249 OA
ATOM     20  H   UNL A   1      30.574  25.570  26.569  1.00  0.00     0.166 HD
BRANCH  16  21
ATOM     21  C   UNL A   1      31.984  22.485  24.257  1.00  0.00     0.154 C 
BRANCH  21  22
ATOM     22  C   UNL A   1      33.437  22.128  24.443  1.00  0.00    -0.015 A 
ATOM     23  C   UNL A   1      34.385  24.435  23.655  1.00  0.00     0.045 C 
ATOM     24  C   UNL A   1      34.536  23.035  24.156  1.00  0.00    -0.035 A 
ATOM     25  C   UNL A   1      35.762  22.441  24.397  1.00  0.00     0.068 A 
ATOM     26  S   UNL A   1      35.625  20.844  24.973  1.00  0.00    -0.152 S 
ATOM     27  C   UNL A   1      33.923  20.912  24.896  1.00  0.00     0.070 A 
ENDBRANCH  21  22
ENDBRANCH  16  21
ENDBRANCH  13  15
ENDBRANCH   9  13
ENDBRANCH   6   8
ENDBRANCH   5   6
ENDBRANCH   4   5
ENDBRANCH   3   4
ENDBRANCH   2   3
ENDBRANCH   1   2
BRANCH   1  28
ATOM     28  C   UNL A   1      33.190  35.648  29.734  1.00  0.00     0.188 C 
BRANCH  28  29
ATOM     29  O   UNL A   1      33.826  35.927  30.973  1.00  0.00    -0.376 OA
BRANCH  29  30
ATOM     30  C   UNL A   1      33.651  34.957  31.995  1.00  0.00     0.202 C 
BRANCH  30  31
ATOM     31  C   UNL A   1      34.980  34.518  32.613  1.00  0.00     0.261 C 
BRANCH  31  32
ATOM     32  O   UNL A   1      35.332  33.150  32.349  1.00  0.00    -0.460 OA
BRANCH  32  33
ATOM     33  C   UNL A   1      36.257  32.598  33.163  1.00  0.00     0.338 C 
ATOM     34  O   UNL A   1      36.282  32.629  34.380  1.00  0.00    -0.246 OA
BRANCH  33  35
ATOM     35  C   UNL A   1      37.192  31.812  32.336  1.00  0.00     0.060 A 
ATOM     36  C   UNL A   1      38.193  31.067  32.970  1.00  0.00     0.016 A 
ATOM     37  C   UNL A   1      37.101  31.838  30.941  1.00  0.00     0.016 A 
ATOM     38  C   UNL A   1      39.135  30.376  32.204  1.00  0.00     0.010 A 
ATOM     39  C   UNL A   1      38.051  31.157  30.177  1.00  0.00     0.010 A 
ATOM     40  C   UNL A   1      39.093  30.452  30.804  1.00  0.00    -0.014 A 
BRANCH  40  41
ATOM     41  C   UNL A   1      40.234  29.957  29.997  1.00  0.00     0.031 A 
ATOM     42  C   UNL A   1      41.383  30.891  29.733  1.00  0.00     0.074 A 
ATOM     43  C   UNL A   1      40.258  28.707  29.503  1.00  0.00     0.049 A 
ATOM     44  N   UNL A   1      42.476  30.688  29.041  1.00  0.00    -0.248 NA
ATOM     45  C   UNL A   1      41.286  32.234  30.328  1.00  0.00     0.031 C 
ATOM     46  C   UNL A   1      39.224  27.694  29.703  1.00  0.00     0.029 A 
ATOM     47  N   UNL A   1      41.197  28.084  28.720  1.00  0.00    -0.354 N 
ATOM     48  C   UNL A   1      43.195  31.873  29.119  1.00  0.00     0.074 A 
ATOM     49  C   UNL A   1      42.404  32.801  29.898  1.00  0.00     0.031 C 
ATOM     50  C   UNL A   1      39.585  26.573  29.051  1.00  0.00     0.029 A 
ATOM     51  C   UNL A   1      40.859  26.800  28.372  1.00  0.00     0.049 A 
ATOM     52  H   UNL A   1      42.034  28.517  28.435  1.00  0.00     0.167 HD
ATOM     53  C   UNL A   1      44.408  32.168  28.596  1.00  0.00     0.031 A 
ATOM     54  C   UNL A   1      41.500  25.914  27.584  1.00  0.00     0.031 A 
ATOM     55  C   UNL A   1      45.193  31.265  27.800  1.00  0.00     0.049 A 
ATOM     56  C   UNL A   1      42.814  26.291  26.950  1.00  0.00     0.074 A 
ATOM     57  C   UNL A   1      46.440  31.473  27.236  1.00  0.00     0.029 A 
ATOM     58  N   UNL A   1      44.799  29.985  27.446  1.00  0.00    -0.354 N 
ATOM     59  N   UNL A   1      43.501  27.401  27.064  1.00  0.00    -0.248 NA
ATOM     60  C   UNL A   1      43.443  25.283  26.081  1.00  0.00     0.031 C 
ATOM     61  C   UNL A   1      46.781  30.331  26.502  1.00  0.00     0.029 A 
ATOM     62  C   UNL A   1      45.768  29.399  26.650  1.00  0.00     0.049 A 
ATOM     63  H   UNL A   1      43.956  29.557  27.720  1.00  0.00     0.167 HD
ATOM     64  C   UNL A   1      44.652  27.215  26.308  1.00  0.00     0.074 A 
ATOM     65  C   UNL A   1      44.577  25.883  25.746  1.00  0.00     0.031 C 
ATOM     66  C   UNL A   1      45.683  28.072  26.101  1.00  0.00     0.031 A 
BRANCH  53  67
ATOM     67  C   UNL A   1      44.946  33.546  28.852  1.00  0.00    -0.014 A 
ATOM     68  C   UNL A   1      45.795  33.801  29.938  1.00  0.00     0.009 A 
ATOM     69  C   UNL A   1      44.612  34.596  27.984  1.00  0.00     0.009 A 
ATOM     70  C   UNL A   1      46.276  35.091  30.169  1.00  0.00     0.001 A 
ATOM     71  C   UNL A   1      45.113  35.880  28.204  1.00  0.00     0.001 A 
ATOM     72  C   UNL A   1      45.938  36.128  29.301  1.00  0.00     0.000 A 
ENDBRANCH  53  67
BRANCH  54  73
ATOM     73  C   UNL A   1      40.906  24.577  27.328  1.00  0.00    -0.014 A 
ATOM     74  C   UNL A   1      39.797  24.439  26.478  1.00  0.00     0.009 A 
ATOM     75  C   UNL A   1      41.423  23.437  27.960  1.00  0.00     0.009 A 
ATOM     76  C   UNL A   1      39.204  23.189  26.287  1.00  0.00     0.001 A 
ATOM     77  C   UNL A   1      40.843  22.184  27.749  1.00  0.00     0.001 A 
ATOM     78  C   UNL A   1      39.729  22.063  26.920  1.00  0.00     0.000 A 
ENDBRANCH  54  73
BRANCH  66  79
ATOM     79  C   UNL A   1      46.830  27.585  25.262  1.00  0.00    -0.014 A 
ATOM     80  C   UNL A   1      46.879  27.830  23.882  1.00  0.00     0.009 A 
ATOM     81  C   UNL A   1      47.900  26.913  25.873  1.00  0.00     0.009 A 
ATOM     82  C   UNL A   1      47.967  27.388  23.126  1.00  0.00     0.001 A 
ATOM     83  C   UNL A   1      48.997  26.494  25.119  1.00  0.00     0.001 A 
ATOM     84  C   UNL A   1      49.026  26.725  23.745  1.00  0.00     0.000 A 
ENDBRANCH  66  79
ENDBRANCH  40  41
ENDBRANCH  33  35
ENDBRANCH  32  33
ENDBRANCH  31  32
ENDBRANCH  30  31
ENDBRANCH  29  30
ENDBRANCH  28  29
ENDBRANCH   1  28
TORSDOF 21
ENDMDL
MODEL 2
REMARK VINA RESULT:      -9.7      4.453      9.621
REMARK SMILES Cc1cscc1CNC(=O)N[C@@H](C)c1nc(C(=O)OCCOCCOCCOC(=O)c2ccc(-c3c4nc(c(-c5ccccc5)c5ccc([nH]5)c(-c5ccccc5)c5nc(c(-c6ccccc6)c6ccc3[nH]6)C=C5)C=C4)cc2)cs1
REMARK SMILES IDX 23 1 22 2 21 3 20 4 19 5 17 6 18 7 16 8 14 9 15 10 80 11
REMARK SMILES IDX 79 12 12 13 13 14 11 15 8 16 9 17 10 19 7 21 6 22 1 23 2 24
REMARK SMILES IDX 3 25 4 26 5 27 24 28 25 29 26 30 27 31 28 32 29 33 30 34
REMARK SMILES IDX 31 35 32 36 78 37 33 38 77 39 34 40 35 41 36 42 71 43 37 44
REMARK SMILES IDX 76 45 70 46 72 47 38 48 75 49 69 50 68 51 39 53 61 54 46 55
REMARK SMILES IDX 60 56 47 57 50 58 59 59 73 60 48 61 49 62 58 64 74 65 51 66
REMARK SMILES IDX 40 67 41 68 45 69 42 70 44 71 43 72 62 73 63 74 67 75 64 76
REMARK SMILES IDX 66 77 65 78 52 79 53 80 57 81 54 82 56 83 55 84
REMARK H PARENT 8 18 11 20 72 52 50 63
REMARK Flexibility Score: inf
ROOT
ATOM      1  C   UNL A   1      39.003  20.967  25.903  1.00  0.00     0.188 C 
ENDROOT
BRANCH   1   2
ATOM      2  O   UNL A   1      38.122  22.056  25.642  1.00  0.00    -0.376 OA
BRANCH   2   3
ATOM      3  C   UNL A   1      37.342  22.082  24.458  1.00  0.00     0.202 C 
BRANCH   3   4
ATOM      4  C   UNL A   1      35.879  22.506  24.611  1.00  0.00     0.261 C 
BRANCH   4   5
ATOM      5  O   UNL A   1      35.707  23.930  24.688  1.00  0.00    -0.458 OA
BRANCH   5   6
ATOM      6  C   UNL A   1      34.758  24.352  25.576  1.00  0.00     0.357 C 
ATOM      7  O   UNL A   1      34.537  23.831  26.658  1.00  0.00    -0.244 OA
BRANCH   6   8
ATOM      8  C   UNL A   1      34.104  25.605  25.169  1.00  0.00     0.159 A 
ATOM      9  C   UNL A   1      33.297  27.186  23.820  1.00  0.00     0.116 A 
ATOM     10  N   UNL A   1      34.002  26.067  23.851  1.00  0.00    -0.232 NA
ATOM     11  S   UNL A   1      32.874  27.827  25.365  1.00  0.00    -0.124 S 
ATOM     12  C   UNL A   1      33.543  26.451  26.110  1.00  0.00     0.102 A 
BRANCH   9  13
ATOM     13  C   UNL A   1      32.804  27.908  22.582  1.00  0.00     0.140 C 
ATOM     14  C   UNL A   1      31.334  28.298  22.724  1.00  0.00     0.039 C 
BRANCH  13  15
ATOM     15  N   UNL A   1      32.987  27.061  21.417  1.00  0.00    -0.329 N 
ATOM     16  N   UNL A   1      31.660  25.125  21.735  1.00  0.00    -0.334 N 
ATOM     17  C   UNL A   1      32.565  25.844  21.068  1.00  0.00     0.315 C 
ATOM     18  H   UNL A   1      31.514  24.244  21.320  1.00  0.00     0.165 HD
ATOM     19  O   UNL A   1      33.026  25.353  20.036  1.00  0.00    -0.249 OA
ATOM     20  H   UNL A   1      33.550  27.480  20.727  1.00  0.00     0.166 HD
BRANCH  16  21
ATOM     21  C   UNL A   1      30.839  25.307  22.913  1.00  0.00     0.154 C 
BRANCH  21  22
ATOM     22  C   UNL A   1      31.070  24.212  23.923  1.00  0.00    -0.015 A 
ATOM     23  C   UNL A   1      29.945  25.455  25.931  1.00  0.00     0.045 C 
ATOM     24  C   UNL A   1      30.657  24.294  25.314  1.00  0.00    -0.035 A 
ATOM     25  C   UNL A   1      31.012  23.158  26.019  1.00  0.00     0.068 A 
ATOM     26  S   UNL A   1      31.803  21.998  25.054  1.00  0.00    -0.152 S 
ATOM     27  C   UNL A   1      31.699  23.000  23.679  1.00  0.00     0.070 A 
ENDBRANCH  21  22
ENDBRANCH  16  21
ENDBRANCH  13  15
ENDBRANCH   9  13
ENDBRANCH   6   8
ENDBRANCH   5   6
ENDBRANCH   4   5
ENDBRANCH   3   4
ENDBRANCH   2   3
ENDBRANCH   1   2
BRANCH   1  28
ATOM     28  C   UNL A   1      40.430  21.190  26.444  1.00  0.00     0.188 C 
BRANCH  28  29
ATOM     29  O   UNL A   1      41.459  20.803  25.546  1.00  0.00    -0.376 OA
BRANCH  29  30
ATOM     30  C   UNL A   1      42.737  20.579  26.123  1.00  0.00     0.202 C 
BRANCH  30  31
ATOM     31  C   UNL A   1      43.780  21.587  25.635  1.00  0.00     0.261 C 
BRANCH  31  32
ATOM     32  O   UNL A   1      43.236  22.686  24.887  1.00  0.00    -0.460 OA
BRANCH  32  33
ATOM     33  C   UNL A   1      43.951  23.832  24.893  1.00  0.00     0.338 C 
ATOM     34  O   UNL A   1      44.923  24.099  24.211  1.00  0.00    -0.246 OA
BRANCH  33  35
ATOM     35  C   UNL A   1      43.276  24.793  25.786  1.00  0.00     0.060 A 
ATOM     36  C   UNL A   1      43.816  26.077  25.928  1.00  0.00     0.016 A 
ATOM     37  C   UNL A   1      42.137  24.418  26.503  1.00  0.00     0.016 A 
ATOM     38  C   UNL A   1      43.237  26.978  26.824  1.00  0.00     0.010 A 
ATOM     39  C   UNL A   1      41.567  25.316  27.408  1.00  0.00     0.010 A 
ATOM     40  C   UNL A   1      42.135  26.588  27.598  1.00  0.00    -0.014 A 
BRANCH  40  41
ATOM     41  C   UNL A   1      41.689  27.428  28.736  1.00  0.00     0.031 A 
ATOM     42  C   UNL A   1      42.436  27.325  30.038  1.00  0.00     0.074 A 
ATOM     43  C   UNL A   1      40.643  28.265  28.626  1.00  0.00     0.049 A 
ATOM     44  N   UNL A   1      42.218  27.945  31.171  1.00  0.00    -0.248 NA
ATOM     45  C   UNL A   1      43.581  26.400  30.066  1.00  0.00     0.031 C 
ATOM     46  C   UNL A   1      39.848  28.479  27.419  1.00  0.00     0.029 A 
ATOM     47  N   UNL A   1      40.070  29.090  29.561  1.00  0.00    -0.354 N 
ATOM     48  C   UNL A   1      43.197  27.487  32.042  1.00  0.00     0.074 A 
ATOM     49  C   UNL A   1      43.991  26.517  31.320  1.00  0.00     0.031 C 
ATOM     50  C   UNL A   1      38.882  29.376  27.690  1.00  0.00     0.029 A 
ATOM     51  C   UNL A   1      38.978  29.778  29.092  1.00  0.00     0.049 A 
ATOM     52  H   UNL A   1      40.409  29.180  30.481  1.00  0.00     0.167 HD
ATOM     53  C   UNL A   1      43.424  27.842  33.329  1.00  0.00     0.031 A 
ATOM     54  C   UNL A   1      38.144  30.625  29.727  1.00  0.00     0.031 A 
ATOM     55  C   UNL A   1      42.628  28.786  34.065  1.00  0.00     0.049 A 
ATOM     56  C   UNL A   1      38.371  30.948  31.181  1.00  0.00     0.074 A 
ATOM     57  C   UNL A   1      42.790  29.216  35.371  1.00  0.00     0.029 A 
ATOM     58  N   UNL A   1      41.514  29.435  33.562  1.00  0.00    -0.354 N 
ATOM     59  N   UNL A   1      39.324  30.538  31.983  1.00  0.00    -0.248 NA
ATOM     60  C   UNL A   1      37.405  31.859  31.815  1.00  0.00     0.031 C 
ATOM     61  C   UNL A   1      41.743  30.095  35.672  1.00  0.00     0.029 A 
ATOM     62  C   UNL A   1      40.962  30.246  34.538  1.00  0.00     0.049 A 
ATOM     63  H   UNL A   1      41.167  29.336  32.646  1.00  0.00     0.167 HD
ATOM     64  C   UNL A   1      39.089  31.162  33.202  1.00  0.00     0.074 A 
ATOM     65  C   UNL A   1      37.910  31.985  33.035  1.00  0.00     0.031 C 
ATOM     66  C   UNL A   1      39.791  31.063  34.358  1.00  0.00     0.031 A 
BRANCH  53  67
ATOM     67  C   UNL A   1      44.573  27.176  34.029  1.00  0.00    -0.014 A 
ATOM     68  C   UNL A   1      44.384  26.002  34.773  1.00  0.00     0.009 A 
ATOM     69  C   UNL A   1      45.861  27.721  33.926  1.00  0.00     0.009 A 
ATOM     70  C   UNL A   1      45.461  25.403  35.429  1.00  0.00     0.001 A 
ATOM     71  C   UNL A   1      46.940  27.106  34.564  1.00  0.00     0.001 A 
ATOM     72  C   UNL A   1      46.738  25.953  35.321  1.00  0.00     0.000 A 
ENDBRANCH  53  67
BRANCH  54  73
ATOM     73  C   UNL A   1      36.996  31.226  29.002  1.00  0.00    -0.014 A 
ATOM     74  C   UNL A   1      37.011  32.582  28.641  1.00  0.00     0.009 A 
ATOM     75  C   UNL A   1      35.864  30.455  28.698  1.00  0.00     0.009 A 
ATOM     76  C   UNL A   1      35.904  33.159  28.013  1.00  0.00     0.001 A 
ATOM     77  C   UNL A   1      34.769  31.028  28.048  1.00  0.00     0.001 A 
ATOM     78  C   UNL A   1      34.786  32.381  27.715  1.00  0.00     0.000 A 
ENDBRANCH  54  73
BRANCH  66  79
ATOM     79  C   UNL A   1      39.328  31.892  35.522  1.00  0.00    -0.014 A 
ATOM     80  C   UNL A   1      39.819  33.190  35.733  1.00  0.00     0.009 A 
ATOM     81  C   UNL A   1      38.351  31.383  36.392  1.00  0.00     0.009 A 
ATOM     82  C   UNL A   1      39.356  33.951  36.809  1.00  0.00     0.001 A 
ATOM     83  C   UNL A   1      37.874  32.156  37.451  1.00  0.00     0.001 A 
ATOM     84  C   UNL A   1      38.382  33.436  37.663  1.00  0.00     0.000 A 
ENDBRANCH  66  79
ENDBRANCH  40  41
ENDBRANCH  33  35
ENDBRANCH  32  33
ENDBRANCH  31  32
ENDBRANCH  30  31
ENDBRANCH  29  30
ENDBRANCH  28  29
ENDBRANCH   1  28
TORSDOF 21
ENDMDL
MODEL 3
REMARK VINA RESULT:      -9.5      3.855      9.399
REMARK SMILES Cc1cscc1CNC(=O)N[C@@H](C)c1nc(C(=O)OCCOCCOCCOC(=O)c2ccc(-c3c4nc(c(-c5ccccc5)c5ccc([nH]5)c(-c5ccccc5)c5nc(c(-c6ccccc6)c6ccc3[nH]6)C=C5)C=C4)cc2)cs1
REMARK SMILES IDX 23 1 22 2 21 3 20 4 19 5 17 6 18 7 16 8 14 9 15 10 80 11
REMARK SMILES IDX 79 12 12 13 13 14 11 15 8 16 9 17 10 19 7 21 6 22 1 23 2 24
REMARK SMILES IDX 3 25 4 26 5 27 24 28 25 29 26 30 27 31 28 32 29 33 30 34
REMARK SMILES IDX 31 35 32 36 78 37 33 38 77 39 34 40 35 41 36 42 71 43 37 44
REMARK SMILES IDX 76 45 70 46 72 47 38 48 75 49 69 50 68 51 39 53 61 54 46 55
REMARK SMILES IDX 60 56 47 57 50 58 59 59 73 60 48 61 49 62 58 64 74 65 51 66
REMARK SMILES IDX 40 67 41 68 45 69 42 70 44 71 43 72 62 73 63 74 67 75 64 76
REMARK SMILES IDX 66 77 65 78 52 79 53 80 57 81 54 82 56 83 55 84
REMARK H PARENT 8 18 11 20 72 52 50 63
REMARK Flexibility Score: inf
ROOT
ATOM      1  C   UNL A   1      36.211  19.150  24.701  1.00  0.00     0.188 C 
ENDROOT
BRANCH   1   2
ATOM      2  O   UNL A   1      35.112  18.280  24.952  1.00  0.00    -0.376 OA
BRANCH   2   3
ATOM      3  C   UNL A   1      34.890  17.145  24.130  1.00  0.00     0.202 C 
BRANCH   3   4
ATOM      4  C   UNL A   1      33.470  16.575  24.120  1.00  0.00     0.261 C 
BRANCH   4   5
ATOM      5  O   UNL A   1      32.452  17.586  24.177  1.00  0.00    -0.458 OA
BRANCH   5   6
ATOM      6  C   UNL A   1      32.357  18.376  23.065  1.00  0.00     0.357 C 
ATOM      7  O   UNL A   1      32.204  17.959  21.927  1.00  0.00    -0.244 OA
BRANCH   6   8
ATOM      8  C   UNL A   1      32.309  19.812  23.379  1.00  0.00     0.159 A 
ATOM      9  C   UNL A   1      32.387  21.676  24.599  1.00  0.00     0.116 A 
ATOM     10  N   UNL A   1      32.392  20.356  24.667  1.00  0.00    -0.232 NA
ATOM     11  S   UNL A   1      32.113  22.327  23.024  1.00  0.00    -0.124 S 
ATOM     12  C   UNL A   1      32.151  20.753  22.377  1.00  0.00     0.102 A 
BRANCH   9  13
ATOM     13  C   UNL A   1      32.641  22.640  25.741  1.00  0.00     0.140 C 
ATOM     14  C   UNL A   1      33.153  21.904  26.977  1.00  0.00     0.039 C 
BRANCH  13  15
ATOM     15  N   UNL A   1      31.417  23.356  26.057  1.00  0.00    -0.329 N 
ATOM     16  N   UNL A   1      31.982  25.641  26.321  1.00  0.00    -0.334 N 
ATOM     17  C   UNL A   1      31.126  24.619  26.375  1.00  0.00     0.315 C 
ATOM     18  H   UNL A   1      31.568  26.481  26.624  1.00  0.00     0.165 HD
ATOM     19  O   UNL A   1      29.971  24.869  26.723  1.00  0.00    -0.249 OA
ATOM     20  H   UNL A   1      30.621  22.778  26.029  1.00  0.00     0.166 HD
BRANCH  16  21
ATOM     21  C   UNL A   1      33.363  25.831  25.932  1.00  0.00     0.154 C 
BRANCH  21  22
ATOM     22  C   UNL A   1      33.476  26.673  24.686  1.00  0.00    -0.015 A 
ATOM     23  C   UNL A   1      33.924  28.933  25.926  1.00  0.00     0.045 C 
ATOM     24  C   UNL A   1      33.730  28.103  24.697  1.00  0.00    -0.035 A 
ATOM     25  C   UNL A   1      33.764  28.625  23.416  1.00  0.00     0.068 A 
ATOM     26  S   UNL A   1      33.522  27.444  22.212  1.00  0.00    -0.152 S 
ATOM     27  C   UNL A   1      33.351  26.216  23.383  1.00  0.00     0.070 A 
ENDBRANCH  21  22
ENDBRANCH  16  21
ENDBRANCH  13  15
ENDBRANCH   9  13
ENDBRANCH   6   8
ENDBRANCH   5   6
ENDBRANCH   4   5
ENDBRANCH   3   4
ENDBRANCH   2   3
ENDBRANCH   1   2
BRANCH   1  28
ATOM     28  C   UNL A   1      36.091  20.678  24.872  1.00  0.00     0.188 C 
BRANCH  28  29
ATOM     29  O   UNL A   1      37.280  21.392  24.569  1.00  0.00    -0.376 OA
BRANCH  29  30
ATOM     30  C   UNL A   1      37.735  22.295  25.567  1.00  0.00     0.202 C 
BRANCH  30  31
ATOM     31  C   UNL A   1      39.099  21.896  26.133  1.00  0.00     0.261 C 
BRANCH  31  32
ATOM     32  O   UNL A   1      39.431  20.509  25.956  1.00  0.00    -0.460 OA
BRANCH  32  33
ATOM     33  C   UNL A   1      40.734  20.179  26.096  1.00  0.00     0.338 C 
ATOM     34  O   UNL A   1      41.274  19.147  25.745  1.00  0.00    -0.246 OA
BRANCH  33  35
ATOM     35  C   UNL A   1      41.452  21.348  26.636  1.00  0.00     0.060 A 
ATOM     36  C   UNL A   1      41.457  21.558  28.020  1.00  0.00     0.016 A 
ATOM     37  C   UNL A   1      42.090  22.249  25.778  1.00  0.00     0.016 A 
ATOM     38  C   UNL A   1      42.067  22.698  28.547  1.00  0.00     0.010 A 
ATOM     39  C   UNL A   1      42.688  23.396  26.306  1.00  0.00     0.010 A 
ATOM     40  C   UNL A   1      42.649  23.643  27.690  1.00  0.00    -0.014 A 
BRANCH  40  41
ATOM     41  C   UNL A   1      43.050  24.973  28.208  1.00  0.00     0.031 A 
ATOM     42  C   UNL A   1      41.984  26.017  28.404  1.00  0.00     0.074 A 
ATOM     43  C   UNL A   1      44.330  25.258  28.501  1.00  0.00     0.049 A 
ATOM     44  N   UNL A   1      42.099  27.251  28.826  1.00  0.00    -0.248 NA
ATOM     45  C   UNL A   1      40.606  25.614  28.080  1.00  0.00     0.031 C 
ATOM     46  C   UNL A   1      45.457  24.335  28.380  1.00  0.00     0.029 A 
ATOM     47  N   UNL A   1      44.894  26.424  28.956  1.00  0.00    -0.354 N 
ATOM     48  C   UNL A   1      40.810  27.770  28.819  1.00  0.00     0.074 A 
ATOM     49  C   UNL A   1      39.935  26.730  28.324  1.00  0.00     0.031 C 
ATOM     50  C   UNL A   1      46.582  24.974  28.749  1.00  0.00     0.029 A 
ATOM     51  C   UNL A   1      46.257  26.354  29.106  1.00  0.00     0.049 A 
ATOM     52  H   UNL A   1      44.371  27.234  29.157  1.00  0.00     0.167 HD
ATOM     53  C   UNL A   1      40.387  28.999  29.196  1.00  0.00     0.031 A 
ATOM     54  C   UNL A   1      47.142  27.301  29.476  1.00  0.00     0.031 A 
ATOM     55  C   UNL A   1      41.249  30.048  29.666  1.00  0.00     0.049 A 
ATOM     56  C   UNL A   1      46.656  28.685  29.819  1.00  0.00     0.074 A 
ATOM     57  C   UNL A   1      40.908  31.324  30.081  1.00  0.00     0.029 A 
ATOM     58  N   UNL A   1      42.626  29.945  29.773  1.00  0.00    -0.354 N 
ATOM     59  N   UNL A   1      45.431  29.151  29.845  1.00  0.00    -0.248 NA
ATOM     60  C   UNL A   1      47.682  29.674  30.188  1.00  0.00     0.031 C 
ATOM     61  C   UNL A   1      42.086  32.009  30.397  1.00  0.00     0.029 A 
ATOM     62  C   UNL A   1      43.153  31.143  30.224  1.00  0.00     0.049 A 
ATOM     63  H   UNL A   1      43.151  29.140  29.560  1.00  0.00     0.167 HD
ATOM     64  C   UNL A   1      45.536  30.473  30.261  1.00  0.00     0.074 A 
ATOM     65  C   UNL A   1      46.943  30.735  30.484  1.00  0.00     0.031 C 
ATOM     66  C   UNL A   1      44.553  31.389  30.445  1.00  0.00     0.031 A 
BRANCH  53  67
ATOM     67  C   UNL A   1      38.917  29.279  29.084  1.00  0.00    -0.014 A 
ATOM     68  C   UNL A   1      38.354  29.722  27.877  1.00  0.00     0.009 A 
ATOM     69  C   UNL A   1      38.082  29.079  30.193  1.00  0.00     0.009 A 
ATOM     70  C   UNL A   1      36.987  29.990  27.793  1.00  0.00     0.001 A 
ATOM     71  C   UNL A   1      36.712  29.327  30.100  1.00  0.00     0.001 A 
ATOM     72  C   UNL A   1      36.167  29.789  28.903  1.00  0.00     0.000 A 
ENDBRANCH  53  67
BRANCH  54  73
ATOM     73  C   UNL A   1      48.592  26.986  29.532  1.00  0.00    -0.014 A 
ATOM     74  C   UNL A   1      49.433  27.299  28.452  1.00  0.00     0.009 A 
ATOM     75  C   UNL A   1      49.136  26.337  30.650  1.00  0.00     0.009 A 
ATOM     76  C   UNL A   1      50.785  26.947  28.483  1.00  0.00     0.001 A 
ATOM     77  C   UNL A   1      50.493  26.008  30.688  1.00  0.00     0.001 A 
ATOM     78  C   UNL A   1      51.314  26.304  29.601  1.00  0.00     0.000 A 
ENDBRANCH  54  73
BRANCH  66  79
ATOM     79  C   UNL A   1      44.957  32.747  30.946  1.00  0.00    -0.014 A 
ATOM     80  C   UNL A   1      45.057  33.016  32.319  1.00  0.00     0.009 A 
ATOM     81  C   UNL A   1      45.288  33.755  30.027  1.00  0.00     0.009 A 
ATOM     82  C   UNL A   1      45.457  34.279  32.761  1.00  0.00     0.001 A 
ATOM     83  C   UNL A   1      45.710  35.008  30.472  1.00  0.00     0.001 A 
ATOM     84  C   UNL A   1      45.786  35.271  31.839  1.00  0.00     0.000 A 
ENDBRANCH  66  79
ENDBRANCH  40  41
ENDBRANCH  33  35
ENDBRANCH  32  33
ENDBRANCH  31  32
ENDBRANCH  30  31
ENDBRANCH  29  30
ENDBRANCH  28  29
ENDBRANCH   1  28
TORSDOF 21
ENDMDL
