MODEL 1
REMARK VINA RESULT:      -9.5      0.000      0.000
REMARK SMILES O=C(OCCOCCOCCOC(=O)[C@H]1O[C@@H](Oc2c(-c3cc(O)c(O)c(O)c3)oc3cc(O)cc(O)c3c2=O)[C@H](O)[C@@H](O)[C@@H]1O)c1ccc(-c2c3nc(c(-c4ccccc4)c4ccc([nH]4)c(-c4ccccc4)c4nc(c(-c5ccccc5)c5ccc2[nH]5)C=C4)C=C3)cc1
REMARK SMILES IDX 8 1 7 2 6 3 5 4 4 5 3 6 2 7 1 8 47 9 48 10 94 11 49 12 93 13
REMARK SMILES IDX 50 14 51 15 52 16 87 17 53 18 92 19 86 20 88 21 54 22 91 23
REMARK SMILES IDX 85 24 84 25 55 27 77 28 62 29 76 30 63 31 66 32 75 33 89 34
REMARK SMILES IDX 64 35 65 36 74 38 90 39 67 40 56 41 57 42 61 43 58 44 60 45
REMARK SMILES IDX 59 46 78 47 79 48 83 49 80 50 82 51 81 52 68 53 69 54 73 55
REMARK SMILES IDX 70 56 72 57 71 58 9 59 10 60 11 61 12 62 13 63 14 64 15 65
REMARK SMILES IDX 16 66 45 67 17 68 43 69 41 70 46 71 18 73 19 74 20 75 39 76
REMARK SMILES IDX 30 77 38 78 40 79 31 80 36 81 32 82 35 83 33 84 21 85 22 86
REMARK SMILES IDX 29 87 23 88 27 89 25 90 24 91 28 93 26 95 37 97 34 99 44 101
REMARK SMILES IDX 42 103
REMARK H PARENT 88 26 66 37 46 72 24 92 28 94 26 96 37 98 34 100 44 102 42 104
REMARK Flexibility Score: inf
ROOT
ATOM      1  C   UNL A   1      33.785  22.569  27.137  1.00  0.00     0.188 C 
ENDROOT
BRANCH   1   2
ATOM      2  C   UNL A   1      34.199  21.428  26.207  1.00  0.00     0.188 C 
BRANCH   2   3
ATOM      3  O   UNL A   1      35.619  21.235  26.117  1.00  0.00    -0.376 OA
BRANCH   3   4
ATOM      4  C   UNL A   1      36.273  22.293  25.397  1.00  0.00     0.202 C 
BRANCH   4   5
ATOM      5  C   UNL A   1      37.813  22.301  25.420  1.00  0.00     0.261 C 
BRANCH   5   6
ATOM      6  O   UNL A   1      38.400  23.330  26.228  1.00  0.00    -0.460 OA
BRANCH   6   7
ATOM      7  C   UNL A   1      39.598  23.360  26.859  1.00  0.00     0.338 C 
ATOM      8  O   UNL A   1      40.016  22.305  27.337  1.00  0.00    -0.246 OA
BRANCH   7   9
ATOM      9  C   UNL A   1      40.422  24.595  27.079  1.00  0.00     0.060 A 
ATOM     10  C   UNL A   1      40.623  25.624  26.158  1.00  0.00     0.016 A 
ATOM     11  C   UNL A   1      41.033  24.728  28.341  1.00  0.00     0.016 A 
ATOM     12  C   UNL A   1      41.399  26.739  26.456  1.00  0.00     0.010 A 
ATOM     13  C   UNL A   1      41.827  25.839  28.646  1.00  0.00     0.010 A 
ATOM     14  C   UNL A   1      42.015  26.848  27.694  1.00  0.00    -0.014 A 
BRANCH  14  15
ATOM     15  C   UNL A   1      43.018  27.915  27.878  1.00  0.00     0.031 A 
ATOM     16  C   UNL A   1      42.544  29.183  28.502  1.00  0.00     0.074 A 
ATOM     17  C   UNL A   1      44.327  27.713  27.647  1.00  0.00     0.049 A 
ATOM     18  N   UNL A   1      43.235  30.235  28.838  1.00  0.00    -0.248 NA
ATOM     19  C   UNL A   1      41.115  29.248  28.858  1.00  0.00     0.031 C 
ATOM     20  C   UNL A   1      44.909  26.440  27.260  1.00  0.00     0.029 A 
ATOM     21  N   UNL A   1      45.409  28.550  27.702  1.00  0.00    -0.354 N 
ATOM     22  C   UNL A   1      42.339  31.062  29.492  1.00  0.00     0.074 A 
ATOM     23  C   UNL A   1      41.043  30.428  29.450  1.00  0.00     0.031 C 
ATOM     24  C   UNL A   1      46.213  26.585  26.994  1.00  0.00     0.029 A 
ATOM     25  C   UNL A   1      46.570  27.969  27.240  1.00  0.00     0.049 A 
ATOM     26  H   UNL A   1      45.363  29.473  28.038  1.00  0.00     0.167 HD
ATOM     27  C   UNL A   1      42.598  32.239  30.100  1.00  0.00     0.031 A 
ATOM     28  C   UNL A   1      47.787  28.501  27.037  1.00  0.00     0.031 A 
ATOM     29  C   UNL A   1      43.887  32.869  30.069  1.00  0.00     0.049 A 
ATOM     30  C   UNL A   1      47.994  29.906  27.509  1.00  0.00     0.074 A 
ATOM     31  C   UNL A   1      44.256  34.102  30.568  1.00  0.00     0.029 A 
ATOM     32  N   UNL A   1      45.017  32.312  29.480  1.00  0.00    -0.354 N 
ATOM     33  N   UNL A   1      47.136  30.700  28.104  1.00  0.00    -0.248 NA
ATOM     34  C   UNL A   1      49.334  30.474  27.337  1.00  0.00     0.031 C 
ATOM     35  C   UNL A   1      45.593  34.321  30.218  1.00  0.00     0.029 A 
ATOM     36  C   UNL A   1      46.077  33.196  29.566  1.00  0.00     0.049 A 
ATOM     37  H   UNL A   1      45.055  31.421  29.063  1.00  0.00     0.167 HD
ATOM     38  C   UNL A   1      47.841  31.844  28.427  1.00  0.00     0.074 A 
ATOM     39  C   UNL A   1      49.200  31.637  27.959  1.00  0.00     0.031 C 
ATOM     40  C   UNL A   1      47.410  32.958  29.068  1.00  0.00     0.031 A 
BRANCH  27  41
ATOM     41  C   UNL A   1      41.433  32.914  30.757  1.00  0.00    -0.014 A 
ATOM     42  C   UNL A   1      41.156  32.732  32.123  1.00  0.00     0.009 A 
ATOM     43  C   UNL A   1      40.556  33.685  29.981  1.00  0.00     0.009 A 
ATOM     44  C   UNL A   1      40.001  33.277  32.687  1.00  0.00     0.001 A 
ATOM     45  C   UNL A   1      39.417  34.250  30.554  1.00  0.00     0.001 A 
ATOM     46  C   UNL A   1      39.134  34.036  31.902  1.00  0.00     0.000 A 
ENDBRANCH  27  41
BRANCH  28  47
ATOM     47  C   UNL A   1      48.866  27.714  26.382  1.00  0.00    -0.014 A 
ATOM     48  C   UNL A   1      48.985  27.657  24.985  1.00  0.00     0.009 A 
ATOM     49  C   UNL A   1      49.787  26.996  27.165  1.00  0.00     0.009 A 
ATOM     50  C   UNL A   1      49.976  26.870  24.388  1.00  0.00     0.001 A 
ATOM     51  C   UNL A   1      50.793  26.231  26.566  1.00  0.00     0.001 A 
ATOM     52  C   UNL A   1      50.879  26.159  25.178  1.00  0.00     0.000 A 
ENDBRANCH  28  47
BRANCH  40  53
ATOM     53  C   UNL A   1      48.438  34.019  29.314  1.00  0.00    -0.014 A 
ATOM     54  C   UNL A   1      48.645  35.058  28.395  1.00  0.00     0.009 A 
ATOM     55  C   UNL A   1      49.182  33.992  30.503  1.00  0.00     0.009 A 
ATOM     56  C   UNL A   1      49.611  36.032  28.647  1.00  0.00     0.001 A 
ATOM     57  C   UNL A   1      50.120  34.987  30.769  1.00  0.00     0.001 A 
ATOM     58  C   UNL A   1      50.341  35.999  29.836  1.00  0.00     0.000 A 
ENDBRANCH  40  53
ENDBRANCH  14  15
ENDBRANCH   7   9
ENDBRANCH   6   7
ENDBRANCH   5   6
ENDBRANCH   4   5
ENDBRANCH   3   4
ENDBRANCH   2   3
ENDBRANCH   1   2
BRANCH   1  59
ATOM     59  O   UNL A   1      32.442  22.578  27.610  1.00  0.00    -0.376 OA
BRANCH  59  60
ATOM     60  C   UNL A   1      31.481  23.363  26.919  1.00  0.00     0.202 C 
BRANCH  60  61
ATOM     61  C   UNL A   1      31.981  24.408  25.912  1.00  0.00     0.261 C 
BRANCH  61  62
ATOM     62  O   UNL A   1      32.071  25.735  26.438  1.00  0.00    -0.461 OA
BRANCH  62  63
ATOM     63  C   UNL A   1      33.238  26.405  26.197  1.00  0.00     0.338 C 
ATOM     64  O   UNL A   1      34.285  25.857  25.862  1.00  0.00    -0.249 OA
BRANCH  63  65
ATOM     65  C   UNL A   1      33.109  27.911  26.478  1.00  0.00     0.263 C 
ATOM     66  O   UNL A   1      34.385  28.568  26.563  1.00  0.00    -0.322 OA
ATOM     67  C   UNL A   1      32.282  28.730  25.478  1.00  0.00     0.186 C 
ATOM     68  C   UNL A   1      34.313  29.809  27.272  1.00  0.00     0.340 C 
ATOM     69  C   UNL A   1      31.969  30.052  26.197  1.00  0.00     0.181 C 
ATOM     70  C   UNL A   1      33.212  30.736  26.735  1.00  0.00     0.214 C 
BRANCH  67  71
ATOM     71  O   UNL A   1      31.051  28.128  25.094  1.00  0.00    -0.387 OA
ATOM     72  H   UNL A   1      31.162  27.165  25.052  1.00  0.00     0.211 HD
ENDBRANCH  67  71
BRANCH  68  73
ATOM     73  O   UNL A   1      35.546  30.573  27.318  1.00  0.00    -0.454 OA
BRANCH  73  74
ATOM     74  C   UNL A   1      36.215  30.646  28.529  1.00  0.00     0.214 A 
ATOM     75  C   UNL A   1      36.021  31.610  29.462  1.00  0.00     0.181 A 
ATOM     76  C   UNL A   1      37.058  29.469  28.907  1.00  0.00     0.239 A 
ATOM     77  O   UNL A   1      36.660  31.652  30.685  1.00  0.00    -0.452 OA
ATOM     78  C   UNL A   1      37.575  29.434  30.296  1.00  0.00     0.111 A 
ATOM     79  O   UNL A   1      37.270  28.573  28.098  1.00  0.00    -0.285 OA
ATOM     80  C   UNL A   1      37.348  30.547  31.103  1.00  0.00     0.146 A 
ATOM     81  C   UNL A   1      38.258  28.336  30.842  1.00  0.00     0.134 A 
ATOM     82  C   UNL A   1      37.806  30.586  32.421  1.00  0.00     0.094 A 
ATOM     83  C   UNL A   1      38.704  28.360  32.169  1.00  0.00     0.093 A 
ATOM     84  C   UNL A   1      38.473  29.490  32.946  1.00  0.00     0.123 A 
BRANCH  75  85
ATOM     85  C   UNL A   1      35.188  32.815  29.252  1.00  0.00     0.029 A 
ATOM     86  C   UNL A   1      34.434  33.312  30.338  1.00  0.00     0.062 A 
ATOM     87  C   UNL A   1      35.245  33.559  28.069  1.00  0.00     0.062 A 
ATOM     88  C   UNL A   1      33.892  34.599  30.297  1.00  0.00     0.162 A 
ATOM     89  C   UNL A   1      34.649  34.815  28.024  1.00  0.00     0.162 A 
ATOM     90  C   UNL A   1      34.005  35.360  29.138  1.00  0.00     0.200 A 
BRANCH  88  91
ATOM     91  O   UNL A   1      33.337  35.046  31.462  1.00  0.00    -0.504 OA
ATOM     92  H   UNL A   1      33.887  35.334  32.164  1.00  0.00     0.293 HD
ENDBRANCH  88  91
BRANCH  89  93
ATOM     93  O   UNL A   1      34.773  35.563  26.884  1.00  0.00    -0.504 OA
ATOM     94  H   UNL A   1      34.007  35.839  26.419  1.00  0.00     0.293 HD
ENDBRANCH  89  93
BRANCH  90  95
ATOM     95  O   UNL A   1      33.550  36.644  28.999  1.00  0.00    -0.502 OA
ATOM     96  H   UNL A   1      34.158  37.351  28.912  1.00  0.00     0.293 HD
ENDBRANCH  90  95
ENDBRANCH  75  85
BRANCH  81  97
ATOM     97  O   UNL A   1      38.481  27.213  30.099  1.00  0.00    -0.507 OA
ATOM     98  H   UNL A   1      38.073  27.116  29.261  1.00  0.00     0.293 HD
ENDBRANCH  81  97
BRANCH  84  99
ATOM     99  O   UNL A   1      38.877  29.560  34.246  1.00  0.00    -0.508 OA
ATOM    100  H   UNL A   1      38.615  28.896  34.854  1.00  0.00     0.293 HD
ENDBRANCH  84  99
ENDBRANCH  73  74
ENDBRANCH  68  73
BRANCH  69 101
ATOM    101  O   UNL A   1      31.304  30.990  25.336  1.00  0.00    -0.387 OA
ATOM    102  H   UNL A   1      30.751  31.582  25.870  1.00  0.00     0.211 HD
ENDBRANCH  69 101
BRANCH  70 103
ATOM    103  O   UNL A   1      32.878  31.739  27.706  1.00  0.00    -0.384 OA
ATOM    104  H   UNL A   1      32.243  32.363  27.321  1.00  0.00     0.211 HD
ENDBRANCH  70 103
ENDBRANCH  63  65
ENDBRANCH  62  63
ENDBRANCH  61  62
ENDBRANCH  60  61
ENDBRANCH  59  60
ENDBRANCH   1  59
TORSDOF 28
ENDMDL
MODEL 2
REMARK VINA RESULT:      -9.4      4.336      9.685
REMARK SMILES O=C(OCCOCCOCCOC(=O)[C@H]1O[C@@H](Oc2c(-c3cc(O)c(O)c(O)c3)oc3cc(O)cc(O)c3c2=O)[C@H](O)[C@@H](O)[C@@H]1O)c1ccc(-c2c3nc(c(-c4ccccc4)c4ccc([nH]4)c(-c4ccccc4)c4nc(c(-c5ccccc5)c5ccc2[nH]5)C=C4)C=C3)cc1
REMARK SMILES IDX 8 1 7 2 6 3 5 4 4 5 3 6 2 7 1 8 47 9 48 10 94 11 49 12 93 13
REMARK SMILES IDX 50 14 51 15 52 16 87 17 53 18 92 19 86 20 88 21 54 22 91 23
REMARK SMILES IDX 85 24 84 25 55 27 77 28 62 29 76 30 63 31 66 32 75 33 89 34
REMARK SMILES IDX 64 35 65 36 74 38 90 39 67 40 56 41 57 42 61 43 58 44 60 45
REMARK SMILES IDX 59 46 78 47 79 48 83 49 80 50 82 51 81 52 68 53 69 54 73 55
REMARK SMILES IDX 70 56 72 57 71 58 9 59 10 60 11 61 12 62 13 63 14 64 15 65
REMARK SMILES IDX 16 66 45 67 17 68 43 69 41 70 46 71 18 73 19 74 20 75 39 76
REMARK SMILES IDX 30 77 38 78 40 79 31 80 36 81 32 82 35 83 33 84 21 85 22 86
REMARK SMILES IDX 29 87 23 88 27 89 25 90 24 91 28 93 26 95 37 97 34 99 44 101
REMARK SMILES IDX 42 103
REMARK H PARENT 88 26 66 37 46 72 24 92 28 94 26 96 37 98 34 100 44 102 42 104
REMARK Flexibility Score: inf
ROOT
ATOM      1  C   UNL A   1      32.750  29.324  24.807  1.00  0.00     0.188 C 
ENDROOT
BRANCH   1   2
ATOM      2  C   UNL A   1      31.789  28.953  25.937  1.00  0.00     0.188 C 
BRANCH   2   3
ATOM      3  O   UNL A   1      32.003  29.690  27.151  1.00  0.00    -0.376 OA
BRANCH   3   4
ATOM      4  C   UNL A   1      32.563  30.991  26.911  1.00  0.00     0.202 C 
BRANCH   4   5
ATOM      5  C   UNL A   1      31.642  32.201  27.161  1.00  0.00     0.261 C 
BRANCH   5   6
ATOM      6  O   UNL A   1      32.303  33.475  27.153  1.00  0.00    -0.460 OA
BRANCH   6   7
ATOM      7  C   UNL A   1      32.941  34.125  28.154  1.00  0.00     0.338 C 
ATOM      8  O   UNL A   1      32.475  35.204  28.521  1.00  0.00    -0.246 OA
BRANCH   7   9
ATOM      9  C   UNL A   1      34.214  33.664  28.803  1.00  0.00     0.060 A 
ATOM     10  C   UNL A   1      35.506  34.057  28.451  1.00  0.00     0.016 A 
ATOM     11  C   UNL A   1      34.082  32.762  29.877  1.00  0.00     0.016 A 
ATOM     12  C   UNL A   1      36.629  33.581  29.118  1.00  0.00     0.010 A 
ATOM     13  C   UNL A   1      35.207  32.267  30.547  1.00  0.00     0.010 A 
ATOM     14  C   UNL A   1      36.489  32.675  30.161  1.00  0.00    -0.014 A 
BRANCH  14  15
ATOM     15  C   UNL A   1      37.705  32.014  30.673  1.00  0.00     0.031 A 
ATOM     16  C   UNL A   1      38.110  32.343  32.069  1.00  0.00     0.074 A 
ATOM     17  C   UNL A   1      38.333  31.044  29.988  1.00  0.00     0.049 A 
ATOM     18  N   UNL A   1      39.086  31.846  32.774  1.00  0.00    -0.248 NA
ATOM     19  C   UNL A   1      37.263  33.310  32.792  1.00  0.00     0.031 C 
ATOM     20  C   UNL A   1      37.874  30.497  28.724  1.00  0.00     0.029 A 
ATOM     21  N   UNL A   1      39.479  30.337  30.239  1.00  0.00    -0.354 N 
ATOM     22  C   UNL A   1      38.940  32.396  34.034  1.00  0.00     0.074 A 
ATOM     23  C   UNL A   1      37.827  33.314  33.988  1.00  0.00     0.031 C 
ATOM     24  C   UNL A   1      38.770  29.629  28.237  1.00  0.00     0.029 A 
ATOM     25  C   UNL A   1      39.858  29.526  29.191  1.00  0.00     0.049 A 
ATOM     26  H   UNL A   1      39.981  30.402  31.082  1.00  0.00     0.167 HD
ATOM     27  C   UNL A   1      39.664  32.125  35.141  1.00  0.00     0.031 A 
ATOM     28  C   UNL A   1      40.964  28.782  29.024  1.00  0.00     0.031 A 
ATOM     29  C   UNL A   1      40.802  31.251  35.137  1.00  0.00     0.049 A 
ATOM     30  C   UNL A   1      41.889  28.679  30.196  1.00  0.00     0.074 A 
ATOM     31  C   UNL A   1      41.673  30.964  36.168  1.00  0.00     0.029 A 
ATOM     32  N   UNL A   1      41.239  30.540  34.024  1.00  0.00    -0.354 N 
ATOM     33  N   UNL A   1      41.763  29.224  31.383  1.00  0.00    -0.248 NA
ATOM     34  C   UNL A   1      43.071  27.829  30.036  1.00  0.00     0.031 C 
ATOM     35  C   UNL A   1      42.678  30.133  35.661  1.00  0.00     0.029 A 
ATOM     36  C   UNL A   1      42.394  29.844  34.333  1.00  0.00     0.049 A 
ATOM     37  H   UNL A   1      40.792  30.533  33.147  1.00  0.00     0.167 HD
ATOM     38  C   UNL A   1      42.821  28.744  32.133  1.00  0.00     0.074 A 
ATOM     39  C   UNL A   1      43.577  27.862  31.261  1.00  0.00     0.031 C 
ATOM     40  C   UNL A   1      43.129  28.994  33.429  1.00  0.00     0.031 A 
BRANCH  27  41
ATOM     41  C   UNL A   1      39.265  32.853  36.388  1.00  0.00    -0.014 A 
ATOM     42  C   UNL A   1      39.833  34.095  36.724  1.00  0.00     0.009 A 
ATOM     43  C   UNL A   1      38.364  32.253  37.278  1.00  0.00     0.009 A 
ATOM     44  C   UNL A   1      39.533  34.699  37.946  1.00  0.00     0.001 A 
ATOM     45  C   UNL A   1      38.046  32.873  38.486  1.00  0.00     0.001 A 
ATOM     46  C   UNL A   1      38.639  34.088  38.825  1.00  0.00     0.000 A 
ENDBRANCH  27  41
BRANCH  28  47
ATOM     47  C   UNL A   1      41.236  28.096  27.732  1.00  0.00    -0.014 A 
ATOM     48  C   UNL A   1      40.914  26.744  27.541  1.00  0.00     0.009 A 
ATOM     49  C   UNL A   1      41.840  28.800  26.676  1.00  0.00     0.009 A 
ATOM     50  C   UNL A   1      41.224  26.104  26.336  1.00  0.00     0.001 A 
ATOM     51  C   UNL A   1      42.126  28.165  25.463  1.00  0.00     0.001 A 
ATOM     52  C   UNL A   1      41.828  26.814  25.298  1.00  0.00     0.000 A 
ENDBRANCH  28  47
BRANCH  40  53
ATOM     53  C   UNL A   1      44.325  28.277  33.975  1.00  0.00    -0.014 A 
ATOM     54  C   UNL A   1      45.604  28.848  33.916  1.00  0.00     0.009 A 
ATOM     55  C   UNL A   1      44.156  27.027  34.587  1.00  0.00     0.009 A 
ATOM     56  C   UNL A   1      46.702  28.158  34.428  1.00  0.00     0.001 A 
ATOM     57  C   UNL A   1      45.249  26.356  35.132  1.00  0.00     0.001 A 
ATOM     58  C   UNL A   1      46.522  26.918  35.042  1.00  0.00     0.000 A 
ENDBRANCH  40  53
ENDBRANCH  14  15
ENDBRANCH   7   9
ENDBRANCH   6   7
ENDBRANCH   5   6
ENDBRANCH   4   5
ENDBRANCH   3   4
ENDBRANCH   2   3
ENDBRANCH   1   2
BRANCH   1  59
ATOM     59  O   UNL A   1      33.482  28.268  24.193  1.00  0.00    -0.376 OA
BRANCH  59  60
ATOM     60  C   UNL A   1      33.694  28.313  22.789  1.00  0.00     0.202 C 
BRANCH  60  61
ATOM     61  C   UNL A   1      33.648  26.997  22.002  1.00  0.00     0.261 C 
BRANCH  61  62
ATOM     62  O   UNL A   1      33.865  25.828  22.798  1.00  0.00    -0.461 OA
BRANCH  62  63
ATOM     63  C   UNL A   1      33.233  24.688  22.385  1.00  0.00     0.338 C 
ATOM     64  O   UNL A   1      33.280  24.257  21.237  1.00  0.00    -0.249 OA
BRANCH  63  65
ATOM     65  C   UNL A   1      32.388  24.057  23.505  1.00  0.00     0.263 C 
ATOM     66  O   UNL A   1      33.109  23.058  24.244  1.00  0.00    -0.322 OA
ATOM     67  C   UNL A   1      31.808  25.017  24.553  1.00  0.00     0.186 C 
ATOM     68  C   UNL A   1      32.239  22.158  24.936  1.00  0.00     0.340 C 
ATOM     69  C   UNL A   1      30.705  24.218  25.266  1.00  0.00     0.181 C 
ATOM     70  C   UNL A   1      31.196  22.885  25.798  1.00  0.00     0.214 C 
BRANCH  67  71
ATOM     71  O   UNL A   1      31.226  26.199  24.016  1.00  0.00    -0.387 OA
ATOM     72  H   UNL A   1      30.477  26.471  24.569  1.00  0.00     0.211 HD
ENDBRANCH  67  71
BRANCH  68  73
ATOM     73  O   UNL A   1      32.897  21.177  25.779  1.00  0.00    -0.454 OA
BRANCH  73  74
ATOM     74  C   UNL A   1      34.282  21.189  25.823  1.00  0.00     0.214 A 
ATOM     75  C   UNL A   1      35.081  20.259  25.244  1.00  0.00     0.181 A 
ATOM     76  C   UNL A   1      34.930  22.418  26.375  1.00  0.00     0.239 A 
ATOM     77  O   UNL A   1      36.461  20.301  25.254  1.00  0.00    -0.452 OA
ATOM     78  C   UNL A   1      36.398  22.538  26.200  1.00  0.00     0.111 A 
ATOM     79  O   UNL A   1      34.254  23.286  26.916  1.00  0.00    -0.285 OA
ATOM     80  C   UNL A   1      37.079  21.453  25.652  1.00  0.00     0.146 A 
ATOM     81  C   UNL A   1      37.126  23.689  26.536  1.00  0.00     0.134 A 
ATOM     82  C   UNL A   1      38.460  21.494  25.458  1.00  0.00     0.094 A 
ATOM     83  C   UNL A   1      38.511  23.744  26.328  1.00  0.00     0.093 A 
ATOM     84  C   UNL A   1      39.164  22.641  25.790  1.00  0.00     0.123 A 
BRANCH  75  85
ATOM     85  C   UNL A   1      34.588  19.009  24.623  1.00  0.00     0.029 A 
ATOM     86  C   UNL A   1      35.181  17.786  25.005  1.00  0.00     0.062 A 
ATOM     87  C   UNL A   1      33.461  18.987  23.795  1.00  0.00     0.062 A 
ATOM     88  C   UNL A   1      34.562  16.570  24.705  1.00  0.00     0.162 A 
ATOM     89  C   UNL A   1      32.889  17.765  23.456  1.00  0.00     0.162 A 
ATOM     90  C   UNL A   1      33.405  16.557  23.932  1.00  0.00     0.200 A 
BRANCH  88  91
ATOM     91  O   UNL A   1      35.123  15.462  25.272  1.00  0.00    -0.504 OA
ATOM     92  H   UNL A   1      35.004  15.291  26.186  1.00  0.00     0.293 HD
ENDBRANCH  88  91
BRANCH  89  93
ATOM     93  O   UNL A   1      31.744  17.760  22.704  1.00  0.00    -0.504 OA
ATOM     94  H   UNL A   1      31.021  17.218  22.956  1.00  0.00     0.293 HD
ENDBRANCH  89  93
BRANCH  90  95
ATOM     95  O   UNL A   1      32.693  15.433  23.612  1.00  0.00    -0.502 OA
ATOM     96  H   UNL A   1      32.359  15.320  22.744  1.00  0.00     0.293 HD
ENDBRANCH  90  95
ENDBRANCH  75  85
BRANCH  81  97
ATOM     97  O   UNL A   1      36.501  24.787  27.052  1.00  0.00    -0.507 OA
ATOM     98  H   UNL A   1      35.660  24.701  27.456  1.00  0.00     0.293 HD
ENDBRANCH  81  97
BRANCH  84  99
ATOM     99  O   UNL A   1      40.507  22.648  25.557  1.00  0.00    -0.508 OA
ATOM    100  H   UNL A   1      40.932  23.439  25.291  1.00  0.00     0.293 HD
ENDBRANCH  84  99
ENDBRANCH  73  74
ENDBRANCH  68  73
BRANCH  69 101
ATOM    101  O   UNL A   1      30.146  24.941  26.374  1.00  0.00    -0.387 OA
ATOM    102  H   UNL A   1      29.331  25.385  26.092  1.00  0.00     0.211 HD
ENDBRANCH  69 101
BRANCH  70 103
ATOM    103  O   UNL A   1      30.101  22.011  26.111  1.00  0.00    -0.384 OA
ATOM    104  H   UNL A   1      30.343  21.446  26.861  1.00  0.00     0.211 HD
ENDBRANCH  70 103
ENDBRANCH  63  65
ENDBRANCH  62  63
ENDBRANCH  61  62
ENDBRANCH  60  61
ENDBRANCH  59  60
ENDBRANCH   1  59
TORSDOF 28
ENDMDL
MODEL 3
REMARK VINA RESULT:      -9.3      0.752      5.405
REMARK SMILES O=C(OCCOCCOCCOC(=O)[C@H]1O[C@@H](Oc2c(-c3cc(O)c(O)c(O)c3)oc3cc(O)cc(O)c3c2=O)[C@H](O)[C@@H](O)[C@@H]1O)c1ccc(-c2c3nc(c(-c4ccccc4)c4ccc([nH]4)c(-c4ccccc4)c4nc(c(-c5ccccc5)c5ccc2[nH]5)C=C4)C=C3)cc1
REMARK SMILES IDX 8 1 7 2 6 3 5 4 4 5 3 6 2 7 1 8 47 9 48 10 94 11 49 12 93 13
REMARK SMILES IDX 50 14 51 15 52 16 87 17 53 18 92 19 86 20 88 21 54 22 91 23
REMARK SMILES IDX 85 24 84 25 55 27 77 28 62 29 76 30 63 31 66 32 75 33 89 34
REMARK SMILES IDX 64 35 65 36 74 38 90 39 67 40 56 41 57 42 61 43 58 44 60 45
REMARK SMILES IDX 59 46 78 47 79 48 83 49 80 50 82 51 81 52 68 53 69 54 73 55
REMARK SMILES IDX 70 56 72 57 71 58 9 59 10 60 11 61 12 62 13 63 14 64 15 65
REMARK SMILES IDX 16 66 45 67 17 68 43 69 41 70 46 71 18 73 19 74 20 75 39 76
REMARK SMILES IDX 30 77 38 78 40 79 31 80 36 81 32 82 35 83 33 84 21 85 22 86
REMARK SMILES IDX 29 87 23 88 27 89 25 90 24 91 28 93 26 95 37 97 34 99 44 101
REMARK SMILES IDX 42 103
REMARK H PARENT 88 26 66 37 46 72 24 92 28 94 26 96 37 98 34 100 44 102 42 104
REMARK Flexibility Score: inf
ROOT
ATOM      1  C   UNL A   1      34.711  22.566  25.760  1.00  0.00     0.188 C 
ENDROOT
BRANCH   1   2
ATOM      2  C   UNL A   1      34.682  21.098  25.334  1.00  0.00     0.188 C 
BRANCH   2   3
ATOM      3  O   UNL A   1      35.968  20.567  24.981  1.00  0.00    -0.376 OA
BRANCH   3   4
ATOM      4  C   UNL A   1      36.949  21.597  24.774  1.00  0.00     0.202 C 
BRANCH   4   5
ATOM      5  C   UNL A   1      38.177  21.584  25.705  1.00  0.00     0.261 C 
BRANCH   5   6
ATOM      6  O   UNL A   1      38.895  22.824  25.774  1.00  0.00    -0.460 OA
BRANCH   6   7
ATOM      7  C   UNL A   1      38.644  23.931  26.511  1.00  0.00     0.338 C 
ATOM      8  O   UNL A   1      37.466  24.207  26.741  1.00  0.00    -0.246 OA
BRANCH   7   9
ATOM      9  C   UNL A   1      39.690  24.885  27.010  1.00  0.00     0.060 A 
ATOM     10  C   UNL A   1      39.989  25.152  28.347  1.00  0.00     0.016 A 
ATOM     11  C   UNL A   1      40.445  25.560  26.031  1.00  0.00     0.016 A 
ATOM     12  C   UNL A   1      40.985  26.049  28.715  1.00  0.00     0.010 A 
ATOM     13  C   UNL A   1      41.440  26.476  26.391  1.00  0.00     0.010 A 
ATOM     14  C   UNL A   1      41.708  26.725  27.742  1.00  0.00    -0.014 A 
BRANCH  14  15
ATOM     15  C   UNL A   1      42.576  27.839  28.172  1.00  0.00     0.031 A 
ATOM     16  C   UNL A   1      44.036  27.690  27.915  1.00  0.00     0.074 A 
ATOM     17  C   UNL A   1      42.075  29.000  28.627  1.00  0.00     0.049 A 
ATOM     18  N   UNL A   1      44.993  28.548  28.127  1.00  0.00    -0.248 NA
ATOM     19  C   UNL A   1      44.468  26.436  27.271  1.00  0.00     0.031 C 
ATOM     20  C   UNL A   1      40.660  29.320  28.691  1.00  0.00     0.029 A 
ATOM     21  N   UNL A   1      42.675  30.130  29.115  1.00  0.00    -0.354 N 
ATOM     22  C   UNL A   1      46.128  27.963  27.594  1.00  0.00     0.074 A 
ATOM     23  C   UNL A   1      45.763  26.653  27.111  1.00  0.00     0.031 C 
ATOM     24  C   UNL A   1      40.475  30.501  29.294  1.00  0.00     0.029 A 
ATOM     25  C   UNL A   1      41.779  31.047  29.619  1.00  0.00     0.049 A 
ATOM     26  H   UNL A   1      43.648  30.273  29.108  1.00  0.00     0.167 HD
ATOM     27  C   UNL A   1      47.363  28.498  27.497  1.00  0.00     0.031 A 
ATOM     28  C   UNL A   1      41.991  32.202  30.273  1.00  0.00     0.031 A 
ATOM     29  C   UNL A   1      47.705  29.780  28.044  1.00  0.00     0.049 A 
ATOM     30  C   UNL A   1      43.408  32.673  30.363  1.00  0.00     0.074 A 
ATOM     31  C   UNL A   1      48.940  30.397  28.091  1.00  0.00     0.029 A 
ATOM     32  N   UNL A   1      46.799  30.634  28.663  1.00  0.00    -0.354 N 
ATOM     33  N   UNL A   1      44.488  32.103  29.882  1.00  0.00    -0.248 NA
ATOM     34  C   UNL A   1      43.641  33.956  31.030  1.00  0.00     0.031 C 
ATOM     35  C   UNL A   1      48.793  31.593  28.802  1.00  0.00     0.029 A 
ATOM     36  C   UNL A   1      47.456  31.757  29.135  1.00  0.00     0.049 A 
ATOM     37  H   UNL A   1      45.834  30.464  28.754  1.00  0.00     0.167 HD
ATOM     38  C   UNL A   1      45.525  32.980  30.140  1.00  0.00     0.074 A 
ATOM     39  C   UNL A   1      44.940  34.121  30.822  1.00  0.00     0.031 C 
ATOM     40  C   UNL A   1      46.839  32.861  29.827  1.00  0.00     0.031 A 
BRANCH  27  41
ATOM     41  C   UNL A   1      48.407  27.643  26.846  1.00  0.00    -0.014 A 
ATOM     42  C   UNL A   1      48.618  27.674  25.457  1.00  0.00     0.009 A 
ATOM     43  C   UNL A   1      49.138  26.737  27.627  1.00  0.00     0.009 A 
ATOM     44  C   UNL A   1      49.513  26.785  24.860  1.00  0.00     0.001 A 
ATOM     45  C   UNL A   1      50.052  25.869  27.029  1.00  0.00     0.001 A 
ATOM     46  C   UNL A   1      50.230  25.884  25.647  1.00  0.00     0.000 A 
ENDBRANCH  27  41
BRANCH  28  47
ATOM     47  C   UNL A   1      40.859  32.966  30.864  1.00  0.00    -0.014 A 
ATOM     48  C   UNL A   1      40.536  32.859  32.225  1.00  0.00     0.009 A 
ATOM     49  C   UNL A   1      40.079  33.807  30.051  1.00  0.00     0.009 A 
ATOM     50  C   UNL A   1      39.436  33.546  32.749  1.00  0.00     0.001 A 
ATOM     51  C   UNL A   1      38.996  34.514  30.584  1.00  0.00     0.001 A 
ATOM     52  C   UNL A   1      38.669  34.374  31.930  1.00  0.00     0.000 A 
ENDBRANCH  28  47
BRANCH  40  53
ATOM     53  C   UNL A   1      47.715  34.016  30.203  1.00  0.00    -0.014 A 
ATOM     54  C   UNL A   1      47.967  35.061  29.303  1.00  0.00     0.009 A 
ATOM     55  C   UNL A   1      48.265  34.070  31.492  1.00  0.00     0.009 A 
ATOM     56  C   UNL A   1      48.789  36.123  29.676  1.00  0.00     0.001 A 
ATOM     57  C   UNL A   1      49.056  35.151  31.875  1.00  0.00     0.001 A 
ATOM     58  C   UNL A   1      49.326  36.171  30.963  1.00  0.00     0.000 A 
ENDBRANCH  40  53
ENDBRANCH  14  15
ENDBRANCH   7   9
ENDBRANCH   6   7
ENDBRANCH   5   6
ENDBRANCH   4   5
ENDBRANCH   3   4
ENDBRANCH   2   3
ENDBRANCH   1   2
BRANCH   1  59
ATOM     59  O   UNL A   1      33.936  22.937  26.896  1.00  0.00    -0.376 OA
BRANCH  59  60
ATOM     60  C   UNL A   1      32.567  23.264  26.709  1.00  0.00     0.202 C 
BRANCH  60  61
ATOM     61  C   UNL A   1      32.220  24.492  25.858  1.00  0.00     0.261 C 
BRANCH  61  62
ATOM     62  O   UNL A   1      32.391  25.742  26.533  1.00  0.00    -0.461 OA
BRANCH  62  63
ATOM     63  C   UNL A   1      33.432  26.521  26.111  1.00  0.00     0.338 C 
ATOM     64  O   UNL A   1      34.466  26.076  25.621  1.00  0.00    -0.249 OA
BRANCH  63  65
ATOM     65  C   UNL A   1      33.192  28.013  26.399  1.00  0.00     0.263 C 
ATOM     66  O   UNL A   1      34.416  28.745  26.576  1.00  0.00    -0.322 OA
ATOM     67  C   UNL A   1      32.383  28.795  25.355  1.00  0.00     0.186 C 
ATOM     68  C   UNL A   1      34.222  29.968  27.292  1.00  0.00     0.340 C 
ATOM     69  C   UNL A   1      31.943  30.084  26.067  1.00  0.00     0.181 C 
ATOM     70  C   UNL A   1      33.103  30.834  26.694  1.00  0.00     0.214 C 
BRANCH  67  71
ATOM     71  O   UNL A   1      31.219  28.125  24.884  1.00  0.00    -0.387 OA
ATOM     72  H   UNL A   1      31.061  27.335  25.424  1.00  0.00     0.211 HD
ENDBRANCH  67  71
BRANCH  68  73
ATOM     73  O   UNL A   1      35.399  30.805  27.429  1.00  0.00    -0.454 OA
BRANCH  73  74
ATOM     74  C   UNL A   1      35.989  30.890  28.679  1.00  0.00     0.214 A 
ATOM     75  C   UNL A   1      35.730  31.859  29.591  1.00  0.00     0.181 A 
ATOM     76  C   UNL A   1      36.813  29.722  29.119  1.00  0.00     0.239 A 
ATOM     77  O   UNL A   1      36.288  31.914  30.853  1.00  0.00    -0.452 OA
ATOM     78  C   UNL A   1      37.241  29.699  30.539  1.00  0.00     0.111 A 
ATOM     79  O   UNL A   1      37.083  28.822  28.332  1.00  0.00    -0.285 OA
ATOM     80  C   UNL A   1      36.955  30.817  31.322  1.00  0.00     0.146 A 
ATOM     81  C   UNL A   1      37.894  28.610  31.134  1.00  0.00     0.134 A 
ATOM     82  C   UNL A   1      37.327  30.866  32.666  1.00  0.00     0.094 A 
ATOM     83  C   UNL A   1      38.255  28.646  32.487  1.00  0.00     0.093 A 
ATOM     84  C   UNL A   1      37.967  29.779  33.240  1.00  0.00     0.123 A 
BRANCH  75  85
ATOM     85  C   UNL A   1      34.904  33.058  29.320  1.00  0.00     0.029 A 
ATOM     86  C   UNL A   1      34.006  33.498  30.317  1.00  0.00     0.062 A 
ATOM     87  C   UNL A   1      35.097  33.848  28.182  1.00  0.00     0.062 A 
ATOM     88  C   UNL A   1      33.445  34.776  30.254  1.00  0.00     0.162 A 
ATOM     89  C   UNL A   1      34.483  35.095  28.107  1.00  0.00     0.162 A 
ATOM     90  C   UNL A   1      33.689  35.584  29.148  1.00  0.00     0.200 A 
BRANCH  88  91
ATOM     91  O   UNL A   1      32.735  35.167  31.353  1.00  0.00    -0.504 OA
ATOM     92  H   UNL A   1      31.864  34.849  31.487  1.00  0.00     0.293 HD
ENDBRANCH  88  91
BRANCH  89  93
ATOM     93  O   UNL A   1      34.736  35.889  27.022  1.00  0.00    -0.504 OA
ATOM     94  H   UNL A   1      34.756  35.515  26.162  1.00  0.00     0.293 HD
ENDBRANCH  89  93
BRANCH  90  95
ATOM     95  O   UNL A   1      33.227  36.864  28.999  1.00  0.00    -0.502 OA
ATOM     96  H   UNL A   1      33.818  37.552  28.765  1.00  0.00     0.293 HD
ENDBRANCH  90  95
ENDBRANCH  75  85
BRANCH  81  97
ATOM     97  O   UNL A   1      38.172  27.484  30.415  1.00  0.00    -0.507 OA
ATOM     98  H   UNL A   1      37.585  27.201  29.741  1.00  0.00     0.293 HD
ENDBRANCH  81  97
BRANCH  84  99
ATOM     99  O   UNL A   1      38.286  29.860  34.562  1.00  0.00    -0.508 OA
ATOM    100  H   UNL A   1      38.515  29.085  35.037  1.00  0.00     0.293 HD
ENDBRANCH  84  99
ENDBRANCH  73  74
ENDBRANCH  68  73
BRANCH  69 101
ATOM    101  O   UNL A   1      31.278  30.993  25.174  1.00  0.00    -0.387 OA
ATOM    102  H   UNL A   1      30.377  30.677  25.005  1.00  0.00     0.211 HD
ENDBRANCH  69 101
BRANCH  70 103
ATOM    103  O   UNL A   1      32.645  31.800  27.651  1.00  0.00    -0.384 OA
ATOM    104  H   UNL A   1      32.748  31.443  28.547  1.00  0.00     0.211 HD
ENDBRANCH  70 103
ENDBRANCH  63  65
ENDBRANCH  62  63
ENDBRANCH  61  62
ENDBRANCH  60  61
ENDBRANCH  59  60
ENDBRANCH   1  59
TORSDOF 28
ENDMDL
