MODEL 1
REMARK VINA RESULT:     -10.0      0.000      0.000
REMARK SMILES COc1ccc([C@@H](CC(=O)OCCOCCOCCOC(=O)c2ccc(-c3c4nc(c(-c5ccccc5)c5ccc([nH]5)c(-c5ccccc5)c5nc(c(-c6ccccc6)c6ccc3[nH]6)C=C5)C=C4)cc2)C2CCCCC2)cc1Cl
REMARK SMILES IDX 15 1 14 2 13 3 12 4 11 5 9 6 10 7 8 8 7 9 6 10 3 11 4 12
REMARK SMILES IDX 78 13 5 14 77 15 79 16 2 17 1 18 71 19 72 20 76 21 73 22
REMARK SMILES IDX 75 23 74 24 16 25 17 26 18 27 19 28 20 29 21 30 22 31 23 32
REMARK SMILES IDX 24 33 70 34 25 35 69 36 26 37 27 38 28 39 63 40 29 41 68 42
REMARK SMILES IDX 62 43 64 44 30 45 67 46 61 47 60 48 31 50 53 51 38 52 52 53
REMARK SMILES IDX 39 54 42 55 51 56 65 57 40 58 41 59 50 61 66 62 43 63 32 64
REMARK SMILES IDX 33 65 37 66 34 67 36 68 35 69 54 70 55 71 59 72 56 73 58 74
REMARK SMILES IDX 57 75 44 76 45 77 49 78 46 79 48 80 47 81
REMARK H PARENT 64 49 42 60
REMARK Flexibility Score: inf
ROOT
ATOM      1  C   UNL A   1      41.849  19.587  26.828  1.00  0.00     0.188 C 
ENDROOT
BRANCH   1   2
ATOM      2  O   UNL A   1      41.244  20.753  26.289  1.00  0.00    -0.376 OA
BRANCH   2   3
ATOM      3  C   UNL A   1      39.827  20.733  26.115  1.00  0.00     0.202 C 
BRANCH   3   4
ATOM      4  C   UNL A   1      39.156  22.108  26.150  1.00  0.00     0.261 C 
BRANCH   4   5
ATOM      5  O   UNL A   1      38.028  22.157  25.249  1.00  0.00    -0.463 OA
BRANCH   5   6
ATOM      6  C   UNL A   1      37.191  23.217  25.424  1.00  0.00     0.306 C 
ATOM      7  O   UNL A   1      37.005  23.786  26.492  1.00  0.00    -0.252 OA
BRANCH   6   8
ATOM      8  C   UNL A   1      36.623  23.713  24.110  1.00  0.00     0.131 C 
BRANCH   8   9
ATOM      9  C   UNL A   1      35.104  23.634  23.798  1.00  0.00     0.033 C 
BRANCH   9  10
ATOM     10  C   UNL A   1      34.229  24.820  24.178  1.00  0.00    -0.042 A 
ATOM     11  C   UNL A   1      32.419  26.851  24.919  1.00  0.00     0.137 A 
ATOM     12  C   UNL A   1      33.505  26.550  25.737  1.00  0.00     0.048 A 
ATOM     13  C   UNL A   1      32.251  26.178  23.709  1.00  0.00     0.083 A 
ATOM     14  C   UNL A   1      34.389  25.531  25.377  1.00  0.00     0.008 A 
ATOM     15  C   UNL A   1      33.151  25.170  23.345  1.00  0.00     0.028 A 
ATOM     16  Cl  UNL A   1      30.941  26.530  22.644  1.00  0.00    -0.080 Cl
BRANCH  11  17
ATOM     17  O   UNL A   1      31.572  27.839  25.341  1.00  0.00    -0.495 OA
ATOM     18  C   UNL A   1      32.288  28.833  26.079  1.00  0.00     0.278 C 
ENDBRANCH  11  17
ENDBRANCH   9  10
BRANCH   9  19
ATOM     19  C   UNL A   1      34.470  22.235  24.174  1.00  0.00    -0.003 C 
ATOM     20  C   UNL A   1      34.026  22.114  25.641  1.00  0.00     0.004 C 
ATOM     21  C   UNL A   1      33.298  21.867  23.233  1.00  0.00     0.004 C 
ATOM     22  C   UNL A   1      33.348  20.783  25.947  1.00  0.00     0.000 C 
ATOM     23  C   UNL A   1      32.624  20.541  23.594  1.00  0.00     0.000 C 
ATOM     24  C   UNL A   1      32.157  20.534  25.042  1.00  0.00     0.000 C 
ENDBRANCH   9  19
ENDBRANCH   8   9
ENDBRANCH   6   8
ENDBRANCH   5   6
ENDBRANCH   4   5
ENDBRANCH   3   4
ENDBRANCH   2   3
ENDBRANCH   1   2
BRANCH   1  25
ATOM     25  C   UNL A   1      42.899  18.865  25.971  1.00  0.00     0.188 C 
BRANCH  25  26
ATOM     26  O   UNL A   1      43.510  19.692  24.985  1.00  0.00    -0.376 OA
BRANCH  26  27
ATOM     27  C   UNL A   1      44.912  19.892  25.174  1.00  0.00     0.202 C 
BRANCH  27  28
ATOM     28  C   UNL A   1      45.264  21.375  25.356  1.00  0.00     0.261 C 
BRANCH  28  29
ATOM     29  O   UNL A   1      44.293  22.100  26.140  1.00  0.00    -0.460 OA
BRANCH  29  30
ATOM     30  C   UNL A   1      43.615  23.031  25.439  1.00  0.00     0.338 C 
ATOM     31  O   UNL A   1      43.369  22.981  24.246  1.00  0.00    -0.246 OA
BRANCH  30  32
ATOM     32  C   UNL A   1      43.068  24.082  26.308  1.00  0.00     0.060 A 
ATOM     33  C   UNL A   1      43.586  25.382  26.206  1.00  0.00     0.016 A 
ATOM     34  C   UNL A   1      42.138  23.761  27.296  1.00  0.00     0.016 A 
ATOM     35  C   UNL A   1      43.208  26.354  27.131  1.00  0.00     0.010 A 
ATOM     36  C   UNL A   1      41.758  24.737  28.217  1.00  0.00     0.010 A 
ATOM     37  C   UNL A   1      42.307  26.031  28.156  1.00  0.00    -0.014 A 
BRANCH  37  38
ATOM     38  C   UNL A   1      41.949  27.022  29.199  1.00  0.00     0.031 A 
ATOM     39  C   UNL A   1      42.738  27.077  30.476  1.00  0.00     0.074 A 
ATOM     40  C   UNL A   1      40.895  27.835  29.008  1.00  0.00     0.049 A 
ATOM     41  N   UNL A   1      42.474  27.715  31.587  1.00  0.00    -0.248 NA
ATOM     42  C   UNL A   1      43.986  26.298  30.511  1.00  0.00     0.031 C 
ATOM     43  C   UNL A   1      40.093  27.905  27.785  1.00  0.00     0.029 A 
ATOM     44  N   UNL A   1      40.307  28.748  29.846  1.00  0.00    -0.354 N 
ATOM     45  C   UNL A   1      43.496  27.378  32.469  1.00  0.00     0.074 A 
ATOM     46  C   UNL A   1      44.387  26.483  31.761  1.00  0.00     0.031 C 
ATOM     47  C   UNL A   1      39.118  28.813  27.952  1.00  0.00     0.029 A 
ATOM     48  C   UNL A   1      39.185  29.333  29.314  1.00  0.00     0.049 A 
ATOM     49  H   UNL A   1      40.656  28.963  30.741  1.00  0.00     0.167 HD
ATOM     50  C   UNL A   1      43.660  27.771  33.755  1.00  0.00     0.031 A 
ATOM     51  C   UNL A   1      38.283  30.157  29.876  1.00  0.00     0.031 A 
ATOM     52  C   UNL A   1      42.761  28.666  34.438  1.00  0.00     0.049 A 
ATOM     53  C   UNL A   1      38.463  30.545  31.316  1.00  0.00     0.074 A 
ATOM     54  C   UNL A   1      42.826  29.136  35.738  1.00  0.00     0.029 A 
ATOM     55  N   UNL A   1      41.630  29.231  33.865  1.00  0.00    -0.354 N 
ATOM     56  N   UNL A   1      39.412  30.194  32.152  1.00  0.00    -0.248 NA
ATOM     57  C   UNL A   1      37.446  31.433  31.893  1.00  0.00     0.031 C 
ATOM     58  C   UNL A   1      41.709  29.947  35.965  1.00  0.00     0.029 A 
ATOM     59  C   UNL A   1      40.979  30.031  34.789  1.00  0.00     0.049 A 
ATOM     60  H   UNL A   1      41.334  29.084  32.937  1.00  0.00     0.167 HD
ATOM     61  C   UNL A   1      39.119  30.834  33.348  1.00  0.00     0.074 A 
ATOM     62  C   UNL A   1      37.915  31.610  33.120  1.00  0.00     0.031 C 
ATOM     63  C   UNL A   1      39.779  30.786  34.531  1.00  0.00     0.031 A 
BRANCH  50  64
ATOM     64  C   UNL A   1      44.818  27.187  34.521  1.00  0.00    -0.014 A 
ATOM     65  C   UNL A   1      46.058  27.839  34.602  1.00  0.00     0.009 A 
ATOM     66  C   UNL A   1      44.653  25.964  35.194  1.00  0.00     0.009 A 
ATOM     67  C   UNL A   1      47.119  27.261  35.306  1.00  0.00     0.001 A 
ATOM     68  C   UNL A   1      45.707  25.402  35.920  1.00  0.00     0.001 A 
ATOM     69  C   UNL A   1      46.942  26.046  35.967  1.00  0.00     0.000 A 
ENDBRANCH  50  64
BRANCH  51  70
ATOM     70  C   UNL A   1      37.116  30.634  29.088  1.00  0.00    -0.014 A 
ATOM     71  C   UNL A   1      36.092  29.751  28.720  1.00  0.00     0.009 A 
ATOM     72  C   UNL A   1      37.011  31.985  28.713  1.00  0.00     0.009 A 
ATOM     73  C   UNL A   1      34.994  30.205  27.982  1.00  0.00     0.001 A 
ATOM     74  C   UNL A   1      35.898  32.443  28.004  1.00  0.00     0.001 A 
ATOM     75  C   UNL A   1      34.894  31.550  27.632  1.00  0.00     0.000 A 
ENDBRANCH  51  70
BRANCH  63  76
ATOM     76  C   UNL A   1      39.227  31.628  35.645  1.00  0.00    -0.014 A 
ATOM     77  C   UNL A   1      38.276  31.116  36.542  1.00  0.00     0.009 A 
ATOM     78  C   UNL A   1      39.674  32.948  35.800  1.00  0.00     0.009 A 
ATOM     79  C   UNL A   1      37.753  31.929  37.551  1.00  0.00     0.001 A 
ATOM     80  C   UNL A   1      39.171  33.748  36.827  1.00  0.00     0.001 A 
ATOM     81  C   UNL A   1      38.203  33.242  37.692  1.00  0.00     0.000 A 
ENDBRANCH  63  76
ENDBRANCH  37  38
ENDBRANCH  30  32
ENDBRANCH  29  30
ENDBRANCH  28  29
ENDBRANCH  27  28
ENDBRANCH  26  27
ENDBRANCH  25  26
ENDBRANCH   1  25
TORSDOF 21
ENDMDL
MODEL 2
REMARK VINA RESULT:      -9.8      4.382      6.360
REMARK SMILES COc1ccc([C@@H](CC(=O)OCCOCCOCCOC(=O)c2ccc(-c3c4nc(c(-c5ccccc5)c5ccc([nH]5)c(-c5ccccc5)c5nc(c(-c6ccccc6)c6ccc3[nH]6)C=C5)C=C4)cc2)C2CCCCC2)cc1Cl
REMARK SMILES IDX 15 1 14 2 13 3 12 4 11 5 9 6 10 7 8 8 7 9 6 10 3 11 4 12
REMARK SMILES IDX 78 13 5 14 77 15 79 16 2 17 1 18 71 19 72 20 76 21 73 22
REMARK SMILES IDX 75 23 74 24 16 25 17 26 18 27 19 28 20 29 21 30 22 31 23 32
REMARK SMILES IDX 24 33 70 34 25 35 69 36 26 37 27 38 28 39 63 40 29 41 68 42
REMARK SMILES IDX 62 43 64 44 30 45 67 46 61 47 60 48 31 50 53 51 38 52 52 53
REMARK SMILES IDX 39 54 42 55 51 56 65 57 40 58 41 59 50 61 66 62 43 63 32 64
REMARK SMILES IDX 33 65 37 66 34 67 36 68 35 69 54 70 55 71 59 72 56 73 58 74
REMARK SMILES IDX 57 75 44 76 45 77 49 78 46 79 48 80 47 81
REMARK H PARENT 64 49 42 60
REMARK Flexibility Score: inf
ROOT
ATOM      1  C   UNL A   1      40.605  21.410  27.224  1.00  0.00     0.188 C 
ENDROOT
BRANCH   1   2
ATOM      2  O   UNL A   1      40.072  22.689  27.535  1.00  0.00    -0.376 OA
BRANCH   2   3
ATOM      3  C   UNL A   1      39.276  23.326  26.536  1.00  0.00     0.202 C 
BRANCH   3   4
ATOM      4  C   UNL A   1      38.259  22.413  25.847  1.00  0.00     0.261 C 
BRANCH   4   5
ATOM      5  O   UNL A   1      36.909  22.867  26.087  1.00  0.00    -0.463 OA
BRANCH   5   6
ATOM      6  C   UNL A   1      36.345  23.574  25.068  1.00  0.00     0.306 C 
ATOM      7  O   UNL A   1      36.716  23.529  23.903  1.00  0.00    -0.252 OA
BRANCH   6   8
ATOM      8  C   UNL A   1      35.102  24.316  25.514  1.00  0.00     0.131 C 
BRANCH   8   9
ATOM      9  C   UNL A   1      33.975  24.694  24.515  1.00  0.00     0.033 C 
BRANCH   9  10
ATOM     10  C   UNL A   1      33.278  26.036  24.690  1.00  0.00    -0.042 A 
ATOM     11  C   UNL A   1      32.175  28.585  25.174  1.00  0.00     0.137 A 
ATOM     12  C   UNL A   1      32.682  28.270  23.916  1.00  0.00     0.048 A 
ATOM     13  C   UNL A   1      32.173  27.623  26.184  1.00  0.00     0.083 A 
ATOM     14  C   UNL A   1      33.245  27.014  23.684  1.00  0.00     0.008 A 
ATOM     15  C   UNL A   1      32.722  26.359  25.941  1.00  0.00     0.028 A 
ATOM     16  Cl  UNL A   1      31.532  27.949  27.752  1.00  0.00    -0.080 Cl
BRANCH  11  17
ATOM     17  O   UNL A   1      31.664  29.842  25.348  1.00  0.00    -0.495 OA
ATOM     18  C   UNL A   1      32.498  30.606  26.222  1.00  0.00     0.278 C 
ENDBRANCH  11  17
ENDBRANCH   9  10
BRANCH   9  19
ATOM     19  C   UNL A   1      32.981  23.499  24.227  1.00  0.00    -0.003 C 
ATOM     20  C   UNL A   1      33.113  22.887  22.823  1.00  0.00     0.004 C 
ATOM     21  C   UNL A   1      33.095  22.389  25.300  1.00  0.00     0.004 C 
ATOM     22  C   UNL A   1      32.196  21.688  22.609  1.00  0.00     0.000 C 
ATOM     23  C   UNL A   1      32.183  21.190  25.033  1.00  0.00     0.000 C 
ATOM     24  C   UNL A   1      32.427  20.608  23.648  1.00  0.00     0.000 C 
ENDBRANCH   9  19
ENDBRANCH   8   9
ENDBRANCH   6   8
ENDBRANCH   5   6
ENDBRANCH   4   5
ENDBRANCH   3   4
ENDBRANCH   2   3
ENDBRANCH   1   2
BRANCH   1  25
ATOM     25  C   UNL A   1      41.732  21.340  26.183  1.00  0.00     0.188 C 
BRANCH  25  26
ATOM     26  O   UNL A   1      41.846  20.077  25.536  1.00  0.00    -0.376 OA
BRANCH  26  27
ATOM     27  C   UNL A   1      42.554  19.092  26.291  1.00  0.00     0.202 C 
BRANCH  27  28
ATOM     28  C   UNL A   1      43.679  18.438  25.477  1.00  0.00     0.261 C 
BRANCH  28  29
ATOM     29  O   UNL A   1      43.997  19.155  24.265  1.00  0.00    -0.460 OA
BRANCH  29  30
ATOM     30  C   UNL A   1      45.191  19.781  24.302  1.00  0.00     0.338 C 
ATOM     31  O   UNL A   1      46.245  19.323  23.897  1.00  0.00    -0.246 OA
BRANCH  30  32
ATOM     32  C   UNL A   1      45.069  21.168  24.774  1.00  0.00     0.060 A 
ATOM     33  C   UNL A   1      44.595  22.145  23.886  1.00  0.00     0.016 A 
ATOM     34  C   UNL A   1      45.530  21.520  26.041  1.00  0.00     0.016 A 
ATOM     35  C   UNL A   1      44.631  23.490  24.251  1.00  0.00     0.010 A 
ATOM     36  C   UNL A   1      45.560  22.866  26.405  1.00  0.00     0.010 A 
ATOM     37  C   UNL A   1      45.133  23.861  25.506  1.00  0.00    -0.014 A 
BRANCH  37  38
ATOM     38  C   UNL A   1      45.256  25.287  25.890  1.00  0.00     0.031 A 
ATOM     39  C   UNL A   1      46.597  25.964  25.824  1.00  0.00     0.074 A 
ATOM     40  C   UNL A   1      44.174  25.952  26.332  1.00  0.00     0.049 A 
ATOM     41  N   UNL A   1      46.963  27.125  26.300  1.00  0.00    -0.248 NA
ATOM     42  C   UNL A   1      47.671  25.226  25.142  1.00  0.00     0.031 C 
ATOM     43  C   UNL A   1      42.814  25.410  26.385  1.00  0.00     0.029 A 
ATOM     44  N   UNL A   1      44.048  27.221  26.835  1.00  0.00    -0.354 N 
ATOM     45  C   UNL A   1      48.320  27.239  26.016  1.00  0.00     0.074 A 
ATOM     46  C   UNL A   1      48.710  26.029  25.324  1.00  0.00     0.031 C 
ATOM     47  C   UNL A   1      41.991  26.341  26.892  1.00  0.00     0.029 A 
ATOM     48  C   UNL A   1      42.776  27.514  27.263  1.00  0.00     0.049 A 
ATOM     49  H   UNL A   1      44.795  27.859  26.884  1.00  0.00     0.167 HD
ATOM     50  C   UNL A   1      49.161  28.256  26.324  1.00  0.00     0.031 A 
ATOM     51  C   UNL A   1      42.307  28.586  27.925  1.00  0.00     0.031 A 
ATOM     52  C   UNL A   1      48.749  29.453  27.012  1.00  0.00     0.049 A 
ATOM     53  C   UNL A   1      43.267  29.682  28.294  1.00  0.00     0.074 A 
ATOM     54  C   UNL A   1      49.510  30.550  27.376  1.00  0.00     0.029 A 
ATOM     55  N   UNL A   1      47.452  29.708  27.436  1.00  0.00    -0.354 N 
ATOM     56  N   UNL A   1      44.554  29.765  28.053  1.00  0.00    -0.248 NA
ATOM     57  C   UNL A   1      42.713  30.825  29.030  1.00  0.00     0.031 C 
ATOM     58  C   UNL A   1      48.682  31.447  28.061  1.00  0.00     0.029 A 
ATOM     59  C   UNL A   1      47.393  30.936  28.072  1.00  0.00     0.049 A 
ATOM     60  H   UNL A   1      46.685  29.104  27.303  1.00  0.00     0.167 HD
ATOM     61  C   UNL A   1      44.962  30.978  28.590  1.00  0.00     0.074 A 
ATOM     62  C   UNL A   1      43.779  31.603  29.149  1.00  0.00     0.031 C 
ATOM     63  C   UNL A   1      46.200  31.527  28.623  1.00  0.00     0.031 A 
BRANCH  50  64
ATOM     64  C   UNL A   1      50.616  28.088  25.975  1.00  0.00    -0.014 A 
ATOM     65  C   UNL A   1      51.134  28.499  24.736  1.00  0.00     0.009 A 
ATOM     66  C   UNL A   1      51.492  27.525  26.918  1.00  0.00     0.009 A 
ATOM     67  C   UNL A   1      52.486  28.312  24.436  1.00  0.00     0.001 A 
ATOM     68  C   UNL A   1      52.849  27.365  26.625  1.00  0.00     0.001 A 
ATOM     69  C   UNL A   1      53.343  27.749  25.380  1.00  0.00     0.000 A 
ENDBRANCH  50  64
BRANCH  51  70
ATOM     70  C   UNL A   1      40.873  28.653  28.313  1.00  0.00    -0.014 A 
ATOM     71  C   UNL A   1      39.923  29.219  27.450  1.00  0.00     0.009 A 
ATOM     72  C   UNL A   1      40.441  28.134  29.545  1.00  0.00     0.009 A 
ATOM     73  C   UNL A   1      38.576  29.276  27.816  1.00  0.00     0.001 A 
ATOM     74  C   UNL A   1      39.089  28.162  29.896  1.00  0.00     0.001 A 
ATOM     75  C   UNL A   1      38.159  28.741  29.035  1.00  0.00     0.000 A 
ENDBRANCH  51  70
BRANCH  63  76
ATOM     76  C   UNL A   1      46.317  32.886  29.252  1.00  0.00    -0.014 A 
ATOM     77  C   UNL A   1      46.086  34.055  28.510  1.00  0.00     0.009 A 
ATOM     78  C   UNL A   1      46.655  32.992  30.610  1.00  0.00     0.009 A 
ATOM     79  C   UNL A   1      46.233  35.308  29.110  1.00  0.00     0.001 A 
ATOM     80  C   UNL A   1      46.772  34.245  31.212  1.00  0.00     0.001 A 
ATOM     81  C   UNL A   1      46.573  35.401  30.459  1.00  0.00     0.000 A 
ENDBRANCH  63  76
ENDBRANCH  37  38
ENDBRANCH  30  32
ENDBRANCH  29  30
ENDBRANCH  28  29
ENDBRANCH  27  28
ENDBRANCH  26  27
ENDBRANCH  25  26
ENDBRANCH   1  25
TORSDOF 21
ENDMDL
MODEL 3
REMARK VINA RESULT:      -9.8      1.564      6.503
REMARK SMILES COc1ccc([C@@H](CC(=O)OCCOCCOCCOC(=O)c2ccc(-c3c4nc(c(-c5ccccc5)c5ccc([nH]5)c(-c5ccccc5)c5nc(c(-c6ccccc6)c6ccc3[nH]6)C=C5)C=C4)cc2)C2CCCCC2)cc1Cl
REMARK SMILES IDX 15 1 14 2 13 3 12 4 11 5 9 6 10 7 8 8 7 9 6 10 3 11 4 12
REMARK SMILES IDX 78 13 5 14 77 15 79 16 2 17 1 18 71 19 72 20 76 21 73 22
REMARK SMILES IDX 75 23 74 24 16 25 17 26 18 27 19 28 20 29 21 30 22 31 23 32
REMARK SMILES IDX 24 33 70 34 25 35 69 36 26 37 27 38 28 39 63 40 29 41 68 42
REMARK SMILES IDX 62 43 64 44 30 45 67 46 61 47 60 48 31 50 53 51 38 52 52 53
REMARK SMILES IDX 39 54 42 55 51 56 65 57 40 58 41 59 50 61 66 62 43 63 32 64
REMARK SMILES IDX 33 65 37 66 34 67 36 68 35 69 54 70 55 71 59 72 56 73 58 74
REMARK SMILES IDX 57 75 44 76 45 77 49 78 46 79 48 80 47 81
REMARK H PARENT 64 49 42 60
REMARK Flexibility Score: inf
ROOT
ATOM      1  C   UNL A   1      40.796  21.994  27.316  1.00  0.00     0.188 C 
ENDROOT
BRANCH   1   2
ATOM      2  O   UNL A   1      39.813  22.352  26.355  1.00  0.00    -0.376 OA
BRANCH   2   3
ATOM      3  C   UNL A   1      38.828  21.370  26.031  1.00  0.00     0.202 C 
BRANCH   3   4
ATOM      4  C   UNL A   1      37.784  21.821  25.007  1.00  0.00     0.261 C 
BRANCH   4   5
ATOM      5  O   UNL A   1      37.599  23.254  25.052  1.00  0.00    -0.463 OA
BRANCH   5   6
ATOM      6  C   UNL A   1      36.430  23.704  24.518  1.00  0.00     0.306 C 
ATOM      7  O   UNL A   1      36.057  23.482  23.374  1.00  0.00    -0.252 OA
BRANCH   6   8
ATOM      8  C   UNL A   1      35.564  24.394  25.553  1.00  0.00     0.131 C 
BRANCH   8   9
ATOM      9  C   UNL A   1      34.111  23.927  25.841  1.00  0.00     0.033 C 
BRANCH   9  10
ATOM     10  C   UNL A   1      33.685  22.553  25.342  1.00  0.00    -0.042 A 
ATOM     11  C   UNL A   1      33.056  20.043  24.223  1.00  0.00     0.137 A 
ATOM     12  C   UNL A   1      33.740  20.117  25.433  1.00  0.00     0.048 A 
ATOM     13  C   UNL A   1      32.641  21.213  23.585  1.00  0.00     0.083 A 
ATOM     14  C   UNL A   1      34.067  21.361  25.976  1.00  0.00     0.008 A 
ATOM     15  C   UNL A   1      32.956  22.457  24.143  1.00  0.00     0.028 A 
ATOM     16  Cl  UNL A   1      31.765  21.180  22.100  1.00  0.00    -0.080 Cl
BRANCH  11  17
ATOM     17  O   UNL A   1      32.790  18.796  23.727  1.00  0.00    -0.495 OA
ATOM     18  C   UNL A   1      32.486  17.889  24.790  1.00  0.00     0.278 C 
ENDBRANCH  11  17
ENDBRANCH   9  10
BRANCH   9  19
ATOM     19  C   UNL A   1      33.037  25.056  25.575  1.00  0.00    -0.003 C 
ATOM     20  C   UNL A   1      31.744  24.908  26.392  1.00  0.00     0.004 C 
ATOM     21  C   UNL A   1      33.632  26.471  25.779  1.00  0.00     0.004 C 
ATOM     22  C   UNL A   1      30.766  26.056  26.170  1.00  0.00     0.000 C 
ATOM     23  C   UNL A   1      32.612  27.593  25.578  1.00  0.00     0.000 C 
ATOM     24  C   UNL A   1      31.396  27.402  26.473  1.00  0.00     0.000 C 
ENDBRANCH   9  19
ENDBRANCH   8   9
ENDBRANCH   6   8
ENDBRANCH   5   6
ENDBRANCH   4   5
ENDBRANCH   3   4
ENDBRANCH   2   3
ENDBRANCH   1   2
BRANCH   1  25
ATOM     25  C   UNL A   1      42.006  21.182  26.830  1.00  0.00     0.188 C 
BRANCH  25  26
ATOM     26  O   UNL A   1      42.412  21.487  25.500  1.00  0.00    -0.376 OA
BRANCH  26  27
ATOM     27  C   UNL A   1      43.827  21.486  25.303  1.00  0.00     0.202 C 
BRANCH  27  28
ATOM     28  C   UNL A   1      44.310  22.751  24.580  1.00  0.00     0.261 C 
BRANCH  28  29
ATOM     29  O   UNL A   1      43.590  23.940  24.967  1.00  0.00    -0.460 OA
BRANCH  29  30
ATOM     30  C   UNL A   1      44.389  24.965  25.327  1.00  0.00     0.338 C 
ATOM     31  O   UNL A   1      45.294  25.429  24.655  1.00  0.00    -0.246 OA
BRANCH  30  32
ATOM     32  C   UNL A   1      43.962  25.575  26.594  1.00  0.00     0.060 A 
ATOM     33  C   UNL A   1      43.211  24.806  27.496  1.00  0.00     0.016 A 
ATOM     34  C   UNL A   1      44.199  26.927  26.836  1.00  0.00     0.016 A 
ATOM     35  C   UNL A   1      42.650  25.407  28.621  1.00  0.00     0.010 A 
ATOM     36  C   UNL A   1      43.641  27.524  27.966  1.00  0.00     0.010 A 
ATOM     37  C   UNL A   1      42.845  26.776  28.853  1.00  0.00    -0.014 A 
BRANCH  37  38
ATOM     38  C   UNL A   1      42.196  27.458  29.998  1.00  0.00     0.031 A 
ATOM     39  C   UNL A   1      40.875  28.148  29.803  1.00  0.00     0.074 A 
ATOM     40  C   UNL A   1      42.815  27.486  31.191  1.00  0.00     0.049 A 
ATOM     41  N   UNL A   1      40.241  28.966  30.603  1.00  0.00    -0.248 NA
ATOM     42  C   UNL A   1      40.183  27.893  28.530  1.00  0.00     0.031 C 
ATOM     43  C   UNL A   1      44.071  26.804  31.507  1.00  0.00     0.029 A 
ATOM     44  N   UNL A   1      42.480  28.127  32.357  1.00  0.00    -0.354 N 
ATOM     45  C   UNL A   1      39.099  29.360  29.913  1.00  0.00     0.074 A 
ATOM     46  C   UNL A   1      39.126  28.687  28.632  1.00  0.00     0.031 C 
ATOM     47  C   UNL A   1      44.401  27.061  32.782  1.00  0.00     0.029 A 
ATOM     48  C   UNL A   1      43.420  27.981  33.348  1.00  0.00     0.049 A 
ATOM     49  H   UNL A   1      41.648  28.640  32.472  1.00  0.00     0.167 HD
ATOM     50  C   UNL A   1      38.129  30.217  30.313  1.00  0.00     0.031 A 
ATOM     51  C   UNL A   1      43.505  28.562  34.558  1.00  0.00     0.031 A 
ATOM     52  C   UNL A   1      38.122  30.873  31.596  1.00  0.00     0.049 A 
ATOM     53  C   UNL A   1      42.441  29.542  34.962  1.00  0.00     0.074 A 
ATOM     54  C   UNL A   1      37.193  31.760  32.113  1.00  0.00     0.029 A 
ATOM     55  N   UNL A   1      39.097  30.704  32.570  1.00  0.00    -0.354 N 
ATOM     56  N   UNL A   1      41.384  29.935  34.291  1.00  0.00    -0.248 NA
ATOM     57  C   UNL A   1      42.584  30.164  36.284  1.00  0.00     0.031 C 
ATOM     58  C   UNL A   1      37.632  32.162  33.379  1.00  0.00     0.029 A 
ATOM     59  C   UNL A   1      38.803  31.482  33.676  1.00  0.00     0.049 A 
ATOM     60  H   UNL A   1      39.883  30.117  32.486  1.00  0.00     0.167 HD
ATOM     61  C   UNL A   1      40.724  30.836  35.115  1.00  0.00     0.074 A 
ATOM     62  C   UNL A   1      41.491  30.912  36.344  1.00  0.00     0.031 C 
ATOM     63  C   UNL A   1      39.590  31.539  34.882  1.00  0.00     0.031 A 
BRANCH  50  64
ATOM     64  C   UNL A   1      37.035  30.541  29.331  1.00  0.00    -0.014 A 
ATOM     65  C   UNL A   1      36.908  31.815  28.756  1.00  0.00     0.009 A 
ATOM     66  C   UNL A   1      36.123  29.539  28.957  1.00  0.00     0.009 A 
ATOM     67  C   UNL A   1      35.869  32.089  27.861  1.00  0.00     0.001 A 
ATOM     68  C   UNL A   1      35.103  29.808  28.041  1.00  0.00     0.001 A 
ATOM     69  C   UNL A   1      34.970  31.086  27.502  1.00  0.00     0.000 A 
ENDBRANCH  50  64
BRANCH  51  70
ATOM     70  C   UNL A   1      44.657  28.261  35.449  1.00  0.00    -0.014 A 
ATOM     71  C   UNL A   1      44.595  27.201  36.365  1.00  0.00     0.009 A 
ATOM     72  C   UNL A   1      45.835  29.023  35.376  1.00  0.00     0.009 A 
ATOM     73  C   UNL A   1      45.682  26.919  37.198  1.00  0.00     0.001 A 
ATOM     74  C   UNL A   1      46.932  28.719  36.186  1.00  0.00     0.001 A 
ATOM     75  C   UNL A   1      46.851  27.673  37.103  1.00  0.00     0.000 A 
ENDBRANCH  51  70
BRANCH  63  76
ATOM     76  C   UNL A   1      39.101  32.417  35.998  1.00  0.00    -0.014 A 
ATOM     77  C   UNL A   1      39.514  33.754  36.109  1.00  0.00     0.009 A 
ATOM     78  C   UNL A   1      38.207  31.897  36.945  1.00  0.00     0.009 A 
ATOM     79  C   UNL A   1      39.071  34.541  37.174  1.00  0.00     0.001 A 
ATOM     80  C   UNL A   1      37.743  32.694  37.992  1.00  0.00     0.001 A 
ATOM     81  C   UNL A   1      38.185  34.010  38.112  1.00  0.00     0.000 A 
ENDBRANCH  63  76
ENDBRANCH  37  38
ENDBRANCH  30  32
ENDBRANCH  29  30
ENDBRANCH  28  29
ENDBRANCH  27  28
ENDBRANCH  26  27
ENDBRANCH  25  26
ENDBRANCH   1  25
TORSDOF 21
ENDMDL
