MODEL 1
REMARK VINA RESULT:     -10.4      0.000      0.000
REMARK SMILES O=C(OCCOCCOCCOC(=O)c1cn(-c2cc(F)cc(F)c2F)c(=O)[nH]c1=O)c1ccc(-c2c3nc(c(-c4ccccc4)c4ccc([nH]4)c(-c4ccccc4)c4nc(c(-c5ccccc5)c5ccc2[nH]5)C=C4)C=C3)cc1
REMARK SMILES IDX 7 1 6 2 5 3 4 4 3 5 2 6 1 7 32 8 33 9 79 10 34 11 78 12
REMARK SMILES IDX 35 13 36 14 37 15 72 16 38 17 77 18 71 19 73 20 39 21 76 22
REMARK SMILES IDX 70 23 69 24 40 26 62 27 47 28 61 29 48 30 51 31 60 32 74 33
REMARK SMILES IDX 49 34 50 35 59 37 75 38 52 39 41 40 42 41 46 42 43 43 45 44
REMARK SMILES IDX 44 45 63 46 64 47 68 48 65 49 67 50 66 51 53 52 54 53 58 54
REMARK SMILES IDX 55 55 57 56 56 57 8 58 9 59 10 60 11 61 12 62 13 63 14 64
REMARK SMILES IDX 15 65 16 66 30 67 17 68 29 69 31 70 27 71 28 73 18 74 19 75
REMARK SMILES IDX 25 76 20 77 23 78 26 79 21 80 22 81 24 82
REMARK H PARENT 73 25 51 36 29 72
REMARK Flexibility Score: inf
ROOT
ATOM      1  C   UNL A   1      31.772  29.882  25.559  1.00  0.00     0.188 C 
ENDROOT
BRANCH   1   2
ATOM      2  O   UNL A   1      31.517  29.064  26.714  1.00  0.00    -0.376 OA
BRANCH   2   3
ATOM      3  C   UNL A   1      32.695  28.417  27.207  1.00  0.00     0.202 C 
BRANCH   3   4
ATOM      4  C   UNL A   1      34.003  29.205  27.058  1.00  0.00     0.261 C 
BRANCH   4   5
ATOM      5  O   UNL A   1      34.108  30.322  27.949  1.00  0.00    -0.460 OA
BRANCH   5   6
ATOM      6  C   UNL A   1      35.156  30.732  28.701  1.00  0.00     0.338 C 
ATOM      7  O   UNL A   1      35.001  31.750  29.376  1.00  0.00    -0.246 OA
BRANCH   6   8
ATOM      8  C   UNL A   1      36.503  30.063  28.762  1.00  0.00     0.060 A 
ATOM      9  C   UNL A   1      37.286  30.145  27.592  1.00  0.00     0.016 A 
ATOM     10  C   UNL A   1      37.036  29.341  29.832  1.00  0.00     0.016 A 
ATOM     11  C   UNL A   1      38.552  29.552  27.504  1.00  0.00     0.010 A 
ATOM     12  C   UNL A   1      38.308  28.754  29.758  1.00  0.00     0.010 A 
ATOM     13  C   UNL A   1      39.078  28.859  28.595  1.00  0.00    -0.014 A 
BRANCH  13  14
ATOM     14  C   UNL A   1      40.468  28.348  28.595  1.00  0.00     0.031 A 
ATOM     15  C   UNL A   1      41.631  29.229  28.933  1.00  0.00     0.074 A 
ATOM     16  C   UNL A   1      40.665  27.059  28.275  1.00  0.00     0.049 A 
ATOM     17  N   UNL A   1      42.915  29.022  28.770  1.00  0.00    -0.248 NA
ATOM     18  C   UNL A   1      41.304  30.509  29.567  1.00  0.00     0.031 C 
ATOM     19  C   UNL A   1      39.602  26.074  28.069  1.00  0.00     0.029 A 
ATOM     20  N   UNL A   1      41.822  26.353  28.091  1.00  0.00    -0.354 N 
ATOM     21  C   UNL A   1      43.555  30.179  29.218  1.00  0.00     0.074 A 
ATOM     22  C   UNL A   1      42.515  31.022  29.744  1.00  0.00     0.031 C 
ATOM     23  C   UNL A   1      40.160  24.881  27.818  1.00  0.00     0.029 A 
ATOM     24  C   UNL A   1      41.612  25.035  27.774  1.00  0.00     0.049 A 
ATOM     25  H   UNL A   1      42.719  26.751  28.177  1.00  0.00     0.167 HD
ATOM     26  C   UNL A   1      44.876  30.498  29.137  1.00  0.00     0.031 A 
ATOM     27  C   UNL A   1      42.493  24.064  27.469  1.00  0.00     0.031 A 
ATOM     28  C   UNL A   1      45.863  29.543  28.689  1.00  0.00     0.049 A 
ATOM     29  C   UNL A   1      43.956  24.399  27.430  1.00  0.00     0.074 A 
ATOM     30  C   UNL A   1      47.237  29.695  28.608  1.00  0.00     0.029 A 
ATOM     31  N   UNL A   1      45.584  28.248  28.278  1.00  0.00    -0.354 N 
ATOM     32  N   UNL A   1      44.531  25.561  27.623  1.00  0.00    -0.248 NA
ATOM     33  C   UNL A   1      44.894  23.307  27.133  1.00  0.00     0.031 C 
ATOM     34  C   UNL A   1      47.759  28.576  27.972  1.00  0.00     0.029 A 
ATOM     35  C   UNL A   1      46.758  27.621  27.909  1.00  0.00     0.049 A 
ATOM     36  H   UNL A   1      44.690  27.840  28.251  1.00  0.00     0.167 HD
ATOM     37  C   UNL A   1      45.894  25.338  27.486  1.00  0.00     0.074 A 
ATOM     38  C   UNL A   1      46.064  23.930  27.203  1.00  0.00     0.031 C 
ATOM     39  C   UNL A   1      46.908  26.225  27.597  1.00  0.00     0.031 A 
BRANCH  26  40
ATOM     40  C   UNL A   1      45.376  31.917  29.407  1.00  0.00    -0.014 A 
ATOM     41  C   UNL A   1      45.394  32.835  28.332  1.00  0.00     0.009 A 
ATOM     42  C   UNL A   1      45.909  32.365  30.619  1.00  0.00     0.009 A 
ATOM     43  C   UNL A   1      45.928  34.123  28.450  1.00  0.00     0.001 A 
ATOM     44  C   UNL A   1      46.365  33.687  30.765  1.00  0.00     0.001 A 
ATOM     45  C   UNL A   1      46.383  34.561  29.681  1.00  0.00     0.000 A 
ENDBRANCH  26  40
BRANCH  27  46
ATOM     46  C   UNL A   1      41.990  22.690  27.228  1.00  0.00    -0.014 A 
ATOM     47  C   UNL A   1      41.649  22.261  25.935  1.00  0.00     0.009 A 
ATOM     48  C   UNL A   1      41.738  21.839  28.314  1.00  0.00     0.009 A 
ATOM     49  C   UNL A   1      41.031  21.024  25.739  1.00  0.00     0.001 A 
ATOM     50  C   UNL A   1      41.148  20.591  28.111  1.00  0.00     0.001 A 
ATOM     51  C   UNL A   1      40.782  20.190  26.827  1.00  0.00     0.000 A 
ENDBRANCH  27  46
BRANCH  39  52
ATOM     52  C   UNL A   1      48.325  25.749  27.448  1.00  0.00    -0.014 A 
ATOM     53  C   UNL A   1      49.072  25.479  28.611  1.00  0.00     0.009 A 
ATOM     54  C   UNL A   1      48.983  25.816  26.213  1.00  0.00     0.009 A 
ATOM     55  C   UNL A   1      50.458  25.348  28.547  1.00  0.00     0.001 A 
ATOM     56  C   UNL A   1      50.368  25.649  26.150  1.00  0.00     0.001 A 
ATOM     57  C   UNL A   1      51.105  25.437  27.317  1.00  0.00     0.000 A 
ENDBRANCH  39  52
ENDBRANCH  13  14
ENDBRANCH   6   8
ENDBRANCH   5   6
ENDBRANCH   4   5
ENDBRANCH   3   4
ENDBRANCH   2   3
ENDBRANCH   1   2
BRANCH   1  58
ATOM     58  C   UNL A   1      30.931  29.488  24.346  1.00  0.00     0.188 C 
BRANCH  58  59
ATOM     59  O   UNL A   1      31.591  28.813  23.276  1.00  0.00    -0.376 OA
BRANCH  59  60
ATOM     60  C   UNL A   1      32.956  28.456  23.431  1.00  0.00     0.202 C 
BRANCH  60  61
ATOM     61  C   UNL A   1      33.475  27.223  22.685  1.00  0.00     0.261 C 
BRANCH  61  62
ATOM     62  O   UNL A   1      32.465  26.407  22.094  1.00  0.00    -0.459 OA
BRANCH  62  63
ATOM     63  C   UNL A   1      32.862  25.139  21.834  1.00  0.00     0.345 C 
ATOM     64  O   UNL A   1      33.244  24.685  20.760  1.00  0.00    -0.246 OA
BRANCH  63  65
ATOM     65  C   UNL A   1      32.639  24.304  22.998  1.00  0.00     0.141 A 
ATOM     66  C   UNL A   1      33.733  23.753  23.520  1.00  0.00     0.118 A 
ATOM     67  C   UNL A   1      31.364  24.169  23.711  1.00  0.00     0.268 A 
ATOM     68  N   UNL A   1      33.736  23.179  24.771  1.00  0.00    -0.265 N 
ATOM     69  N   UNL A   1      31.488  23.773  25.020  1.00  0.00    -0.273 N 
ATOM     70  O   UNL A   1      30.283  24.338  23.180  1.00  0.00    -0.268 OA
ATOM     71  C   UNL A   1      32.649  23.350  25.635  1.00  0.00     0.333 A 
ATOM     72  H   UNL A   1      30.672  23.789  25.570  1.00  0.00     0.175 HD
ATOM     73  O   UNL A   1      32.632  23.111  26.839  1.00  0.00    -0.247 OA
BRANCH  68  74
ATOM     74  C   UNL A   1      34.901  22.473  25.160  1.00  0.00     0.092 A 
ATOM     75  C   UNL A   1      34.953  21.099  24.877  1.00  0.00     0.069 A 
ATOM     76  C   UNL A   1      36.068  23.144  25.520  1.00  0.00     0.183 A 
ATOM     77  C   UNL A   1      36.154  20.411  24.983  1.00  0.00     0.128 A 
ATOM     78  C   UNL A   1      37.272  22.442  25.579  1.00  0.00     0.163 A 
ATOM     79  F   UNL A   1      36.060  24.473  25.701  1.00  0.00    -0.201 F 
ATOM     80  F   UNL A   1      36.185  19.100  24.714  1.00  0.00    -0.207 F 
ATOM     81  C   UNL A   1      37.324  21.075  25.318  1.00  0.00     0.081 A 
ATOM     82  F   UNL A   1      38.408  23.086  25.883  1.00  0.00    -0.204 F 
ENDBRANCH  68  74
ENDBRANCH  63  65
ENDBRANCH  62  63
ENDBRANCH  61  62
ENDBRANCH  60  61
ENDBRANCH  59  60
ENDBRANCH  58  59
ENDBRANCH   1  58
TORSDOF 18
ENDMDL
MODEL 2
REMARK VINA RESULT:     -10.2      4.018      8.861
REMARK SMILES O=C(OCCOCCOCCOC(=O)c1cn(-c2cc(F)cc(F)c2F)c(=O)[nH]c1=O)c1ccc(-c2c3nc(c(-c4ccccc4)c4ccc([nH]4)c(-c4ccccc4)c4nc(c(-c5ccccc5)c5ccc2[nH]5)C=C4)C=C3)cc1
REMARK SMILES IDX 7 1 6 2 5 3 4 4 3 5 2 6 1 7 32 8 33 9 79 10 34 11 78 12
REMARK SMILES IDX 35 13 36 14 37 15 72 16 38 17 77 18 71 19 73 20 39 21 76 22
REMARK SMILES IDX 70 23 69 24 40 26 62 27 47 28 61 29 48 30 51 31 60 32 74 33
REMARK SMILES IDX 49 34 50 35 59 37 75 38 52 39 41 40 42 41 46 42 43 43 45 44
REMARK SMILES IDX 44 45 63 46 64 47 68 48 65 49 67 50 66 51 53 52 54 53 58 54
REMARK SMILES IDX 55 55 57 56 56 57 8 58 9 59 10 60 11 61 12 62 13 63 14 64
REMARK SMILES IDX 15 65 16 66 30 67 17 68 29 69 31 70 27 71 28 73 18 74 19 75
REMARK SMILES IDX 25 76 20 77 23 78 26 79 21 80 22 81 24 82
REMARK H PARENT 73 25 51 36 29 72
REMARK Flexibility Score: inf
ROOT
ATOM      1  C   UNL A   1      35.503  20.813  24.833  1.00  0.00     0.188 C 
ENDROOT
BRANCH   1   2
ATOM      2  O   UNL A   1      35.874  21.455  26.066  1.00  0.00    -0.376 OA
BRANCH   2   3
ATOM      3  C   UNL A   1      36.092  22.862  25.915  1.00  0.00     0.202 C 
BRANCH   3   4
ATOM      4  C   UNL A   1      37.367  23.264  25.162  1.00  0.00     0.261 C 
BRANCH   4   5
ATOM      5  O   UNL A   1      38.529  22.525  25.558  1.00  0.00    -0.460 OA
BRANCH   5   6
ATOM      6  C   UNL A   1      39.670  22.958  26.142  1.00  0.00     0.338 C 
ATOM      7  O   UNL A   1      40.640  22.199  26.116  1.00  0.00    -0.246 OA
BRANCH   6   8
ATOM      8  C   UNL A   1      39.847  24.278  26.843  1.00  0.00     0.060 A 
ATOM      9  C   UNL A   1      39.224  24.396  28.103  1.00  0.00     0.016 A 
ATOM     10  C   UNL A   1      40.524  25.401  26.363  1.00  0.00     0.016 A 
ATOM     11  C   UNL A   1      39.292  25.575  28.856  1.00  0.00     0.010 A 
ATOM     12  C   UNL A   1      40.608  26.583  27.116  1.00  0.00     0.010 A 
ATOM     13  C   UNL A   1      39.997  26.677  28.370  1.00  0.00    -0.014 A 
BRANCH  13  14
ATOM     14  C   UNL A   1      40.219  27.885  29.198  1.00  0.00     0.031 A 
ATOM     15  C   UNL A   1      41.431  28.034  30.065  1.00  0.00     0.074 A 
ATOM     16  C   UNL A   1      39.292  28.856  29.156  1.00  0.00     0.049 A 
ATOM     17  N   UNL A   1      41.682  28.903  31.013  1.00  0.00    -0.248 NA
ATOM     18  C   UNL A   1      42.523  27.091  29.810  1.00  0.00     0.031 C 
ATOM     19  C   UNL A   1      38.148  28.884  28.244  1.00  0.00     0.029 A 
ATOM     20  N   UNL A   1      39.179  30.011  29.879  1.00  0.00    -0.354 N 
ATOM     21  C   UNL A   1      42.938  28.571  31.523  1.00  0.00     0.074 A 
ATOM     22  C   UNL A   1      43.418  27.490  30.704  1.00  0.00     0.031 C 
ATOM     23  C   UNL A   1      37.465  30.020  28.442  1.00  0.00     0.029 A 
ATOM     24  C   UNL A   1      38.081  30.761  29.540  1.00  0.00     0.049 A 
ATOM     25  H   UNL A   1      39.822  30.280  30.576  1.00  0.00     0.167 HD
ATOM     26  C   UNL A   1      43.578  29.099  32.602  1.00  0.00     0.031 A 
ATOM     27  C   UNL A   1      37.618  31.909  30.067  1.00  0.00     0.031 A 
ATOM     28  C   UNL A   1      43.064  30.255  33.300  1.00  0.00     0.049 A 
ATOM     29  C   UNL A   1      38.350  32.523  31.224  1.00  0.00     0.074 A 
ATOM     30  C   UNL A   1      43.624  30.938  34.367  1.00  0.00     0.029 A 
ATOM     31  N   UNL A   1      41.888  30.917  32.980  1.00  0.00    -0.354 N 
ATOM     32  N   UNL A   1      39.407  32.069  31.854  1.00  0.00    -0.248 NA
ATOM     33  C   UNL A   1      37.841  33.799  31.749  1.00  0.00     0.031 C 
ATOM     34  C   UNL A   1      42.703  31.879  34.809  1.00  0.00     0.029 A 
ATOM     35  C   UNL A   1      41.700  31.967  33.857  1.00  0.00     0.049 A 
ATOM     36  H   UNL A   1      41.282  30.676  32.244  1.00  0.00     0.167 HD
ATOM     37  C   UNL A   1      39.696  33.005  32.836  1.00  0.00     0.074 A 
ATOM     38  C   UNL A   1      38.713  34.059  32.716  1.00  0.00     0.031 C 
ATOM     39  C   UNL A   1      40.696  32.991  33.745  1.00  0.00     0.031 A 
BRANCH  26  40
ATOM     40  C   UNL A   1      44.814  28.433  33.206  1.00  0.00    -0.014 A 
ATOM     41  C   UNL A   1      44.623  27.425  34.179  1.00  0.00     0.009 A 
ATOM     42  C   UNL A   1      46.136  28.802  32.943  1.00  0.00     0.009 A 
ATOM     43  C   UNL A   1      45.686  26.829  34.865  1.00  0.00     0.001 A 
ATOM     44  C   UNL A   1      47.210  28.143  33.566  1.00  0.00     0.001 A 
ATOM     45  C   UNL A   1      46.986  27.165  34.532  1.00  0.00     0.000 A 
ENDBRANCH  26  40
BRANCH  27  46
ATOM     46  C   UNL A   1      36.427  32.549  29.456  1.00  0.00    -0.014 A 
ATOM     47  C   UNL A   1      36.562  33.470  28.404  1.00  0.00     0.009 A 
ATOM     48  C   UNL A   1      35.156  32.327  30.006  1.00  0.00     0.009 A 
ATOM     49  C   UNL A   1      35.454  34.183  27.941  1.00  0.00     0.001 A 
ATOM     50  C   UNL A   1      34.046  33.019  29.520  1.00  0.00     0.001 A 
ATOM     51  C   UNL A   1      34.197  33.956  28.499  1.00  0.00     0.000 A 
ENDBRANCH  27  46
BRANCH  39  52
ATOM     52  C   UNL A   1      40.844  34.143  34.698  1.00  0.00    -0.014 A 
ATOM     53  C   UNL A   1      40.064  34.153  35.870  1.00  0.00     0.009 A 
ATOM     54  C   UNL A   1      41.534  35.304  34.325  1.00  0.00     0.009 A 
ATOM     55  C   UNL A   1      39.923  35.322  36.616  1.00  0.00     0.001 A 
ATOM     56  C   UNL A   1      41.416  36.463  35.095  1.00  0.00     0.001 A 
ATOM     57  C   UNL A   1      40.596  36.477  36.225  1.00  0.00     0.000 A 
ENDBRANCH  39  52
ENDBRANCH  13  14
ENDBRANCH   6   8
ENDBRANCH   5   6
ENDBRANCH   4   5
ENDBRANCH   3   4
ENDBRANCH   2   3
ENDBRANCH   1   2
BRANCH   1  58
ATOM     58  C   UNL A   1      34.362  19.811  24.997  1.00  0.00     0.188 C 
BRANCH  58  59
ATOM     59  O   UNL A   1      33.201  19.993  24.187  1.00  0.00    -0.376 OA
BRANCH  59  60
ATOM     60  C   UNL A   1      32.464  21.200  24.308  1.00  0.00     0.202 C 
BRANCH  60  61
ATOM     61  C   UNL A   1      32.235  22.042  23.050  1.00  0.00     0.261 C 
BRANCH  61  62
ATOM     62  O   UNL A   1      32.568  23.424  23.180  1.00  0.00    -0.459 OA
BRANCH  62  63
ATOM     63  C   UNL A   1      31.498  24.254  23.148  1.00  0.00     0.345 C 
ATOM     64  O   UNL A   1      30.313  23.941  23.192  1.00  0.00    -0.246 OA
BRANCH  63  65
ATOM     65  C   UNL A   1      31.937  25.613  22.898  1.00  0.00     0.141 A 
ATOM     66  C   UNL A   1      32.019  26.390  23.976  1.00  0.00     0.118 A 
ATOM     67  C   UNL A   1      32.438  26.119  21.615  1.00  0.00     0.268 A 
ATOM     68  N   UNL A   1      32.681  27.596  23.958  1.00  0.00    -0.265 N 
ATOM     69  N   UNL A   1      33.252  27.220  21.721  1.00  0.00    -0.273 N 
ATOM     70  O   UNL A   1      32.121  25.643  20.542  1.00  0.00    -0.268 OA
ATOM     71  C   UNL A   1      33.485  27.950  22.869  1.00  0.00     0.333 A 
ATOM     72  H   UNL A   1      33.710  27.517  20.903  1.00  0.00     0.175 HD
ATOM     73  O   UNL A   1      34.309  28.860  22.838  1.00  0.00    -0.247 OA
BRANCH  68  74
ATOM     74  C   UNL A   1      32.565  28.420  25.104  1.00  0.00     0.092 A 
ATOM     75  C   UNL A   1      33.533  28.273  26.111  1.00  0.00     0.069 A 
ATOM     76  C   UNL A   1      31.731  29.537  25.112  1.00  0.00     0.183 A 
ATOM     77  C   UNL A   1      33.637  29.220  27.120  1.00  0.00     0.128 A 
ATOM     78  C   UNL A   1      31.881  30.497  26.113  1.00  0.00     0.163 A 
ATOM     79  F   UNL A   1      30.865  29.745  24.110  1.00  0.00    -0.201 F 
ATOM     80  F   UNL A   1      34.563  29.063  28.075  1.00  0.00    -0.207 F 
ATOM     81  C   UNL A   1      32.827  30.345  27.124  1.00  0.00     0.081 A 
ATOM     82  F   UNL A   1      31.112  31.595  26.107  1.00  0.00    -0.204 F 
ENDBRANCH  68  74
ENDBRANCH  63  65
ENDBRANCH  62  63
ENDBRANCH  61  62
ENDBRANCH  60  61
ENDBRANCH  59  60
ENDBRANCH  58  59
ENDBRANCH   1  58
TORSDOF 18
ENDMDL
MODEL 3
REMARK VINA RESULT:     -10.2      5.452      7.592
REMARK SMILES O=C(OCCOCCOCCOC(=O)c1cn(-c2cc(F)cc(F)c2F)c(=O)[nH]c1=O)c1ccc(-c2c3nc(c(-c4ccccc4)c4ccc([nH]4)c(-c4ccccc4)c4nc(c(-c5ccccc5)c5ccc2[nH]5)C=C4)C=C3)cc1
REMARK SMILES IDX 7 1 6 2 5 3 4 4 3 5 2 6 1 7 32 8 33 9 79 10 34 11 78 12
REMARK SMILES IDX 35 13 36 14 37 15 72 16 38 17 77 18 71 19 73 20 39 21 76 22
REMARK SMILES IDX 70 23 69 24 40 26 62 27 47 28 61 29 48 30 51 31 60 32 74 33
REMARK SMILES IDX 49 34 50 35 59 37 75 38 52 39 41 40 42 41 46 42 43 43 45 44
REMARK SMILES IDX 44 45 63 46 64 47 68 48 65 49 67 50 66 51 53 52 54 53 58 54
REMARK SMILES IDX 55 55 57 56 56 57 8 58 9 59 10 60 11 61 12 62 13 63 14 64
REMARK SMILES IDX 15 65 16 66 30 67 17 68 29 69 31 70 27 71 28 73 18 74 19 75
REMARK SMILES IDX 25 76 20 77 23 78 26 79 21 80 22 81 24 82
REMARK H PARENT 73 25 51 36 29 72
REMARK Flexibility Score: inf
ROOT
ATOM      1  C   UNL A   1      34.558  33.785  28.081  1.00  0.00     0.188 C 
ENDROOT
BRANCH   1   2
ATOM      2  O   UNL A   1      34.471  35.006  28.837  1.00  0.00    -0.376 OA
BRANCH   2   3
ATOM      3  C   UNL A   1      33.135  35.514  28.918  1.00  0.00     0.202 C 
BRANCH   3   4
ATOM      4  C   UNL A   1      32.945  36.757  29.797  1.00  0.00     0.261 C 
BRANCH   4   5
ATOM      5  O   UNL A   1      32.236  36.500  31.015  1.00  0.00    -0.460 OA
BRANCH   5   6
ATOM      6  C   UNL A   1      32.713  36.233  32.252  1.00  0.00     0.338 C 
ATOM      7  O   UNL A   1      32.220  36.856  33.193  1.00  0.00    -0.246 OA
BRANCH   6   8
ATOM      8  C   UNL A   1      33.813  35.256  32.573  1.00  0.00     0.060 A 
ATOM      9  C   UNL A   1      35.130  35.732  32.401  1.00  0.00     0.016 A 
ATOM     10  C   UNL A   1      33.666  33.928  32.980  1.00  0.00     0.016 A 
ATOM     11  C   UNL A   1      36.247  34.924  32.645  1.00  0.00     0.010 A 
ATOM     12  C   UNL A   1      34.780  33.115  33.239  1.00  0.00     0.010 A 
ATOM     13  C   UNL A   1      36.079  33.608  33.078  1.00  0.00    -0.014 A 
BRANCH  13  14
ATOM     14  C   UNL A   1      37.230  32.772  33.490  1.00  0.00     0.031 A 
ATOM     15  C   UNL A   1      37.865  32.915  34.839  1.00  0.00     0.074 A 
ATOM     16  C   UNL A   1      37.702  31.873  32.611  1.00  0.00     0.049 A 
ATOM     17  N   UNL A   1      39.000  32.437  35.286  1.00  0.00    -0.248 NA
ATOM     18  C   UNL A   1      37.102  33.678  35.830  1.00  0.00     0.031 C 
ATOM     19  C   UNL A   1      37.076  31.547  31.329  1.00  0.00     0.029 A 
ATOM     20  N   UNL A   1      38.797  31.056  32.673  1.00  0.00    -0.354 N 
ATOM     21  C   UNL A   1      39.128  32.901  36.597  1.00  0.00     0.074 A 
ATOM     22  C   UNL A   1      37.907  33.605  36.883  1.00  0.00     0.031 C 
ATOM     23  C   UNL A   1      37.784  30.573  30.738  1.00  0.00     0.029 A 
ATOM     24  C   UNL A   1      38.947  30.260  31.565  1.00  0.00     0.049 A 
ATOM     25  H   UNL A   1      39.418  31.040  33.437  1.00  0.00     0.167 HD
ATOM     26  C   UNL A   1      40.193  32.780  37.436  1.00  0.00     0.031 A 
ATOM     27  C   UNL A   1      39.922  29.389  31.248  1.00  0.00     0.031 A 
ATOM     28  C   UNL A   1      41.337  31.963  37.098  1.00  0.00     0.049 A 
ATOM     29  C   UNL A   1      41.073  29.213  32.195  1.00  0.00     0.074 A 
ATOM     30  C   UNL A   1      42.461  31.694  37.862  1.00  0.00     0.029 A 
ATOM     31  N   UNL A   1      41.487  31.258  35.914  1.00  0.00    -0.354 N 
ATOM     32  N   UNL A   1      41.302  29.838  33.325  1.00  0.00    -0.248 NA
ATOM     33  C   UNL A   1      42.099  28.222  31.838  1.00  0.00     0.031 C 
ATOM     34  C   UNL A   1      43.364  30.996  37.071  1.00  0.00     0.029 A 
ATOM     35  C   UNL A   1      42.699  30.597  35.924  1.00  0.00     0.049 A 
ATOM     36  H   UNL A   1      40.832  31.234  35.180  1.00  0.00     0.167 HD
ATOM     37  C   UNL A   1      42.486  29.309  33.818  1.00  0.00     0.074 A 
ATOM     38  C   UNL A   1      42.926  28.305  32.874  1.00  0.00     0.031 C 
ATOM     39  C   UNL A   1      43.139  29.625  34.959  1.00  0.00     0.031 A 
BRANCH  26  40
ATOM     40  C   UNL A   1      40.292  33.589  38.728  1.00  0.00    -0.014 A 
ATOM     41  C   UNL A   1      40.912  34.858  38.678  1.00  0.00     0.009 A 
ATOM     42  C   UNL A   1      39.899  33.137  39.991  1.00  0.00     0.009 A 
ATOM     43  C   UNL A   1      41.143  35.630  39.821  1.00  0.00     0.001 A 
ATOM     44  C   UNL A   1      40.050  33.948  41.130  1.00  0.00     0.001 A 
ATOM     45  C   UNL A   1      40.679  35.187  41.047  1.00  0.00     0.000 A 
ENDBRANCH  26  40
BRANCH  27  46
ATOM     46  C   UNL A   1      39.799  28.600  29.998  1.00  0.00    -0.014 A 
ATOM     47  C   UNL A   1      39.293  27.290  30.016  1.00  0.00     0.009 A 
ATOM     48  C   UNL A   1      40.301  29.118  28.795  1.00  0.00     0.009 A 
ATOM     49  C   UNL A   1      39.327  26.503  28.863  1.00  0.00     0.001 A 
ATOM     50  C   UNL A   1      40.305  28.338  27.637  1.00  0.00     0.001 A 
ATOM     51  C   UNL A   1      39.832  27.028  27.675  1.00  0.00     0.000 A 
ENDBRANCH  27  46
BRANCH  39  52
ATOM     52  C   UNL A   1      44.397  28.887  35.318  1.00  0.00    -0.014 A 
ATOM     53  C   UNL A   1      45.616  29.324  34.764  1.00  0.00     0.009 A 
ATOM     54  C   UNL A   1      44.348  27.647  35.969  1.00  0.00     0.009 A 
ATOM     55  C   UNL A   1      46.744  28.506  34.801  1.00  0.00     0.001 A 
ATOM     56  C   UNL A   1      45.489  26.847  36.033  1.00  0.00     0.001 A 
ATOM     57  C   UNL A   1      46.678  27.266  35.432  1.00  0.00     0.000 A 
ENDBRANCH  39  52
ENDBRANCH  13  14
ENDBRANCH   6   8
ENDBRANCH   5   6
ENDBRANCH   4   5
ENDBRANCH   3   4
ENDBRANCH   2   3
ENDBRANCH   1   2
BRANCH   1  58
ATOM     58  C   UNL A   1      34.367  32.534  28.937  1.00  0.00     0.188 C 
BRANCH  58  59
ATOM     59  O   UNL A   1      34.890  31.304  28.435  1.00  0.00    -0.376 OA
BRANCH  59  60
ATOM     60  C   UNL A   1      34.309  30.739  27.270  1.00  0.00     0.202 C 
BRANCH  60  61
ATOM     61  C   UNL A   1      33.776  29.305  27.345  1.00  0.00     0.261 C 
BRANCH  61  62
ATOM     62  O   UNL A   1      34.063  28.495  26.205  1.00  0.00    -0.459 OA
BRANCH  62  63
ATOM     63  C   UNL A   1      32.975  28.188  25.459  1.00  0.00     0.345 C 
ATOM     64  O   UNL A   1      31.797  28.315  25.777  1.00  0.00    -0.246 OA
BRANCH  63  65
ATOM     65  C   UNL A   1      33.387  27.526  24.237  1.00  0.00     0.141 A 
ATOM     66  C   UNL A   1      33.440  26.198  24.301  1.00  0.00     0.118 A 
ATOM     67  C   UNL A   1      33.578  28.186  22.941  1.00  0.00     0.268 A 
ATOM     68  N   UNL A   1      33.530  25.415  23.173  1.00  0.00    -0.265 N 
ATOM     69  N   UNL A   1      33.458  27.349  21.859  1.00  0.00    -0.273 N 
ATOM     70  O   UNL A   1      33.873  29.360  22.828  1.00  0.00    -0.268 OA
ATOM     71  C   UNL A   1      33.345  25.974  21.903  1.00  0.00     0.333 A 
ATOM     72  H   UNL A   1      33.454  27.768  20.968  1.00  0.00     0.175 HD
ATOM     73  O   UNL A   1      33.153  25.359  20.858  1.00  0.00    -0.247 OA
BRANCH  68  74
ATOM     74  C   UNL A   1      33.750  24.028  23.358  1.00  0.00     0.092 A 
ATOM     75  C   UNL A   1      35.074  23.601  23.553  1.00  0.00     0.069 A 
ATOM     76  C   UNL A   1      32.700  23.160  23.648  1.00  0.00     0.183 A 
ATOM     77  C   UNL A   1      35.331  22.314  24.005  1.00  0.00     0.128 A 
ATOM     78  C   UNL A   1      32.979  21.886  24.140  1.00  0.00     0.163 A 
ATOM     79  F   UNL A   1      31.429  23.579  23.560  1.00  0.00    -0.201 F 
ATOM     80  F   UNL A   1      36.598  21.921  24.181  1.00  0.00    -0.207 F 
ATOM     81  C   UNL A   1      34.291  21.451  24.316  1.00  0.00     0.081 A 
ATOM     82  F   UNL A   1      31.975  21.057  24.461  1.00  0.00    -0.204 F 
ENDBRANCH  68  74
ENDBRANCH  63  65
ENDBRANCH  62  63
ENDBRANCH  61  62
ENDBRANCH  60  61
ENDBRANCH  59  60
ENDBRANCH  58  59
ENDBRANCH   1  58
TORSDOF 18
ENDMDL
