MODEL 1
REMARK VINA RESULT:     -10.6      0.000      0.000
REMARK SMILES Nc1cc(C(=O)OCCOCCOCCOC(=O)c2ccc(-c3c4nc(c(-c5ccccc5)c5ccc([nH]5)c(-c5ccccc5)c5nc(c(-c6ccccc6)c6ccc3[nH]6)C=C5)C=C4)cc2)ccc1N1CC2(CCOCC2)C1
REMARK SMILES IDX 12 1 11 2 10 3 9 4 8 5 7 6 5 7 6 8 4 9 2 10 3 11 69 12 68 13
REMARK SMILES IDX 67 14 1 15 70 18 71 19 78 20 72 21 73 22 77 23 74 24 76 25
REMARK SMILES IDX 75 26 13 27 14 28 15 29 16 30 17 31 18 32 19 33 20 34 66 35
REMARK SMILES IDX 21 36 65 37 22 38 23 39 24 40 59 41 25 42 64 43 58 44 60 45
REMARK SMILES IDX 26 46 63 47 57 48 56 49 27 51 49 52 34 53 48 54 35 55 38 56
REMARK SMILES IDX 47 57 61 58 36 59 37 60 46 62 62 63 39 64 28 65 29 66 33 67
REMARK SMILES IDX 30 68 32 69 31 70 50 71 51 72 55 73 52 74 54 75 53 76 40 77
REMARK SMILES IDX 41 78 45 79 42 80 44 81 43 82
REMARK H PARENT 1 16 1 17 60 50 38 61
REMARK Flexibility Score: inf
ROOT
ATOM      1  C   UNL A   1      41.558  20.072  26.438  1.00  0.00     0.188 C 
ENDROOT
BRANCH   1   2
ATOM      2  C   UNL A   1      40.056  20.200  26.107  1.00  0.00     0.188 C 
BRANCH   2   3
ATOM      3  O   UNL A   1      39.365  21.420  26.329  1.00  0.00    -0.376 OA
BRANCH   3   4
ATOM      4  C   UNL A   1      38.321  21.805  25.446  1.00  0.00     0.202 C 
BRANCH   4   5
ATOM      5  C   UNL A   1      37.059  20.944  25.345  1.00  0.00     0.261 C 
BRANCH   5   6
ATOM      6  O   UNL A   1      35.841  21.704  25.377  1.00  0.00    -0.460 OA
BRANCH   6   7
ATOM      7  C   UNL A   1      34.795  21.141  24.727  1.00  0.00     0.338 C 
ATOM      8  O   UNL A   1      34.519  19.952  24.669  1.00  0.00    -0.246 OA
BRANCH   7   9
ATOM      9  C   UNL A   1      33.879  22.185  24.231  1.00  0.00     0.062 A 
ATOM     10  C   UNL A   1      33.459  24.583  24.008  1.00  0.00     0.056 A 
ATOM     11  C   UNL A   1      34.290  23.516  24.373  1.00  0.00     0.043 A 
ATOM     12  C   UNL A   1      32.185  24.300  23.470  1.00  0.00     0.060 A 
ATOM     13  C   UNL A   1      31.808  22.947  23.297  1.00  0.00     0.029 A 
ATOM     14  C   UNL A   1      32.649  21.891  23.659  1.00  0.00     0.018 A 
BRANCH  10  15
ATOM     15  N   UNL A   1      33.978  25.867  24.140  1.00  0.00    -0.397 N 
ATOM     16  H   UNL A   1      34.719  26.038  24.766  1.00  0.00     0.156 HD
ATOM     17  H   UNL A   1      33.605  26.606  23.606  1.00  0.00     0.156 HD
ENDBRANCH  10  15
BRANCH  12  18
ATOM     18  N   UNL A   1      31.198  25.268  23.175  1.00  0.00    -0.369 N 
ATOM     19  C   UNL A   1      31.196  26.531  22.514  1.00  0.00     0.125 C 
ATOM     20  C   UNL A   1      30.124  25.606  24.067  1.00  0.00     0.125 C 
ATOM     21  C   UNL A   1      30.316  27.082  23.666  1.00  0.00     0.010 C 
ATOM     22  C   UNL A   1      29.019  27.788  23.269  1.00  0.00     0.039 C 
ATOM     23  C   UNL A   1      31.058  27.914  24.723  1.00  0.00     0.039 C 
ATOM     24  C   UNL A   1      29.338  29.211  22.823  1.00  0.00     0.161 C 
ATOM     25  C   UNL A   1      31.276  29.322  24.181  1.00  0.00     0.161 C 
ATOM     26  O   UNL A   1      30.019  29.921  23.860  1.00  0.00    -0.381 OA
ENDBRANCH  12  18
ENDBRANCH   7   9
ENDBRANCH   6   7
ENDBRANCH   5   6
ENDBRANCH   4   5
ENDBRANCH   3   4
ENDBRANCH   2   3
ENDBRANCH   1   2
BRANCH   1  27
ATOM     27  O   UNL A   1      42.488  19.998  25.386  1.00  0.00    -0.376 OA
BRANCH  27  28
ATOM     28  C   UNL A   1      43.788  20.550  25.487  1.00  0.00     0.202 C 
BRANCH  28  29
ATOM     29  C   UNL A   1      44.355  21.707  24.648  1.00  0.00     0.261 C 
BRANCH  29  30
ATOM     30  O   UNL A   1      43.647  22.944  24.649  1.00  0.00    -0.460 OA
BRANCH  30  31
ATOM     31  C   UNL A   1      44.402  24.038  24.907  1.00  0.00     0.338 C 
ATOM     32  O   UNL A   1      45.462  24.350  24.397  1.00  0.00    -0.246 OA
BRANCH  31  33
ATOM     33  C   UNL A   1      43.661  24.910  25.833  1.00  0.00     0.060 A 
ATOM     34  C   UNL A   1      44.049  26.249  25.949  1.00  0.00     0.016 A 
ATOM     35  C   UNL A   1      42.624  24.393  26.612  1.00  0.00     0.016 A 
ATOM     36  C   UNL A   1      43.411  27.077  26.871  1.00  0.00     0.010 A 
ATOM     37  C   UNL A   1      41.998  25.219  27.547  1.00  0.00     0.010 A 
ATOM     38  C   UNL A   1      42.408  26.556  27.699  1.00  0.00    -0.014 A 
BRANCH  38  39
ATOM     39  C   UNL A   1      41.898  27.357  28.837  1.00  0.00     0.031 A 
ATOM     40  C   UNL A   1      42.602  27.257  30.162  1.00  0.00     0.074 A 
ATOM     41  C   UNL A   1      40.829  28.160  28.697  1.00  0.00     0.049 A 
ATOM     42  N   UNL A   1      42.306  27.826  31.303  1.00  0.00    -0.248 NA
ATOM     43  C   UNL A   1      43.801  26.403  30.205  1.00  0.00     0.031 C 
ATOM     44  C   UNL A   1      40.083  28.373  27.457  1.00  0.00     0.029 A 
ATOM     45  N   UNL A   1      40.180  28.939  29.622  1.00  0.00    -0.354 N 
ATOM     46  C   UNL A   1      43.273  27.391  32.200  1.00  0.00     0.074 A 
ATOM     47  C   UNL A   1      44.153  26.497  31.479  1.00  0.00     0.031 C 
ATOM     48  C   UNL A   1      39.069  29.222  27.703  1.00  0.00     0.029 A 
ATOM     49  C   UNL A   1      39.076  29.582  29.119  1.00  0.00     0.049 A 
ATOM     50  H   UNL A   1      40.478  29.029  30.556  1.00  0.00     0.167 HD
ATOM     51  C   UNL A   1      43.420  27.711  33.507  1.00  0.00     0.031 A 
ATOM     52  C   UNL A   1      38.163  30.354  29.741  1.00  0.00     0.031 A 
ATOM     53  C   UNL A   1      42.538  28.586  34.231  1.00  0.00     0.049 A 
ATOM     54  C   UNL A   1      38.301  30.625  31.217  1.00  0.00     0.074 A 
ATOM     55  C   UNL A   1      42.616  28.984  35.554  1.00  0.00     0.029 A 
ATOM     56  N   UNL A   1      41.413  29.190  33.696  1.00  0.00    -0.354 N 
ATOM     57  N   UNL A   1      39.241  30.240  32.046  1.00  0.00    -0.248 NA
ATOM     58  C   UNL A   1      37.250  31.444  31.840  1.00  0.00     0.031 C 
ATOM     59  C   UNL A   1      41.505  29.786  35.835  1.00  0.00     0.029 A 
ATOM     60  C   UNL A   1      40.770  29.935  34.669  1.00  0.00     0.049 A 
ATOM     61  H   UNL A   1      41.114  29.102  32.762  1.00  0.00     0.167 HD
ATOM     62  C   UNL A   1      38.913  30.796  33.277  1.00  0.00     0.074 A 
ATOM     63  C   UNL A   1      37.695  31.555  33.083  1.00  0.00     0.031 C 
ATOM     64  C   UNL A   1      39.564  30.691  34.462  1.00  0.00     0.031 A 
BRANCH  51  65
ATOM     65  C   UNL A   1      44.562  27.079  34.250  1.00  0.00    -0.014 A 
ATOM     66  C   UNL A   1      44.412  25.845  34.901  1.00  0.00     0.009 A 
ATOM     67  C   UNL A   1      45.816  27.708  34.262  1.00  0.00     0.009 A 
ATOM     68  C   UNL A   1      45.491  25.267  35.574  1.00  0.00     0.001 A 
ATOM     69  C   UNL A   1      46.899  27.116  34.913  1.00  0.00     0.001 A 
ATOM     70  C   UNL A   1      46.734  25.900  35.574  1.00  0.00     0.000 A 
ENDBRANCH  51  65
BRANCH  52  71
ATOM     71  C   UNL A   1      37.014  30.915  28.984  1.00  0.00    -0.014 A 
ATOM     72  C   UNL A   1      37.005  32.262  28.589  1.00  0.00     0.009 A 
ATOM     73  C   UNL A   1      35.898  30.115  28.690  1.00  0.00     0.009 A 
ATOM     74  C   UNL A   1      35.890  32.803  27.945  1.00  0.00     0.001 A 
ATOM     75  C   UNL A   1      34.796  30.653  28.021  1.00  0.00     0.001 A 
ATOM     76  C   UNL A   1      34.788  31.999  27.660  1.00  0.00     0.000 A 
ENDBRANCH  52  71
BRANCH  64  77
ATOM     77  C   UNL A   1      39.001  31.450  35.630  1.00  0.00    -0.014 A 
ATOM     78  C   UNL A   1      38.168  30.830  36.574  1.00  0.00     0.009 A 
ATOM     79  C   UNL A   1      39.352  32.797  35.814  1.00  0.00     0.009 A 
ATOM     80  C   UNL A   1      37.671  31.554  37.660  1.00  0.00     0.001 A 
ATOM     81  C   UNL A   1      38.878  33.509  36.917  1.00  0.00     0.001 A 
ATOM     82  C   UNL A   1      38.031  32.891  37.834  1.00  0.00     0.000 A 
ENDBRANCH  64  77
ENDBRANCH  38  39
ENDBRANCH  31  33
ENDBRANCH  30  31
ENDBRANCH  29  30
ENDBRANCH  28  29
ENDBRANCH  27  28
ENDBRANCH   1  27
TORSDOF 19
ENDMDL
MODEL 2
REMARK VINA RESULT:     -10.5      4.148     10.223
REMARK SMILES Nc1cc(C(=O)OCCOCCOCCOC(=O)c2ccc(-c3c4nc(c(-c5ccccc5)c5ccc([nH]5)c(-c5ccccc5)c5nc(c(-c6ccccc6)c6ccc3[nH]6)C=C5)C=C4)cc2)ccc1N1CC2(CCOCC2)C1
REMARK SMILES IDX 12 1 11 2 10 3 9 4 8 5 7 6 5 7 6 8 4 9 2 10 3 11 69 12 68 13
REMARK SMILES IDX 67 14 1 15 70 18 71 19 78 20 72 21 73 22 77 23 74 24 76 25
REMARK SMILES IDX 75 26 13 27 14 28 15 29 16 30 17 31 18 32 19 33 20 34 66 35
REMARK SMILES IDX 21 36 65 37 22 38 23 39 24 40 59 41 25 42 64 43 58 44 60 45
REMARK SMILES IDX 26 46 63 47 57 48 56 49 27 51 49 52 34 53 48 54 35 55 38 56
REMARK SMILES IDX 47 57 61 58 36 59 37 60 46 62 62 63 39 64 28 65 29 66 33 67
REMARK SMILES IDX 30 68 32 69 31 70 50 71 51 72 55 73 52 74 54 75 53 76 40 77
REMARK SMILES IDX 41 78 45 79 42 80 44 81 43 82
REMARK H PARENT 1 16 1 17 60 50 38 61
REMARK Flexibility Score: inf
ROOT
ATOM      1  C   UNL A   1      34.308  33.528  29.939  1.00  0.00     0.188 C 
ENDROOT
BRANCH   1   2
ATOM      2  C   UNL A   1      34.889  33.197  28.549  1.00  0.00     0.188 C 
BRANCH   2   3
ATOM      3  O   UNL A   1      35.009  31.852  28.113  1.00  0.00    -0.376 OA
BRANCH   3   4
ATOM      4  C   UNL A   1      33.861  31.165  27.636  1.00  0.00     0.202 C 
BRANCH   4   5
ATOM      5  C   UNL A   1      33.970  29.689  27.243  1.00  0.00     0.261 C 
BRANCH   5   6
ATOM      6  O   UNL A   1      32.707  29.008  27.213  1.00  0.00    -0.460 OA
BRANCH   6   7
ATOM      7  C   UNL A   1      32.139  28.903  25.988  1.00  0.00     0.338 C 
ATOM      8  O   UNL A   1      31.909  29.810  25.204  1.00  0.00    -0.246 OA
BRANCH   7   9
ATOM      9  C   UNL A   1      31.994  27.484  25.612  1.00  0.00     0.062 A 
ATOM     10  C   UNL A   1      30.745  25.409  25.945  1.00  0.00     0.056 A 
ATOM     11  C   UNL A   1      30.922  26.779  26.174  1.00  0.00     0.043 A 
ATOM     12  C   UNL A   1      31.665  24.733  25.113  1.00  0.00     0.060 A 
ATOM     13  C   UNL A   1      32.716  25.475  24.522  1.00  0.00     0.029 A 
ATOM     14  C   UNL A   1      32.879  26.843  24.754  1.00  0.00     0.018 A 
BRANCH  10  15
ATOM     15  N   UNL A   1      29.621  24.810  26.505  1.00  0.00    -0.397 N 
ATOM     16  H   UNL A   1      29.696  23.929  26.938  1.00  0.00     0.156 HD
ATOM     17  H   UNL A   1      28.750  25.269  26.470  1.00  0.00     0.156 HD
ENDBRANCH  10  15
BRANCH  12  18
ATOM     18  N   UNL A   1      31.682  23.337  24.894  1.00  0.00    -0.369 N 
ATOM     19  C   UNL A   1      32.103  22.206  25.652  1.00  0.00     0.125 C 
ATOM     20  C   UNL A   1      31.975  22.735  23.623  1.00  0.00     0.125 C 
ATOM     21  C   UNL A   1      32.781  21.655  24.372  1.00  0.00     0.010 C 
ATOM     22  C   UNL A   1      32.427  20.225  23.961  1.00  0.00     0.039 C 
ATOM     23  C   UNL A   1      34.302  21.857  24.291  1.00  0.00     0.039 C 
ATOM     24  C   UNL A   1      33.227  19.246  24.814  1.00  0.00     0.161 C 
ATOM     25  C   UNL A   1      34.988  20.795  25.142  1.00  0.00     0.161 C 
ATOM     26  O   UNL A   1      34.628  19.492  24.680  1.00  0.00    -0.381 OA
ENDBRANCH  12  18
ENDBRANCH   7   9
ENDBRANCH   6   7
ENDBRANCH   5   6
ENDBRANCH   4   5
ENDBRANCH   3   4
ENDBRANCH   2   3
ENDBRANCH   1   2
BRANCH   1  27
ATOM     27  O   UNL A   1      34.825  34.622  30.657  1.00  0.00    -0.376 OA
BRANCH  27  28
ATOM     28  C   UNL A   1      35.206  34.522  32.016  1.00  0.00     0.202 C 
BRANCH  28  29
ATOM     29  C   UNL A   1      34.757  33.438  33.011  1.00  0.00     0.261 C 
BRANCH  29  30
ATOM     30  O   UNL A   1      35.352  32.147  32.906  1.00  0.00    -0.460 OA
BRANCH  30  31
ATOM     31  C   UNL A   1      36.559  32.020  33.508  1.00  0.00     0.338 C 
ATOM     32  O   UNL A   1      36.843  32.253  34.668  1.00  0.00    -0.246 OA
BRANCH  31  33
ATOM     33  C   UNL A   1      37.493  31.400  32.554  1.00  0.00     0.060 A 
ATOM     34  C   UNL A   1      38.570  30.662  33.054  1.00  0.00     0.016 A 
ATOM     35  C   UNL A   1      37.328  31.589  31.180  1.00  0.00     0.016 A 
ATOM     36  C   UNL A   1      39.509  30.125  32.175  1.00  0.00     0.010 A 
ATOM     37  C   UNL A   1      38.279  31.065  30.302  1.00  0.00     0.010 A 
ATOM     38  C   UNL A   1      39.387  30.356  30.798  1.00  0.00    -0.014 A 
BRANCH  38  39
ATOM     39  C   UNL A   1      40.500  29.999  29.887  1.00  0.00     0.031 A 
ATOM     40  C   UNL A   1      40.462  28.668  29.188  1.00  0.00     0.074 A 
ATOM     41  C   UNL A   1      41.526  30.844  29.681  1.00  0.00     0.049 A 
ATOM     42  N   UNL A   1      41.345  28.127  28.388  1.00  0.00    -0.248 NA
ATOM     43  C   UNL A   1      39.270  27.838  29.423  1.00  0.00     0.031 C 
ATOM     44  C   UNL A   1      41.661  32.176  30.268  1.00  0.00     0.029 A 
ATOM     45  N   UNL A   1      42.661  30.690  28.924  1.00  0.00    -0.354 N 
ATOM     46  C   UNL A   1      40.820  26.892  28.032  1.00  0.00     0.074 A 
ATOM     47  C   UNL A   1      39.554  26.752  28.718  1.00  0.00     0.031 C 
ATOM     48  C   UNL A   1      42.822  32.715  29.855  1.00  0.00     0.029 A 
ATOM     49  C   UNL A   1      43.523  31.755  29.005  1.00  0.00     0.049 A 
ATOM     50  H   UNL A   1      42.838  29.893  28.374  1.00  0.00     0.167 HD
ATOM     51  C   UNL A   1      41.343  25.957  27.205  1.00  0.00     0.031 A 
ATOM     52  C   UNL A   1      44.749  31.922  28.473  1.00  0.00     0.031 A 
ATOM     53  C   UNL A   1      42.608  26.084  26.534  1.00  0.00     0.049 A 
ATOM     54  C   UNL A   1      45.346  30.828  27.625  1.00  0.00     0.074 A 
ATOM     55  C   UNL A   1      43.213  25.195  25.662  1.00  0.00     0.029 A 
ATOM     56  N   UNL A   1      43.467  27.161  26.670  1.00  0.00    -0.354 N 
ATOM     57  N   UNL A   1      44.824  29.680  27.266  1.00  0.00    -0.248 NA
ATOM     58  C   UNL A   1      46.703  31.059  27.106  1.00  0.00     0.031 C 
ATOM     59  C   UNL A   1      44.465  25.712  25.312  1.00  0.00     0.029 A 
ATOM     60  C   UNL A   1      44.611  26.949  25.921  1.00  0.00     0.049 A 
ATOM     61  H   UNL A   1      43.290  27.960  27.218  1.00  0.00     0.167 HD
ATOM     62  C   UNL A   1      45.772  29.069  26.453  1.00  0.00     0.074 A 
ATOM     63  C   UNL A   1      46.896  29.979  26.363  1.00  0.00     0.031 C 
ATOM     64  C   UNL A   1      45.718  27.865  25.834  1.00  0.00     0.031 A 
BRANCH  51  65
ATOM     65  C   UNL A   1      40.557  24.691  27.007  1.00  0.00    -0.014 A 
ATOM     66  C   UNL A   1      41.011  23.466  27.517  1.00  0.00     0.009 A 
ATOM     67  C   UNL A   1      39.326  24.736  26.337  1.00  0.00     0.009 A 
ATOM     68  C   UNL A   1      40.258  22.303  27.335  1.00  0.00     0.001 A 
ATOM     69  C   UNL A   1      38.562  23.578  26.179  1.00  0.00     0.001 A 
ATOM     70  C   UNL A   1      39.033  22.363  26.672  1.00  0.00     0.000 A 
ENDBRANCH  51  65
BRANCH  52  71
ATOM     71  C   UNL A   1      45.521  33.164  28.739  1.00  0.00    -0.014 A 
ATOM     72  C   UNL A   1      45.385  34.284  27.905  1.00  0.00     0.009 A 
ATOM     73  C   UNL A   1      46.433  33.219  29.806  1.00  0.00     0.009 A 
ATOM     74  C   UNL A   1      46.168  35.421  28.114  1.00  0.00     0.001 A 
ATOM     75  C   UNL A   1      47.194  34.369  30.029  1.00  0.00     0.001 A 
ATOM     76  C   UNL A   1      47.070  35.464  29.176  1.00  0.00     0.000 A 
ENDBRANCH  52  71
BRANCH  64  77
ATOM     77  C   UNL A   1      46.882  27.478  24.966  1.00  0.00    -0.014 A 
ATOM     78  C   UNL A   1      46.998  27.941  23.647  1.00  0.00     0.009 A 
ATOM     79  C   UNL A   1      47.905  26.677  25.499  1.00  0.00     0.009 A 
ATOM     80  C   UNL A   1      48.100  27.581  22.868  1.00  0.00     0.001 A 
ATOM     81  C   UNL A   1      49.019  26.342  24.726  1.00  0.00     0.001 A 
ATOM     82  C   UNL A   1      49.111  26.787  23.409  1.00  0.00     0.000 A 
ENDBRANCH  64  77
ENDBRANCH  38  39
ENDBRANCH  31  33
ENDBRANCH  30  31
ENDBRANCH  29  30
ENDBRANCH  28  29
ENDBRANCH  27  28
ENDBRANCH   1  27
TORSDOF 19
ENDMDL
MODEL 3
REMARK VINA RESULT:     -10.4      3.275      5.888
REMARK SMILES Nc1cc(C(=O)OCCOCCOCCOC(=O)c2ccc(-c3c4nc(c(-c5ccccc5)c5ccc([nH]5)c(-c5ccccc5)c5nc(c(-c6ccccc6)c6ccc3[nH]6)C=C5)C=C4)cc2)ccc1N1CC2(CCOCC2)C1
REMARK SMILES IDX 12 1 11 2 10 3 9 4 8 5 7 6 5 7 6 8 4 9 2 10 3 11 69 12 68 13
REMARK SMILES IDX 67 14 1 15 70 18 71 19 78 20 72 21 73 22 77 23 74 24 76 25
REMARK SMILES IDX 75 26 13 27 14 28 15 29 16 30 17 31 18 32 19 33 20 34 66 35
REMARK SMILES IDX 21 36 65 37 22 38 23 39 24 40 59 41 25 42 64 43 58 44 60 45
REMARK SMILES IDX 26 46 63 47 57 48 56 49 27 51 49 52 34 53 48 54 35 55 38 56
REMARK SMILES IDX 47 57 61 58 36 59 37 60 46 62 62 63 39 64 28 65 29 66 33 67
REMARK SMILES IDX 30 68 32 69 31 70 50 71 51 72 55 73 52 74 54 75 53 76 40 77
REMARK SMILES IDX 41 78 45 79 42 80 44 81 43 82
REMARK H PARENT 1 16 1 17 60 50 38 61
REMARK Flexibility Score: inf
ROOT
ATOM      1  C   UNL A   1      34.496  24.963  24.352  1.00  0.00     0.188 C 
ENDROOT
BRANCH   1   2
ATOM      2  C   UNL A   1      33.708  26.242  23.999  1.00  0.00     0.188 C 
BRANCH   2   3
ATOM      3  O   UNL A   1      33.600  27.307  24.931  1.00  0.00    -0.376 OA
BRANCH   3   4
ATOM      4  C   UNL A   1      32.354  27.969  25.098  1.00  0.00     0.202 C 
BRANCH   4   5
ATOM      5  C   UNL A   1      31.106  27.156  25.453  1.00  0.00     0.261 C 
BRANCH   5   6
ATOM      6  O   UNL A   1      31.314  26.221  26.522  1.00  0.00    -0.460 OA
BRANCH   6   7
ATOM      7  C   UNL A   1      30.535  25.114  26.477  1.00  0.00     0.338 C 
ATOM      8  O   UNL A   1      29.339  25.046  26.713  1.00  0.00    -0.246 OA
BRANCH   7   9
ATOM      9  C   UNL A   1      31.289  23.982  25.905  1.00  0.00     0.062 A 
ATOM     10  C   UNL A   1      31.712  22.615  23.923  1.00  0.00     0.056 A 
ATOM     11  C   UNL A   1      31.106  23.716  24.542  1.00  0.00     0.043 A 
ATOM     12  C   UNL A   1      32.539  21.770  24.695  1.00  0.00     0.060 A 
ATOM     13  C   UNL A   1      32.742  22.083  26.060  1.00  0.00     0.029 A 
ATOM     14  C   UNL A   1      32.137  23.187  26.665  1.00  0.00     0.018 A 
BRANCH  10  15
ATOM     15  N   UNL A   1      31.510  22.465  22.555  1.00  0.00    -0.397 N 
ATOM     16  H   UNL A   1      32.106  21.883  22.029  1.00  0.00     0.156 HD
ATOM     17  H   UNL A   1      30.770  22.940  22.111  1.00  0.00     0.156 HD
ENDBRANCH  10  15
BRANCH  12  18
ATOM     18  N   UNL A   1      33.112  20.561  24.237  1.00  0.00    -0.369 N 
ATOM     19  C   UNL A   1      32.596  19.336  23.724  1.00  0.00     0.125 C 
ATOM     20  C   UNL A   1      34.271  19.955  24.830  1.00  0.00     0.125 C 
ATOM     21  C   UNL A   1      33.594  18.583  24.640  1.00  0.00     0.010 C 
ATOM     22  C   UNL A   1      34.493  17.539  23.975  1.00  0.00     0.039 C 
ATOM     23  C   UNL A   1      32.999  18.007  25.933  1.00  0.00     0.039 C 
ATOM     24  C   UNL A   1      33.701  16.252  23.770  1.00  0.00     0.161 C 
ATOM     25  C   UNL A   1      32.276  16.705  25.608  1.00  0.00     0.161 C 
ATOM     26  O   UNL A   1      33.186  15.776  25.016  1.00  0.00    -0.381 OA
ENDBRANCH  12  18
ENDBRANCH   7   9
ENDBRANCH   6   7
ENDBRANCH   5   6
ENDBRANCH   4   5
ENDBRANCH   3   4
ENDBRANCH   2   3
ENDBRANCH   1   2
BRANCH   1  27
ATOM     27  O   UNL A   1      34.962  24.136  23.313  1.00  0.00    -0.376 OA
BRANCH  27  28
ATOM     28  C   UNL A   1      35.947  23.142  23.524  1.00  0.00     0.202 C 
BRANCH  28  29
ATOM     29  C   UNL A   1      36.672  22.842  24.847  1.00  0.00     0.261 C 
BRANCH  29  30
ATOM     30  O   UNL A   1      37.540  23.842  25.375  1.00  0.00    -0.460 OA
BRANCH  30  31
ATOM     31  C   UNL A   1      38.600  23.371  26.074  1.00  0.00     0.338 C 
ATOM     32  O   UNL A   1      39.080  22.253  26.040  1.00  0.00    -0.246 OA
BRANCH  31  33
ATOM     33  C   UNL A   1      39.208  24.490  26.812  1.00  0.00     0.060 A 
ATOM     34  C   UNL A   1      38.866  24.671  28.157  1.00  0.00     0.016 A 
ATOM     35  C   UNL A   1      40.070  25.377  26.165  1.00  0.00     0.016 A 
ATOM     36  C   UNL A   1      39.371  25.764  28.858  1.00  0.00     0.010 A 
ATOM     37  C   UNL A   1      40.561  26.481  26.864  1.00  0.00     0.010 A 
ATOM     38  C   UNL A   1      40.191  26.694  28.205  1.00  0.00    -0.014 A 
BRANCH  38  39
ATOM     39  C   UNL A   1      40.531  27.975  28.867  1.00  0.00     0.031 A 
ATOM     40  C   UNL A   1      41.906  28.141  29.453  1.00  0.00     0.074 A 
ATOM     41  C   UNL A   1      39.636  28.975  28.946  1.00  0.00     0.049 A 
ATOM     42  N   UNL A   1      42.407  29.151  30.118  1.00  0.00    -0.248 NA
ATOM     43  C   UNL A   1      42.840  27.020  29.263  1.00  0.00     0.031 C 
ATOM     44  C   UNL A   1      38.286  28.952  28.386  1.00  0.00     0.029 A 
ATOM     45  N   UNL A   1      39.733  30.205  29.547  1.00  0.00    -0.354 N 
ATOM     46  C   UNL A   1      43.708  28.783  30.433  1.00  0.00     0.074 A 
ATOM     47  C   UNL A   1      43.915  27.451  29.907  1.00  0.00     0.031 C 
ATOM     48  C   UNL A   1      37.676  30.115  28.680  1.00  0.00     0.029 A 
ATOM     49  C   UNL A   1      38.579  30.944  29.474  1.00  0.00     0.049 A 
ATOM     50  H   UNL A   1      40.553  30.527  29.987  1.00  0.00     0.167 HD
ATOM     51  C   UNL A   1      44.651  29.491  31.098  1.00  0.00     0.031 A 
ATOM     52  C   UNL A   1      38.281  32.144  30.011  1.00  0.00     0.031 A 
ATOM     53  C   UNL A   1      44.445  30.808  31.638  1.00  0.00     0.049 A 
ATOM     54  C   UNL A   1      39.320  32.874  30.822  1.00  0.00     0.074 A 
ATOM     55  C   UNL A   1      45.346  31.612  32.313  1.00  0.00     0.029 A 
ATOM     56  N   UNL A   1      43.252  31.508  31.573  1.00  0.00    -0.354 N 
ATOM     57  N   UNL A   1      40.560  32.533  31.080  1.00  0.00    -0.248 NA
ATOM     58  C   UNL A   1      38.917  34.161  31.409  1.00  0.00     0.031 C 
ATOM     59  C   UNL A   1      44.681  32.779  32.705  1.00  0.00     0.029 A 
ATOM     60  C   UNL A   1      43.383  32.724  32.222  1.00  0.00     0.049 A 
ATOM     61  H   UNL A   1      42.431  31.188  31.132  1.00  0.00     0.167 HD
ATOM     62  C   UNL A   1      41.092  33.575  31.830  1.00  0.00     0.074 A 
ATOM     63  C   UNL A   1      40.045  34.566  31.974  1.00  0.00     0.031 C 
ATOM     64  C   UNL A   1      42.337  33.703  32.351  1.00  0.00     0.031 A 
BRANCH  51  65
ATOM     65  C   UNL A   1      45.986  28.837  31.311  1.00  0.00    -0.014 A 
ATOM     66  C   UNL A   1      46.253  28.089  32.468  1.00  0.00     0.009 A 
ATOM     67  C   UNL A   1      46.974  28.937  30.321  1.00  0.00     0.009 A 
ATOM     68  C   UNL A   1      47.496  27.475  32.640  1.00  0.00     0.001 A 
ATOM     69  C   UNL A   1      48.207  28.302  30.483  1.00  0.00     0.001 A 
ATOM     70  C   UNL A   1      48.469  27.578  31.645  1.00  0.00     0.000 A 
ENDBRANCH  51  65
BRANCH  52  71
ATOM     71  C   UNL A   1      36.929  32.733  29.827  1.00  0.00    -0.014 A 
ATOM     72  C   UNL A   1      35.894  32.448  30.732  1.00  0.00     0.009 A 
ATOM     73  C   UNL A   1      36.654  33.551  28.719  1.00  0.00     0.009 A 
ATOM     74  C   UNL A   1      34.606  32.942  30.514  1.00  0.00     0.001 A 
ATOM     75  C   UNL A   1      35.371  34.067  28.520  1.00  0.00     0.001 A 
ATOM     76  C   UNL A   1      34.347  33.752  29.410  1.00  0.00     0.000 A 
ENDBRANCH  52  71
BRANCH  64  77
ATOM     77  C   UNL A   1      42.654  34.976  33.084  1.00  0.00    -0.014 A 
ATOM     78  C   UNL A   1      43.330  36.033  32.457  1.00  0.00     0.009 A 
ATOM     79  C   UNL A   1      42.221  35.136  34.410  1.00  0.00     0.009 A 
ATOM     80  C   UNL A   1      43.597  37.213  33.156  1.00  0.00     0.001 A 
ATOM     81  C   UNL A   1      42.464  36.328  35.096  1.00  0.00     0.001 A 
ATOM     82  C   UNL A   1      43.159  37.361  34.472  1.00  0.00     0.000 A 
ENDBRANCH  64  77
ENDBRANCH  38  39
ENDBRANCH  31  33
ENDBRANCH  30  31
ENDBRANCH  29  30
ENDBRANCH  28  29
ENDBRANCH  27  28
ENDBRANCH   1  27
TORSDOF 19
ENDMDL
