MODEL 1
REMARK VINA RESULT:      -9.6      0.000      0.000
REMARK SMILES C[C@]1(c2ccccc2C(=O)OCCOCCOCCOC(=O)c2ccc(-c3c4nc(c(-c5ccccc5)c5ccc([nH]5)c(-c5ccccc5)c5nc(c(-c6ccccc6)c6ccc3[nH]6)C=C5)C=C4)cc2)NN=C(c2ccccc2)S1
REMARK SMILES IDX 15 1 14 2 13 3 12 4 11 5 9 6 10 7 8 8 3 9 4 10 5 11 7 12
REMARK SMILES IDX 6 13 2 14 1 15 71 16 80 17 72 18 73 20 74 21 75 22 79 23
REMARK SMILES IDX 76 24 78 25 77 26 16 27 17 28 18 29 19 30 20 31 21 32 22 33
REMARK SMILES IDX 23 34 24 35 70 36 25 37 69 38 26 39 27 40 28 41 63 42 29 43
REMARK SMILES IDX 68 44 62 45 64 46 30 47 67 48 61 49 60 50 31 52 53 53 38 54
REMARK SMILES IDX 52 55 39 56 42 57 51 58 65 59 40 60 41 61 50 63 66 64 43 65
REMARK SMILES IDX 32 66 33 67 37 68 34 69 36 70 35 71 54 72 55 73 59 74 56 75
REMARK SMILES IDX 58 76 57 77 44 78 45 79 49 80 46 81 48 82 47 83
REMARK H PARENT 71 19 64 51 42 62
REMARK Flexibility Score: inf
ROOT
ATOM      1  C   UNL A   1      33.086  35.700  32.396  1.00  0.00     0.188 C 
ENDROOT
BRANCH   1   2
ATOM      2  O   UNL A   1      34.396  35.964  32.817  1.00  0.00    -0.376 OA
BRANCH   2   3
ATOM      3  C   UNL A   1      34.788  34.864  33.611  1.00  0.00     0.202 C 
BRANCH   3   4
ATOM      4  C   UNL A   1      34.384  33.435  33.094  1.00  0.00     0.261 C 
BRANCH   4   5
ATOM      5  O   UNL A   1      35.156  32.737  32.044  1.00  0.00    -0.460 OA
BRANCH   5   6
ATOM      6  C   UNL A   1      36.270  32.038  32.392  1.00  0.00     0.338 C 
ATOM      7  O   UNL A   1      36.256  30.834  32.611  1.00  0.00    -0.246 OA
BRANCH   6   8
ATOM      8  C   UNL A   1      37.564  32.842  32.538  1.00  0.00     0.066 A 
ATOM      9  C   UNL A   1      38.614  32.714  33.474  1.00  0.00     0.004 A 
ATOM     10  C   UNL A   1      39.905  33.194  33.120  1.00  0.00     0.008 A 
ATOM     11  C   UNL A   1      40.049  34.179  32.160  1.00  0.00     0.000 A 
ATOM     12  C   UNL A   1      37.734  33.863  31.577  1.00  0.00     0.016 A 
ATOM     13  C   UNL A   1      38.932  34.578  31.449  1.00  0.00     0.001 A 
BRANCH   9  14
ATOM     14  C   UNL A   1      38.463  32.489  34.993  1.00  0.00     0.129 C 
ATOM     15  C   UNL A   1      37.776  33.710  35.618  1.00  0.00     0.054 C 
ATOM     16  N   UNL A   1      37.791  31.159  35.232  1.00  0.00    -0.288 NA
ATOM     17  S   UNL A   1      39.982  32.036  35.841  1.00  0.00    -0.070 SA
ATOM     18  N   UNL A   1      38.663  30.041  35.006  1.00  0.00    -0.171 NA
ATOM     19  H   UNL A   1      36.852  31.069  35.514  1.00  0.00     0.185 HD
ATOM     20  C   UNL A   1      39.895  30.402  35.227  1.00  0.00     0.126 C 
BRANCH  20  21
ATOM     21  C   UNL A   1      41.145  29.534  35.167  1.00  0.00     0.009 A 
ATOM     22  C   UNL A   1      42.052  29.579  33.590  1.00  0.00     0.011 A 
ATOM     23  C   UNL A   1      41.495  28.149  36.310  1.00  0.00     0.011 A 
ATOM     24  C   UNL A   1      42.994  28.130  33.032  1.00  0.00     0.001 A 
ATOM     25  C   UNL A   1      42.495  26.707  35.802  1.00  0.00     0.001 A 
ATOM     26  C   UNL A   1      43.130  26.649  34.072  1.00  0.00     0.000 A 
ENDBRANCH  20  21
ENDBRANCH   9  14
ENDBRANCH   6   8
ENDBRANCH   5   6
ENDBRANCH   4   5
ENDBRANCH   3   4
ENDBRANCH   2   3
ENDBRANCH   1   2
BRANCH   1  27
ATOM     27  C   UNL A   1      32.742  36.098  30.991  1.00  0.00     0.188 C 
BRANCH  27  28
ATOM     28  O   UNL A   1      32.544  35.010  30.119  1.00  0.00    -0.376 OA
BRANCH  28  29
ATOM     29  C   UNL A   1      33.534  34.949  29.092  1.00  0.00     0.202 C 
BRANCH  29  30
ATOM     30  C   UNL A   1      34.221  33.639  28.559  1.00  0.00     0.261 C 
BRANCH  30  31
ATOM     31  O   UNL A   1      33.445  32.585  27.920  1.00  0.00    -0.460 OA
BRANCH  31  32
ATOM     32  C   UNL A   1      33.978  31.162  27.716  1.00  0.00     0.338 C 
ATOM     33  O   UNL A   1      32.985  30.646  27.141  1.00  0.00    -0.246 OA
BRANCH  32  34
ATOM     34  C   UNL A   1      35.925  30.424  28.292  1.00  0.00     0.060 A 
ATOM     35  C   UNL A   1      36.376  29.632  29.521  1.00  0.00     0.016 A 
ATOM     36  C   UNL A   1      37.225  30.364  27.466  1.00  0.00     0.016 A 
ATOM     37  C   UNL A   1      37.614  28.979  29.780  1.00  0.00     0.010 A 
ATOM     38  C   UNL A   1      38.404  29.638  27.657  1.00  0.00     0.010 A 
ATOM     39  C   UNL A   1      38.622  28.998  28.846  1.00  0.00    -0.014 A 
BRANCH  39  40
ATOM     40  C   UNL A   1      39.979  28.517  29.092  1.00  0.00     0.031 A 
ATOM     41  C   UNL A   1      40.962  29.506  29.652  1.00  0.00     0.074 A 
ATOM     42  C   UNL A   1      40.309  27.286  28.676  1.00  0.00     0.049 A 
ATOM     43  N   UNL A   1      42.249  29.392  29.810  1.00  0.00    -0.248 NA
ATOM     44  C   UNL A   1      40.431  30.838  30.017  1.00  0.00     0.031 C 
ATOM     45  C   UNL A   1      39.392  26.330  28.047  1.00  0.00     0.029 A 
ATOM     46  N   UNL A   1      41.507  26.635  28.702  1.00  0.00    -0.354 N 
ATOM     47  C   UNL A   1      42.677  30.636  30.258  1.00  0.00     0.074 A 
ATOM     48  C   UNL A   1      41.539  31.518  30.259  1.00  0.00     0.031 C 
ATOM     49  C   UNL A   1      40.058  25.196  27.781  1.00  0.00     0.029 A 
ATOM     50  C   UNL A   1      41.448  25.370  28.175  1.00  0.00     0.049 A 
ATOM     51  H   UNL A   1      42.331  27.035  29.062  1.00  0.00     0.167 HD
ATOM     52  C   UNL A   1      43.916  30.989  30.664  1.00  0.00     0.031 A 
ATOM     53  C   UNL A   1      42.434  24.469  28.034  1.00  0.00     0.031 A 
ATOM     54  C   UNL A   1      45.008  30.057  30.647  1.00  0.00     0.049 A 
ATOM     55  C   UNL A   1      43.798  24.873  28.518  1.00  0.00     0.074 A 
ATOM     56  C   UNL A   1      46.304  30.230  31.084  1.00  0.00     0.029 A 
ATOM     57  N   UNL A   1      44.909  28.758  30.156  1.00  0.00    -0.354 N 
ATOM     58  N   UNL A   1      44.186  26.023  29.024  1.00  0.00    -0.248 NA
ATOM     59  C   UNL A   1      44.851  23.860  28.433  1.00  0.00     0.031 C 
ATOM     60  C   UNL A   1      47.008  29.055  30.796  1.00  0.00     0.029 A 
ATOM     61  C   UNL A   1      46.129  28.122  30.257  1.00  0.00     0.049 A 
ATOM     62  H   UNL A   1      44.090  28.353  29.792  1.00  0.00     0.167 HD
ATOM     63  C   UNL A   1      45.524  25.865  29.348  1.00  0.00     0.074 A 
ATOM     64  C   UNL A   1      45.866  24.496  29.001  1.00  0.00     0.031 C 
ATOM     65  C   UNL A   1      46.399  26.756  29.880  1.00  0.00     0.031 A 
BRANCH  52  66
ATOM     66  C   UNL A   1      44.127  32.402  31.138  1.00  0.00    -0.014 A 
ATOM     67  C   UNL A   1      44.543  33.420  30.261  1.00  0.00     0.009 A 
ATOM     68  C   UNL A   1      43.910  32.730  32.486  1.00  0.00     0.009 A 
ATOM     69  C   UNL A   1      44.781  34.716  30.728  1.00  0.00     0.001 A 
ATOM     70  C   UNL A   1      44.111  34.035  32.944  1.00  0.00     0.001 A 
ATOM     71  C   UNL A   1      44.557  35.023  32.069  1.00  0.00     0.000 A 
ENDBRANCH  52  66
BRANCH  53  72
ATOM     72  C   UNL A   1      42.144  23.126  27.470  1.00  0.00    -0.014 A 
ATOM     73  C   UNL A   1      42.284  22.886  26.094  1.00  0.00     0.009 A 
ATOM     74  C   UNL A   1      41.777  22.058  28.304  1.00  0.00     0.009 A 
ATOM     75  C   UNL A   1      42.031  21.617  25.564  1.00  0.00     0.001 A 
ATOM     76  C   UNL A   1      41.559  20.783  27.778  1.00  0.00     0.001 A 
ATOM     77  C   UNL A   1      41.674  20.566  26.408  1.00  0.00     0.000 A 
ENDBRANCH  53  72
BRANCH  65  78
ATOM     78  C   UNL A   1      47.785  26.246  30.142  1.00  0.00    -0.014 A 
ATOM     79  C   UNL A   1      48.201  25.895  31.434  1.00  0.00     0.009 A 
ATOM     80  C   UNL A   1      48.669  26.082  29.064  1.00  0.00     0.009 A 
ATOM     81  C   UNL A   1      49.500  25.440  31.650  1.00  0.00     0.001 A 
ATOM     82  C   UNL A   1      49.950  25.581  29.277  1.00  0.00     0.001 A 
ATOM     83  C   UNL A   1      50.369  25.277  30.571  1.00  0.00     0.000 A 
ENDBRANCH  65  78
ENDBRANCH  39  40
ENDBRANCH  32  34
ENDBRANCH  31  32
ENDBRANCH  30  31
ENDBRANCH  29  30
ENDBRANCH  28  29
ENDBRANCH  27  28
ENDBRANCH   1  27
TORSDOF 19
ENDMDL
MODEL 2
REMARK VINA RESULT:      -9.3      5.807     11.719
REMARK SMILES C[C@]1(c2ccccc2C(=O)OCCOCCOCCOC(=O)c2ccc(-c3c4nc(c(-c5ccccc5)c5ccc([nH]5)c(-c5ccccc5)c5nc(c(-c6ccccc6)c6ccc3[nH]6)C=C5)C=C4)cc2)NN=C(c2ccccc2)S1
REMARK SMILES IDX 15 1 14 2 13 3 12 4 11 5 9 6 10 7 8 8 3 9 4 10 5 11 7 12
REMARK SMILES IDX 6 13 2 14 1 15 71 16 80 17 72 18 73 20 74 21 75 22 79 23
REMARK SMILES IDX 76 24 78 25 77 26 16 27 17 28 18 29 19 30 20 31 21 32 22 33
REMARK SMILES IDX 23 34 24 35 70 36 25 37 69 38 26 39 27 40 28 41 63 42 29 43
REMARK SMILES IDX 68 44 62 45 64 46 30 47 67 48 61 49 60 50 31 52 53 53 38 54
REMARK SMILES IDX 52 55 39 56 42 57 51 58 65 59 40 60 41 61 50 63 66 64 43 65
REMARK SMILES IDX 32 66 33 67 37 68 34 69 36 70 35 71 54 72 55 73 59 74 56 75
REMARK SMILES IDX 58 76 57 77 44 78 45 79 49 80 46 81 48 82 47 83
REMARK H PARENT 71 19 64 51 42 62
REMARK Flexibility Score: inf
ROOT
ATOM      1  C   UNL A   1      40.620  21.529  26.773  1.00  0.00     0.188 C 
ENDROOT
BRANCH   1   2
ATOM      2  O   UNL A   1      40.180  22.847  26.950  1.00  0.00    -0.376 OA
BRANCH   2   3
ATOM      3  C   UNL A   1      38.878  22.909  26.404  1.00  0.00     0.202 C 
BRANCH   3   4
ATOM      4  C   UNL A   1      38.427  21.700  25.506  1.00  0.00     0.261 C 
BRANCH   4   5
ATOM      5  O   UNL A   1      37.078  21.635  24.904  1.00  0.00    -0.460 OA
BRANCH   5   6
ATOM      6  C   UNL A   1      36.369  20.477  24.986  1.00  0.00     0.338 C 
ATOM      7  O   UNL A   1      36.902  19.380  25.106  1.00  0.00    -0.246 OA
BRANCH   6   8
ATOM      8  C   UNL A   1      34.848  20.597  24.881  1.00  0.00     0.066 A 
ATOM      9  C   UNL A   1      34.006  21.711  25.100  1.00  0.00     0.004 A 
ATOM     10  C   UNL A   1      32.735  21.740  24.462  1.00  0.00     0.008 A 
ATOM     11  C   UNL A   1      32.119  20.566  24.070  1.00  0.00     0.000 A 
ATOM     12  C   UNL A   1      34.189  19.410  24.492  1.00  0.00     0.016 A 
ATOM     13  C   UNL A   1      32.824  19.381  24.176  1.00  0.00     0.001 A 
BRANCH   9  14
ATOM     14  C   UNL A   1      34.107  22.719  26.263  1.00  0.00     0.129 C 
ATOM     15  C   UNL A   1      33.927  21.974  27.592  1.00  0.00     0.054 C 
ATOM     16  N   UNL A   1      35.381  23.514  26.119  1.00  0.00    -0.288 NA
ATOM     17  S   UNL A   1      33.028  24.149  26.116  1.00  0.00    -0.070 SA
ATOM     18  N   UNL A   1      35.313  24.502  25.079  1.00  0.00    -0.171 NA
ATOM     19  H   UNL A   1      36.176  23.371  26.682  1.00  0.00     0.185 HD
ATOM     20  C   UNL A   1      34.075  24.876  24.920  1.00  0.00     0.126 C 
BRANCH  20  21
ATOM     21  C   UNL A   1      33.539  25.941  23.972  1.00  0.00     0.009 A 
ATOM     22  C   UNL A   1      33.764  27.661  24.524  1.00  0.00     0.011 A 
ATOM     23  C   UNL A   1      32.315  25.626  22.650  1.00  0.00     0.011 A 
ATOM     24  C   UNL A   1      32.577  28.945  24.032  1.00  0.00     0.001 A 
ATOM     25  C   UNL A   1      31.151  26.915  22.085  1.00  0.00     0.001 A 
ATOM     26  C   UNL A   1      31.205  28.564  22.907  1.00  0.00     0.000 A 
ENDBRANCH  20  21
ENDBRANCH   9  14
ENDBRANCH   6   8
ENDBRANCH   5   6
ENDBRANCH   4   5
ENDBRANCH   3   4
ENDBRANCH   2   3
ENDBRANCH   1   2
BRANCH   1  27
ATOM     27  C   UNL A   1      41.871  21.139  27.503  1.00  0.00     0.188 C 
BRANCH  27  28
ATOM     28  O   UNL A   1      42.050  19.748  27.632  1.00  0.00    -0.376 OA
BRANCH  28  29
ATOM     29  C   UNL A   1      42.421  19.131  26.398  1.00  0.00     0.202 C 
BRANCH  29  30
ATOM     30  C   UNL A   1      43.725  18.288  26.153  1.00  0.00     0.261 C 
BRANCH  30  31
ATOM     31  O   UNL A   1      44.279  18.123  24.816  1.00  0.00    -0.460 OA
BRANCH  31  32
ATOM     32  C   UNL A   1      45.039  19.236  24.085  1.00  0.00     0.338 C 
ATOM     33  O   UNL A   1      45.513  18.571  23.126  1.00  0.00    -0.246 OA
BRANCH  32  34
ATOM     34  C   UNL A   1      45.140  21.316  24.658  1.00  0.00     0.060 A 
ATOM     35  C   UNL A   1      44.635  22.578  23.955  1.00  0.00     0.016 A 
ATOM     36  C   UNL A   1      45.560  21.933  26.007  1.00  0.00     0.016 A 
ATOM     37  C   UNL A   1      44.527  23.911  24.443  1.00  0.00     0.010 A 
ATOM     38  C   UNL A   1      45.359  23.211  26.537  1.00  0.00     0.010 A 
ATOM     39  C   UNL A   1      44.900  24.216  25.730  1.00  0.00    -0.014 A 
BRANCH  39  40
ATOM     40  C   UNL A   1      44.996  25.575  26.257  1.00  0.00     0.031 A 
ATOM     41  C   UNL A   1      46.365  26.192  26.306  1.00  0.00     0.074 A 
ATOM     42  C   UNL A   1      43.902  26.132  26.796  1.00  0.00     0.049 A 
ATOM     43  N   UNL A   1      46.750  27.302  26.867  1.00  0.00    -0.248 NA
ATOM     44  C   UNL A   1      47.469  25.414  25.702  1.00  0.00     0.031 C 
ATOM     45  C   UNL A   1      42.572  25.517  26.840  1.00  0.00     0.029 A 
ATOM     46  N   UNL A   1      43.740  27.331  27.424  1.00  0.00    -0.354 N 
ATOM     47  C   UNL A   1      48.131  27.334  26.709  1.00  0.00     0.074 A 
ATOM     48  C   UNL A   1      48.532  26.099  26.088  1.00  0.00     0.031 C 
ATOM     49  C   UNL A   1      41.718  26.366  27.432  1.00  0.00     0.029 A 
ATOM     50  C   UNL A   1      42.453  27.551  27.847  1.00  0.00     0.049 A 
ATOM     51  H   UNL A   1      44.473  27.974  27.561  1.00  0.00     0.167 HD
ATOM     52  C   UNL A   1      48.978  28.336  27.031  1.00  0.00     0.031 A 
ATOM     53  C   UNL A   1      41.952  28.609  28.505  1.00  0.00     0.031 A 
ATOM     54  C   UNL A   1      48.513  29.549  27.642  1.00  0.00     0.049 A 
ATOM     55  C   UNL A   1      42.906  29.724  28.828  1.00  0.00     0.074 A 
ATOM     56  C   UNL A   1      49.223  30.684  27.969  1.00  0.00     0.029 A 
ATOM     57  N   UNL A   1      47.189  29.770  28.013  1.00  0.00    -0.354 N 
ATOM     58  N   UNL A   1      44.200  29.794  28.601  1.00  0.00    -0.248 NA
ATOM     59  C   UNL A   1      42.338  30.908  29.475  1.00  0.00     0.031 C 
ATOM     60  C   UNL A   1      48.341  31.568  28.602  1.00  0.00     0.029 A 
ATOM     61  C   UNL A   1      47.064  31.017  28.590  1.00  0.00     0.049 A 
ATOM     62  H   UNL A   1      46.452  29.132  27.882  1.00  0.00     0.167 HD
ATOM     63  C   UNL A   1      44.599  31.042  29.050  1.00  0.00     0.074 A 
ATOM     64  C   UNL A   1      43.399  31.701  29.538  1.00  0.00     0.031 C 
ATOM     65  C   UNL A   1      45.835  31.604  29.065  1.00  0.00     0.031 A 
BRANCH  52  66
ATOM     66  C   UNL A   1      50.442  28.145  26.733  1.00  0.00    -0.014 A 
ATOM     67  C   UNL A   1      51.320  27.587  27.679  1.00  0.00     0.009 A 
ATOM     68  C   UNL A   1      50.960  28.530  25.487  1.00  0.00     0.009 A 
ATOM     69  C   UNL A   1      52.685  27.462  27.403  1.00  0.00     0.001 A 
ATOM     70  C   UNL A   1      52.318  28.368  25.198  1.00  0.00     0.001 A 
ATOM     71  C   UNL A   1      53.180  27.846  26.159  1.00  0.00     0.000 A 
ENDBRANCH  52  66
BRANCH  53  72
ATOM     72  C   UNL A   1      40.505  28.666  28.836  1.00  0.00    -0.014 A 
ATOM     73  C   UNL A   1      40.038  28.196  30.073  1.00  0.00     0.009 A 
ATOM     74  C   UNL A   1      39.584  29.239  27.944  1.00  0.00     0.009 A 
ATOM     75  C   UNL A   1      38.679  28.267  30.394  1.00  0.00     0.001 A 
ATOM     76  C   UNL A   1      38.232  29.342  28.280  1.00  0.00     0.001 A 
ATOM     77  C   UNL A   1      37.779  28.845  29.500  1.00  0.00     0.000 A 
ENDBRANCH  53  72
BRANCH  65  78
ATOM     78  C   UNL A   1      45.917  33.005  29.594  1.00  0.00    -0.014 A 
ATOM     79  C   UNL A   1      45.713  34.113  28.761  1.00  0.00     0.009 A 
ATOM     80  C   UNL A   1      46.167  33.206  30.961  1.00  0.00     0.009 A 
ATOM     81  C   UNL A   1      45.813  35.404  29.277  1.00  0.00     0.001 A 
ATOM     82  C   UNL A   1      46.218  34.496  31.482  1.00  0.00     0.001 A 
ATOM     83  C   UNL A   1      46.057  35.592  30.637  1.00  0.00     0.000 A 
ENDBRANCH  65  78
ENDBRANCH  39  40
ENDBRANCH  32  34
ENDBRANCH  31  32
ENDBRANCH  30  31
ENDBRANCH  29  30
ENDBRANCH  28  29
ENDBRANCH  27  28
ENDBRANCH   1  27
TORSDOF 19
ENDMDL
MODEL 3
REMARK VINA RESULT:      -9.0      5.693     11.872
REMARK SMILES C[C@]1(c2ccccc2C(=O)OCCOCCOCCOC(=O)c2ccc(-c3c4nc(c(-c5ccccc5)c5ccc([nH]5)c(-c5ccccc5)c5nc(c(-c6ccccc6)c6ccc3[nH]6)C=C5)C=C4)cc2)NN=C(c2ccccc2)S1
REMARK SMILES IDX 15 1 14 2 13 3 12 4 11 5 9 6 10 7 8 8 3 9 4 10 5 11 7 12
REMARK SMILES IDX 6 13 2 14 1 15 71 16 80 17 72 18 73 20 74 21 75 22 79 23
REMARK SMILES IDX 76 24 78 25 77 26 16 27 17 28 18 29 19 30 20 31 21 32 22 33
REMARK SMILES IDX 23 34 24 35 70 36 25 37 69 38 26 39 27 40 28 41 63 42 29 43
REMARK SMILES IDX 68 44 62 45 64 46 30 47 67 48 61 49 60 50 31 52 53 53 38 54
REMARK SMILES IDX 52 55 39 56 42 57 51 58 65 59 40 60 41 61 50 63 66 64 43 65
REMARK SMILES IDX 32 66 33 67 37 68 34 69 36 70 35 71 54 72 55 73 59 74 56 75
REMARK SMILES IDX 58 76 57 77 44 78 45 79 49 80 46 81 48 82 47 83
REMARK H PARENT 71 19 64 51 42 62
REMARK Flexibility Score: inf
ROOT
ATOM      1  C   UNL A   1      40.012  20.934  26.374  1.00  0.00     0.188 C 
ENDROOT
BRANCH   1   2
ATOM      2  O   UNL A   1      39.111  21.878  25.863  1.00  0.00    -0.376 OA
BRANCH   2   3
ATOM      3  C   UNL A   1      38.007  21.148  25.370  1.00  0.00     0.202 C 
BRANCH   3   4
ATOM      4  C   UNL A   1      36.983  21.930  24.470  1.00  0.00     0.261 C 
BRANCH   4   5
ATOM      5  O   UNL A   1      35.691  22.417  24.999  1.00  0.00    -0.460 OA
BRANCH   5   6
ATOM      6  C   UNL A   1      34.616  21.583  25.000  1.00  0.00     0.338 C 
ATOM      7  O   UNL A   1      34.681  20.418  24.631  1.00  0.00    -0.246 OA
BRANCH   6   8
ATOM      8  C   UNL A   1      33.285  22.184  25.457  1.00  0.00     0.066 A 
ATOM      9  C   UNL A   1      32.064  22.324  24.760  1.00  0.00     0.004 A 
ATOM     10  C   UNL A   1      30.860  22.422  25.510  1.00  0.00     0.008 A 
ATOM     11  C   UNL A   1      30.881  22.869  26.818  1.00  0.00     0.000 A 
ATOM     12  C   UNL A   1      33.280  22.659  26.786  1.00  0.00     0.016 A 
ATOM     13  C   UNL A   1      32.105  23.077  27.427  1.00  0.00     0.001 A 
BRANCH   9  14
ATOM     14  C   UNL A   1      31.892  22.796  23.302  1.00  0.00     0.129 C 
ATOM     15  C   UNL A   1      32.201  21.629  22.355  1.00  0.00     0.054 C 
ATOM     16  N   UNL A   1      30.533  23.432  23.144  1.00  0.00    -0.288 NA
ATOM     17  S   UNL A   1      32.799  24.291  22.882  1.00  0.00    -0.070 SA
ATOM     18  N   UNL A   1      30.454  24.741  23.729  1.00  0.00    -0.171 NA
ATOM     19  H   UNL A   1      29.780  22.994  22.687  1.00  0.00     0.185 HD
ATOM     20  C   UNL A   1      31.637  25.290  23.720  1.00  0.00     0.126 C 
BRANCH  20  21
ATOM     21  C   UNL A   1      32.016  26.689  24.185  1.00  0.00     0.009 A 
ATOM     22  C   UNL A   1      32.928  26.768  25.759  1.00  0.00     0.011 A 
ATOM     23  C   UNL A   1      31.233  28.226  23.579  1.00  0.00     0.011 A 
ATOM     24  C   UNL A   1      32.764  28.217  26.842  1.00  0.00     0.001 A 
ATOM     25  C   UNL A   1      31.110  29.724  24.619  1.00  0.00     0.001 A 
ATOM     26  C   UNL A   1      31.771  29.650  26.339  1.00  0.00     0.000 A 
ENDBRANCH  20  21
ENDBRANCH   9  14
ENDBRANCH   6   8
ENDBRANCH   5   6
ENDBRANCH   4   5
ENDBRANCH   3   4
ENDBRANCH   2   3
ENDBRANCH   1   2
BRANCH   1  27
ATOM     27  C   UNL A   1      40.873  21.383  27.517  1.00  0.00     0.188 C 
BRANCH  27  28
ATOM     28  O   UNL A   1      42.250  21.172  27.315  1.00  0.00    -0.376 OA
BRANCH  28  29
ATOM     29  C   UNL A   1      42.567  20.918  25.945  1.00  0.00     0.202 C 
BRANCH  29  30
ATOM     30  C   UNL A   1      44.011  20.705  25.364  1.00  0.00     0.261 C 
BRANCH  30  31
ATOM     31  O   UNL A   1      44.995  21.779  25.372  1.00  0.00    -0.460 OA
BRANCH  31  32
ATOM     32  C   UNL A   1      44.631  23.248  25.125  1.00  0.00     0.338 C 
ATOM     33  O   UNL A   1      44.811  23.302  23.880  1.00  0.00    -0.246 OA
BRANCH  32  34
ATOM     34  C   UNL A   1      43.982  24.678  26.607  1.00  0.00     0.060 A 
ATOM     35  C   UNL A   1      44.084  26.205  26.642  1.00  0.00     0.016 A 
ATOM     36  C   UNL A   1      43.086  24.460  27.843  1.00  0.00     0.016 A 
ATOM     37  C   UNL A   1      43.469  27.138  27.524  1.00  0.00     0.010 A 
ATOM     38  C   UNL A   1      42.390  25.366  28.647  1.00  0.00     0.010 A 
ATOM     39  C   UNL A   1      42.633  26.707  28.526  1.00  0.00    -0.014 A 
BRANCH  39  40
ATOM     40  C   UNL A   1      42.106  27.567  29.583  1.00  0.00     0.031 A 
ATOM     41  C   UNL A   1      42.800  27.514  30.914  1.00  0.00     0.074 A 
ATOM     42  C   UNL A   1      40.964  28.232  29.359  1.00  0.00     0.049 A 
ATOM     43  N   UNL A   1      42.446  28.041  32.051  1.00  0.00    -0.248 NA
ATOM     44  C   UNL A   1      44.027  26.690  30.994  1.00  0.00     0.031 C 
ATOM     45  C   UNL A   1      40.219  28.233  28.096  1.00  0.00     0.029 A 
ATOM     46  N   UNL A   1      40.223  29.020  30.188  1.00  0.00    -0.354 N 
ATOM     47  C   UNL A   1      43.383  27.589  32.974  1.00  0.00     0.074 A 
ATOM     48  C   UNL A   1      44.263  26.674  32.295  1.00  0.00     0.031 C 
ATOM     49  C   UNL A   1      39.140  29.021  28.226  1.00  0.00     0.029 A 
ATOM     50  C   UNL A   1      39.100  29.532  29.588  1.00  0.00     0.049 A 
ATOM     51  H   UNL A   1      40.469  29.202  31.123  1.00  0.00     0.167 HD
ATOM     52  C   UNL A   1      43.505  27.944  34.271  1.00  0.00     0.031 A 
ATOM     53  C   UNL A   1      38.153  30.327  30.113  1.00  0.00     0.031 A 
ATOM     54  C   UNL A   1      42.597  28.870  34.888  1.00  0.00     0.049 A 
ATOM     55  C   UNL A   1      38.324  30.732  31.549  1.00  0.00     0.074 A 
ATOM     56  C   UNL A   1      42.618  29.387  36.166  1.00  0.00     0.029 A 
ATOM     57  N   UNL A   1      41.495  29.420  34.240  1.00  0.00    -0.354 N 
ATOM     58  N   UNL A   1      39.260  30.374  32.401  1.00  0.00    -0.248 NA
ATOM     59  C   UNL A   1      37.330  31.660  32.093  1.00  0.00     0.031 C 
ATOM     60  C   UNL A   1      41.488  30.198  36.313  1.00  0.00     0.029 A 
ATOM     61  C   UNL A   1      40.810  30.253  35.100  1.00  0.00     0.049 A 
ATOM     62  H   UNL A   1      41.241  29.240  33.306  1.00  0.00     0.167 HD
ATOM     63  C   UNL A   1      38.987  31.055  33.576  1.00  0.00     0.074 A 
ATOM     64  C   UNL A   1      37.811  31.867  33.311  1.00  0.00     0.031 C 
ATOM     65  C   UNL A   1      39.636  31.024  34.768  1.00  0.00     0.031 A 
BRANCH  52  66
ATOM     66  C   UNL A   1      44.628  27.334  35.067  1.00  0.00    -0.014 A 
ATOM     67  C   UNL A   1      44.485  26.094  35.716  1.00  0.00     0.009 A 
ATOM     68  C   UNL A   1      45.856  28.006  35.176  1.00  0.00     0.009 A 
ATOM     69  C   UNL A   1      45.521  25.566  36.490  1.00  0.00     0.001 A 
ATOM     70  C   UNL A   1      46.906  27.458  35.919  1.00  0.00     0.001 A 
ATOM     71  C   UNL A   1      46.734  26.246  36.584  1.00  0.00     0.000 A 
ENDBRANCH  52  66
BRANCH  53  72
ATOM     72  C   UNL A   1      37.028  30.807  29.269  1.00  0.00    -0.014 A 
ATOM     73  C   UNL A   1      36.988  32.138  28.825  1.00  0.00     0.009 A 
ATOM     74  C   UNL A   1      36.014  29.929  28.855  1.00  0.00     0.009 A 
ATOM     75  C   UNL A   1      35.940  32.585  28.014  1.00  0.00     0.001 A 
ATOM     76  C   UNL A   1      34.987  30.369  28.016  1.00  0.00     0.001 A 
ATOM     77  C   UNL A   1      34.944  31.699  27.606  1.00  0.00     0.000 A 
ENDBRANCH  53  72
BRANCH  65  78
ATOM     78  C   UNL A   1      39.094  31.922  35.840  1.00  0.00    -0.014 A 
ATOM     79  C   UNL A   1      38.139  31.466  36.760  1.00  0.00     0.009 A 
ATOM     80  C   UNL A   1      39.581  33.234  35.944  1.00  0.00     0.009 A 
ATOM     81  C   UNL A   1      37.641  32.328  37.735  1.00  0.00     0.001 A 
ATOM     82  C   UNL A   1      39.117  34.077  36.950  1.00  0.00     0.001 A 
ATOM     83  C   UNL A   1      38.136  33.628  37.833  1.00  0.00     0.000 A 
ENDBRANCH  65  78
ENDBRANCH  39  40
ENDBRANCH  32  34
ENDBRANCH  31  32
ENDBRANCH  30  31
ENDBRANCH  29  30
ENDBRANCH  28  29
ENDBRANCH  27  28
ENDBRANCH   1  27
TORSDOF 19
ENDMDL
