MODEL 1
REMARK VINA RESULT:      -8.9      0.000      0.000
REMARK SMILES COc1cc([C@@H]2[NH2+][C@H](C(=O)OCCOCCOCCOC(=O)c3ccc(-c4c5nc(c(-c6ccccc6)c6ccc([nH]6)c(-c6ccccc6)c6nc(c(-c7ccccc7)c7ccc4[nH]7)C=C6)C=C5)cc3)CS2)ccc1OCc1ccc(Cl)cc1
REMARK SMILES IDX 15 1 14 2 13 3 12 4 11 5 9 6 10 7 8 8 6 9 7 10 72 11 71 14
REMARK SMILES IDX 5 15 3 16 4 17 75 18 74 19 73 20 2 21 1 22 76 23 77 24 78 25
REMARK SMILES IDX 79 26 84 27 80 28 83 29 81 30 82 31 16 32 17 33 18 34 19 35
REMARK SMILES IDX 20 36 21 37 22 38 23 39 24 40 70 41 25 42 69 43 26 44 27 45
REMARK SMILES IDX 28 46 63 47 29 48 68 49 62 50 64 51 30 52 67 53 61 54 60 55
REMARK SMILES IDX 31 57 53 58 38 59 52 60 39 61 42 62 51 63 65 64 40 65 41 66
REMARK SMILES IDX 50 68 66 69 43 70 32 71 33 72 37 73 34 74 36 75 35 76 54 77
REMARK SMILES IDX 55 78 59 79 56 80 58 81 57 82 44 83 45 84 49 85 46 86 48 87
REMARK SMILES IDX 47 88
REMARK H PARENT 7 12 7 13 64 56 42 67
REMARK Flexibility Score: inf
ROOT
ATOM      1  C   UNL A   1      36.924  29.462  30.409  1.00  0.00     0.188 C 
ENDROOT
BRANCH   1   2
ATOM      2  O   UNL A   1      36.874  29.460  28.985  1.00  0.00    -0.376 OA
BRANCH   2   3
ATOM      3  C   UNL A   1      35.866  30.233  28.339  1.00  0.00     0.202 C 
BRANCH   3   4
ATOM      4  C   UNL A   1      34.723  29.490  27.624  1.00  0.00     0.261 C 
BRANCH   4   5
ATOM      5  O   UNL A   1      33.449  30.173  27.615  1.00  0.00    -0.459 OA
BRANCH   5   6
ATOM      6  C   UNL A   1      32.470  29.638  26.843  1.00  0.00     0.365 C 
ATOM      7  O   UNL A   1      31.685  28.779  27.242  1.00  0.00    -0.245 OA
BRANCH   6   8
ATOM      8  C   UNL A   1      32.371  30.168  25.399  1.00  0.00     0.304 C 
ATOM      9  C   UNL A   1      32.194  28.789  23.377  1.00  0.00     0.274 C 
ATOM     10  N   UNL A   1      33.093  29.423  24.342  1.00  0.00    -0.319 N 
ATOM     11  S   UNL A   1      30.498  29.324  23.678  1.00  0.00    -0.087 SA
ATOM     12  H   UNL A   1      33.700  30.072  23.843  1.00  0.00     0.348 HD
ATOM     13  H   UNL A   1      33.623  28.682  24.800  1.00  0.00     0.348 HD
ATOM     14  C   UNL A   1      30.916  30.424  25.044  1.00  0.00     0.153 C 
BRANCH   9  15
ATOM     15  C   UNL A   1      32.358  27.277  23.361  1.00  0.00     0.024 A 
ATOM     16  C   UNL A   1      31.683  25.020  24.067  1.00  0.00     0.161 A 
ATOM     17  C   UNL A   1      31.522  26.422  24.115  1.00  0.00     0.061 A 
ATOM     18  C   UNL A   1      32.678  24.465  23.256  1.00  0.00     0.161 A 
ATOM     19  C   UNL A   1      33.467  25.307  22.471  1.00  0.00     0.051 A 
ATOM     20  C   UNL A   1      33.327  26.688  22.541  1.00  0.00     0.015 A 
BRANCH  16  21
ATOM     21  O   UNL A   1      30.776  24.202  24.688  1.00  0.00    -0.493 OA
ATOM     22  C   UNL A   1      30.768  24.317  26.111  1.00  0.00     0.278 C 
ENDBRANCH  16  21
BRANCH  18  23
ATOM     23  O   UNL A   1      33.060  23.158  23.149  1.00  0.00    -0.485 OA
BRANCH  23  24
ATOM     24  C   UNL A   1      33.546  22.459  24.296  1.00  0.00     0.265 C 
BRANCH  24  25
ATOM     25  C   UNL A   1      33.543  20.934  24.296  1.00  0.00    -0.011 A 
ATOM     26  C   UNL A   1      32.501  20.150  23.780  1.00  0.00     0.009 A 
ATOM     27  C   UNL A   1      34.681  20.276  24.794  1.00  0.00     0.009 A 
ATOM     28  C   UNL A   1      32.638  18.764  23.654  1.00  0.00     0.021 A 
ATOM     29  C   UNL A   1      34.808  18.887  24.697  1.00  0.00     0.021 A 
ATOM     30  C   UNL A   1      33.797  18.141  24.099  1.00  0.00     0.041 A 
ATOM     31  Cl  UNL A   1      33.989  16.444  23.897  1.00  0.00    -0.084 Cl
ENDBRANCH  24  25
ENDBRANCH  23  24
ENDBRANCH  18  23
ENDBRANCH   9  15
ENDBRANCH   6   8
ENDBRANCH   5   6
ENDBRANCH   4   5
ENDBRANCH   3   4
ENDBRANCH   2   3
ENDBRANCH   1   2
BRANCH   1  32
ATOM     32  C   UNL A   1      37.200  30.787  31.144  1.00  0.00     0.188 C 
BRANCH  32  33
ATOM     33  O   UNL A   1      36.309  31.035  32.201  1.00  0.00    -0.376 OA
BRANCH  33  34
ATOM     34  C   UNL A   1      35.842  32.355  32.383  1.00  0.00     0.202 C 
BRANCH  34  35
ATOM     35  C   UNL A   1      36.228  33.439  31.358  1.00  0.00     0.261 C 
BRANCH  35  36
ATOM     36  O   UNL A   1      36.938  34.592  31.849  1.00  0.00    -0.460 OA
BRANCH  36  37
ATOM     37  C   UNL A   1      37.969  34.388  32.702  1.00  0.00     0.338 C 
ATOM     38  O   UNL A   1      37.963  34.524  33.915  1.00  0.00    -0.246 OA
BRANCH  37  39
ATOM     39  C   UNL A   1      39.076  33.773  31.934  1.00  0.00     0.060 A 
ATOM     40  C   UNL A   1      39.282  34.145  30.596  1.00  0.00     0.016 A 
ATOM     41  C   UNL A   1      39.931  32.855  32.544  1.00  0.00     0.016 A 
ATOM     42  C   UNL A   1      40.359  33.616  29.874  1.00  0.00     0.010 A 
ATOM     43  C   UNL A   1      40.987  32.302  31.810  1.00  0.00     0.010 A 
ATOM     44  C   UNL A   1      41.209  32.676  30.471  1.00  0.00    -0.014 A 
BRANCH  44  45
ATOM     45  C   UNL A   1      42.278  32.001  29.695  1.00  0.00     0.031 A 
ATOM     46  C   UNL A   1      42.037  30.611  29.175  1.00  0.00     0.074 A 
ATOM     47  C   UNL A   1      43.473  32.592  29.500  1.00  0.00     0.049 A 
ATOM     48  N   UNL A   1      42.877  29.777  28.619  1.00  0.00    -0.248 NA
ATOM     49  C   UNL A   1      40.665  30.091  29.304  1.00  0.00     0.031 C 
ATOM     50  C   UNL A   1      43.824  33.952  29.906  1.00  0.00     0.029 A 
ATOM     51  N   UNL A   1      44.627  32.103  28.933  1.00  0.00    -0.354 N 
ATOM     52  C   UNL A   1      42.146  28.626  28.355  1.00  0.00     0.074 A 
ATOM     53  C   UNL A   1      40.794  28.866  28.813  1.00  0.00     0.031 C 
ATOM     54  C   UNL A   1      45.115  34.179  29.603  1.00  0.00     0.029 A 
ATOM     55  C   UNL A   1      45.694  32.965  29.028  1.00  0.00     0.049 A 
ATOM     56  H   UNL A   1      44.684  31.221  28.500  1.00  0.00     0.167 HD
ATOM     57  C   UNL A   1      42.566  27.469  27.789  1.00  0.00     0.031 A 
ATOM     58  C   UNL A   1      46.996  32.780  28.733  1.00  0.00     0.031 A 
ATOM     59  C   UNL A   1      43.911  27.226  27.340  1.00  0.00     0.049 A 
ATOM     60  C   UNL A   1      47.454  31.446  28.198  1.00  0.00     0.074 A 
ATOM     61  C   UNL A   1      44.417  26.097  26.718  1.00  0.00     0.029 A 
ATOM     62  N   UNL A   1      44.964  28.114  27.478  1.00  0.00    -0.354 N 
ATOM     63  N   UNL A   1      46.744  30.383  27.903  1.00  0.00    -0.248 NA
ATOM     64  C   UNL A   1      48.897  31.282  27.960  1.00  0.00     0.031 C 
ATOM     65  C   UNL A   1      45.792  26.273  26.549  1.00  0.00     0.029 A 
ATOM     66  C   UNL A   1      46.128  27.538  27.000  1.00  0.00     0.049 A 
ATOM     67  H   UNL A   1      44.895  29.018  27.860  1.00  0.00     0.167 HD
ATOM     68  C   UNL A   1      47.648  29.441  27.426  1.00  0.00     0.074 A 
ATOM     69  C   UNL A   1      48.954  30.065  27.442  1.00  0.00     0.031 C 
ATOM     70  C   UNL A   1      47.421  28.170  27.016  1.00  0.00     0.031 A 
BRANCH  57  71
ATOM     71  C   UNL A   1      41.576  26.347  27.658  1.00  0.00    -0.014 A 
ATOM     72  C   UNL A   1      40.604  26.342  26.647  1.00  0.00     0.009 A 
ATOM     73  C   UNL A   1      41.685  25.230  28.504  1.00  0.00     0.009 A 
ATOM     74  C   UNL A   1      39.751  25.245  26.496  1.00  0.00     0.001 A 
ATOM     75  C   UNL A   1      40.850  24.126  28.333  1.00  0.00     0.001 A 
ATOM     76  C   UNL A   1      39.881  24.135  27.331  1.00  0.00     0.000 A 
ENDBRANCH  57  71
BRANCH  58  77
ATOM     77  C   UNL A   1      47.998  33.852  28.997  1.00  0.00    -0.014 A 
ATOM     78  C   UNL A   1      48.616  33.965  30.253  1.00  0.00     0.009 A 
ATOM     79  C   UNL A   1      48.284  34.815  28.017  1.00  0.00     0.009 A 
ATOM     80  C   UNL A   1      49.462  35.041  30.535  1.00  0.00     0.001 A 
ATOM     81  C   UNL A   1      49.160  35.870  28.289  1.00  0.00     0.001 A 
ATOM     82  C   UNL A   1      49.735  35.991  29.552  1.00  0.00     0.000 A 
ENDBRANCH  58  77
BRANCH  70  83
ATOM     83  C   UNL A   1      48.598  27.374  26.524  1.00  0.00    -0.014 A 
ATOM     84  C   UNL A   1      49.282  26.485  27.370  1.00  0.00     0.009 A 
ATOM     85  C   UNL A   1      48.995  27.471  25.181  1.00  0.00     0.009 A 
ATOM     86  C   UNL A   1      50.356  25.735  26.886  1.00  0.00     0.001 A 
ATOM     87  C   UNL A   1      50.047  26.695  24.692  1.00  0.00     0.001 A 
ATOM     88  C   UNL A   1      50.732  25.834  25.548  1.00  0.00     0.000 A 
ENDBRANCH  70  83
ENDBRANCH  44  45
ENDBRANCH  37  39
ENDBRANCH  36  37
ENDBRANCH  35  36
ENDBRANCH  34  35
ENDBRANCH  33  34
ENDBRANCH  32  33
ENDBRANCH   1  32
TORSDOF 22
ENDMDL
MODEL 2
REMARK VINA RESULT:      -8.7      4.389      8.831
REMARK SMILES COc1cc([C@@H]2[NH2+][C@H](C(=O)OCCOCCOCCOC(=O)c3ccc(-c4c5nc(c(-c6ccccc6)c6ccc([nH]6)c(-c6ccccc6)c6nc(c(-c7ccccc7)c7ccc4[nH]7)C=C6)C=C5)cc3)CS2)ccc1OCc1ccc(Cl)cc1
REMARK SMILES IDX 15 1 14 2 13 3 12 4 11 5 9 6 10 7 8 8 6 9 7 10 72 11 71 14
REMARK SMILES IDX 5 15 3 16 4 17 75 18 74 19 73 20 2 21 1 22 76 23 77 24 78 25
REMARK SMILES IDX 79 26 84 27 80 28 83 29 81 30 82 31 16 32 17 33 18 34 19 35
REMARK SMILES IDX 20 36 21 37 22 38 23 39 24 40 70 41 25 42 69 43 26 44 27 45
REMARK SMILES IDX 28 46 63 47 29 48 68 49 62 50 64 51 30 52 67 53 61 54 60 55
REMARK SMILES IDX 31 57 53 58 38 59 52 60 39 61 42 62 51 63 65 64 40 65 41 66
REMARK SMILES IDX 50 68 66 69 43 70 32 71 33 72 37 73 34 74 36 75 35 76 54 77
REMARK SMILES IDX 55 78 59 79 56 80 58 81 57 82 44 83 45 84 49 85 46 86 48 87
REMARK SMILES IDX 47 88
REMARK H PARENT 7 12 7 13 64 56 42 67
REMARK Flexibility Score: inf
ROOT
ATOM      1  C   UNL A   1      37.370  23.581  25.696  1.00  0.00     0.188 C 
ENDROOT
BRANCH   1   2
ATOM      2  O   UNL A   1      37.220  22.209  26.047  1.00  0.00    -0.376 OA
BRANCH   2   3
ATOM      3  C   UNL A   1      37.904  21.229  25.269  1.00  0.00     0.202 C 
BRANCH   3   4
ATOM      4  C   UNL A   1      37.071  20.139  24.574  1.00  0.00     0.261 C 
BRANCH   4   5
ATOM      5  O   UNL A   1      35.661  20.134  24.897  1.00  0.00    -0.459 OA
BRANCH   5   6
ATOM      6  C   UNL A   1      35.016  18.942  24.820  1.00  0.00     0.365 C 
ATOM      7  O   UNL A   1      35.596  17.864  24.698  1.00  0.00    -0.245 OA
BRANCH   6   8
ATOM      8  C   UNL A   1      33.478  18.991  24.899  1.00  0.00     0.304 C 
ATOM      9  C   UNL A   1      32.097  21.010  24.695  1.00  0.00     0.274 C 
ATOM     10  N   UNL A   1      32.861  20.144  25.594  1.00  0.00    -0.319 N 
ATOM     11  S   UNL A   1      31.979  20.246  23.065  1.00  0.00    -0.087 SA
ATOM     12  H   UNL A   1      32.234  19.791  26.317  1.00  0.00     0.348 HD
ATOM     13  H   UNL A   1      33.618  20.703  25.988  1.00  0.00     0.348 HD
ATOM     14  C   UNL A   1      32.884  18.755  23.521  1.00  0.00     0.153 C 
BRANCH   9  15
ATOM     15  C   UNL A   1      32.658  22.423  24.662  1.00  0.00     0.024 A 
ATOM     16  C   UNL A   1      33.644  24.332  23.465  1.00  0.00     0.161 A 
ATOM     17  C   UNL A   1      33.148  23.010  23.473  1.00  0.00     0.061 A 
ATOM     18  C   UNL A   1      33.645  25.078  24.648  1.00  0.00     0.161 A 
ATOM     19  C   UNL A   1      33.110  24.517  25.808  1.00  0.00     0.051 A 
ATOM     20  C   UNL A   1      32.648  23.207  25.822  1.00  0.00     0.015 A 
BRANCH  16  21
ATOM     21  O   UNL A   1      33.981  24.934  22.281  1.00  0.00    -0.493 OA
ATOM     22  C   UNL A   1      32.922  24.968  21.324  1.00  0.00     0.278 C 
ENDBRANCH  16  21
BRANCH  18  23
ATOM     23  O   UNL A   1      34.168  26.320  24.872  1.00  0.00    -0.485 OA
BRANCH  23  24
ATOM     24  C   UNL A   1      33.939  27.372  23.935  1.00  0.00     0.265 C 
BRANCH  24  25
ATOM     25  C   UNL A   1      32.610  28.118  23.963  1.00  0.00    -0.011 A 
ATOM     26  C   UNL A   1      32.257  29.060  24.941  1.00  0.00     0.009 A 
ATOM     27  C   UNL A   1      31.705  27.886  22.913  1.00  0.00     0.009 A 
ATOM     28  C   UNL A   1      31.098  29.832  24.812  1.00  0.00     0.021 A 
ATOM     29  C   UNL A   1      30.530  28.636  22.797  1.00  0.00     0.021 A 
ATOM     30  C   UNL A   1      30.248  29.626  23.733  1.00  0.00     0.041 A 
ATOM     31  Cl  UNL A   1      28.850  30.610  23.545  1.00  0.00    -0.084 Cl
ENDBRANCH  24  25
ENDBRANCH  23  24
ENDBRANCH  18  23
ENDBRANCH   9  15
ENDBRANCH   6   8
ENDBRANCH   5   6
ENDBRANCH   4   5
ENDBRANCH   3   4
ENDBRANCH   2   3
ENDBRANCH   1   2
BRANCH   1  32
ATOM     32  C   UNL A   1      38.379  24.445  26.475  1.00  0.00     0.188 C 
BRANCH  32  33
ATOM     33  O   UNL A   1      38.936  23.788  27.586  1.00  0.00    -0.376 OA
BRANCH  33  34
ATOM     34  C   UNL A   1      40.104  23.021  27.388  1.00  0.00     0.202 C 
BRANCH  34  35
ATOM     35  C   UNL A   1      41.415  23.730  26.998  1.00  0.00     0.261 C 
BRANCH  35  36
ATOM     36  O   UNL A   1      42.650  23.128  27.432  1.00  0.00    -0.460 OA
BRANCH  36  37
ATOM     37  C   UNL A   1      43.248  23.632  28.536  1.00  0.00     0.338 C 
ATOM     38  O   UNL A   1      43.268  23.144  29.655  1.00  0.00    -0.246 OA
BRANCH  37  39
ATOM     39  C   UNL A   1      44.058  24.800  28.118  1.00  0.00     0.060 A 
ATOM     40  C   UNL A   1      44.497  25.720  29.083  1.00  0.00     0.016 A 
ATOM     41  C   UNL A   1      44.411  24.969  26.778  1.00  0.00     0.016 A 
ATOM     42  C   UNL A   1      45.310  26.798  28.712  1.00  0.00     0.010 A 
ATOM     43  C   UNL A   1      45.197  26.065  26.405  1.00  0.00     0.010 A 
ATOM     44  C   UNL A   1      45.651  26.988  27.366  1.00  0.00    -0.014 A 
BRANCH  44  45
ATOM     45  C   UNL A   1      46.403  28.189  26.924  1.00  0.00     0.031 A 
ATOM     46  C   UNL A   1      47.877  28.070  26.653  1.00  0.00     0.074 A 
ATOM     47  C   UNL A   1      45.796  29.386  26.816  1.00  0.00     0.049 A 
ATOM     48  N   UNL A   1      48.755  29.010  26.417  1.00  0.00    -0.248 NA
ATOM     49  C   UNL A   1      48.436  26.708  26.654  1.00  0.00     0.031 C 
ATOM     50  C   UNL A   1      44.366  29.634  27.000  1.00  0.00     0.029 A 
ATOM     51  N   UNL A   1      46.320  30.631  26.553  1.00  0.00    -0.354 N 
ATOM     52  C   UNL A   1      49.973  28.360  26.266  1.00  0.00     0.074 A 
ATOM     53  C   UNL A   1      49.723  26.945  26.440  1.00  0.00     0.031 C 
ATOM     54  C   UNL A   1      44.131  30.952  26.875  1.00  0.00     0.029 A 
ATOM     55  C   UNL A   1      45.399  31.647  26.652  1.00  0.00     0.049 A 
ATOM     56  H   UNL A   1      47.264  30.780  26.316  1.00  0.00     0.167 HD
ATOM     57  C   UNL A   1      51.191  28.895  26.015  1.00  0.00     0.031 A 
ATOM     58  C   UNL A   1      45.566  32.984  26.617  1.00  0.00     0.031 A 
ATOM     59  C   UNL A   1      51.442  30.302  25.849  1.00  0.00     0.049 A 
ATOM     60  C   UNL A   1      46.951  33.555  26.436  1.00  0.00     0.074 A 
ATOM     61  C   UNL A   1      52.639  30.931  25.552  1.00  0.00     0.029 A 
ATOM     62  N   UNL A   1      50.488  31.297  25.983  1.00  0.00    -0.354 N 
ATOM     63  N   UNL A   1      48.087  32.929  26.242  1.00  0.00    -0.248 NA
ATOM     64  C   UNL A   1      47.078  35.021  26.475  1.00  0.00     0.031 C 
ATOM     65  C   UNL A   1      52.424  32.311  25.581  1.00  0.00     0.029 A 
ATOM     66  C   UNL A   1      51.081  32.538  25.825  1.00  0.00     0.049 A 
ATOM     67  H   UNL A   1      49.533  31.144  26.163  1.00  0.00     0.167 HD
ATOM     68  C   UNL A   1      49.052  33.922  26.114  1.00  0.00     0.074 A 
ATOM     69  C   UNL A   1      48.367  35.192  26.223  1.00  0.00     0.031 C 
ATOM     70  C   UNL A   1      50.388  33.795  25.929  1.00  0.00     0.031 A 
BRANCH  57  71
ATOM     71  C   UNL A   1      52.370  27.966  25.944  1.00  0.00    -0.014 A 
ATOM     72  C   UNL A   1      53.096  27.616  27.092  1.00  0.00     0.009 A 
ATOM     73  C   UNL A   1      52.694  27.357  24.720  1.00  0.00     0.009 A 
ATOM     74  C   UNL A   1      54.134  26.685  27.011  1.00  0.00     0.001 A 
ATOM     75  C   UNL A   1      53.714  26.408  24.648  1.00  0.00     0.001 A 
ATOM     76  C   UNL A   1      54.435  26.074  25.793  1.00  0.00     0.000 A 
ENDBRANCH  57  71
BRANCH  58  77
ATOM     77  C   UNL A   1      44.411  33.903  26.828  1.00  0.00    -0.014 A 
ATOM     78  C   UNL A   1      43.705  34.434  25.736  1.00  0.00     0.009 A 
ATOM     79  C   UNL A   1      44.057  34.314  28.123  1.00  0.00     0.009 A 
ATOM     80  C   UNL A   1      42.703  35.387  25.934  1.00  0.00     0.001 A 
ATOM     81  C   UNL A   1      43.029  35.239  28.320  1.00  0.00     0.001 A 
ATOM     82  C   UNL A   1      42.363  35.787  27.225  1.00  0.00     0.000 A 
ENDBRANCH  58  77
BRANCH  70  83
ATOM     83  C   UNL A   1      51.198  35.056  25.803  1.00  0.00    -0.014 A 
ATOM     84  C   UNL A   1      51.805  35.647  26.923  1.00  0.00     0.009 A 
ATOM     85  C   UNL A   1      51.405  35.629  24.538  1.00  0.00     0.009 A 
ATOM     86  C   UNL A   1      52.575  36.803  26.780  1.00  0.00     0.001 A 
ATOM     87  C   UNL A   1      52.204  36.765  24.394  1.00  0.00     0.001 A 
ATOM     88  C   UNL A   1      52.781  37.356  25.517  1.00  0.00     0.000 A 
ENDBRANCH  70  83
ENDBRANCH  44  45
ENDBRANCH  37  39
ENDBRANCH  36  37
ENDBRANCH  35  36
ENDBRANCH  34  35
ENDBRANCH  33  34
ENDBRANCH  32  33
ENDBRANCH   1  32
TORSDOF 22
ENDMDL
MODEL 3
REMARK VINA RESULT:      -8.6      3.538      6.623
REMARK SMILES COc1cc([C@@H]2[NH2+][C@H](C(=O)OCCOCCOCCOC(=O)c3ccc(-c4c5nc(c(-c6ccccc6)c6ccc([nH]6)c(-c6ccccc6)c6nc(c(-c7ccccc7)c7ccc4[nH]7)C=C6)C=C5)cc3)CS2)ccc1OCc1ccc(Cl)cc1
REMARK SMILES IDX 15 1 14 2 13 3 12 4 11 5 9 6 10 7 8 8 6 9 7 10 72 11 71 14
REMARK SMILES IDX 5 15 3 16 4 17 75 18 74 19 73 20 2 21 1 22 76 23 77 24 78 25
REMARK SMILES IDX 79 26 84 27 80 28 83 29 81 30 82 31 16 32 17 33 18 34 19 35
REMARK SMILES IDX 20 36 21 37 22 38 23 39 24 40 70 41 25 42 69 43 26 44 27 45
REMARK SMILES IDX 28 46 63 47 29 48 68 49 62 50 64 51 30 52 67 53 61 54 60 55
REMARK SMILES IDX 31 57 53 58 38 59 52 60 39 61 42 62 51 63 65 64 40 65 41 66
REMARK SMILES IDX 50 68 66 69 43 70 32 71 33 72 37 73 34 74 36 75 35 76 54 77
REMARK SMILES IDX 55 78 59 79 56 80 58 81 57 82 44 83 45 84 49 85 46 86 48 87
REMARK SMILES IDX 47 88
REMARK H PARENT 7 12 7 13 64 56 42 67
REMARK Flexibility Score: inf
ROOT
ATOM      1  C   UNL A   1      34.354  31.846  27.705  1.00  0.00     0.188 C 
ENDROOT
BRANCH   1   2
ATOM      2  O   UNL A   1      34.343  30.491  28.141  1.00  0.00    -0.376 OA
BRANCH   2   3
ATOM      3  C   UNL A   1      34.695  29.472  27.208  1.00  0.00     0.202 C 
BRANCH   3   4
ATOM      4  C   UNL A   1      33.563  28.703  26.506  1.00  0.00     0.261 C 
BRANCH   4   5
ATOM      5  O   UNL A   1      33.339  29.055  25.121  1.00  0.00    -0.459 OA
BRANCH   5   6
ATOM      6  C   UNL A   1      32.082  29.433  24.778  1.00  0.00     0.365 C 
ATOM      7  O   UNL A   1      31.425  30.258  25.412  1.00  0.00    -0.245 OA
BRANCH   6   8
ATOM      8  C   UNL A   1      31.489  28.773  23.518  1.00  0.00     0.304 C 
ATOM      9  C   UNL A   1      31.627  26.388  22.952  1.00  0.00     0.274 C 
ATOM     10  N   UNL A   1      32.276  27.697  22.871  1.00  0.00    -0.319 N 
ATOM     11  S   UNL A   1      29.964  26.572  23.626  1.00  0.00    -0.087 SA
ATOM     12  H   UNL A   1      32.405  27.936  21.888  1.00  0.00     0.348 HD
ATOM     13  H   UNL A   1      33.165  27.630  23.366  1.00  0.00     0.348 HD
ATOM     14  C   UNL A   1      30.049  28.366  23.780  1.00  0.00     0.153 C 
BRANCH   9  15
ATOM     15  C   UNL A   1      32.479  25.382  23.710  1.00  0.00     0.024 A 
ATOM     16  C   UNL A   1      32.725  23.398  25.141  1.00  0.00     0.161 A 
ATOM     17  C   UNL A   1      31.910  24.330  24.464  1.00  0.00     0.061 A 
ATOM     18  C   UNL A   1      34.117  23.508  25.063  1.00  0.00     0.161 A 
ATOM     19  C   UNL A   1      34.677  24.514  24.274  1.00  0.00     0.051 A 
ATOM     20  C   UNL A   1      33.875  25.448  23.631  1.00  0.00     0.015 A 
BRANCH  16  21
ATOM     21  O   UNL A   1      32.162  22.304  25.746  1.00  0.00    -0.493 OA
ATOM     22  C   UNL A   1      32.088  21.150  24.910  1.00  0.00     0.278 C 
ENDBRANCH  16  21
BRANCH  18  23
ATOM     23  O   UNL A   1      35.068  22.780  25.719  1.00  0.00    -0.485 OA
BRANCH  23  24
ATOM     24  C   UNL A   1      36.295  22.454  25.064  1.00  0.00     0.265 C 
BRANCH  24  25
ATOM     25  C   UNL A   1      37.614  22.704  25.789  1.00  0.00    -0.011 A 
ATOM     26  C   UNL A   1      38.649  21.762  25.886  1.00  0.00     0.009 A 
ATOM     27  C   UNL A   1      37.825  23.977  26.346  1.00  0.00     0.009 A 
ATOM     28  C   UNL A   1      39.895  22.114  26.412  1.00  0.00     0.021 A 
ATOM     29  C   UNL A   1      39.061  24.324  26.900  1.00  0.00     0.021 A 
ATOM     30  C   UNL A   1      40.100  23.398  26.904  1.00  0.00     0.041 A 
ATOM     31  Cl  UNL A   1      41.648  23.848  27.503  1.00  0.00    -0.084 Cl
ENDBRANCH  24  25
ENDBRANCH  23  24
ENDBRANCH  18  23
ENDBRANCH   9  15
ENDBRANCH   6   8
ENDBRANCH   5   6
ENDBRANCH   4   5
ENDBRANCH   3   4
ENDBRANCH   2   3
ENDBRANCH   1   2
BRANCH   1  32
ATOM     32  C   UNL A   1      33.013  32.563  27.461  1.00  0.00     0.188 C 
BRANCH  32  33
ATOM     33  O   UNL A   1      32.869  33.748  28.204  1.00  0.00    -0.376 OA
BRANCH  33  34
ATOM     34  C   UNL A   1      34.027  34.319  28.775  1.00  0.00     0.202 C 
BRANCH  34  35
ATOM     35  C   UNL A   1      34.165  34.371  30.308  1.00  0.00     0.261 C 
BRANCH  35  36
ATOM     36  O   UNL A   1      34.061  33.126  31.026  1.00  0.00    -0.460 OA
BRANCH  36  37
ATOM     37  C   UNL A   1      34.430  33.112  32.328  1.00  0.00     0.338 C 
ATOM     38  O   UNL A   1      33.699  33.155  33.305  1.00  0.00    -0.246 OA
BRANCH  37  39
ATOM     39  C   UNL A   1      35.884  32.835  32.382  1.00  0.00     0.060 A 
ATOM     40  C   UNL A   1      36.689  33.529  33.300  1.00  0.00     0.016 A 
ATOM     41  C   UNL A   1      36.448  31.867  31.550  1.00  0.00     0.016 A 
ATOM     42  C   UNL A   1      38.054  33.238  33.403  1.00  0.00     0.010 A 
ATOM     43  C   UNL A   1      37.820  31.602  31.632  1.00  0.00     0.010 A 
ATOM     44  C   UNL A   1      38.633  32.284  32.556  1.00  0.00    -0.014 A 
BRANCH  44  45
ATOM     45  C   UNL A   1      40.098  32.046  32.551  1.00  0.00     0.031 A 
ATOM     46  C   UNL A   1      40.972  32.884  31.659  1.00  0.00     0.074 A 
ATOM     47  C   UNL A   1      40.644  31.059  33.288  1.00  0.00     0.049 A 
ATOM     48  N   UNL A   1      42.241  32.746  31.374  1.00  0.00    -0.248 NA
ATOM     49  C   UNL A   1      40.325  34.029  30.996  1.00  0.00     0.031 C 
ATOM     50  C   UNL A   1      39.922  30.206  34.231  1.00  0.00     0.029 A 
ATOM     51  N   UNL A   1      41.936  30.590  33.332  1.00  0.00    -0.354 N 
ATOM     52  C   UNL A   1      42.540  33.767  30.482  1.00  0.00     0.074 A 
ATOM     53  C   UNL A   1      41.320  34.516  30.268  1.00  0.00     0.031 C 
ATOM     54  C   UNL A   1      40.775  29.297  34.739  1.00  0.00     0.029 A 
ATOM     55  C   UNL A   1      42.089  29.473  34.119  1.00  0.00     0.049 A 
ATOM     56  H   UNL A   1      42.681  31.014  32.848  1.00  0.00     0.167 HD
ATOM     57  C   UNL A   1      43.723  34.048  29.886  1.00  0.00     0.031 A 
ATOM     58  C   UNL A   1      43.149  28.657  34.283  1.00  0.00     0.031 A 
ATOM     59  C   UNL A   1      44.934  33.299  30.091  1.00  0.00     0.049 A 
ATOM     60  C   UNL A   1      44.425  28.937  33.527  1.00  0.00     0.074 A 
ATOM     61  C   UNL A   1      46.190  33.537  29.559  1.00  0.00     0.029 A 
ATOM     62  N   UNL A   1      45.039  32.162  30.874  1.00  0.00    -0.354 N 
ATOM     63  N   UNL A   1      44.712  29.936  32.727  1.00  0.00    -0.248 NA
ATOM     64  C   UNL A   1      45.523  27.973  33.694  1.00  0.00     0.031 C 
ATOM     65  C   UNL A   1      47.036  32.500  29.960  1.00  0.00     0.029 A 
ATOM     66  C   UNL A   1      46.325  31.657  30.797  1.00  0.00     0.049 A 
ATOM     67  H   UNL A   1      44.307  31.771  31.403  1.00  0.00     0.167 HD
ATOM     68  C   UNL A   1      46.024  29.730  32.317  1.00  0.00     0.074 A 
ATOM     69  C   UNL A   1      46.489  28.529  32.978  1.00  0.00     0.031 C 
ATOM     70  C   UNL A   1      46.778  30.465  31.464  1.00  0.00     0.031 A 
BRANCH  57  71
ATOM     71  C   UNL A   1      43.770  35.192  28.913  1.00  0.00    -0.014 A 
ATOM     72  C   UNL A   1      44.084  36.494  29.327  1.00  0.00     0.009 A 
ATOM     73  C   UNL A   1      43.589  34.937  27.543  1.00  0.00     0.009 A 
ATOM     74  C   UNL A   1      44.204  37.522  28.389  1.00  0.00     0.001 A 
ATOM     75  C   UNL A   1      43.736  35.960  26.606  1.00  0.00     0.001 A 
ATOM     76  C   UNL A   1      44.040  37.253  27.030  1.00  0.00     0.000 A 
ENDBRANCH  57  71
BRANCH  58  77
ATOM     77  C   UNL A   1      43.052  27.443  35.142  1.00  0.00    -0.014 A 
ATOM     78  C   UNL A   1      42.518  26.245  34.638  1.00  0.00     0.009 A 
ATOM     79  C   UNL A   1      43.423  27.497  36.495  1.00  0.00     0.009 A 
ATOM     80  C   UNL A   1      42.318  25.147  35.478  1.00  0.00     0.001 A 
ATOM     81  C   UNL A   1      43.256  26.386  37.325  1.00  0.00     0.001 A 
ATOM     82  C   UNL A   1      42.689  25.217  36.820  1.00  0.00     0.000 A 
ENDBRANCH  58  77
BRANCH  70  83
ATOM     83  C   UNL A   1      48.191  30.014  31.216  1.00  0.00    -0.014 A 
ATOM     84  C   UNL A   1      49.244  30.424  32.050  1.00  0.00     0.009 A 
ATOM     85  C   UNL A   1      48.465  29.121  30.167  1.00  0.00     0.009 A 
ATOM     86  C   UNL A   1      50.545  29.972  31.818  1.00  0.00     0.001 A 
ATOM     87  C   UNL A   1      49.760  28.644  29.960  1.00  0.00     0.001 A 
ATOM     88  C   UNL A   1      50.801  29.078  30.780  1.00  0.00     0.000 A 
ENDBRANCH  70  83
ENDBRANCH  44  45
ENDBRANCH  37  39
ENDBRANCH  36  37
ENDBRANCH  35  36
ENDBRANCH  34  35
ENDBRANCH  33  34
ENDBRANCH  32  33
ENDBRANCH   1  32
TORSDOF 22
ENDMDL
