MODEL 1
REMARK VINA RESULT:      -9.7      0.000      0.000
REMARK SMILES O=C(CCC(=O)OCCOCCOCCOC(=O)c1ccc(-c2c3nc(c(-c4ccccc4)c4ccc([nH]4)c(-c4ccccc4)c4nc(c(-c5ccccc5)c5ccc2[nH]5)C=C4)C=C3)cc1)Nc1ccc(C(=O)N2CCOCC2)cc1
REMARK SMILES IDX 11 1 10 2 9 3 8 4 7 5 5 6 6 7 4 8 3 9 2 10 1 11 67 12 68 14
REMARK SMILES IDX 69 15 81 16 70 17 80 18 71 19 72 20 73 21 74 22 75 23 79 24
REMARK SMILES IDX 76 25 78 26 77 27 12 28 13 29 14 30 15 31 16 32 17 33 18 34
REMARK SMILES IDX 19 35 20 36 66 37 21 38 65 39 22 40 23 41 24 42 59 43 25 44
REMARK SMILES IDX 64 45 58 46 60 47 26 48 63 49 57 50 56 51 27 53 49 54 34 55
REMARK SMILES IDX 48 56 35 57 38 58 47 59 61 60 36 61 37 62 46 64 62 65 39 66
REMARK SMILES IDX 28 67 29 68 33 69 30 70 32 71 31 72 50 73 51 74 55 75 52 76
REMARK SMILES IDX 54 77 53 78 40 79 41 80 45 81 42 82 44 83 43 84
REMARK H PARENT 67 13 60 52 38 63
REMARK Flexibility Score: inf
ROOT
ATOM      1  C   UNL A   1      37.568  20.561  24.998  1.00  0.00     0.188 C 
ENDROOT
BRANCH   1   2
ATOM      2  O   UNL A   1      36.147  20.480  25.002  1.00  0.00    -0.376 OA
BRANCH   2   3
ATOM      3  C   UNL A   1      35.462  21.336  25.919  1.00  0.00     0.202 C 
BRANCH   3   4
ATOM      4  C   UNL A   1      34.160  21.950  25.387  1.00  0.00     0.261 C 
BRANCH   4   5
ATOM      5  O   UNL A   1      32.982  21.196  25.770  1.00  0.00    -0.463 OA
BRANCH   5   6
ATOM      6  C   UNL A   1      32.642  20.164  24.951  1.00  0.00     0.306 C 
ATOM      7  O   UNL A   1      32.109  19.129  25.334  1.00  0.00    -0.252 OA
BRANCH   6   8
ATOM      8  C   UNL A   1      32.916  20.411  23.478  1.00  0.00     0.132 C 
BRANCH   8   9
ATOM      9  C   UNL A   1      31.947  21.225  22.630  1.00  0.00     0.112 C 
BRANCH   9  10
ATOM     10  C   UNL A   1      32.182  22.719  22.667  1.00  0.00     0.224 C 
ATOM     11  O   UNL A   1      33.269  23.196  22.357  1.00  0.00    -0.275 OA
ATOM     12  N   UNL A   1      31.072  23.420  23.081  1.00  0.00    -0.326 N 
ATOM     13  H   UNL A   1      30.288  22.888  23.348  1.00  0.00     0.169 HD
BRANCH  12  14
ATOM     14  C   UNL A   1      30.940  24.810  23.164  1.00  0.00     0.041 A 
ATOM     15  C   UNL A   1      30.326  25.335  24.303  1.00  0.00     0.027 A 
ATOM     16  C   UNL A   1      31.403  25.665  22.172  1.00  0.00     0.027 A 
ATOM     17  C   UNL A   1      30.241  26.717  24.484  1.00  0.00     0.016 A 
ATOM     18  C   UNL A   1      31.303  27.045  22.345  1.00  0.00     0.016 A 
ATOM     19  C   UNL A   1      30.740  27.586  23.508  1.00  0.00     0.040 A 
BRANCH  19  20
ATOM     20  C   UNL A   1      30.853  29.037  23.841  1.00  0.00     0.254 C 
ATOM     21  O   UNL A   1      29.962  29.805  23.482  1.00  0.00    -0.269 OA
ATOM     22  N   UNL A   1      31.840  29.420  24.727  1.00  0.00    -0.334 N 
ATOM     23  C   UNL A   1      33.277  29.249  24.515  1.00  0.00     0.148 C 
ATOM     24  C   UNL A   1      31.489  30.276  25.849  1.00  0.00     0.148 C 
ATOM     25  C   UNL A   1      33.979  28.853  25.823  1.00  0.00     0.181 C 
ATOM     26  C   UNL A   1      32.179  29.732  27.100  1.00  0.00     0.181 C 
ATOM     27  O   UNL A   1      33.608  29.710  26.916  1.00  0.00    -0.378 OA
ENDBRANCH  19  20
ENDBRANCH  12  14
ENDBRANCH   9  10
ENDBRANCH   8   9
ENDBRANCH   6   8
ENDBRANCH   5   6
ENDBRANCH   4   5
ENDBRANCH   3   4
ENDBRANCH   2   3
ENDBRANCH   1   2
BRANCH   1  28
ATOM     28  C   UNL A   1      38.152  21.761  25.740  1.00  0.00     0.188 C 
BRANCH  28  29
ATOM     29  O   UNL A   1      39.573  21.853  25.762  1.00  0.00    -0.376 OA
BRANCH  29  30
ATOM     30  C   UNL A   1      40.185  21.508  27.017  1.00  0.00     0.202 C 
BRANCH  30  31
ATOM     31  C   UNL A   1      41.118  22.568  27.652  1.00  0.00     0.261 C 
BRANCH  31  32
ATOM     32  O   UNL A   1      42.537  22.345  27.475  1.00  0.00    -0.460 OA
BRANCH  32  33
ATOM     33  C   UNL A   1      43.077  22.619  26.266  1.00  0.00     0.338 C 
ATOM     34  O   UNL A   1      42.828  22.049  25.217  1.00  0.00    -0.246 OA
BRANCH  33  35
ATOM     35  C   UNL A   1      43.798  23.921  26.351  1.00  0.00     0.060 A 
ATOM     36  C   UNL A   1      43.871  24.711  25.194  1.00  0.00     0.016 A 
ATOM     37  C   UNL A   1      44.317  24.412  27.554  1.00  0.00     0.016 A 
ATOM     38  C   UNL A   1      44.490  25.966  25.225  1.00  0.00     0.010 A 
ATOM     39  C   UNL A   1      44.953  25.660  27.582  1.00  0.00     0.010 A 
ATOM     40  C   UNL A   1      45.071  26.432  26.410  1.00  0.00    -0.014 A 
BRANCH  40  41
ATOM     41  C   UNL A   1      45.983  27.606  26.379  1.00  0.00     0.031 A 
ATOM     42  C   UNL A   1      47.453  27.355  26.161  1.00  0.00     0.074 A 
ATOM     43  C   UNL A   1      45.541  28.870  26.523  1.00  0.00     0.049 A 
ATOM     44  N   UNL A   1      48.449  28.203  26.143  1.00  0.00    -0.248 NA
ATOM     45  C   UNL A   1      47.848  25.955  25.935  1.00  0.00     0.031 C 
ATOM     46  C   UNL A   1      44.146  29.274  26.691  1.00  0.00     0.029 A 
ATOM     47  N   UNL A   1      46.239  30.055  26.558  1.00  0.00    -0.354 N 
ATOM     48  C   UNL A   1      49.588  27.437  25.923  1.00  0.00     0.074 A 
ATOM     49  C   UNL A   1      49.163  26.058  25.832  1.00  0.00     0.031 C 
ATOM     50  C   UNL A   1      44.093  30.612  26.821  1.00  0.00     0.029 A 
ATOM     51  C   UNL A   1      45.450  31.158  26.783  1.00  0.00     0.049 A 
ATOM     52  H   UNL A   1      47.214  30.109  26.433  1.00  0.00     0.167 HD
ATOM     53  C   UNL A   1      50.875  27.841  25.805  1.00  0.00     0.031 A 
ATOM     54  C   UNL A   1      45.785  32.452  26.964  1.00  0.00     0.031 A 
ATOM     55  C   UNL A   1      51.311  29.208  25.896  1.00  0.00     0.049 A 
ATOM     56  C   UNL A   1      47.237  32.865  26.911  1.00  0.00     0.074 A 
ATOM     57  C   UNL A   1      52.593  29.711  25.758  1.00  0.00     0.029 A 
ATOM     58  N   UNL A   1      50.484  30.285  26.163  1.00  0.00    -0.354 N 
ATOM     59  N   UNL A   1      48.298  32.138  26.659  1.00  0.00    -0.248 NA
ATOM     60  C   UNL A   1      47.534  34.284  27.165  1.00  0.00     0.031 C 
ATOM     61  C   UNL A   1      52.552  31.086  26.006  1.00  0.00     0.029 A 
ATOM     62  C   UNL A   1      51.233  31.447  26.231  1.00  0.00     0.049 A 
ATOM     63  H   UNL A   1      49.508  30.232  26.285  1.00  0.00     0.167 HD
ATOM     64  C   UNL A   1      49.377  33.015  26.689  1.00  0.00     0.074 A 
ATOM     65  C   UNL A   1      48.845  34.330  26.971  1.00  0.00     0.031 C 
ATOM     66  C   UNL A   1      50.695  32.754  26.499  1.00  0.00     0.031 A 
BRANCH  53  67
ATOM     67  C   UNL A   1      51.918  26.779  25.607  1.00  0.00    -0.014 A 
ATOM     68  C   UNL A   1      52.373  26.425  24.328  1.00  0.00     0.009 A 
ATOM     69  C   UNL A   1      52.487  26.155  26.729  1.00  0.00     0.009 A 
ATOM     70  C   UNL A   1      53.357  25.447  24.175  1.00  0.00     0.001 A 
ATOM     71  C   UNL A   1      53.490  25.199  26.575  1.00  0.00     0.001 A 
ATOM     72  C   UNL A   1      53.919  24.839  25.299  1.00  0.00     0.000 A 
ENDBRANCH  53  67
BRANCH  54  73
ATOM     73  C   UNL A   1      44.739  33.473  27.254  1.00  0.00    -0.014 A 
ATOM     74  C   UNL A   1      44.236  33.639  28.555  1.00  0.00     0.009 A 
ATOM     75  C   UNL A   1      44.187  34.238  26.215  1.00  0.00     0.009 A 
ATOM     76  C   UNL A   1      43.182  34.522  28.801  1.00  0.00     0.001 A 
ATOM     77  C   UNL A   1      43.155  35.145  26.470  1.00  0.00     0.001 A 
ATOM     78  C   UNL A   1      42.645  35.277  27.760  1.00  0.00     0.000 A 
ENDBRANCH  54  73
BRANCH  66  79
ATOM     79  C   UNL A   1      51.652  33.914  26.536  1.00  0.00    -0.014 A 
ATOM     80  C   UNL A   1      52.302  34.292  27.721  1.00  0.00     0.009 A 
ATOM     81  C   UNL A   1      51.949  34.604  25.349  1.00  0.00     0.009 A 
ATOM     82  C   UNL A   1      53.206  35.358  27.721  1.00  0.00     0.001 A 
ATOM     83  C   UNL A   1      52.876  35.647  25.346  1.00  0.00     0.001 A 
ATOM     84  C   UNL A   1      53.496  36.030  26.534  1.00  0.00     0.000 A 
ENDBRANCH  66  79
ENDBRANCH  40  41
ENDBRANCH  33  35
ENDBRANCH  32  33
ENDBRANCH  31  32
ENDBRANCH  30  31
ENDBRANCH  29  30
ENDBRANCH  28  29
ENDBRANCH   1  28
TORSDOF 21
ENDMDL
MODEL 2
REMARK VINA RESULT:      -9.7      3.787      8.870
REMARK SMILES O=C(CCC(=O)OCCOCCOCCOC(=O)c1ccc(-c2c3nc(c(-c4ccccc4)c4ccc([nH]4)c(-c4ccccc4)c4nc(c(-c5ccccc5)c5ccc2[nH]5)C=C4)C=C3)cc1)Nc1ccc(C(=O)N2CCOCC2)cc1
REMARK SMILES IDX 11 1 10 2 9 3 8 4 7 5 5 6 6 7 4 8 3 9 2 10 1 11 67 12 68 14
REMARK SMILES IDX 69 15 81 16 70 17 80 18 71 19 72 20 73 21 74 22 75 23 79 24
REMARK SMILES IDX 76 25 78 26 77 27 12 28 13 29 14 30 15 31 16 32 17 33 18 34
REMARK SMILES IDX 19 35 20 36 66 37 21 38 65 39 22 40 23 41 24 42 59 43 25 44
REMARK SMILES IDX 64 45 58 46 60 47 26 48 63 49 57 50 56 51 27 53 49 54 34 55
REMARK SMILES IDX 48 56 35 57 38 58 47 59 61 60 36 61 37 62 46 64 62 65 39 66
REMARK SMILES IDX 28 67 29 68 33 69 30 70 32 71 31 72 50 73 51 74 55 75 52 76
REMARK SMILES IDX 54 77 53 78 40 79 41 80 45 81 42 82 44 83 43 84
REMARK H PARENT 67 13 60 52 38 63
REMARK Flexibility Score: inf
ROOT
ATOM      1  C   UNL A   1      35.693  23.177  23.632  1.00  0.00     0.188 C 
ENDROOT
BRANCH   1   2
ATOM      2  O   UNL A   1      34.542  23.833  24.151  1.00  0.00    -0.376 OA
BRANCH   2   3
ATOM      3  C   UNL A   1      34.700  25.206  24.513  1.00  0.00     0.202 C 
BRANCH   3   4
ATOM      4  C   UNL A   1      33.625  26.152  23.960  1.00  0.00     0.261 C 
BRANCH   4   5
ATOM      5  O   UNL A   1      33.244  27.187  24.901  1.00  0.00    -0.463 OA
BRANCH   5   6
ATOM      6  C   UNL A   1      31.907  27.380  25.065  1.00  0.00     0.306 C 
ATOM      7  O   UNL A   1      31.366  28.480  25.071  1.00  0.00    -0.252 OA
BRANCH   6   8
ATOM      8  C   UNL A   1      31.093  26.102  25.178  1.00  0.00     0.132 C 
BRANCH   8   9
ATOM      9  C   UNL A   1      31.191  25.222  26.417  1.00  0.00     0.112 C 
BRANCH   9  10
ATOM     10  C   UNL A   1      31.030  23.741  26.151  1.00  0.00     0.224 C 
ATOM     11  O   UNL A   1      30.154  23.090  26.710  1.00  0.00    -0.275 OA
ATOM     12  N   UNL A   1      31.958  23.261  25.254  1.00  0.00    -0.326 N 
ATOM     13  H   UNL A   1      32.634  23.900  24.933  1.00  0.00     0.169 HD
BRANCH  12  14
ATOM     14  C   UNL A   1      32.042  21.958  24.752  1.00  0.00     0.041 A 
ATOM     15  C   UNL A   1      31.783  21.771  23.392  1.00  0.00     0.027 A 
ATOM     16  C   UNL A   1      32.378  20.870  25.547  1.00  0.00     0.027 A 
ATOM     17  C   UNL A   1      31.934  20.509  22.814  1.00  0.00     0.016 A 
ATOM     18  C   UNL A   1      32.512  19.607  24.973  1.00  0.00     0.016 A 
ATOM     19  C   UNL A   1      32.310  19.415  23.600  1.00  0.00     0.040 A 
BRANCH  19  20
ATOM     20  C   UNL A   1      32.696  18.147  22.912  1.00  0.00     0.254 C 
ATOM     21  O   UNL A   1      32.840  18.149  21.691  1.00  0.00    -0.269 OA
ATOM     22  N   UNL A   1      33.087  17.081  23.697  1.00  0.00    -0.334 N 
ATOM     23  C   UNL A   1      32.248  16.410  24.689  1.00  0.00     0.148 C 
ATOM     24  C   UNL A   1      34.324  16.387  23.378  1.00  0.00     0.148 C 
ATOM     25  C   UNL A   1      33.068  16.032  25.932  1.00  0.00     0.181 C 
ATOM     26  C   UNL A   1      35.085  16.143  24.683  1.00  0.00     0.181 C 
ATOM     27  O   UNL A   1      34.288  15.355  25.589  1.00  0.00    -0.378 OA
ENDBRANCH  19  20
ENDBRANCH  12  14
ENDBRANCH   9  10
ENDBRANCH   8   9
ENDBRANCH   6   8
ENDBRANCH   5   6
ENDBRANCH   4   5
ENDBRANCH   3   4
ENDBRANCH   2   3
ENDBRANCH   1   2
BRANCH   1  28
ATOM     28  C   UNL A   1      36.177  21.974  24.439  1.00  0.00     0.188 C 
BRANCH  28  29
ATOM     29  O   UNL A   1      37.552  21.634  24.293  1.00  0.00    -0.376 OA
BRANCH  29  30
ATOM     30  C   UNL A   1      37.951  20.421  24.956  1.00  0.00     0.202 C 
BRANCH  30  31
ATOM     31  C   UNL A   1      39.292  20.459  25.729  1.00  0.00     0.261 C 
BRANCH  31  32
ATOM     32  O   UNL A   1      40.086  19.251  25.672  1.00  0.00    -0.460 OA
BRANCH  32  33
ATOM     33  C   UNL A   1      41.383  19.325  26.052  1.00  0.00     0.338 C 
ATOM     34  O   UNL A   1      42.263  18.528  25.777  1.00  0.00    -0.246 OA
BRANCH  33  35
ATOM     35  C   UNL A   1      41.638  20.687  26.604  1.00  0.00     0.060 A 
ATOM     36  C   UNL A   1      41.955  21.714  25.702  1.00  0.00     0.016 A 
ATOM     37  C   UNL A   1      41.485  20.984  27.962  1.00  0.00     0.016 A 
ATOM     38  C   UNL A   1      42.154  23.023  26.155  1.00  0.00     0.010 A 
ATOM     39  C   UNL A   1      41.703  22.292  28.418  1.00  0.00     0.010 A 
ATOM     40  C   UNL A   1      42.069  23.314  27.521  1.00  0.00    -0.014 A 
BRANCH  40  41
ATOM     41  C   UNL A   1      42.572  24.614  28.038  1.00  0.00     0.031 A 
ATOM     42  C   UNL A   1      41.569  25.709  28.295  1.00  0.00     0.074 A 
ATOM     43  C   UNL A   1      43.876  24.836  28.294  1.00  0.00     0.049 A 
ATOM     44  N   UNL A   1      41.764  26.940  28.697  1.00  0.00    -0.248 NA
ATOM     45  C   UNL A   1      40.156  25.366  28.065  1.00  0.00     0.031 C 
ATOM     46  C   UNL A   1      44.954  23.861  28.144  1.00  0.00     0.029 A 
ATOM     47  N   UNL A   1      44.512  25.974  28.733  1.00  0.00    -0.354 N 
ATOM     48  C   UNL A   1      40.502  27.520  28.749  1.00  0.00     0.074 A 
ATOM     49  C   UNL A   1      39.553  26.516  28.321  1.00  0.00     0.031 C 
ATOM     50  C   UNL A   1      46.120  24.446  28.474  1.00  0.00     0.029 A 
ATOM     51  C   UNL A   1      45.877  25.846  28.825  1.00  0.00     0.049 A 
ATOM     52  H   UNL A   1      44.034  26.804  28.961  1.00  0.00     0.167 HD
ATOM     53  C   UNL A   1      40.158  28.776  29.119  1.00  0.00     0.031 A 
ATOM     54  C   UNL A   1      46.824  26.757  29.131  1.00  0.00     0.031 A 
ATOM     55  C   UNL A   1      41.090  29.784  29.542  1.00  0.00     0.049 A 
ATOM     56  C   UNL A   1      46.420  28.176  29.459  1.00  0.00     0.074 A 
ATOM     57  C   UNL A   1      40.825  31.076  29.965  1.00  0.00     0.029 A 
ATOM     58  N   UNL A   1      42.465  29.622  29.583  1.00  0.00    -0.354 N 
ATOM     59  N   UNL A   1      45.221  28.698  29.546  1.00  0.00    -0.248 NA
ATOM     60  C   UNL A   1      47.508  29.129  29.735  1.00  0.00     0.031 C 
ATOM     61  C   UNL A   1      42.045  31.717  30.200  1.00  0.00     0.029 A 
ATOM     62  C   UNL A   1      43.065  30.802  29.988  1.00  0.00     0.049 A 
ATOM     63  H   UNL A   1      42.943  28.792  29.358  1.00  0.00     0.167 HD
ATOM     64  C   UNL A   1      45.410  30.025  29.920  1.00  0.00     0.074 A 
ATOM     65  C   UNL A   1      46.836  30.226  30.056  1.00  0.00     0.031 C 
ATOM     66  C   UNL A   1      44.483  30.992  30.133  1.00  0.00     0.031 A 
BRANCH  53  67
ATOM     67  C   UNL A   1      38.705  29.147  29.039  1.00  0.00    -0.014 A 
ATOM     68  C   UNL A   1      37.850  29.014  30.144  1.00  0.00     0.009 A 
ATOM     69  C   UNL A   1      38.195  29.683  27.846  1.00  0.00     0.009 A 
ATOM     70  C   UNL A   1      36.508  29.384  30.046  1.00  0.00     0.001 A 
ATOM     71  C   UNL A   1      36.861  30.079  27.759  1.00  0.00     0.001 A 
ATOM     72  C   UNL A   1      36.016  29.921  28.856  1.00  0.00     0.000 A 
ENDBRANCH  53  67
BRANCH  54  73
ATOM     73  C   UNL A   1      48.267  26.388  29.109  1.00  0.00    -0.014 A 
ATOM     74  C   UNL A   1      48.942  26.051  30.294  1.00  0.00     0.009 A 
ATOM     75  C   UNL A   1      48.995  26.440  27.910  1.00  0.00     0.009 A 
ATOM     76  C   UNL A   1      50.317  25.808  30.283  1.00  0.00     0.001 A 
ATOM     77  C   UNL A   1      50.364  26.164  27.896  1.00  0.00     0.001 A 
ATOM     78  C   UNL A   1      51.027  25.861  29.084  1.00  0.00     0.000 A 
ENDBRANCH  54  73
BRANCH  66  79
ATOM     79  C   UNL A   1      44.969  32.342  30.586  1.00  0.00    -0.014 A 
ATOM     80  C   UNL A   1      45.223  32.615  31.939  1.00  0.00     0.009 A 
ATOM     81  C   UNL A   1      45.229  33.339  29.632  1.00  0.00     0.009 A 
ATOM     82  C   UNL A   1      45.699  33.869  32.329  1.00  0.00     0.001 A 
ATOM     83  C   UNL A   1      45.733  34.581  30.022  1.00  0.00     0.001 A 
ATOM     84  C   UNL A   1      45.958  34.849  31.371  1.00  0.00     0.000 A 
ENDBRANCH  66  79
ENDBRANCH  40  41
ENDBRANCH  33  35
ENDBRANCH  32  33
ENDBRANCH  31  32
ENDBRANCH  30  31
ENDBRANCH  29  30
ENDBRANCH  28  29
ENDBRANCH   1  28
TORSDOF 21
ENDMDL
MODEL 3
REMARK VINA RESULT:      -9.6      3.263      5.170
REMARK SMILES O=C(CCC(=O)OCCOCCOCCOC(=O)c1ccc(-c2c3nc(c(-c4ccccc4)c4ccc([nH]4)c(-c4ccccc4)c4nc(c(-c5ccccc5)c5ccc2[nH]5)C=C4)C=C3)cc1)Nc1ccc(C(=O)N2CCOCC2)cc1
REMARK SMILES IDX 11 1 10 2 9 3 8 4 7 5 5 6 6 7 4 8 3 9 2 10 1 11 67 12 68 14
REMARK SMILES IDX 69 15 81 16 70 17 80 18 71 19 72 20 73 21 74 22 75 23 79 24
REMARK SMILES IDX 76 25 78 26 77 27 12 28 13 29 14 30 15 31 16 32 17 33 18 34
REMARK SMILES IDX 19 35 20 36 66 37 21 38 65 39 22 40 23 41 24 42 59 43 25 44
REMARK SMILES IDX 64 45 58 46 60 47 26 48 63 49 57 50 56 51 27 53 49 54 34 55
REMARK SMILES IDX 48 56 35 57 38 58 47 59 61 60 36 61 37 62 46 64 62 65 39 66
REMARK SMILES IDX 28 67 29 68 33 69 30 70 32 71 31 72 50 73 51 74 55 75 52 76
REMARK SMILES IDX 54 77 53 78 40 79 41 80 45 81 42 82 44 83 43 84
REMARK H PARENT 67 13 60 52 38 63
REMARK Flexibility Score: inf
ROOT
ATOM      1  C   UNL A   1      35.025  21.706  24.301  1.00  0.00     0.188 C 
ENDROOT
BRANCH   1   2
ATOM      2  O   UNL A   1      34.101  20.764  24.834  1.00  0.00    -0.376 OA
BRANCH   2   3
ATOM      3  C   UNL A   1      33.398  21.160  26.014  1.00  0.00     0.202 C 
BRANCH   3   4
ATOM      4  C   UNL A   1      33.382  22.671  26.284  1.00  0.00     0.261 C 
BRANCH   4   5
ATOM      5  O   UNL A   1      32.131  23.300  25.909  1.00  0.00    -0.463 OA
BRANCH   5   6
ATOM      6  C   UNL A   1      31.979  24.598  26.288  1.00  0.00     0.306 C 
ATOM      7  O   UNL A   1      30.974  25.044  26.830  1.00  0.00    -0.252 OA
BRANCH   6   8
ATOM      8  C   UNL A   1      33.198  25.472  26.049  1.00  0.00     0.132 C 
BRANCH   8   9
ATOM      9  C   UNL A   1      33.309  26.328  24.793  1.00  0.00     0.112 C 
BRANCH   9  10
ATOM     10  C   UNL A   1      33.647  27.780  25.050  1.00  0.00     0.224 C 
ATOM     11  O   UNL A   1      33.863  28.553  24.122  1.00  0.00    -0.275 OA
ATOM     12  N   UNL A   1      33.682  28.087  26.392  1.00  0.00    -0.326 N 
ATOM     13  H   UNL A   1      33.538  27.342  27.019  1.00  0.00     0.169 HD
BRANCH  12  14
ATOM     14  C   UNL A   1      33.901  29.346  26.959  1.00  0.00     0.041 A 
ATOM     15  C   UNL A   1      35.200  29.654  27.370  1.00  0.00     0.027 A 
ATOM     16  C   UNL A   1      32.889  30.285  27.112  1.00  0.00     0.027 A 
ATOM     17  C   UNL A   1      35.501  30.924  27.864  1.00  0.00     0.016 A 
ATOM     18  C   UNL A   1      33.185  31.547  27.622  1.00  0.00     0.016 A 
ATOM     19  C   UNL A   1      34.494  31.888  27.986  1.00  0.00     0.040 A 
BRANCH  19  20
ATOM     20  C   UNL A   1      34.893  33.296  28.284  1.00  0.00     0.254 C 
ATOM     21  O   UNL A   1      35.174  34.048  27.352  1.00  0.00    -0.269 OA
ATOM     22  N   UNL A   1      34.717  33.757  29.573  1.00  0.00    -0.334 N 
ATOM     23  C   UNL A   1      35.371  33.210  30.761  1.00  0.00     0.148 C 
ATOM     24  C   UNL A   1      34.037  35.025  29.783  1.00  0.00     0.148 C 
ATOM     25  C   UNL A   1      34.404  33.189  31.956  1.00  0.00     0.181 C 
ATOM     26  C   UNL A   1      33.048  34.852  30.937  1.00  0.00     0.181 C 
ATOM     27  O   UNL A   1      33.740  34.451  32.135  1.00  0.00    -0.378 OA
ENDBRANCH  19  20
ENDBRANCH  12  14
ENDBRANCH   9  10
ENDBRANCH   8   9
ENDBRANCH   6   8
ENDBRANCH   5   6
ENDBRANCH   4   5
ENDBRANCH   3   4
ENDBRANCH   2   3
ENDBRANCH   1   2
BRANCH   1  28
ATOM     28  C   UNL A   1      36.493  21.428  24.617  1.00  0.00     0.188 C 
BRANCH  28  29
ATOM     29  O   UNL A   1      37.060  22.190  25.678  1.00  0.00    -0.376 OA
BRANCH  29  30
ATOM     30  C   UNL A   1      38.470  21.990  25.882  1.00  0.00     0.202 C 
BRANCH  30  31
ATOM     31  C   UNL A   1      39.013  20.561  25.636  1.00  0.00     0.261 C 
BRANCH  31  32
ATOM     32  O   UNL A   1      39.927  20.053  26.636  1.00  0.00    -0.460 OA
BRANCH  32  33
ATOM     33  C   UNL A   1      41.231  19.923  26.298  1.00  0.00     0.338 C 
ATOM     34  O   UNL A   1      41.733  18.986  25.701  1.00  0.00    -0.246 OA
BRANCH  33  35
ATOM     35  C   UNL A   1      41.906  21.237  26.500  1.00  0.00     0.060 A 
ATOM     36  C   UNL A   1      42.255  21.603  27.810  1.00  0.00     0.016 A 
ATOM     37  C   UNL A   1      42.277  22.061  25.432  1.00  0.00     0.016 A 
ATOM     38  C   UNL A   1      42.937  22.800  28.057  1.00  0.00     0.010 A 
ATOM     39  C   UNL A   1      42.943  23.268  25.681  1.00  0.00     0.010 A 
ATOM     40  C   UNL A   1      43.250  23.661  26.998  1.00  0.00    -0.014 A 
BRANCH  40  41
ATOM     41  C   UNL A   1      43.692  25.053  27.278  1.00  0.00     0.031 A 
ATOM     42  C   UNL A   1      45.125  25.413  26.980  1.00  0.00     0.074 A 
ATOM     43  C   UNL A   1      42.860  25.992  27.767  1.00  0.00     0.049 A 
ATOM     44  N   UNL A   1      45.760  26.540  27.180  1.00  0.00    -0.248 NA
ATOM     45  C   UNL A   1      45.952  24.355  26.375  1.00  0.00     0.031 C 
ATOM     46  C   UNL A   1      41.440  25.808  28.057  1.00  0.00     0.029 A 
ATOM     47  N   UNL A   1      43.107  27.300  28.115  1.00  0.00    -0.354 N 
ATOM     48  C   UNL A   1      47.061  26.319  26.745  1.00  0.00     0.074 A 
ATOM     49  C   UNL A   1      47.130  24.950  26.286  1.00  0.00     0.031 C 
ATOM     50  C   UNL A   1      40.943  26.958  28.549  1.00  0.00     0.029 A 
ATOM     51  C   UNL A   1      42.016  27.948  28.643  1.00  0.00     0.049 A 
ATOM     52  H   UNL A   1      43.983  27.732  27.997  1.00  0.00     0.167 HD
ATOM     53  C   UNL A   1      48.108  27.177  26.724  1.00  0.00     0.031 A 
ATOM     54  C   UNL A   1      41.903  29.187  29.166  1.00  0.00     0.031 A 
ATOM     55  C   UNL A   1      48.054  28.539  27.180  1.00  0.00     0.049 A 
ATOM     56  C   UNL A   1      43.108  30.096  29.209  1.00  0.00     0.074 A 
ATOM     57  C   UNL A   1      49.061  29.489  27.168  1.00  0.00     0.029 A 
ATOM     58  N   UNL A   1      46.941  29.141  27.742  1.00  0.00    -0.354 N 
ATOM     59  N   UNL A   1      44.320  29.890  28.754  1.00  0.00    -0.248 NA
ATOM     60  C   UNL A   1      42.923  31.414  29.838  1.00  0.00     0.031 C 
ATOM     61  C   UNL A   1      48.576  30.647  27.782  1.00  0.00     0.029 A 
ATOM     62  C   UNL A   1      47.246  30.439  28.115  1.00  0.00     0.049 A 
ATOM     63  H   UNL A   1      46.063  28.710  27.858  1.00  0.00     0.167 HD
ATOM     64  C   UNL A   1      45.027  31.061  29.009  1.00  0.00     0.074 A 
ATOM     65  C   UNL A   1      44.108  31.978  29.646  1.00  0.00     0.031 C 
ATOM     66  C   UNL A   1      46.324  31.350  28.737  1.00  0.00     0.031 A 
BRANCH  53  67
ATOM     67  C   UNL A   1      49.425  26.650  26.230  1.00  0.00    -0.014 A 
ATOM     68  C   UNL A   1      49.902  26.952  24.946  1.00  0.00     0.009 A 
ATOM     69  C   UNL A   1      50.221  25.874  27.087  1.00  0.00     0.009 A 
ATOM     70  C   UNL A   1      51.138  26.463  24.520  1.00  0.00     0.001 A 
ATOM     71  C   UNL A   1      51.468  25.410  26.670  1.00  0.00     0.001 A 
ATOM     72  C   UNL A   1      51.922  25.698  25.384  1.00  0.00     0.000 A 
ENDBRANCH  53  67
BRANCH  54  73
ATOM     73  C   UNL A   1      40.608  29.652  29.738  1.00  0.00    -0.014 A 
ATOM     74  C   UNL A   1      39.667  30.323  28.940  1.00  0.00     0.009 A 
ATOM     75  C   UNL A   1      40.337  29.489  31.106  1.00  0.00     0.009 A 
ATOM     76  C   UNL A   1      38.503  30.849  29.504  1.00  0.00     0.001 A 
ATOM     77  C   UNL A   1      39.156  29.987  31.662  1.00  0.00     0.001 A 
ATOM     78  C   UNL A   1      38.246  30.678  30.864  1.00  0.00     0.000 A 
ENDBRANCH  54  73
BRANCH  66  79
ATOM     79  C   UNL A   1      46.821  32.729  29.077  1.00  0.00    -0.014 A 
ATOM     80  C   UNL A   1      46.669  33.804  28.188  1.00  0.00     0.009 A 
ATOM     81  C   UNL A   1      47.401  32.965  30.334  1.00  0.00     0.009 A 
ATOM     82  C   UNL A   1      47.117  35.080  28.540  1.00  0.00     0.001 A 
ATOM     83  C   UNL A   1      47.818  34.247  30.695  1.00  0.00     0.001 A 
ATOM     84  C   UNL A   1      47.685  35.302  29.794  1.00  0.00     0.000 A 
ENDBRANCH  66  79
ENDBRANCH  40  41
ENDBRANCH  33  35
ENDBRANCH  32  33
ENDBRANCH  31  32
ENDBRANCH  30  31
ENDBRANCH  29  30
ENDBRANCH  28  29
ENDBRANCH   1  28
TORSDOF 21
ENDMDL
