MODEL 1
REMARK VINA RESULT:      -8.3      0.000      0.000
REMARK SMILES COc1cc(/C=N/[NH+]=C2\NC(=O)[C@@H](CC(=O)OCCOCCOCCOC(=O)c3ccc(-c4c5nc(c(-c6ccccc6)c6ccc([nH]6)c(-c6ccccc6)c6nc(c(-c7ccccc7)c7ccc4[nH]7)C=C6)C=C5)cc3)S2)cc(I)c1OC
REMARK SMILES IDX 21 1 20 2 19 3 18 4 17 5 15 6 16 7 14 8 13 9 8 10 9 11 10 13
REMARK SMILES IDX 77 14 11 15 12 17 7 18 6 19 5 20 3 21 4 22 81 23 79 24 78 25
REMARK SMILES IDX 80 26 2 27 1 28 82 29 83 30 22 31 23 32 24 33 25 34 26 35
REMARK SMILES IDX 27 36 28 37 29 38 30 39 76 40 31 41 75 42 32 43 33 44 34 45
REMARK SMILES IDX 69 46 35 47 74 48 68 49 70 50 36 51 73 52 67 53 66 54 37 56
REMARK SMILES IDX 59 57 44 58 58 59 45 60 48 61 57 62 71 63 46 64 47 65 56 67
REMARK SMILES IDX 72 68 49 69 38 70 39 71 43 72 40 73 42 74 41 75 60 76 61 77
REMARK SMILES IDX 65 78 62 79 64 80 63 81 50 82 51 83 55 84 52 85 54 86 53 87
REMARK H PARENT 8 12 10 16 70 55 48 66
REMARK Flexibility Score: inf
ROOT
ATOM      1  C   UNL A   1      44.595  18.575  25.754  1.00  0.00     0.188 C 
ENDROOT
BRANCH   1   2
ATOM      2  O   UNL A   1      45.519  18.810  24.695  1.00  0.00    -0.376 OA
BRANCH   2   3
ATOM      3  C   UNL A   1      46.395  19.919  24.805  1.00  0.00     0.202 C 
BRANCH   3   4
ATOM      4  C   UNL A   1      45.720  21.293  24.864  1.00  0.00     0.261 C 
BRANCH   4   5
ATOM      5  O   UNL A   1      46.622  22.410  25.053  1.00  0.00    -0.463 OA
BRANCH   5   6
ATOM      6  C   UNL A   1      46.035  23.632  25.099  1.00  0.00     0.307 C 
ATOM      7  O   UNL A   1      45.246  24.052  24.258  1.00  0.00    -0.252 OA
BRANCH   6   8
ATOM      8  C   UNL A   1      46.490  24.531  26.232  1.00  0.00     0.150 C 
BRANCH   8   9
ATOM      9  C   UNL A   1      45.433  25.201  27.103  1.00  0.00     0.184 C 
ATOM     10  N   UNL A   1      43.874  23.197  30.055  1.00  0.00    -0.142 N 
ATOM     11  C   UNL A   1      44.507  23.889  29.168  1.00  0.00     0.337 C 
ATOM     12  H   UNL A   1      43.045  22.704  29.859  1.00  0.00     0.343 HD
ATOM     13  N   UNL A   1      45.589  24.648  29.435  1.00  0.00    -0.202 N 
ATOM     14  S   UNL A   1      44.050  24.035  27.501  1.00  0.00    -0.020 SA
ATOM     15  C   UNL A   1      46.047  25.472  28.462  1.00  0.00     0.322 C 
ATOM     16  H   UNL A   1      46.032  24.606  30.312  1.00  0.00     0.316 HD
ATOM     17  O   UNL A   1      46.901  26.321  28.670  1.00  0.00    -0.246 OA
BRANCH  10  18
ATOM     18  N   UNL A   1      44.480  23.212  31.331  1.00  0.00    -0.093 NA
ATOM     19  C   UNL A   1      43.637  23.481  32.282  1.00  0.00     0.166 C 
BRANCH  19  20
ATOM     20  C   UNL A   1      44.055  23.514  33.697  1.00  0.00     0.002 A 
ATOM     21  C   UNL A   1      45.336  22.643  35.542  1.00  0.00     0.162 A 
ATOM     22  C   UNL A   1      44.956  22.579  34.197  1.00  0.00     0.060 A 
ATOM     23  C   UNL A   1      44.837  23.645  36.408  1.00  0.00     0.174 A 
ATOM     24  C   UNL A   1      43.941  24.590  35.880  1.00  0.00     0.060 A 
ATOM     25  C   UNL A   1      43.535  24.504  34.533  1.00  0.00     0.028 A 
ATOM     26  I   UNL A   1      43.200  26.283  36.890  1.00  0.00    -0.040 I 
BRANCH  21  27
ATOM     27  O   UNL A   1      46.132  21.660  36.088  1.00  0.00    -0.493 OA
ATOM     28  C   UNL A   1      45.948  20.387  35.474  1.00  0.00     0.278 C 
ENDBRANCH  21  27
BRANCH  23  29
ATOM     29  O   UNL A   1      45.423  23.656  37.648  1.00  0.00    -0.492 OA
ATOM     30  C   UNL A   1      46.648  24.349  37.825  1.00  0.00     0.278 C 
ENDBRANCH  23  29
ENDBRANCH  19  20
ENDBRANCH  10  18
ENDBRANCH   8   9
ENDBRANCH   6   8
ENDBRANCH   5   6
ENDBRANCH   4   5
ENDBRANCH   3   4
ENDBRANCH   2   3
ENDBRANCH   1   2
BRANCH   1  31
ATOM     31  C   UNL A   1      43.115  18.916  25.540  1.00  0.00     0.188 C 
BRANCH  31  32
ATOM     32  O   UNL A   1      42.757  20.163  26.132  1.00  0.00    -0.376 OA
BRANCH  32  33
ATOM     33  C   UNL A   1      41.862  20.009  27.231  1.00  0.00     0.202 C 
BRANCH  33  34
ATOM     34  C   UNL A   1      40.539  20.702  26.898  1.00  0.00     0.261 C 
BRANCH  34  35
ATOM     35  O   UNL A   1      40.605  22.142  26.962  1.00  0.00    -0.460 OA
BRANCH  35  36
ATOM     36  C   UNL A   1      39.507  22.813  26.564  1.00  0.00     0.338 C 
ATOM     37  O   UNL A   1      38.564  22.362  25.916  1.00  0.00    -0.246 OA
BRANCH  36  38
ATOM     38  C   UNL A   1      39.530  24.167  27.148  1.00  0.00     0.060 A 
ATOM     39  C   UNL A   1      40.242  25.172  26.485  1.00  0.00     0.016 A 
ATOM     40  C   UNL A   1      38.897  24.443  28.361  1.00  0.00     0.016 A 
ATOM     41  C   UNL A   1      40.333  26.454  27.028  1.00  0.00     0.010 A 
ATOM     42  C   UNL A   1      39.014  25.719  28.923  1.00  0.00     0.010 A 
ATOM     43  C   UNL A   1      39.752  26.725  28.272  1.00  0.00    -0.014 A 
BRANCH  43  44
ATOM     44  C   UNL A   1      40.061  27.993  28.977  1.00  0.00     0.031 A 
ATOM     45  C   UNL A   1      41.358  28.096  29.731  1.00  0.00     0.074 A 
ATOM     46  C   UNL A   1      39.220  29.041  28.944  1.00  0.00     0.049 A 
ATOM     47  N   UNL A   1      41.793  29.054  30.510  1.00  0.00    -0.248 NA
ATOM     48  C   UNL A   1      42.288  26.965  29.586  1.00  0.00     0.031 C 
ATOM     49  C   UNL A   1      37.969  29.105  28.192  1.00  0.00     0.029 A 
ATOM     50  N   UNL A   1      39.299  30.260  29.574  1.00  0.00    -0.354 N 
ATOM     51  C   UNL A   1      43.036  28.631  30.964  1.00  0.00     0.074 A 
ATOM     52  C   UNL A   1      43.281  27.328  30.384  1.00  0.00     0.031 C 
ATOM     53  C   UNL A   1      37.389  30.299  28.415  1.00  0.00     0.029 A 
ATOM     54  C   UNL A   1      38.205  31.062  29.357  1.00  0.00     0.049 A 
ATOM     55  H   UNL A   1      40.066  30.532  30.128  1.00  0.00     0.167 HD
ATOM     56  C   UNL A   1      43.897  29.267  31.793  1.00  0.00     0.031 A 
ATOM     57  C   UNL A   1      37.884  32.259  29.886  1.00  0.00     0.031 A 
ATOM     58  C   UNL A   1      43.655  30.557  32.379  1.00  0.00     0.049 A 
ATOM     59  C   UNL A   1      38.814  32.907  30.879  1.00  0.00     0.074 A 
ATOM     60  C   UNL A   1      44.466  31.281  33.235  1.00  0.00     0.029 A 
ATOM     61  N   UNL A   1      42.513  31.315  32.171  1.00  0.00    -0.354 N 
ATOM     62  N   UNL A   1      39.980  32.493  31.314  1.00  0.00    -0.248 NA
ATOM     63  C   UNL A   1      38.379  34.188  31.456  1.00  0.00     0.031 C 
ATOM     64  C   UNL A   1      43.793  32.458  33.583  1.00  0.00     0.029 A 
ATOM     65  C   UNL A   1      42.588  32.489  32.900  1.00  0.00     0.049 A 
ATOM     66  H   UNL A   1      41.762  31.056  31.590  1.00  0.00     0.167 HD
ATOM     67  C   UNL A   1      40.427  33.472  32.194  1.00  0.00     0.074 A 
ATOM     68  C   UNL A   1      39.414  34.507  32.222  1.00  0.00     0.031 C 
ATOM     69  C   UNL A   1      41.574  33.511  32.915  1.00  0.00     0.031 A 
BRANCH  56  70
ATOM     70  C   UNL A   1      45.163  28.545  32.153  1.00  0.00    -0.014 A 
ATOM     71  C   UNL A   1      45.215  27.651  33.233  1.00  0.00     0.009 A 
ATOM     72  C   UNL A   1      46.320  28.754  31.384  1.00  0.00     0.009 A 
ATOM     73  C   UNL A   1      46.410  27.004  33.556  1.00  0.00     0.001 A 
ATOM     74  C   UNL A   1      47.506  28.086  31.694  1.00  0.00     0.001 A 
ATOM     75  C   UNL A   1      47.553  27.219  32.784  1.00  0.00     0.000 A 
ENDBRANCH  56  70
BRANCH  57  76
ATOM     76  C   UNL A   1      36.602  32.916  29.525  1.00  0.00    -0.014 A 
ATOM     77  C   UNL A   1      35.478  32.802  30.359  1.00  0.00     0.009 A 
ATOM     78  C   UNL A   1      36.485  33.637  28.326  1.00  0.00     0.009 A 
ATOM     79  C   UNL A   1      34.260  33.377  29.988  1.00  0.00     0.001 A 
ATOM     80  C   UNL A   1      35.274  34.235  27.972  1.00  0.00     0.001 A 
ATOM     81  C   UNL A   1      34.160  34.097  28.798  1.00  0.00     0.000 A 
ENDBRANCH  57  76
BRANCH  69  82
ATOM     82  C   UNL A   1      41.817  34.729  33.763  1.00  0.00    -0.014 A 
ATOM     83  C   UNL A   1      41.329  34.813  35.075  1.00  0.00     0.009 A 
ATOM     84  C   UNL A   1      42.586  35.786  33.253  1.00  0.00     0.009 A 
ATOM     85  C   UNL A   1      41.582  35.948  35.850  1.00  0.00     0.001 A 
ATOM     86  C   UNL A   1      42.860  36.907  34.037  1.00  0.00     0.001 A 
ATOM     87  C   UNL A   1      42.350  36.991  35.332  1.00  0.00     0.000 A 
ENDBRANCH  69  82
ENDBRANCH  43  44
ENDBRANCH  36  38
ENDBRANCH  35  36
ENDBRANCH  34  35
ENDBRANCH  33  34
ENDBRANCH  32  33
ENDBRANCH  31  32
ENDBRANCH   1  31
TORSDOF 22
ENDMDL
MODEL 2
REMARK VINA RESULT:      -8.1      3.323      4.847
REMARK SMILES COc1cc(/C=N/[NH+]=C2\NC(=O)[C@@H](CC(=O)OCCOCCOCCOC(=O)c3ccc(-c4c5nc(c(-c6ccccc6)c6ccc([nH]6)c(-c6ccccc6)c6nc(c(-c7ccccc7)c7ccc4[nH]7)C=C6)C=C5)cc3)S2)cc(I)c1OC
REMARK SMILES IDX 21 1 20 2 19 3 18 4 17 5 15 6 16 7 14 8 13 9 8 10 9 11 10 13
REMARK SMILES IDX 77 14 11 15 12 17 7 18 6 19 5 20 3 21 4 22 81 23 79 24 78 25
REMARK SMILES IDX 80 26 2 27 1 28 82 29 83 30 22 31 23 32 24 33 25 34 26 35
REMARK SMILES IDX 27 36 28 37 29 38 30 39 76 40 31 41 75 42 32 43 33 44 34 45
REMARK SMILES IDX 69 46 35 47 74 48 68 49 70 50 36 51 73 52 67 53 66 54 37 56
REMARK SMILES IDX 59 57 44 58 58 59 45 60 48 61 57 62 71 63 46 64 47 65 56 67
REMARK SMILES IDX 72 68 49 69 38 70 39 71 43 72 40 73 42 74 41 75 60 76 61 77
REMARK SMILES IDX 65 78 62 79 64 80 63 81 50 82 51 83 55 84 52 85 54 86 53 87
REMARK H PARENT 8 12 10 16 70 55 48 66
REMARK Flexibility Score: inf
ROOT
ATOM      1  C   UNL A   1      43.846  18.442  25.961  1.00  0.00     0.188 C 
ENDROOT
BRANCH   1   2
ATOM      2  O   UNL A   1      44.331  18.291  24.629  1.00  0.00    -0.376 OA
BRANCH   2   3
ATOM      3  C   UNL A   1      45.308  19.208  24.165  1.00  0.00     0.202 C 
BRANCH   3   4
ATOM      4  C   UNL A   1      44.812  20.636  23.918  1.00  0.00     0.261 C 
BRANCH   4   5
ATOM      5  O   UNL A   1      45.342  21.632  24.826  1.00  0.00    -0.463 OA
BRANCH   5   6
ATOM      6  C   UNL A   1      45.098  22.921  24.482  1.00  0.00     0.307 C 
ATOM      7  O   UNL A   1      45.908  23.651  23.919  1.00  0.00    -0.252 OA
BRANCH   6   8
ATOM      8  C   UNL A   1      43.760  23.474  24.931  1.00  0.00     0.150 C 
BRANCH   8   9
ATOM      9  C   UNL A   1      43.720  24.402  26.142  1.00  0.00     0.184 C 
ATOM     10  N   UNL A   1      46.878  24.690  28.401  1.00  0.00    -0.142 N 
ATOM     11  C   UNL A   1      45.899  24.693  27.560  1.00  0.00     0.337 C 
ATOM     12  H   UNL A   1      46.918  24.085  29.177  1.00  0.00     0.343 HD
ATOM     13  N   UNL A   1      45.776  25.574  26.547  1.00  0.00    -0.202 N 
ATOM     14  S   UNL A   1      44.534  23.624  27.613  1.00  0.00    -0.020 SA
ATOM     15  C   UNL A   1      44.614  25.590  25.851  1.00  0.00     0.322 C 
ATOM     16  H   UNL A   1      46.510  26.189  26.321  1.00  0.00     0.316 HD
ATOM     17  O   UNL A   1      44.345  26.468  25.045  1.00  0.00    -0.246 OA
BRANCH  10  18
ATOM     18  N   UNL A   1      47.886  25.637  28.108  1.00  0.00    -0.093 NA
ATOM     19  C   UNL A   1      49.073  25.113  28.086  1.00  0.00     0.166 C 
BRANCH  19  20
ATOM     20  C   UNL A   1      50.267  25.919  27.766  1.00  0.00     0.002 A 
ATOM     21  C   UNL A   1      51.735  26.982  26.178  1.00  0.00     0.162 A 
ATOM     22  C   UNL A   1      50.599  26.208  26.447  1.00  0.00     0.060 A 
ATOM     23  C   UNL A   1      52.550  27.489  27.217  1.00  0.00     0.174 A 
ATOM     24  C   UNL A   1      52.188  27.200  28.543  1.00  0.00     0.060 A 
ATOM     25  C   UNL A   1      51.063  26.394  28.810  1.00  0.00     0.028 A 
ATOM     26  I   UNL A   1      53.109  27.980  30.269  1.00  0.00    -0.040 I 
BRANCH  21  27
ATOM     27  O   UNL A   1      52.150  27.181  24.879  1.00  0.00    -0.493 OA
ATOM     28  C   UNL A   1      51.359  28.138  24.180  1.00  0.00     0.278 C 
ENDBRANCH  21  27
BRANCH  23  29
ATOM     29  O   UNL A   1      53.530  28.348  26.790  1.00  0.00    -0.492 OA
ATOM     30  C   UNL A   1      54.874  27.894  26.751  1.00  0.00     0.278 C 
ENDBRANCH  23  29
ENDBRANCH  19  20
ENDBRANCH  10  18
ENDBRANCH   8   9
ENDBRANCH   6   8
ENDBRANCH   5   6
ENDBRANCH   4   5
ENDBRANCH   3   4
ENDBRANCH   2   3
ENDBRANCH   1   2
BRANCH   1  31
ATOM     31  C   UNL A   1      42.358  18.746  26.180  1.00  0.00     0.188 C 
BRANCH  31  32
ATOM     32  O   UNL A   1      41.989  20.029  25.680  1.00  0.00    -0.376 OA
BRANCH  32  33
ATOM     33  C   UNL A   1      41.667  20.949  26.721  1.00  0.00     0.202 C 
BRANCH  33  34
ATOM     34  C   UNL A   1      40.165  21.239  26.683  1.00  0.00     0.261 C 
BRANCH  34  35
ATOM     35  O   UNL A   1      39.798  22.277  25.750  1.00  0.00    -0.460 OA
BRANCH  35  36
ATOM     36  C   UNL A   1      38.814  23.113  26.136  1.00  0.00     0.338 C 
ATOM     37  O   UNL A   1      37.604  22.903  26.076  1.00  0.00    -0.246 OA
BRANCH  36  38
ATOM     38  C   UNL A   1      39.411  24.293  26.788  1.00  0.00     0.060 A 
ATOM     39  C   UNL A   1      39.163  24.506  28.148  1.00  0.00     0.016 A 
ATOM     40  C   UNL A   1      40.171  25.213  26.063  1.00  0.00     0.016 A 
ATOM     41  C   UNL A   1      39.665  25.637  28.792  1.00  0.00     0.010 A 
ATOM     42  C   UNL A   1      40.649  26.364  26.700  1.00  0.00     0.010 A 
ATOM     43  C   UNL A   1      40.379  26.594  28.062  1.00  0.00    -0.014 A 
BRANCH  43  44
ATOM     44  C   UNL A   1      40.688  27.913  28.666  1.00  0.00     0.031 A 
ATOM     45  C   UNL A   1      42.076  28.155  29.190  1.00  0.00     0.074 A 
ATOM     46  C   UNL A   1      39.764  28.888  28.740  1.00  0.00     0.049 A 
ATOM     47  N   UNL A   1      42.548  29.180  29.854  1.00  0.00    -0.248 NA
ATOM     48  C   UNL A   1      43.066  27.098  28.927  1.00  0.00     0.031 C 
ATOM     49  C   UNL A   1      38.407  28.817  28.206  1.00  0.00     0.029 A 
ATOM     50  N   UNL A   1      39.839  30.137  29.310  1.00  0.00    -0.354 N 
ATOM     51  C   UNL A   1      43.881  28.879  30.108  1.00  0.00     0.074 A 
ATOM     52  C   UNL A   1      44.140  27.575  29.536  1.00  0.00     0.031 C 
ATOM     53  C   UNL A   1      37.770  29.969  28.484  1.00  0.00     0.029 A 
ATOM     54  C   UNL A   1      38.659  30.837  29.253  1.00  0.00     0.049 A 
ATOM     55  H   UNL A   1      40.660  30.495  29.719  1.00  0.00     0.167 HD
ATOM     56  C   UNL A   1      44.806  29.619  30.762  1.00  0.00     0.031 A 
ATOM     57  C   UNL A   1      38.326  32.027  29.790  1.00  0.00     0.031 A 
ATOM     58  C   UNL A   1      44.552  30.911  31.339  1.00  0.00     0.049 A 
ATOM     59  C   UNL A   1      39.346  32.793  30.593  1.00  0.00     0.074 A 
ATOM     60  C   UNL A   1      45.426  31.737  32.024  1.00  0.00     0.029 A 
ATOM     61  N   UNL A   1      43.330  31.565  31.300  1.00  0.00    -0.354 N 
ATOM     62  N   UNL A   1      40.598  32.494  30.841  1.00  0.00    -0.248 NA
ATOM     63  C   UNL A   1      38.900  34.059  31.194  1.00  0.00     0.031 C 
ATOM     64  C   UNL A   1      44.719  32.870  32.442  1.00  0.00     0.029 A 
ATOM     65  C   UNL A   1      43.421  32.773  31.969  1.00  0.00     0.049 A 
ATOM     66  H   UNL A   1      42.519  31.220  30.861  1.00  0.00     0.167 HD
ATOM     67  C   UNL A   1      41.096  33.545  31.603  1.00  0.00     0.074 A 
ATOM     68  C   UNL A   1      40.015  34.495  31.766  1.00  0.00     0.031 C 
ATOM     69  C   UNL A   1      42.338  33.710  32.120  1.00  0.00     0.031 A 
BRANCH  56  70
ATOM     70  C   UNL A   1      46.173  29.019  30.927  1.00  0.00    -0.014 A 
ATOM     71  C   UNL A   1      46.465  28.147  31.986  1.00  0.00     0.009 A 
ATOM     72  C   UNL A   1      47.179  29.323  29.996  1.00  0.00     0.009 A 
ATOM     73  C   UNL A   1      47.749  27.614  32.127  1.00  0.00     0.001 A 
ATOM     74  C   UNL A   1      48.453  28.769  30.125  1.00  0.00     0.001 A 
ATOM     75  C   UNL A   1      48.740  27.923  31.194  1.00  0.00     0.000 A 
ENDBRANCH  56  70
BRANCH  57  76
ATOM     76  C   UNL A   1      36.949  32.562  29.627  1.00  0.00    -0.014 A 
ATOM     77  C   UNL A   1      36.594  33.287  28.478  1.00  0.00     0.009 A 
ATOM     78  C   UNL A   1      35.990  32.377  30.634  1.00  0.00     0.009 A 
ATOM     79  C   UNL A   1      35.314  33.832  28.354  1.00  0.00     0.001 A 
ATOM     80  C   UNL A   1      34.703  32.899  30.494  1.00  0.00     0.001 A 
ATOM     81  C   UNL A   1      34.368  33.633  29.358  1.00  0.00     0.000 A 
ENDBRANCH  57  76
BRANCH  69  82
ATOM     82  C   UNL A   1      42.609  34.980  32.877  1.00  0.00    -0.014 A 
ATOM     83  C   UNL A   1      42.245  35.119  34.224  1.00  0.00     0.009 A 
ATOM     84  C   UNL A   1      43.281  36.035  32.241  1.00  0.00     0.009 A 
ATOM     85  C   UNL A   1      42.523  36.303  34.912  1.00  0.00     0.001 A 
ATOM     86  C   UNL A   1      43.581  37.207  32.937  1.00  0.00     0.001 A 
ATOM     87  C   UNL A   1      43.193  37.344  34.269  1.00  0.00     0.000 A 
ENDBRANCH  69  82
ENDBRANCH  43  44
ENDBRANCH  36  38
ENDBRANCH  35  36
ENDBRANCH  34  35
ENDBRANCH  33  34
ENDBRANCH  32  33
ENDBRANCH  31  32
ENDBRANCH   1  31
TORSDOF 22
ENDMDL
MODEL 3
REMARK VINA RESULT:      -6.8      7.173     12.265
REMARK SMILES COc1cc(/C=N/[NH+]=C2\NC(=O)[C@@H](CC(=O)OCCOCCOCCOC(=O)c3ccc(-c4c5nc(c(-c6ccccc6)c6ccc([nH]6)c(-c6ccccc6)c6nc(c(-c7ccccc7)c7ccc4[nH]7)C=C6)C=C5)cc3)S2)cc(I)c1OC
REMARK SMILES IDX 21 1 20 2 19 3 18 4 17 5 15 6 16 7 14 8 13 9 8 10 9 11 10 13
REMARK SMILES IDX 77 14 11 15 12 17 7 18 6 19 5 20 3 21 4 22 81 23 79 24 78 25
REMARK SMILES IDX 80 26 2 27 1 28 82 29 83 30 22 31 23 32 24 33 25 34 26 35
REMARK SMILES IDX 27 36 28 37 29 38 30 39 76 40 31 41 75 42 32 43 33 44 34 45
REMARK SMILES IDX 69 46 35 47 74 48 68 49 70 50 36 51 73 52 67 53 66 54 37 56
REMARK SMILES IDX 59 57 44 58 58 59 45 60 48 61 57 62 71 63 46 64 47 65 56 67
REMARK SMILES IDX 72 68 49 69 38 70 39 71 43 72 40 73 42 74 41 75 60 76 61 77
REMARK SMILES IDX 65 78 62 79 64 80 63 81 50 82 51 83 55 84 52 85 54 86 53 87
REMARK H PARENT 8 12 10 16 70 55 48 66
REMARK Flexibility Score: inf
ROOT
ATOM      1  C   UNL A   1      39.819  25.558  27.176  1.00  0.00     0.188 C 
ENDROOT
BRANCH   1   2
ATOM      2  O   UNL A   1      39.492  24.271  26.659  1.00  0.00    -0.376 OA
BRANCH   2   3
ATOM      3  C   UNL A   1      38.162  23.806  26.815  1.00  0.00     0.202 C 
BRANCH   3   4
ATOM      4  C   UNL A   1      37.411  23.499  25.515  1.00  0.00     0.261 C 
BRANCH   4   5
ATOM      5  O   UNL A   1      36.951  22.132  25.383  1.00  0.00    -0.463 OA
BRANCH   5   6
ATOM      6  C   UNL A   1      35.644  21.926  25.682  1.00  0.00     0.307 C 
ATOM      7  O   UNL A   1      35.149  22.116  26.789  1.00  0.00    -0.252 OA
BRANCH   6   8
ATOM      8  C   UNL A   1      34.806  21.332  24.566  1.00  0.00     0.150 C 
BRANCH   8   9
ATOM      9  C   UNL A   1      33.739  22.203  23.910  1.00  0.00     0.184 C 
ATOM     10  N   UNL A   1      32.243  25.187  25.915  1.00  0.00    -0.142 N 
ATOM     11  C   UNL A   1      32.855  24.289  25.218  1.00  0.00     0.337 C 
ATOM     12  H   UNL A   1      31.424  25.002  26.429  1.00  0.00     0.343 HD
ATOM     13  N   UNL A   1      33.922  24.539  24.432  1.00  0.00    -0.202 N 
ATOM     14  S   UNL A   1      32.385  22.623  25.102  1.00  0.00    -0.020 SA
ATOM     15  C   UNL A   1      34.356  23.554  23.610  1.00  0.00     0.322 C 
ATOM     16  H   UNL A   1      34.371  25.414  24.455  1.00  0.00     0.316 HD
ATOM     17  O   UNL A   1      35.191  23.748  22.740  1.00  0.00    -0.246 OA
BRANCH  10  18
ATOM     18  N   UNL A   1      32.856  26.459  25.871  1.00  0.00    -0.093 NA
ATOM     19  C   UNL A   1      32.571  27.188  26.906  1.00  0.00     0.166 C 
BRANCH  19  20
ATOM     20  C   UNL A   1      33.134  28.541  27.077  1.00  0.00     0.002 A 
ATOM     21  C   UNL A   1      34.988  30.018  27.512  1.00  0.00     0.162 A 
ATOM     22  C   UNL A   1      34.484  28.721  27.363  1.00  0.00     0.060 A 
ATOM     23  C   UNL A   1      34.161  31.157  27.366  1.00  0.00     0.174 A 
ATOM     24  C   UNL A   1      32.804  30.955  27.061  1.00  0.00     0.060 A 
ATOM     25  C   UNL A   1      32.293  29.647  26.944  1.00  0.00     0.028 A 
ATOM     26  I   UNL A   1      31.406  32.464  26.608  1.00  0.00    -0.040 I 
BRANCH  21  27
ATOM     27  O   UNL A   1      36.291  30.217  27.912  1.00  0.00    -0.493 OA
ATOM     28  C   UNL A   1      36.729  29.268  28.882  1.00  0.00     0.278 C 
ENDBRANCH  21  27
BRANCH  23  29
ATOM     29  O   UNL A   1      34.839  32.348  27.394  1.00  0.00    -0.492 OA
ATOM     30  C   UNL A   1      34.718  33.183  28.536  1.00  0.00     0.278 C 
ENDBRANCH  23  29
ENDBRANCH  19  20
ENDBRANCH  10  18
ENDBRANCH   8   9
ENDBRANCH   6   8
ENDBRANCH   5   6
ENDBRANCH   4   5
ENDBRANCH   3   4
ENDBRANCH   2   3
ENDBRANCH   1   2
BRANCH   1  31
ATOM     31  C   UNL A   1      40.802  26.444  26.398  1.00  0.00     0.188 C 
BRANCH  31  32
ATOM     32  O   UNL A   1      41.341  25.780  25.258  1.00  0.00    -0.376 OA
BRANCH  32  33
ATOM     33  C   UNL A   1      42.755  25.610  25.342  1.00  0.00     0.202 C 
BRANCH  33  34
ATOM     34  C   UNL A   1      43.061  24.154  25.700  1.00  0.00     0.261 C 
BRANCH  34  35
ATOM     35  O   UNL A   1      44.335  23.690  25.205  1.00  0.00    -0.460 OA
BRANCH  35  36
ATOM     36  C   UNL A   1      45.364  23.715  26.074  1.00  0.00     0.338 C 
ATOM     37  O   UNL A   1      45.897  22.746  26.611  1.00  0.00    -0.246 OA
BRANCH  36  38
ATOM     38  C   UNL A   1      45.864  25.097  26.191  1.00  0.00     0.060 A 
ATOM     39  C   UNL A   1      46.306  25.751  25.036  1.00  0.00     0.016 A 
ATOM     40  C   UNL A   1      45.946  25.736  27.429  1.00  0.00     0.016 A 
ATOM     41  C   UNL A   1      46.835  27.039  25.108  1.00  0.00     0.010 A 
ATOM     42  C   UNL A   1      46.505  27.016  27.508  1.00  0.00     0.010 A 
ATOM     43  C   UNL A   1      46.974  27.666  26.351  1.00  0.00    -0.014 A 
BRANCH  43  44
ATOM     44  C   UNL A   1      47.769  28.913  26.472  1.00  0.00     0.031 A 
ATOM     45  C   UNL A   1      47.038  30.225  26.538  1.00  0.00     0.074 A 
ATOM     46  C   UNL A   1      49.112  28.889  26.536  1.00  0.00     0.049 A 
ATOM     47  N   UNL A   1      47.516  31.444  26.533  1.00  0.00    -0.248 NA
ATOM     48  C   UNL A   1      45.571  30.151  26.622  1.00  0.00     0.031 C 
ATOM     49  C   UNL A   1      49.942  27.688  26.559  1.00  0.00     0.029 A 
ATOM     50  N   UNL A   1      50.014  29.925  26.586  1.00  0.00    -0.354 N 
ATOM     51  C   UNL A   1      46.407  32.280  26.589  1.00  0.00     0.074 A 
ATOM     52  C   UNL A   1      45.235  31.432  26.618  1.00  0.00     0.031 C 
ATOM     53  C   UNL A   1      51.236  28.055  26.606  1.00  0.00     0.029 A 
ATOM     54  C   UNL A   1      51.324  29.514  26.572  1.00  0.00     0.049 A 
ATOM     55  H   UNL A   1      49.746  30.872  26.629  1.00  0.00     0.167 HD
ATOM     56  C   UNL A   1      46.366  33.633  26.612  1.00  0.00     0.031 A 
ATOM     57  C   UNL A   1      52.462  30.232  26.504  1.00  0.00     0.031 A 
ATOM     58  C   UNL A   1      47.527  34.480  26.576  1.00  0.00     0.049 A 
ATOM     59  C   UNL A   1      52.390  31.735  26.437  1.00  0.00     0.074 A 
ATOM     60  C   UNL A   1      47.586  35.863  26.591  1.00  0.00     0.029 A 
ATOM     61  N   UNL A   1      48.834  34.023  26.514  1.00  0.00    -0.354 N 
ATOM     62  N   UNL A   1      51.338  32.517  26.476  1.00  0.00    -0.248 NA
ATOM     63  C   UNL A   1      53.667  32.454  26.313  1.00  0.00     0.031 C 
ATOM     64  C   UNL A   1      48.929  36.243  26.490  1.00  0.00     0.029 A 
ATOM     65  C   UNL A   1      49.707  35.097  26.468  1.00  0.00     0.049 A 
ATOM     66  H   UNL A   1      49.101  33.076  26.506  1.00  0.00     0.167 HD
ATOM     67  C   UNL A   1      51.826  33.816  26.407  1.00  0.00     0.074 A 
ATOM     68  C   UNL A   1      53.269  33.720  26.336  1.00  0.00     0.031 C 
ATOM     69  C   UNL A   1      51.141  34.986  26.402  1.00  0.00     0.031 A 
BRANCH  56  70
ATOM     70  C   UNL A   1      45.010  34.278  26.630  1.00  0.00    -0.014 A 
ATOM     71  C   UNL A   1      44.489  34.853  27.799  1.00  0.00     0.009 A 
ATOM     72  C   UNL A   1      44.251  34.324  25.450  1.00  0.00     0.009 A 
ATOM     73  C   UNL A   1      43.219  35.434  27.793  1.00  0.00     0.001 A 
ATOM     74  C   UNL A   1      42.993  34.928  25.441  1.00  0.00     0.001 A 
ATOM     75  C   UNL A   1      42.474  35.474  26.614  1.00  0.00     0.000 A 
ENDBRANCH  56  70
BRANCH  57  76
ATOM     76  C   UNL A   1      53.778  29.543  26.454  1.00  0.00    -0.014 A 
ATOM     77  C   UNL A   1      54.493  29.277  27.633  1.00  0.00     0.009 A 
ATOM     78  C   UNL A   1      54.342  29.176  25.223  1.00  0.00     0.009 A 
ATOM     79  C   UNL A   1      55.753  28.678  27.576  1.00  0.00     0.001 A 
ATOM     80  C   UNL A   1      55.589  28.551  25.171  1.00  0.00     0.001 A 
ATOM     81  C   UNL A   1      56.298  28.311  26.347  1.00  0.00     0.000 A 
ENDBRANCH  57  76
BRANCH  69  82
ATOM     82  C   UNL A   1      51.942  36.256  26.360  1.00  0.00    -0.014 A 
ATOM     83  C   UNL A   1      52.376  36.885  27.536  1.00  0.00     0.009 A 
ATOM     84  C   UNL A   1      52.306  36.805  25.120  1.00  0.00     0.009 A 
ATOM     85  C   UNL A   1      53.135  38.057  27.471  1.00  0.00     0.001 A 
ATOM     86  C   UNL A   1      53.085  37.961  25.057  1.00  0.00     0.001 A 
ATOM     87  C   UNL A   1      53.491  38.591  26.233  1.00  0.00     0.000 A 
ENDBRANCH  69  82
ENDBRANCH  43  44
ENDBRANCH  36  38
ENDBRANCH  35  36
ENDBRANCH  34  35
ENDBRANCH  33  34
ENDBRANCH  32  33
ENDBRANCH  31  32
ENDBRANCH   1  31
TORSDOF 22
ENDMDL
