MODEL 1
REMARK VINA RESULT:      -9.5      0.000      0.000
REMARK SMILES COCCN1C(=O)C[C@@H](C(=O)OCCOCCOCCOC(=O)c2ccc(-c3c4nc(c(-c5ccccc5)c5ccc([nH]5)c(-c5ccccc5)c5nc(c(-c6ccccc6)c6ccc3[nH]6)C=C5)C=C4)cc2)[C@H]1c1cccc(F)c1
REMARK SMILES IDX 16 1 15 2 14 3 13 4 12 5 10 6 11 7 9 8 5 9 6 10 72 11 7 12
REMARK SMILES IDX 8 13 4 14 3 15 2 16 1 17 73 18 74 19 79 20 75 21 77 22 76 23
REMARK SMILES IDX 78 24 17 25 18 26 19 27 20 28 21 29 22 30 23 31 24 32 25 33
REMARK SMILES IDX 71 34 26 35 70 36 27 37 28 38 29 39 64 40 30 41 69 42 63 43
REMARK SMILES IDX 65 44 31 45 68 46 62 47 61 48 32 50 54 51 39 52 53 53 40 54
REMARK SMILES IDX 43 55 52 56 66 57 41 58 42 59 51 61 67 62 44 63 33 64 34 65
REMARK SMILES IDX 38 66 35 67 37 68 36 69 55 70 56 71 60 72 57 73 59 74 58 75
REMARK SMILES IDX 45 76 46 77 50 78 47 79 49 80 48 81
REMARK H PARENT 65 49 43 60
REMARK Flexibility Score: inf
ROOT
ATOM      1  C   UNL A   1      30.049  28.610  23.419  1.00  0.00     0.188 C 
ENDROOT
BRANCH   1   2
ATOM      2  O   UNL A   1      30.476  27.264  23.615  1.00  0.00    -0.376 OA
BRANCH   2   3
ATOM      3  C   UNL A   1      29.652  26.350  24.325  1.00  0.00     0.202 C 
BRANCH   3   4
ATOM      4  C   UNL A   1      30.149  25.915  25.718  1.00  0.00     0.261 C 
BRANCH   4   5
ATOM      5  O   UNL A   1      30.003  24.522  26.106  1.00  0.00    -0.463 OA
BRANCH   5   6
ATOM      6  C   UNL A   1      31.151  23.879  26.443  1.00  0.00     0.312 C 
ATOM      7  O   UNL A   1      31.703  24.009  27.534  1.00  0.00    -0.252 OA
BRANCH   6   8
ATOM      8  C   UNL A   1      31.839  23.089  25.339  1.00  0.00     0.135 C 
ATOM      9  N   UNL A   1      34.206  23.091  25.202  1.00  0.00    -0.332 N 
ATOM     10  C   UNL A   1      33.869  22.054  26.068  1.00  0.00     0.224 C 
ATOM     11  C   UNL A   1      33.029  23.518  24.463  1.00  0.00     0.130 C 
ATOM     12  O   UNL A   1      34.647  21.375  26.724  1.00  0.00    -0.275 OA
ATOM     13  C   UNL A   1      32.380  21.817  26.001  1.00  0.00     0.118 C 
BRANCH   9  14
ATOM     14  C   UNL A   1      35.613  23.399  24.880  1.00  0.00     0.148 C 
BRANCH  14  15
ATOM     15  C   UNL A   1      36.303  22.456  23.880  1.00  0.00     0.181 C 
BRANCH  15  16
ATOM     16  O   UNL A   1      37.026  21.435  24.568  1.00  0.00    -0.383 OA
ATOM     17  C   UNL A   1      38.097  21.935  25.352  1.00  0.00     0.194 C 
ENDBRANCH  15  16
ENDBRANCH  14  15
ENDBRANCH   9  14
BRANCH  11  18
ATOM     18  C   UNL A   1      33.059  24.807  23.673  1.00  0.00    -0.022 A 
ATOM     19  C   UNL A   1      33.655  25.985  24.151  1.00  0.00     0.006 A 
ATOM     20  C   UNL A   1      32.650  24.795  22.324  1.00  0.00     0.045 A 
ATOM     21  C   UNL A   1      33.910  27.072  23.301  1.00  0.00     0.003 A 
ATOM     22  C   UNL A   1      32.914  25.883  21.486  1.00  0.00     0.123 A 
ATOM     23  C   UNL A   1      33.543  27.021  21.963  1.00  0.00     0.039 A 
ATOM     24  F   UNL A   1      32.546  25.825  20.199  1.00  0.00    -0.207 F 
ENDBRANCH  11  18
ENDBRANCH   6   8
ENDBRANCH   5   6
ENDBRANCH   4   5
ENDBRANCH   3   4
ENDBRANCH   2   3
ENDBRANCH   1   2
BRANCH   1  25
ATOM     25  C   UNL A   1      30.647  29.713  24.287  1.00  0.00     0.188 C 
BRANCH  25  26
ATOM     26  O   UNL A   1      31.886  29.347  24.850  1.00  0.00    -0.376 OA
BRANCH  26  27
ATOM     27  C   UNL A   1      32.054  29.461  26.245  1.00  0.00     0.202 C 
BRANCH  27  28
ATOM     28  C   UNL A   1      33.092  30.471  26.750  1.00  0.00     0.261 C 
BRANCH  28  29
ATOM     29  O   UNL A   1      34.001  29.950  27.741  1.00  0.00    -0.460 OA
BRANCH  29  30
ATOM     30  C   UNL A   1      35.017  30.747  28.131  1.00  0.00     0.338 C 
ATOM     31  O   UNL A   1      34.977  31.954  28.294  1.00  0.00    -0.246 OA
BRANCH  30  32
ATOM     32  C   UNL A   1      36.255  29.957  28.332  1.00  0.00     0.060 A 
ATOM     33  C   UNL A   1      36.595  29.414  29.575  1.00  0.00     0.016 A 
ATOM     34  C   UNL A   1      37.179  29.910  27.291  1.00  0.00     0.016 A 
ATOM     35  C   UNL A   1      37.879  28.928  29.815  1.00  0.00     0.010 A 
ATOM     36  C   UNL A   1      38.436  29.342  27.507  1.00  0.00     0.010 A 
ATOM     37  C   UNL A   1      38.813  28.880  28.781  1.00  0.00    -0.014 A 
BRANCH  37  38
ATOM     38  C   UNL A   1      40.191  28.375  28.995  1.00  0.00     0.031 A 
ATOM     39  C   UNL A   1      41.288  29.347  29.326  1.00  0.00     0.074 A 
ATOM     40  C   UNL A   1      40.475  27.075  28.801  1.00  0.00     0.049 A 
ATOM     41  N   UNL A   1      42.582  29.214  29.189  1.00  0.00    -0.248 NA
ATOM     42  C   UNL A   1      40.865  30.654  29.853  1.00  0.00     0.031 C 
ATOM     43  C   UNL A   1      39.496  26.015  28.551  1.00  0.00     0.029 A 
ATOM     44  N   UNL A   1      41.687  26.433  28.730  1.00  0.00    -0.354 N 
ATOM     45  C   UNL A   1      43.125  30.446  29.538  1.00  0.00     0.074 A 
ATOM     46  C   UNL A   1      42.019  31.307  29.903  1.00  0.00     0.031 C 
ATOM     47  C   UNL A   1      40.144  24.864  28.323  1.00  0.00     0.029 A 
ATOM     48  C   UNL A   1      41.576  25.128  28.314  1.00  0.00     0.049 A 
ATOM     49  H   UNL A   1      42.544  26.863  28.954  1.00  0.00     0.167 HD
ATOM     50  C   UNL A   1      44.427  30.819  29.531  1.00  0.00     0.031 A 
ATOM     51  C   UNL A   1      42.512  24.262  27.885  1.00  0.00     0.031 A 
ATOM     52  C   UNL A   1      45.508  29.935  29.179  1.00  0.00     0.049 A 
ATOM     53  C   UNL A   1      43.943  24.710  27.827  1.00  0.00     0.074 A 
ATOM     54  C   UNL A   1      46.868  30.194  29.164  1.00  0.00     0.029 A 
ATOM     55  N   UNL A   1      45.348  28.616  28.779  1.00  0.00    -0.354 N 
ATOM     56  N   UNL A   1      44.453  25.882  28.119  1.00  0.00    -0.248 NA
ATOM     57  C   UNL A   1      44.924  23.716  27.374  1.00  0.00     0.031 C 
ATOM     58  C   UNL A   1      47.524  29.048  28.700  1.00  0.00     0.029 A 
ATOM     59  C   UNL A   1      46.581  28.054  28.491  1.00  0.00     0.049 A 
ATOM     60  H   UNL A   1      44.485  28.147  28.711  1.00  0.00     0.167 HD
ATOM     61  C   UNL A   1      45.819  25.762  27.908  1.00  0.00     0.074 A 
ATOM     62  C   UNL A   1      46.056  24.397  27.478  1.00  0.00     0.031 C 
ATOM     63  C   UNL A   1      46.791  26.696  28.058  1.00  0.00     0.031 A 
BRANCH  50  64
ATOM     64  C   UNL A   1      44.743  32.258  29.846  1.00  0.00    -0.014 A 
ATOM     65  C   UNL A   1      44.764  33.251  28.854  1.00  0.00     0.009 A 
ATOM     66  C   UNL A   1      45.008  32.629  31.175  1.00  0.00     0.009 A 
ATOM     67  C   UNL A   1      45.088  34.572  29.179  1.00  0.00     0.001 A 
ATOM     68  C   UNL A   1      45.299  33.955  31.503  1.00  0.00     0.001 A 
ATOM     69  C   UNL A   1      45.352  34.923  30.502  1.00  0.00     0.000 A 
ENDBRANCH  50  64
BRANCH  51  70
ATOM     70  C   UNL A   1      42.100  22.913  27.419  1.00  0.00    -0.014 A 
ATOM     71  C   UNL A   1      42.047  22.618  26.050  1.00  0.00     0.009 A 
ATOM     72  C   UNL A   1      41.809  21.897  28.345  1.00  0.00     0.009 A 
ATOM     73  C   UNL A   1      41.702  21.336  25.616  1.00  0.00     0.001 A 
ATOM     74  C   UNL A   1      41.497  20.607  27.910  1.00  0.00     0.001 A 
ATOM     75  C   UNL A   1      41.438  20.330  26.545  1.00  0.00     0.000 A 
ENDBRANCH  51  70
BRANCH  63  76
ATOM     76  C   UNL A   1      48.203  26.251  27.796  1.00  0.00    -0.014 A 
ATOM     77  C   UNL A   1      48.802  26.412  26.537  1.00  0.00     0.009 A 
ATOM     78  C   UNL A   1      48.951  25.681  28.839  1.00  0.00     0.009 A 
ATOM     79  C   UNL A   1      50.110  25.976  26.318  1.00  0.00     0.001 A 
ATOM     80  C   UNL A   1      50.269  25.277  28.626  1.00  0.00     0.001 A 
ATOM     81  C   UNL A   1      50.843  25.414  27.363  1.00  0.00     0.000 A 
ENDBRANCH  63  76
ENDBRANCH  37  38
ENDBRANCH  30  32
ENDBRANCH  29  30
ENDBRANCH  28  29
ENDBRANCH  27  28
ENDBRANCH  26  27
ENDBRANCH  25  26
ENDBRANCH   1  25
TORSDOF 21
ENDMDL
MODEL 2
REMARK VINA RESULT:      -9.4      4.042      8.953
REMARK SMILES COCCN1C(=O)C[C@@H](C(=O)OCCOCCOCCOC(=O)c2ccc(-c3c4nc(c(-c5ccccc5)c5ccc([nH]5)c(-c5ccccc5)c5nc(c(-c6ccccc6)c6ccc3[nH]6)C=C5)C=C4)cc2)[C@H]1c1cccc(F)c1
REMARK SMILES IDX 16 1 15 2 14 3 13 4 12 5 10 6 11 7 9 8 5 9 6 10 72 11 7 12
REMARK SMILES IDX 8 13 4 14 3 15 2 16 1 17 73 18 74 19 79 20 75 21 77 22 76 23
REMARK SMILES IDX 78 24 17 25 18 26 19 27 20 28 21 29 22 30 23 31 24 32 25 33
REMARK SMILES IDX 71 34 26 35 70 36 27 37 28 38 29 39 64 40 30 41 69 42 63 43
REMARK SMILES IDX 65 44 31 45 68 46 62 47 61 48 32 50 54 51 39 52 53 53 40 54
REMARK SMILES IDX 43 55 52 56 66 57 41 58 42 59 51 61 67 62 44 63 33 64 34 65
REMARK SMILES IDX 38 66 35 67 37 68 36 69 55 70 56 71 60 72 57 73 59 74 58 75
REMARK SMILES IDX 45 76 46 77 50 78 47 79 49 80 48 81
REMARK H PARENT 65 49 43 60
REMARK Flexibility Score: inf
ROOT
ATOM      1  C   UNL A   1      35.195  23.275  23.507  1.00  0.00     0.188 C 
ENDROOT
BRANCH   1   2
ATOM      2  O   UNL A   1      34.257  22.321  24.003  1.00  0.00    -0.376 OA
BRANCH   2   3
ATOM      3  C   UNL A   1      32.899  22.689  24.197  1.00  0.00     0.202 C 
BRANCH   3   4
ATOM      4  C   UNL A   1      32.596  24.199  24.250  1.00  0.00     0.261 C 
BRANCH   4   5
ATOM      5  O   UNL A   1      32.868  24.922  25.482  1.00  0.00    -0.463 OA
BRANCH   5   6
ATOM      6  C   UNL A   1      31.931  24.801  26.457  1.00  0.00     0.312 C 
ATOM      7  O   UNL A   1      31.764  23.773  27.112  1.00  0.00    -0.252 OA
BRANCH   6   8
ATOM      8  C   UNL A   1      30.959  25.962  26.615  1.00  0.00     0.135 C 
ATOM      9  N   UNL A   1      30.711  27.525  24.851  1.00  0.00    -0.332 N 
ATOM     10  C   UNL A   1      29.815  26.495  24.583  1.00  0.00     0.224 C 
ATOM     11  C   UNL A   1      31.168  27.436  26.228  1.00  0.00     0.130 C 
ATOM     12  O   UNL A   1      29.138  26.365  23.571  1.00  0.00    -0.275 OA
ATOM     13  C   UNL A   1      29.721  25.594  25.790  1.00  0.00     0.118 C 
BRANCH   9  14
ATOM     14  C   UNL A   1      30.840  28.687  23.949  1.00  0.00     0.148 C 
BRANCH  14  15
ATOM     15  C   UNL A   1      31.915  28.581  22.853  1.00  0.00     0.181 C 
BRANCH  15  16
ATOM     16  O   UNL A   1      33.097  29.282  23.238  1.00  0.00    -0.383 OA
ATOM     17  C   UNL A   1      34.290  28.665  22.780  1.00  0.00     0.194 C 
ENDBRANCH  15  16
ENDBRANCH  14  15
ENDBRANCH   9  14
BRANCH  11  18
ATOM     18  C   UNL A   1      32.353  28.258  26.685  1.00  0.00    -0.022 A 
ATOM     19  C   UNL A   1      33.682  27.826  26.552  1.00  0.00     0.006 A 
ATOM     20  C   UNL A   1      32.148  29.593  27.088  1.00  0.00     0.045 A 
ATOM     21  C   UNL A   1      34.758  28.709  26.728  1.00  0.00     0.003 A 
ATOM     22  C   UNL A   1      33.228  30.464  27.255  1.00  0.00     0.123 A 
ATOM     23  C   UNL A   1      34.532  30.033  27.077  1.00  0.00     0.039 A 
ATOM     24  F   UNL A   1      32.997  31.738  27.601  1.00  0.00    -0.207 F 
ENDBRANCH  11  18
ENDBRANCH   6   8
ENDBRANCH   5   6
ENDBRANCH   4   5
ENDBRANCH   3   4
ENDBRANCH   2   3
ENDBRANCH   1   2
BRANCH   1  25
ATOM     25  C   UNL A   1      36.652  22.861  23.327  1.00  0.00     0.188 C 
BRANCH  25  26
ATOM     26  O   UNL A   1      36.940  21.619  23.926  1.00  0.00    -0.376 OA
BRANCH  26  27
ATOM     27  C   UNL A   1      37.846  21.583  25.005  1.00  0.00     0.202 C 
BRANCH  27  28
ATOM     28  C   UNL A   1      37.801  22.747  26.003  1.00  0.00     0.261 C 
BRANCH  28  29
ATOM     29  O   UNL A   1      38.817  23.751  25.799  1.00  0.00    -0.460 OA
BRANCH  29  30
ATOM     30  C   UNL A   1      39.787  23.850  26.732  1.00  0.00     0.338 C 
ATOM     31  O   UNL A   1      40.577  22.981  27.059  1.00  0.00    -0.246 OA
BRANCH  30  32
ATOM     32  C   UNL A   1      39.772  25.192  27.361  1.00  0.00     0.060 A 
ATOM     33  C   UNL A   1      40.473  26.273  26.817  1.00  0.00     0.016 A 
ATOM     34  C   UNL A   1      39.187  25.320  28.618  1.00  0.00     0.016 A 
ATOM     35  C   UNL A   1      40.683  27.434  27.560  1.00  0.00     0.010 A 
ATOM     36  C   UNL A   1      39.323  26.516  29.326  1.00  0.00     0.010 A 
ATOM     37  C   UNL A   1      40.104  27.572  28.821  1.00  0.00    -0.014 A 
BRANCH  37  38
ATOM     38  C   UNL A   1      40.307  28.788  29.645  1.00  0.00     0.031 A 
ATOM     39  C   UNL A   1      41.390  28.800  30.686  1.00  0.00     0.074 A 
ATOM     40  C   UNL A   1      39.469  29.833  29.530  1.00  0.00     0.049 A 
ATOM     41  N   UNL A   1      41.516  29.559  31.743  1.00  0.00    -0.248 NA
ATOM     42  C   UNL A   1      42.458  27.800  30.527  1.00  0.00     0.031 C 
ATOM     43  C   UNL A   1      38.425  29.982  28.514  1.00  0.00     0.029 A 
ATOM     44  N   UNL A   1      39.330  30.950  30.317  1.00  0.00    -0.354 N 
ATOM     45  C   UNL A   1      42.632  29.080  32.419  1.00  0.00     0.074 A 
ATOM     46  C   UNL A   1      43.152  27.971  31.645  1.00  0.00     0.031 C 
ATOM     47  C   UNL A   1      37.734  31.106  28.756  1.00  0.00     0.029 A 
ATOM     48  C   UNL A   1      38.223  31.696  29.994  1.00  0.00     0.049 A 
ATOM     49  H   UNL A   1      39.959  31.190  31.036  1.00  0.00     0.167 HD
ATOM     50  C   UNL A   1      43.155  29.518  33.590  1.00  0.00     0.031 A 
ATOM     51  C   UNL A   1      37.610  32.690  30.663  1.00  0.00     0.031 A 
ATOM     52  C   UNL A   1      42.625  30.634  34.330  1.00  0.00     0.049 A 
ATOM     53  C   UNL A   1      38.166  33.124  31.987  1.00  0.00     0.074 A 
ATOM     54  C   UNL A   1      43.089  31.187  35.512  1.00  0.00     0.029 A 
ATOM     55  N   UNL A   1      41.510  31.371  33.956  1.00  0.00    -0.354 N 
ATOM     56  N   UNL A   1      39.195  32.649  32.645  1.00  0.00    -0.248 NA
ATOM     57  C   UNL A   1      37.471  34.228  32.660  1.00  0.00     0.031 C 
ATOM     58  C   UNL A   1      42.219  32.220  35.880  1.00  0.00     0.029 A 
ATOM     59  C   UNL A   1      41.254  32.356  34.895  1.00  0.00     0.049 A 
ATOM     60  H   UNL A   1      40.979  31.216  33.142  1.00  0.00     0.167 HD
ATOM     61  C   UNL A   1      39.288  33.410  33.801  1.00  0.00     0.074 A 
ATOM     62  C   UNL A   1      38.218  34.388  33.744  1.00  0.00     0.031 C 
ATOM     63  C   UNL A   1      40.179  33.313  34.819  1.00  0.00     0.031 A 
BRANCH  50  64
ATOM     64  C   UNL A   1      44.310  28.747  34.172  1.00  0.00    -0.014 A 
ATOM     65  C   UNL A   1      44.120  27.618  34.985  1.00  0.00     0.009 A 
ATOM     66  C   UNL A   1      45.623  29.153  33.882  1.00  0.00     0.009 A 
ATOM     67  C   UNL A   1      45.217  26.943  35.530  1.00  0.00     0.001 A 
ATOM     68  C   UNL A   1      46.718  28.458  34.400  1.00  0.00     0.001 A 
ATOM     69  C   UNL A   1      46.514  27.361  35.234  1.00  0.00     0.000 A 
ENDBRANCH  50  64
BRANCH  51  70
ATOM     70  C   UNL A   1      36.366  33.283  30.110  1.00  0.00    -0.014 A 
ATOM     71  C   UNL A   1      35.118  32.961  30.660  1.00  0.00     0.009 A 
ATOM     72  C   UNL A   1      36.425  34.218  29.062  1.00  0.00     0.009 A 
ATOM     73  C   UNL A   1      33.953  33.555  30.166  1.00  0.00     0.001 A 
ATOM     74  C   UNL A   1      35.264  34.835  28.593  1.00  0.00     0.001 A 
ATOM     75  C   UNL A   1      34.028  34.498  29.141  1.00  0.00     0.000 A 
ENDBRANCH  51  70
BRANCH  63  76
ATOM     76  C   UNL A   1      40.055  34.320  35.927  1.00  0.00    -0.014 A 
ATOM     77  C   UNL A   1      39.248  34.080  37.051  1.00  0.00     0.009 A 
ATOM     78  C   UNL A   1      40.778  35.522  35.852  1.00  0.00     0.009 A 
ATOM     79  C   UNL A   1      39.139  35.040  38.058  1.00  0.00     0.001 A 
ATOM     80  C   UNL A   1      40.692  36.465  36.876  1.00  0.00     0.001 A 
ATOM     81  C   UNL A   1      39.865  36.229  37.972  1.00  0.00     0.000 A 
ENDBRANCH  63  76
ENDBRANCH  37  38
ENDBRANCH  30  32
ENDBRANCH  29  30
ENDBRANCH  28  29
ENDBRANCH  27  28
ENDBRANCH  26  27
ENDBRANCH  25  26
ENDBRANCH   1  25
TORSDOF 21
ENDMDL
MODEL 3
REMARK VINA RESULT:      -9.0      4.378      8.208
REMARK SMILES COCCN1C(=O)C[C@@H](C(=O)OCCOCCOCCOC(=O)c2ccc(-c3c4nc(c(-c5ccccc5)c5ccc([nH]5)c(-c5ccccc5)c5nc(c(-c6ccccc6)c6ccc3[nH]6)C=C5)C=C4)cc2)[C@H]1c1cccc(F)c1
REMARK SMILES IDX 16 1 15 2 14 3 13 4 12 5 10 6 11 7 9 8 5 9 6 10 72 11 7 12
REMARK SMILES IDX 8 13 4 14 3 15 2 16 1 17 73 18 74 19 79 20 75 21 77 22 76 23
REMARK SMILES IDX 78 24 17 25 18 26 19 27 20 28 21 29 22 30 23 31 24 32 25 33
REMARK SMILES IDX 71 34 26 35 70 36 27 37 28 38 29 39 64 40 30 41 69 42 63 43
REMARK SMILES IDX 65 44 31 45 68 46 62 47 61 48 32 50 54 51 39 52 53 53 40 54
REMARK SMILES IDX 43 55 52 56 66 57 41 58 42 59 51 61 67 62 44 63 33 64 34 65
REMARK SMILES IDX 38 66 35 67 37 68 36 69 55 70 56 71 60 72 57 73 59 74 58 75
REMARK SMILES IDX 45 76 46 77 50 78 47 79 49 80 48 81
REMARK H PARENT 65 49 43 60
REMARK Flexibility Score: inf
ROOT
ATOM      1  C   UNL A   1      33.183  29.355  24.908  1.00  0.00     0.188 C 
ENDROOT
BRANCH   1   2
ATOM      2  O   UNL A   1      32.922  29.057  23.538  1.00  0.00    -0.376 OA
BRANCH   2   3
ATOM      3  C   UNL A   1      33.891  28.367  22.761  1.00  0.00     0.202 C 
BRANCH   3   4
ATOM      4  C   UNL A   1      33.400  27.123  21.996  1.00  0.00     0.261 C 
BRANCH   4   5
ATOM      5  O   UNL A   1      33.697  25.808  22.540  1.00  0.00    -0.463 OA
BRANCH   5   6
ATOM      6  C   UNL A   1      33.136  24.758  21.886  1.00  0.00     0.312 C 
ATOM      7  O   UNL A   1      33.147  24.639  20.662  1.00  0.00    -0.252 OA
BRANCH   6   8
ATOM      8  C   UNL A   1      32.332  23.779  22.731  1.00  0.00     0.135 C 
ATOM      9  N   UNL A   1      31.986  24.234  25.032  1.00  0.00    -0.332 N 
ATOM     10  C   UNL A   1      30.952  24.872  24.352  1.00  0.00     0.224 C 
ATOM     11  C   UNL A   1      32.638  23.278  24.153  1.00  0.00     0.130 C 
ATOM     12  O   UNL A   1      30.118  25.623  24.839  1.00  0.00    -0.275 OA
ATOM     13  C   UNL A   1      30.949  24.413  22.914  1.00  0.00     0.118 C 
BRANCH   9  14
ATOM     14  C   UNL A   1      32.100  24.306  26.502  1.00  0.00     0.148 C 
BRANCH  14  15
ATOM     15  C   UNL A   1      31.481  23.139  27.289  1.00  0.00     0.181 C 
BRANCH  15  16
ATOM     16  O   UNL A   1      30.340  22.619  26.606  1.00  0.00    -0.383 OA
ATOM     17  C   UNL A   1      29.155  22.650  27.385  1.00  0.00     0.194 C 
ENDBRANCH  15  16
ENDBRANCH  14  15
ENDBRANCH   9  14
BRANCH  11  18
ATOM     18  C   UNL A   1      33.962  22.664  24.553  1.00  0.00    -0.022 A 
ATOM     19  C   UNL A   1      34.126  21.293  24.807  1.00  0.00     0.006 A 
ATOM     20  C   UNL A   1      35.130  23.450  24.487  1.00  0.00     0.045 A 
ATOM     21  C   UNL A   1      35.401  20.716  24.904  1.00  0.00     0.003 A 
ATOM     22  C   UNL A   1      36.395  22.862  24.581  1.00  0.00     0.123 A 
ATOM     23  C   UNL A   1      36.540  21.500  24.788  1.00  0.00     0.039 A 
ATOM     24  F   UNL A   1      37.487  23.631  24.477  1.00  0.00    -0.207 F 
ENDBRANCH  11  18
ENDBRANCH   6   8
ENDBRANCH   5   6
ENDBRANCH   4   5
ENDBRANCH   3   4
ENDBRANCH   2   3
ENDBRANCH   1   2
BRANCH   1  25
ATOM     25  C   UNL A   1      32.012  29.485  25.877  1.00  0.00     0.188 C 
BRANCH  25  26
ATOM     26  O   UNL A   1      31.645  30.827  26.106  1.00  0.00    -0.376 OA
BRANCH  26  27
ATOM     27  C   UNL A   1      32.360  31.567  27.069  1.00  0.00     0.202 C 
BRANCH  27  28
ATOM     28  C   UNL A   1      31.902  33.007  27.334  1.00  0.00     0.261 C 
BRANCH  28  29
ATOM     29  O   UNL A   1      32.974  33.941  27.576  1.00  0.00    -0.460 OA
BRANCH  29  30
ATOM     30  C   UNL A   1      33.230  34.273  28.858  1.00  0.00     0.338 C 
ATOM     31  O   UNL A   1      32.558  34.996  29.574  1.00  0.00    -0.246 OA
BRANCH  30  32
ATOM     32  C   UNL A   1      34.492  33.647  29.319  1.00  0.00     0.060 A 
ATOM     33  C   UNL A   1      34.514  32.672  30.322  1.00  0.00     0.016 A 
ATOM     34  C   UNL A   1      35.694  34.178  28.858  1.00  0.00     0.016 A 
ATOM     35  C   UNL A   1      35.710  32.307  30.937  1.00  0.00     0.010 A 
ATOM     36  C   UNL A   1      36.900  33.746  29.413  1.00  0.00     0.010 A 
ATOM     37  C   UNL A   1      36.919  32.835  30.485  1.00  0.00    -0.014 A 
BRANCH  37  38
ATOM     38  C   UNL A   1      38.212  32.477  31.116  1.00  0.00     0.031 A 
ATOM     39  C   UNL A   1      39.007  31.327  30.565  1.00  0.00     0.074 A 
ATOM     40  C   UNL A   1      38.623  33.111  32.229  1.00  0.00     0.049 A 
ATOM     41  N   UNL A   1      39.933  30.606  31.143  1.00  0.00    -0.248 NA
ATOM     42  C   UNL A   1      38.692  30.917  29.187  1.00  0.00     0.031 C 
ATOM     43  C   UNL A   1      37.987  34.288  32.824  1.00  0.00     0.029 A 
ATOM     44  N   UNL A   1      39.650  32.814  33.090  1.00  0.00    -0.354 N 
ATOM     45  C   UNL A   1      40.257  29.610  30.230  1.00  0.00     0.074 A 
ATOM     46  C   UNL A   1      39.436  29.827  29.057  1.00  0.00     0.031 C 
ATOM     47  C   UNL A   1      38.617  34.595  33.968  1.00  0.00     0.029 A 
ATOM     48  C   UNL A   1      39.629  33.581  34.230  1.00  0.00     0.049 A 
ATOM     49  H   UNL A   1      40.330  32.125  32.910  1.00  0.00     0.167 HD
ATOM     50  C   UNL A   1      41.146  28.597  30.376  1.00  0.00     0.031 A 
ATOM     51  C   UNL A   1      40.284  33.437  35.396  1.00  0.00     0.031 A 
ATOM     52  C   UNL A   1      41.961  28.416  31.549  1.00  0.00     0.049 A 
ATOM     53  C   UNL A   1      41.220  32.277  35.564  1.00  0.00     0.074 A 
ATOM     54  C   UNL A   1      42.917  27.445  31.797  1.00  0.00     0.029 A 
ATOM     55  N   UNL A   1      41.917  29.228  32.673  1.00  0.00    -0.354 N 
ATOM     56  N   UNL A   1      41.500  31.314  34.720  1.00  0.00    -0.248 NA
ATOM     57  C   UNL A   1      41.926  32.183  36.848  1.00  0.00     0.031 C 
ATOM     58  C   UNL A   1      43.407  27.638  33.094  1.00  0.00     0.029 A 
ATOM     59  C   UNL A   1      42.808  28.768  33.628  1.00  0.00     0.049 A 
ATOM     60  H   UNL A   1      41.337  30.017  32.777  1.00  0.00     0.167 HD
ATOM     61  C   UNL A   1      42.432  30.510  35.359  1.00  0.00     0.074 A 
ATOM     62  C   UNL A   1      42.680  31.110  36.656  1.00  0.00     0.031 C 
ATOM     63  C   UNL A   1      43.032  29.377  34.915  1.00  0.00     0.031 A 
BRANCH  50  64
ATOM     64  C   UNL A   1      41.228  27.575  29.273  1.00  0.00    -0.014 A 
ATOM     65  C   UNL A   1      42.281  27.562  28.345  1.00  0.00     0.009 A 
ATOM     66  C   UNL A   1      40.231  26.589  29.173  1.00  0.00     0.009 A 
ATOM     67  C   UNL A   1      42.310  26.614  27.317  1.00  0.00     0.001 A 
ATOM     68  C   UNL A   1      40.280  25.623  28.166  1.00  0.00     0.001 A 
ATOM     69  C   UNL A   1      41.312  25.644  27.231  1.00  0.00     0.000 A 
ENDBRANCH  50  64
BRANCH  51  70
ATOM     70  C   UNL A   1      40.015  34.386  36.507  1.00  0.00    -0.014 A 
ATOM     71  C   UNL A   1      39.097  34.062  37.514  1.00  0.00     0.009 A 
ATOM     72  C   UNL A   1      40.718  35.601  36.594  1.00  0.00     0.009 A 
ATOM     73  C   UNL A   1      38.879  34.938  38.581  1.00  0.00     0.001 A 
ATOM     74  C   UNL A   1      40.524  36.458  37.678  1.00  0.00     0.001 A 
ATOM     75  C   UNL A   1      39.600  36.129  38.667  1.00  0.00     0.000 A 
ENDBRANCH  51  70
BRANCH  63  76
ATOM     76  C   UNL A   1      44.046  28.746  35.826  1.00  0.00    -0.014 A 
ATOM     77  C   UNL A   1      45.386  29.162  35.832  1.00  0.00     0.009 A 
ATOM     78  C   UNL A   1      43.644  27.730  36.708  1.00  0.00     0.009 A 
ATOM     79  C   UNL A   1      46.311  28.547  36.678  1.00  0.00     0.001 A 
ATOM     80  C   UNL A   1      44.563  27.140  37.575  1.00  0.00     0.001 A 
ATOM     81  C   UNL A   1      45.898  27.540  37.552  1.00  0.00     0.000 A 
ENDBRANCH  63  76
ENDBRANCH  37  38
ENDBRANCH  30  32
ENDBRANCH  29  30
ENDBRANCH  28  29
ENDBRANCH  27  28
ENDBRANCH  26  27
ENDBRANCH  25  26
ENDBRANCH   1  25
TORSDOF 21
ENDMDL
