MODEL 1
REMARK VINA RESULT:      -9.7      0.000      0.000
REMARK SMILES CNc1nccc(-c2cc(C(=O)OCCOCCOCCOC(=O)c3ccc(-c4c5nc(c(-c6ccccc6)c6ccc([nH]6)c(-c6ccccc6)c6nc(c(-c7ccccc7)c7ccc4[nH]7)C=C6)C=C5)cc3)ccn2)n1
REMARK SMILES IDX 17 1 16 2 15 3 14 4 13 5 11 6 12 7 10 8 8 9 9 10 75 11 74 12
REMARK SMILES IDX 73 13 7 14 3 15 4 16 76 17 5 18 6 19 2 20 1 21 18 23 19 24
REMARK SMILES IDX 20 25 21 26 22 27 23 28 24 29 25 30 26 31 72 32 27 33 71 34
REMARK SMILES IDX 28 35 29 36 30 37 65 38 31 39 70 40 64 41 66 42 32 43 69 44
REMARK SMILES IDX 63 45 62 46 33 48 55 49 40 50 54 51 41 52 44 53 53 54 67 55
REMARK SMILES IDX 42 56 43 57 52 59 68 60 45 61 34 62 35 63 39 64 36 65 38 66
REMARK SMILES IDX 37 67 56 68 57 69 61 70 58 71 60 72 59 73 46 74 47 75 51 76
REMARK SMILES IDX 48 77 50 78 49 79
REMARK H PARENT 2 22 66 47 44 58
REMARK Flexibility Score: inf
ROOT
ATOM      1  C   UNL A   1      40.525  22.292  26.534  1.00  0.00     0.188 C 
ENDROOT
BRANCH   1   2
ATOM      2  O   UNL A   1      39.227  22.827  26.741  1.00  0.00    -0.376 OA
BRANCH   2   3
ATOM      3  C   UNL A   1      38.203  22.616  25.778  1.00  0.00     0.202 C 
BRANCH   3   4
ATOM      4  C   UNL A   1      37.052  23.621  25.592  1.00  0.00     0.261 C 
BRANCH   4   5
ATOM      5  O   UNL A   1      35.850  23.332  26.319  1.00  0.00    -0.460 OA
BRANCH   5   6
ATOM      6  C   UNL A   1      34.714  23.888  25.827  1.00  0.00     0.338 C 
ATOM      7  O   UNL A   1      34.565  25.024  25.420  1.00  0.00    -0.246 OA
BRANCH   6   8
ATOM      8  C   UNL A   1      33.690  22.835  25.654  1.00  0.00     0.063 A 
ATOM      9  C   UNL A   1      33.011  20.605  25.103  1.00  0.00     0.090 A 
ATOM     10  C   UNL A   1      34.023  21.558  25.207  1.00  0.00     0.046 A 
ATOM     11  N   UNL A   1      31.709  20.921  25.341  1.00  0.00    -0.255 NA
ATOM     12  C   UNL A   1      31.414  22.177  25.740  1.00  0.00     0.112 A 
ATOM     13  C   UNL A   1      32.365  23.155  25.939  1.00  0.00     0.036 A 
BRANCH   9  14
ATOM     14  C   UNL A   1      33.322  19.171  24.920  1.00  0.00     0.094 A 
ATOM     15  C   UNL A   1      32.805  16.962  25.304  1.00  0.00     0.222 A 
ATOM     16  N   UNL A   1      33.947  16.536  24.744  1.00  0.00    -0.222 NA
ATOM     17  N   UNL A   1      32.456  18.252  25.412  1.00  0.00    -0.211 NA
ATOM     18  C   UNL A   1      34.769  17.465  24.243  1.00  0.00     0.117 A 
ATOM     19  C   UNL A   1      34.503  18.805  24.300  1.00  0.00     0.051 A 
BRANCH  15  20
ATOM     20  N   UNL A   1      31.982  15.954  25.720  1.00  0.00    -0.357 N 
ATOM     21  C   UNL A   1      32.338  14.571  25.630  1.00  0.00     0.143 C 
ATOM     22  H   UNL A   1      31.105  16.191  26.098  1.00  0.00     0.163 HD
ENDBRANCH  15  20
ENDBRANCH   9  14
ENDBRANCH   6   8
ENDBRANCH   5   6
ENDBRANCH   4   5
ENDBRANCH   3   4
ENDBRANCH   2   3
ENDBRANCH   1   2
BRANCH   1  23
ATOM     23  C   UNL A   1      40.739  20.765  26.458  1.00  0.00     0.188 C 
BRANCH  23  24
ATOM     24  O   UNL A   1      41.875  20.362  25.735  1.00  0.00    -0.376 OA
BRANCH  24  25
ATOM     25  C   UNL A   1      42.426  19.074  25.948  1.00  0.00     0.202 C 
BRANCH  25  26
ATOM     26  C   UNL A   1      43.706  18.521  25.286  1.00  0.00     0.261 C 
BRANCH  26  27
ATOM     27  O   UNL A   1      44.183  19.133  24.084  1.00  0.00    -0.460 OA
BRANCH  27  28
ATOM     28  C   UNL A   1      45.380  19.763  24.166  1.00  0.00     0.338 C 
ATOM     29  O   UNL A   1      46.451  19.374  23.743  1.00  0.00    -0.246 OA
BRANCH  28  30
ATOM     30  C   UNL A   1      45.160  21.116  24.716  1.00  0.00     0.060 A 
ATOM     31  C   UNL A   1      44.779  22.147  23.846  1.00  0.00     0.016 A 
ATOM     32  C   UNL A   1      45.367  21.371  26.071  1.00  0.00     0.016 A 
ATOM     33  C   UNL A   1      44.630  23.448  24.329  1.00  0.00     0.010 A 
ATOM     34  C   UNL A   1      45.237  22.679  26.549  1.00  0.00     0.010 A 
ATOM     35  C   UNL A   1      44.899  23.729  25.675  1.00  0.00    -0.014 A 
BRANCH  35  36
ATOM     36  C   UNL A   1      45.011  25.135  26.131  1.00  0.00     0.031 A 
ATOM     37  C   UNL A   1      46.363  25.797  26.095  1.00  0.00     0.074 A 
ATOM     38  C   UNL A   1      43.940  25.822  26.565  1.00  0.00     0.049 A 
ATOM     39  N   UNL A   1      46.716  26.989  26.501  1.00  0.00    -0.248 NA
ATOM     40  C   UNL A   1      47.464  25.001  25.527  1.00  0.00     0.031 C 
ATOM     41  C   UNL A   1      42.569  25.317  26.607  1.00  0.00     0.029 A 
ATOM     42  N   UNL A   1      43.846  27.098  27.065  1.00  0.00    -0.354 N 
ATOM     43  C   UNL A   1      48.081  27.081  26.252  1.00  0.00     0.074 A 
ATOM     44  C   UNL A   1      48.495  25.816  25.687  1.00  0.00     0.031 C 
ATOM     45  C   UNL A   1      41.770  26.273  27.116  1.00  0.00     0.029 A 
ATOM     46  C   UNL A   1      42.579  27.438  27.472  1.00  0.00     0.049 A 
ATOM     47  H   UNL A   1      44.613  27.711  27.124  1.00  0.00     0.167 HD
ATOM     48  C   UNL A   1      48.914  28.125  26.470  1.00  0.00     0.031 A 
ATOM     49  C   UNL A   1      42.130  28.550  28.085  1.00  0.00     0.031 A 
ATOM     50  C   UNL A   1      48.508  29.378  27.048  1.00  0.00     0.049 A 
ATOM     51  C   UNL A   1      43.094  29.667  28.397  1.00  0.00     0.074 A 
ATOM     52  C   UNL A   1      49.277  30.502  27.295  1.00  0.00     0.029 A 
ATOM     53  N   UNL A   1      47.223  29.669  27.478  1.00  0.00    -0.354 N 
ATOM     54  N   UNL A   1      44.376  29.753  28.134  1.00  0.00    -0.248 NA
ATOM     55  C   UNL A   1      42.542  30.845  29.083  1.00  0.00     0.031 C 
ATOM     56  C   UNL A   1      48.472  31.448  27.937  1.00  0.00     0.029 A 
ATOM     57  C   UNL A   1      47.184  30.943  28.018  1.00  0.00     0.049 A 
ATOM     58  H   UNL A   1      46.452  29.060  27.410  1.00  0.00     0.167 HD
ATOM     59  C   UNL A   1      44.774  31.006  28.588  1.00  0.00     0.074 A 
ATOM     60  C   UNL A   1      43.595  31.649  29.130  1.00  0.00     0.031 C 
ATOM     61  C   UNL A   1      46.004  31.576  28.551  1.00  0.00     0.031 A 
BRANCH  48  62
ATOM     62  C   UNL A   1      50.366  27.936  26.122  1.00  0.00    -0.014 A 
ATOM     63  C   UNL A   1      51.273  27.375  27.034  1.00  0.00     0.009 A 
ATOM     64  C   UNL A   1      50.825  28.297  24.845  1.00  0.00     0.009 A 
ATOM     65  C   UNL A   1      52.617  27.215  26.689  1.00  0.00     0.001 A 
ATOM     66  C   UNL A   1      52.161  28.106  24.491  1.00  0.00     0.001 A 
ATOM     67  C   UNL A   1      53.058  27.576  25.416  1.00  0.00     0.000 A 
ENDBRANCH  48  62
BRANCH  49  68
ATOM     68  C   UNL A   1      40.697  28.664  28.473  1.00  0.00    -0.014 A 
ATOM     69  C   UNL A   1      39.759  29.228  27.595  1.00  0.00     0.009 A 
ATOM     70  C   UNL A   1      40.267  28.237  29.739  1.00  0.00     0.009 A 
ATOM     71  C   UNL A   1      38.427  29.390  27.988  1.00  0.00     0.001 A 
ATOM     72  C   UNL A   1      38.929  28.369  30.117  1.00  0.00     0.001 A 
ATOM     73  C   UNL A   1      38.013  28.955  29.246  1.00  0.00     0.000 A 
ENDBRANCH  49  68
BRANCH  61  74
ATOM     74  C   UNL A   1      46.134  32.986  29.061  1.00  0.00    -0.014 A 
ATOM     75  C   UNL A   1      45.996  34.095  28.211  1.00  0.00     0.009 A 
ATOM     76  C   UNL A   1      46.352  33.207  30.431  1.00  0.00     0.009 A 
ATOM     77  C   UNL A   1      46.114  35.392  28.717  1.00  0.00     0.001 A 
ATOM     78  C   UNL A   1      46.434  34.504  30.939  1.00  0.00     0.001 A 
ATOM     79  C   UNL A   1      46.326  35.595  30.081  1.00  0.00     0.000 A 
ENDBRANCH  61  74
ENDBRANCH  35  36
ENDBRANCH  28  30
ENDBRANCH  27  28
ENDBRANCH  26  27
ENDBRANCH  25  26
ENDBRANCH  24  25
ENDBRANCH  23  24
ENDBRANCH   1  23
TORSDOF 19
ENDMDL
MODEL 2
REMARK VINA RESULT:      -9.7      4.635      7.234
REMARK SMILES CNc1nccc(-c2cc(C(=O)OCCOCCOCCOC(=O)c3ccc(-c4c5nc(c(-c6ccccc6)c6ccc([nH]6)c(-c6ccccc6)c6nc(c(-c7ccccc7)c7ccc4[nH]7)C=C6)C=C5)cc3)ccn2)n1
REMARK SMILES IDX 17 1 16 2 15 3 14 4 13 5 11 6 12 7 10 8 8 9 9 10 75 11 74 12
REMARK SMILES IDX 73 13 7 14 3 15 4 16 76 17 5 18 6 19 2 20 1 21 18 23 19 24
REMARK SMILES IDX 20 25 21 26 22 27 23 28 24 29 25 30 26 31 72 32 27 33 71 34
REMARK SMILES IDX 28 35 29 36 30 37 65 38 31 39 70 40 64 41 66 42 32 43 69 44
REMARK SMILES IDX 63 45 62 46 33 48 55 49 40 50 54 51 41 52 44 53 53 54 67 55
REMARK SMILES IDX 42 56 43 57 52 59 68 60 45 61 34 62 35 63 39 64 36 65 38 66
REMARK SMILES IDX 37 67 56 68 57 69 61 70 58 71 60 72 59 73 46 74 47 75 51 76
REMARK SMILES IDX 48 77 50 78 49 79
REMARK H PARENT 2 22 66 47 44 58
REMARK Flexibility Score: inf
ROOT
ATOM      1  C   UNL A   1      39.857  21.561  26.394  1.00  0.00     0.188 C 
ENDROOT
BRANCH   1   2
ATOM      2  O   UNL A   1      38.917  21.271  25.372  1.00  0.00    -0.376 OA
BRANCH   2   3
ATOM      3  C   UNL A   1      37.604  21.811  25.430  1.00  0.00     0.202 C 
BRANCH   3   4
ATOM      4  C   UNL A   1      36.368  20.968  25.069  1.00  0.00     0.261 C 
BRANCH   4   5
ATOM      5  O   UNL A   1      35.216  21.706  24.637  1.00  0.00    -0.460 OA
BRANCH   5   6
ATOM      6  C   UNL A   1      34.019  21.097  24.829  1.00  0.00     0.338 C 
ATOM      7  O   UNL A   1      33.819  19.919  25.057  1.00  0.00    -0.246 OA
BRANCH   6   8
ATOM      8  C   UNL A   1      32.959  22.124  24.929  1.00  0.00     0.063 A 
ATOM      9  C   UNL A   1      32.100  24.330  24.567  1.00  0.00     0.090 A 
ATOM     10  C   UNL A   1      33.157  23.425  24.473  1.00  0.00     0.046 A 
ATOM     11  N   UNL A   1      30.927  23.994  25.167  1.00  0.00    -0.255 NA
ATOM     12  C   UNL A   1      30.778  22.734  25.630  1.00  0.00     0.112 A 
ATOM     13  C   UNL A   1      31.746  21.760  25.509  1.00  0.00     0.036 A 
BRANCH   9  14
ATOM     14  C   UNL A   1      32.133  25.623  23.851  1.00  0.00     0.094 A 
ATOM     15  C   UNL A   1      31.020  27.443  22.986  1.00  0.00     0.222 A 
ATOM     16  N   UNL A   1      32.130  27.919  22.403  1.00  0.00    -0.222 NA
ATOM     17  N   UNL A   1      30.975  26.315  23.711  1.00  0.00    -0.211 NA
ATOM     18  C   UNL A   1      33.262  27.229  22.582  1.00  0.00     0.117 A 
ATOM     19  C   UNL A   1      33.323  26.069  23.305  1.00  0.00     0.051 A 
BRANCH  15  20
ATOM     20  N   UNL A   1      29.924  28.242  22.826  1.00  0.00    -0.357 N 
ATOM     21  C   UNL A   1      29.823  29.549  23.399  1.00  0.00     0.143 C 
ATOM     22  H   UNL A   1      29.169  27.902  22.292  1.00  0.00     0.163 HD
ENDBRANCH  15  20
ENDBRANCH   9  14
ENDBRANCH   6   8
ENDBRANCH   5   6
ENDBRANCH   4   5
ENDBRANCH   3   4
ENDBRANCH   2   3
ENDBRANCH   1   2
BRANCH   1  23
ATOM     23  C   UNL A   1      40.915  20.514  26.806  1.00  0.00     0.188 C 
BRANCH  23  24
ATOM     24  O   UNL A   1      41.724  20.047  25.756  1.00  0.00    -0.376 OA
BRANCH  24  25
ATOM     25  C   UNL A   1      43.129  20.221  25.818  1.00  0.00     0.202 C 
BRANCH  25  26
ATOM     26  C   UNL A   1      43.901  21.483  25.374  1.00  0.00     0.261 C 
BRANCH  26  27
ATOM     27  O   UNL A   1      43.163  22.660  25.031  1.00  0.00    -0.460 OA
BRANCH  27  28
ATOM     28  C   UNL A   1      43.863  23.820  25.006  1.00  0.00     0.338 C 
ATOM     29  O   UNL A   1      44.802  24.102  24.287  1.00  0.00    -0.246 OA
BRANCH  28  30
ATOM     30  C   UNL A   1      43.193  24.791  25.894  1.00  0.00     0.060 A 
ATOM     31  C   UNL A   1      43.715  26.089  25.996  1.00  0.00     0.016 A 
ATOM     32  C   UNL A   1      42.084  24.411  26.650  1.00  0.00     0.016 A 
ATOM     33  C   UNL A   1      43.141  27.004  26.879  1.00  0.00     0.010 A 
ATOM     34  C   UNL A   1      41.523  25.324  27.548  1.00  0.00     0.010 A 
ATOM     35  C   UNL A   1      42.067  26.614  27.690  1.00  0.00    -0.014 A 
BRANCH  35  36
ATOM     36  C   UNL A   1      41.633  27.480  28.813  1.00  0.00     0.031 A 
ATOM     37  C   UNL A   1      42.383  27.397  30.116  1.00  0.00     0.074 A 
ATOM     38  C   UNL A   1      40.600  28.330  28.688  1.00  0.00     0.049 A 
ATOM     39  N   UNL A   1      42.150  28.005  31.250  1.00  0.00    -0.248 NA
ATOM     40  C   UNL A   1      43.554  26.503  30.139  1.00  0.00     0.031 C 
ATOM     41  C   UNL A   1      39.819  28.543  27.470  1.00  0.00     0.029 A 
ATOM     42  N   UNL A   1      40.023  29.170  29.610  1.00  0.00    -0.354 N 
ATOM     43  C   UNL A   1      43.132  27.556  32.126  1.00  0.00     0.074 A 
ATOM     44  C   UNL A   1      43.945  26.606  31.400  1.00  0.00     0.031 C 
ATOM     45  C   UNL A   1      38.857  29.449  27.724  1.00  0.00     0.029 A 
ATOM     46  C   UNL A   1      38.930  29.847  29.129  1.00  0.00     0.049 A 
ATOM     47  H   UNL A   1      40.363  29.276  30.527  1.00  0.00     0.167 HD
ATOM     48  C   UNL A   1      43.342  27.907  33.417  1.00  0.00     0.031 A 
ATOM     49  C   UNL A   1      38.071  30.673  29.758  1.00  0.00     0.031 A 
ATOM     50  C   UNL A   1      42.523  28.838  34.146  1.00  0.00     0.049 A 
ATOM     51  C   UNL A   1      38.273  30.982  31.221  1.00  0.00     0.074 A 
ATOM     52  C   UNL A   1      42.665  29.268  35.454  1.00  0.00     0.029 A 
ATOM     53  N   UNL A   1      41.405  29.476  33.633  1.00  0.00    -0.354 N 
ATOM     54  N   UNL A   1      39.220  30.572  32.031  1.00  0.00    -0.248 NA
ATOM     55  C   UNL A   1      37.290  31.876  31.851  1.00  0.00     0.031 C 
ATOM     56  C   UNL A   1      41.592  30.114  35.752  1.00  0.00     0.029 A 
ATOM     57  C   UNL A   1      40.828  30.272  34.608  1.00  0.00     0.049 A 
ATOM     58  H   UNL A   1      41.071  29.377  32.712  1.00  0.00     0.167 HD
ATOM     59  C   UNL A   1      38.967  31.188  33.252  1.00  0.00     0.074 A 
ATOM     60  C   UNL A   1      37.788  32.007  33.072  1.00  0.00     0.031 C 
ATOM     61  C   UNL A   1      39.656  31.088  34.417  1.00  0.00     0.031 A 
BRANCH  48  62
ATOM     62  C   UNL A   1      44.480  27.238  34.138  1.00  0.00    -0.014 A 
ATOM     63  C   UNL A   1      44.305  26.025  34.822  1.00  0.00     0.009 A 
ATOM     64  C   UNL A   1      45.758  27.819  34.104  1.00  0.00     0.009 A 
ATOM     65  C   UNL A   1      45.378  25.428  35.490  1.00  0.00     0.001 A 
ATOM     66  C   UNL A   1      46.835  27.203  34.743  1.00  0.00     0.001 A 
ATOM     67  C   UNL A   1      46.642  26.014  35.445  1.00  0.00     0.000 A 
ENDBRANCH  48  62
BRANCH  49  68
ATOM     68  C   UNL A   1      36.918  31.257  29.020  1.00  0.00    -0.014 A 
ATOM     69  C   UNL A   1      36.919  32.607  28.639  1.00  0.00     0.009 A 
ATOM     70  C   UNL A   1      35.794  30.472  28.721  1.00  0.00     0.009 A 
ATOM     71  C   UNL A   1      35.808  33.166  28.001  1.00  0.00     0.001 A 
ATOM     72  C   UNL A   1      34.698  31.024  28.053  1.00  0.00     0.001 A 
ATOM     73  C   UNL A   1      34.701  32.372  27.705  1.00  0.00     0.000 A 
ENDBRANCH  49  68
BRANCH  61  74
ATOM     74  C   UNL A   1      39.188  31.927  35.576  1.00  0.00    -0.014 A 
ATOM     75  C   UNL A   1      38.305  31.422  36.544  1.00  0.00     0.009 A 
ATOM     76  C   UNL A   1      39.681  33.233  35.725  1.00  0.00     0.009 A 
ATOM     77  C   UNL A   1      37.896  32.224  37.613  1.00  0.00     0.001 A 
ATOM     78  C   UNL A   1      39.298  34.019  36.813  1.00  0.00     0.001 A 
ATOM     79  C   UNL A   1      38.397  33.518  37.749  1.00  0.00     0.000 A 
ENDBRANCH  61  74
ENDBRANCH  35  36
ENDBRANCH  28  30
ENDBRANCH  27  28
ENDBRANCH  26  27
ENDBRANCH  25  26
ENDBRANCH  24  25
ENDBRANCH  23  24
ENDBRANCH   1  23
TORSDOF 19
ENDMDL
MODEL 3
REMARK VINA RESULT:      -9.2      3.802      8.120
REMARK SMILES CNc1nccc(-c2cc(C(=O)OCCOCCOCCOC(=O)c3ccc(-c4c5nc(c(-c6ccccc6)c6ccc([nH]6)c(-c6ccccc6)c6nc(c(-c7ccccc7)c7ccc4[nH]7)C=C6)C=C5)cc3)ccn2)n1
REMARK SMILES IDX 17 1 16 2 15 3 14 4 13 5 11 6 12 7 10 8 8 9 9 10 75 11 74 12
REMARK SMILES IDX 73 13 7 14 3 15 4 16 76 17 5 18 6 19 2 20 1 21 18 23 19 24
REMARK SMILES IDX 20 25 21 26 22 27 23 28 24 29 25 30 26 31 72 32 27 33 71 34
REMARK SMILES IDX 28 35 29 36 30 37 65 38 31 39 70 40 64 41 66 42 32 43 69 44
REMARK SMILES IDX 63 45 62 46 33 48 55 49 40 50 54 51 41 52 44 53 53 54 67 55
REMARK SMILES IDX 42 56 43 57 52 59 68 60 45 61 34 62 35 63 39 64 36 65 38 66
REMARK SMILES IDX 37 67 56 68 57 69 61 70 58 71 60 72 59 73 46 74 47 75 51 76
REMARK SMILES IDX 48 77 50 78 49 79
REMARK H PARENT 2 22 66 47 44 58
REMARK Flexibility Score: inf
ROOT
ATOM      1  C   UNL A   1      34.457  20.066  25.372  1.00  0.00     0.188 C 
ENDROOT
BRANCH   1   2
ATOM      2  O   UNL A   1      33.799  21.224  24.881  1.00  0.00    -0.376 OA
BRANCH   2   3
ATOM      3  C   UNL A   1      32.849  21.116  23.830  1.00  0.00     0.202 C 
BRANCH   3   4
ATOM      4  C   UNL A   1      32.713  22.206  22.751  1.00  0.00     0.261 C 
BRANCH   4   5
ATOM      5  O   UNL A   1      32.823  23.559  23.216  1.00  0.00    -0.460 OA
BRANCH   5   6
ATOM      6  C   UNL A   1      31.650  24.192  23.468  1.00  0.00     0.338 C 
ATOM      7  O   UNL A   1      30.668  23.735  24.020  1.00  0.00    -0.246 OA
BRANCH   6   8
ATOM      8  C   UNL A   1      31.794  25.631  23.152  1.00  0.00     0.063 A 
ATOM      9  C   UNL A   1      30.905  27.765  22.527  1.00  0.00     0.090 A 
ATOM     10  C   UNL A   1      30.701  26.408  22.774  1.00  0.00     0.046 A 
ATOM     11  N   UNL A   1      32.149  28.315  22.561  1.00  0.00    -0.255 NA
ATOM     12  C   UNL A   1      33.193  27.527  22.897  1.00  0.00     0.112 A 
ATOM     13  C   UNL A   1      33.064  26.195  23.228  1.00  0.00     0.036 A 
BRANCH   9  14
ATOM     14  C   UNL A   1      29.768  28.703  22.409  1.00  0.00     0.094 A 
ATOM     15  C   UNL A   1      28.908  30.695  21.642  1.00  0.00     0.222 A 
ATOM     16  N   UNL A   1      27.756  30.521  22.306  1.00  0.00    -0.222 NA
ATOM     17  N   UNL A   1      29.928  29.824  21.663  1.00  0.00    -0.211 NA
ATOM     18  C   UNL A   1      27.617  29.392  23.011  1.00  0.00     0.117 A 
ATOM     19  C   UNL A   1      28.596  28.440  23.094  1.00  0.00     0.051 A 
BRANCH  15  20
ATOM     20  N   UNL A   1      28.945  31.830  20.882  1.00  0.00    -0.357 N 
ATOM     21  C   UNL A   1      27.779  32.403  20.283  1.00  0.00     0.143 C 
ATOM     22  H   UNL A   1      29.813  32.272  20.740  1.00  0.00     0.163 HD
ENDBRANCH  15  20
ENDBRANCH   9  14
ENDBRANCH   6   8
ENDBRANCH   5   6
ENDBRANCH   4   5
ENDBRANCH   3   4
ENDBRANCH   2   3
ENDBRANCH   1   2
BRANCH   1  23
ATOM     23  C   UNL A   1      35.915  19.762  24.965  1.00  0.00     0.188 C 
BRANCH  23  24
ATOM     24  O   UNL A   1      36.794  20.855  25.054  1.00  0.00    -0.376 OA
BRANCH  24  25
ATOM     25  C   UNL A   1      38.194  20.636  25.030  1.00  0.00     0.202 C 
BRANCH  25  26
ATOM     26  C   UNL A   1      39.199  21.107  26.104  1.00  0.00     0.261 C 
BRANCH  26  27
ATOM     27  O   UNL A   1      39.958  20.126  26.818  1.00  0.00    -0.460 OA
BRANCH  27  28
ATOM     28  C   UNL A   1      41.199  19.865  26.341  1.00  0.00     0.338 C 
ATOM     29  O   UNL A   1      41.559  18.893  25.706  1.00  0.00    -0.246 OA
BRANCH  28  30
ATOM     30  C   UNL A   1      42.047  21.054  26.567  1.00  0.00     0.060 A 
ATOM     31  C   UNL A   1      42.340  21.436  27.883  1.00  0.00     0.016 A 
ATOM     32  C   UNL A   1      42.513  21.805  25.489  1.00  0.00     0.016 A 
ATOM     33  C   UNL A   1      43.082  22.593  28.125  1.00  0.00     0.010 A 
ATOM     34  C   UNL A   1      43.239  22.975  25.734  1.00  0.00     0.010 A 
ATOM     35  C   UNL A   1      43.500  23.392  27.052  1.00  0.00    -0.014 A 
BRANCH  35  36
ATOM     36  C   UNL A   1      44.043  24.748  27.305  1.00  0.00     0.031 A 
ATOM     37  C   UNL A   1      43.090  25.838  27.719  1.00  0.00     0.074 A 
ATOM     38  C   UNL A   1      45.355  25.016  27.179  1.00  0.00     0.049 A 
ATOM     39  N   UNL A   1      43.321  27.108  27.931  1.00  0.00    -0.248 NA
ATOM     40  C   UNL A   1      41.687  25.437  27.916  1.00  0.00     0.031 C 
ATOM     41  C   UNL A   1      46.390  24.045  26.832  1.00  0.00     0.029 A 
ATOM     42  N   UNL A   1      46.036  26.201  27.322  1.00  0.00    -0.354 N 
ATOM     43  C   UNL A   1      42.091  27.660  28.270  1.00  0.00     0.074 A 
ATOM     44  C   UNL A   1      41.115  26.595  28.208  1.00  0.00     0.031 C 
ATOM     45  C   UNL A   1      47.577  24.676  26.778  1.00  0.00     0.029 A 
ATOM     46  C   UNL A   1      47.378  26.099  27.047  1.00  0.00     0.049 A 
ATOM     47  H   UNL A   1      45.604  27.041  27.595  1.00  0.00     0.167 HD
ATOM     48  C   UNL A   1      41.800  28.939  28.607  1.00  0.00     0.031 A 
ATOM     49  C   UNL A   1      48.330  27.050  26.994  1.00  0.00     0.031 A 
ATOM     50  C   UNL A   1      42.766  30.004  28.653  1.00  0.00     0.049 A 
ATOM     51  C   UNL A   1      47.966  28.485  27.289  1.00  0.00     0.074 A 
ATOM     52  C   UNL A   1      42.569  31.330  28.997  1.00  0.00     0.029 A 
ATOM     53  N   UNL A   1      44.107  29.867  28.334  1.00  0.00    -0.354 N 
ATOM     54  N   UNL A   1      46.806  28.991  27.633  1.00  0.00    -0.248 NA
ATOM     55  C   UNL A   1      49.049  29.475  27.195  1.00  0.00     0.031 C 
ATOM     56  C   UNL A   1      43.779  32.010  28.821  1.00  0.00     0.029 A 
ATOM     57  C   UNL A   1      44.745  31.091  28.443  1.00  0.00     0.049 A 
ATOM     58  H   UNL A   1      44.542  29.024  28.069  1.00  0.00     0.167 HD
ATOM     59  C   UNL A   1      47.029  30.349  27.834  1.00  0.00     0.074 A 
ATOM     60  C   UNL A   1      48.435  30.584  27.585  1.00  0.00     0.031 C 
ATOM     61  C   UNL A   1      46.148  31.314  28.198  1.00  0.00     0.031 A 
BRANCH  48  62
ATOM     62  C   UNL A   1      40.362  29.264  28.909  1.00  0.00    -0.014 A 
ATOM     63  C   UNL A   1      39.395  29.329  27.894  1.00  0.00     0.009 A 
ATOM     64  C   UNL A   1      39.965  29.478  30.239  1.00  0.00     0.009 A 
ATOM     65  C   UNL A   1      38.067  29.639  28.200  1.00  0.00     0.001 A 
ATOM     66  C   UNL A   1      38.632  29.755  30.546  1.00  0.00     0.001 A 
ATOM     67  C   UNL A   1      37.687  29.846  29.525  1.00  0.00     0.000 A 
ENDBRANCH  48  62
BRANCH  49  68
ATOM     68  C   UNL A   1      49.726  26.692  26.623  1.00  0.00    -0.014 A 
ATOM     69  C   UNL A   1      50.173  26.820  25.298  1.00  0.00     0.009 A 
ATOM     70  C   UNL A   1      50.612  26.189  27.588  1.00  0.00     0.009 A 
ATOM     71  C   UNL A   1      51.465  26.423  24.943  1.00  0.00     0.001 A 
ATOM     72  C   UNL A   1      51.914  25.824  27.238  1.00  0.00     0.001 A 
ATOM     73  C   UNL A   1      52.335  25.931  25.914  1.00  0.00     0.000 A 
ENDBRANCH  49  68
BRANCH  61  74
ATOM     74  C   UNL A   1      46.684  32.704  28.406  1.00  0.00    -0.014 A 
ATOM     75  C   UNL A   1      46.651  33.669  27.387  1.00  0.00     0.009 A 
ATOM     76  C   UNL A   1      47.190  33.067  29.665  1.00  0.00     0.009 A 
ATOM     77  C   UNL A   1      47.151  34.954  27.615  1.00  0.00     0.001 A 
ATOM     78  C   UNL A   1      47.655  34.361  29.900  1.00  0.00     0.001 A 
ATOM     79  C   UNL A   1      47.646  35.301  28.872  1.00  0.00     0.000 A 
ENDBRANCH  61  74
ENDBRANCH  35  36
ENDBRANCH  28  30
ENDBRANCH  27  28
ENDBRANCH  26  27
ENDBRANCH  25  26
ENDBRANCH  24  25
ENDBRANCH  23  24
ENDBRANCH   1  23
TORSDOF 19
ENDMDL
