MODEL 1
REMARK VINA RESULT:      -9.1      0.000      0.000
REMARK SMILES CC[NH2+][C@@]1(C(=O)OCCOCCOCCOC(=O)c2ccc(-c3c4nc(c(-c5ccccc5)c5ccc([nH]5)c(-c5ccccc5)c5nc(c(-c6ccccc6)c6ccc3[nH]6)C=C5)C=C4)cc2)CC[C@H]([NH+]2CCC(C[NH+](C)C)CC2)C1
REMARK SMILES IDX 11 1 10 2 9 3 8 4 7 5 5 6 6 7 4 8 67 9 80 10 68 11 69 12
REMARK SMILES IDX 3 13 2 16 1 17 70 18 71 19 79 20 72 22 78 23 73 24 74 25
REMARK SMILES IDX 75 26 76 27 77 28 12 30 13 31 14 32 15 33 16 34 17 35 18 36
REMARK SMILES IDX 19 37 20 38 66 39 21 40 65 41 22 42 23 43 24 44 59 45 25 46
REMARK SMILES IDX 64 47 58 48 60 49 26 50 63 51 57 52 56 53 27 55 49 56 34 57
REMARK SMILES IDX 48 58 35 59 38 60 47 61 61 62 36 63 37 64 46 66 62 67 39 68
REMARK SMILES IDX 28 69 29 70 33 71 30 72 32 73 31 74 50 75 51 76 55 77 52 78
REMARK SMILES IDX 54 79 53 80 40 81 41 82 45 83 42 84 44 85 43 86
REMARK H PARENT 3 14 3 15 70 21 75 29 60 54 38 65
REMARK Flexibility Score: inf
ROOT
ATOM      1  C   UNL A   1      29.742  29.429  22.358  1.00  0.00     0.188 C 
ENDROOT
BRANCH   1   2
ATOM      2  O   UNL A   1      29.633  28.013  22.456  1.00  0.00    -0.376 OA
BRANCH   2   3
ATOM      3  C   UNL A   1      28.799  27.519  23.510  1.00  0.00     0.202 C 
BRANCH   3   4
ATOM      4  C   UNL A   1      28.938  26.024  23.827  1.00  0.00     0.261 C 
BRANCH   4   5
ATOM      5  O   UNL A   1      30.183  25.727  24.494  1.00  0.00    -0.459 OA
BRANCH   5   6
ATOM      6  C   UNL A   1      31.119  25.086  23.742  1.00  0.00     0.368 C 
ATOM      7  O   UNL A   1      30.856  24.138  23.008  1.00  0.00    -0.245 OA
BRANCH   6   8
ATOM      8  C   UNL A   1      32.526  25.763  23.810  1.00  0.00     0.200 C 
ATOM      9  C   UNL A   1      33.565  24.919  23.052  1.00  0.00     0.087 C 
ATOM     10  C   UNL A   1      33.155  25.825  25.217  1.00  0.00     0.146 C 
ATOM     11  C   UNL A   1      34.033  23.870  24.061  1.00  0.00     0.072 C 
ATOM     12  C   UNL A   1      33.891  24.494  25.459  1.00  0.00     0.191 C 
BRANCH   8  13
ATOM     13  N   UNL A   1      32.453  27.156  23.276  1.00  0.00    -0.332 N 
ATOM     14  H   UNL A   1      31.550  27.272  22.816  1.00  0.00     0.347 HD
ATOM     15  H   UNL A   1      32.581  27.776  24.076  1.00  0.00     0.347 HD
BRANCH  13  16
ATOM     16  C   UNL A   1      33.502  27.502  22.315  1.00  0.00     0.257 C 
ATOM     17  C   UNL A   1      34.069  28.872  22.657  1.00  0.00     0.071 C 
ENDBRANCH  13  16
ENDBRANCH   8  13
BRANCH  12  18
ATOM     18  N   UNL A   1      33.405  23.697  26.597  1.00  0.00    -0.332 N 
ATOM     19  C   UNL A   1      34.358  22.769  27.193  1.00  0.00     0.262 C 
ATOM     20  C   UNL A   1      32.103  23.047  26.530  1.00  0.00     0.262 C 
ATOM     21  H   UNL A   1      33.270  24.503  27.208  1.00  0.00     0.348 HD
ATOM     22  C   UNL A   1      34.521  21.456  26.429  1.00  0.00     0.071 C 
ATOM     23  C   UNL A   1      32.095  21.829  25.624  1.00  0.00     0.071 C 
ATOM     24  C   UNL A   1      33.236  20.812  25.862  1.00  0.00     0.055 C 
BRANCH  24  25
ATOM     25  C   UNL A   1      33.449  20.075  24.500  1.00  0.00     0.265 C 
BRANCH  25  26
ATOM     26  N   UNL A   1      33.448  18.604  24.410  1.00  0.00    -0.340 N 
ATOM     27  C   UNL A   1      34.829  18.137  24.631  1.00  0.00     0.332 C 
ATOM     28  C   UNL A   1      32.581  17.945  25.383  1.00  0.00     0.332 C 
ATOM     29  H   UNL A   1      33.086  18.363  23.487  1.00  0.00     0.347 HD
ENDBRANCH  25  26
ENDBRANCH  24  25
ENDBRANCH  12  18
ENDBRANCH   6   8
ENDBRANCH   5   6
ENDBRANCH   4   5
ENDBRANCH   3   4
ENDBRANCH   2   3
ENDBRANCH   1   2
BRANCH   1  30
ATOM     30  C   UNL A   1      30.050  30.180  23.659  1.00  0.00     0.188 C 
BRANCH  30  31
ATOM     31  O   UNL A   1      31.298  29.858  24.255  1.00  0.00    -0.376 OA
BRANCH  31  32
ATOM     32  C   UNL A   1      31.379  29.943  25.677  1.00  0.00     0.202 C 
BRANCH  32  33
ATOM     33  C   UNL A   1      31.577  31.375  26.217  1.00  0.00     0.261 C 
BRANCH  33  34
ATOM     34  O   UNL A   1      32.362  31.464  27.423  1.00  0.00    -0.460 OA
BRANCH  34  35
ATOM     35  C   UNL A   1      33.231  32.499  27.502  1.00  0.00     0.338 C 
ATOM     36  O   UNL A   1      32.954  33.685  27.422  1.00  0.00    -0.246 OA
BRANCH  35  37
ATOM     37  C   UNL A   1      34.539  31.979  27.987  1.00  0.00     0.060 A 
ATOM     38  C   UNL A   1      34.672  30.592  28.149  1.00  0.00     0.016 A 
ATOM     39  C   UNL A   1      35.650  32.811  28.176  1.00  0.00     0.016 A 
ATOM     40  C   UNL A   1      35.877  30.048  28.593  1.00  0.00     0.010 A 
ATOM     41  C   UNL A   1      36.859  32.267  28.625  1.00  0.00     0.010 A 
ATOM     42  C   UNL A   1      36.954  30.891  28.898  1.00  0.00    -0.014 A 
BRANCH  42  43
ATOM     43  C   UNL A   1      38.013  30.393  29.810  1.00  0.00     0.031 A 
ATOM     44  C   UNL A   1      39.044  29.465  29.219  1.00  0.00     0.074 A 
ATOM     45  C   UNL A   1      38.107  30.761  31.099  1.00  0.00     0.049 A 
ATOM     46  N   UNL A   1      40.093  28.915  29.774  1.00  0.00    -0.248 NA
ATOM     47  C   UNL A   1      38.856  29.107  27.802  1.00  0.00     0.031 C 
ATOM     48  C   UNL A   1      37.195  31.662  31.797  1.00  0.00     0.029 A 
ATOM     49  N   UNL A   1      39.031  30.406  32.052  1.00  0.00    -0.354 N 
ATOM     50  C   UNL A   1      40.681  28.147  28.776  1.00  0.00     0.074 A 
ATOM     51  C   UNL A   1      39.851  28.263  27.600  1.00  0.00     0.031 C 
ATOM     52  C   UNL A   1      37.604  31.789  33.073  1.00  0.00     0.029 A 
ATOM     53  C   UNL A   1      38.793  30.963  33.284  1.00  0.00     0.049 A 
ATOM     54  H   UNL A   1      39.792  29.810  31.869  1.00  0.00     0.167 HD
ATOM     55  C   UNL A   1      41.817  27.413  28.822  1.00  0.00     0.031 A 
ATOM     56  C   UNL A   1      39.459  30.816  34.447  1.00  0.00     0.031 A 
ATOM     57  C   UNL A   1      42.634  27.266  29.992  1.00  0.00     0.049 A 
ATOM     58  C   UNL A   1      40.696  29.957  34.497  1.00  0.00     0.074 A 
ATOM     59  C   UNL A   1      43.810  26.553  30.141  1.00  0.00     0.029 A 
ATOM     60  N   UNL A   1      42.348  27.834  31.224  1.00  0.00    -0.354 N 
ATOM     61  N   UNL A   1      41.270  29.273  33.535  1.00  0.00    -0.248 NA
ATOM     62  C   UNL A   1      41.390  29.867  35.791  1.00  0.00     0.031 C 
ATOM     63  C   UNL A   1      44.207  26.647  31.479  1.00  0.00     0.029 A 
ATOM     64  C   UNL A   1      43.312  27.470  32.146  1.00  0.00     0.049 A 
ATOM     65  H   UNL A   1      41.572  28.411  31.413  1.00  0.00     0.167 HD
ATOM     66  C   UNL A   1      42.405  28.698  34.100  1.00  0.00     0.074 A 
ATOM     67  C   UNL A   1      42.444  29.124  35.483  1.00  0.00     0.031 C 
ATOM     68  C   UNL A   1      43.335  27.896  33.522  1.00  0.00     0.031 A 
BRANCH  55  69
ATOM     69  C   UNL A   1      42.194  26.679  27.565  1.00  0.00    -0.014 A 
ATOM     70  C   UNL A   1      41.837  25.335  27.367  1.00  0.00     0.009 A 
ATOM     71  C   UNL A   1      42.958  27.331  26.586  1.00  0.00     0.009 A 
ATOM     72  C   UNL A   1      42.287  24.643  26.240  1.00  0.00     0.001 A 
ATOM     73  C   UNL A   1      43.377  26.646  25.444  1.00  0.00     0.001 A 
ATOM     74  C   UNL A   1      43.055  25.300  25.281  1.00  0.00     0.000 A 
ENDBRANCH  55  69
BRANCH  56  75
ATOM     75  C   UNL A   1      38.965  31.500  35.671  1.00  0.00    -0.014 A 
ATOM     76  C   UNL A   1      38.181  30.817  36.615  1.00  0.00     0.009 A 
ATOM     77  C   UNL A   1      39.277  32.850  35.901  1.00  0.00     0.009 A 
ATOM     78  C   UNL A   1      37.707  31.475  37.752  1.00  0.00     0.001 A 
ATOM     79  C   UNL A   1      38.823  33.498  37.052  1.00  0.00     0.001 A 
ATOM     80  C   UNL A   1      38.035  32.812  37.973  1.00  0.00     0.000 A 
ENDBRANCH  56  75
BRANCH  68  81
ATOM     81  C   UNL A   1      44.497  27.458  34.371  1.00  0.00    -0.014 A 
ATOM     82  C   UNL A   1      45.722  28.142  34.350  1.00  0.00     0.009 A 
ATOM     83  C   UNL A   1      44.344  26.365  35.240  1.00  0.00     0.009 A 
ATOM     84  C   UNL A   1      46.782  27.716  35.155  1.00  0.00     0.001 A 
ATOM     85  C   UNL A   1      45.395  25.961  36.065  1.00  0.00     0.001 A 
ATOM     86  C   UNL A   1      46.617  26.630  36.014  1.00  0.00     0.000 A 
ENDBRANCH  68  81
ENDBRANCH  42  43
ENDBRANCH  35  37
ENDBRANCH  34  35
ENDBRANCH  33  34
ENDBRANCH  32  33
ENDBRANCH  31  32
ENDBRANCH  30  31
ENDBRANCH   1  30
TORSDOF 22
ENDMDL
MODEL 2
REMARK VINA RESULT:      -9.1      1.691      6.411
REMARK SMILES CC[NH2+][C@@]1(C(=O)OCCOCCOCCOC(=O)c2ccc(-c3c4nc(c(-c5ccccc5)c5ccc([nH]5)c(-c5ccccc5)c5nc(c(-c6ccccc6)c6ccc3[nH]6)C=C5)C=C4)cc2)CC[C@H]([NH+]2CCC(C[NH+](C)C)CC2)C1
REMARK SMILES IDX 11 1 10 2 9 3 8 4 7 5 5 6 6 7 4 8 67 9 80 10 68 11 69 12
REMARK SMILES IDX 3 13 2 16 1 17 70 18 71 19 79 20 72 22 78 23 73 24 74 25
REMARK SMILES IDX 75 26 76 27 77 28 12 30 13 31 14 32 15 33 16 34 17 35 18 36
REMARK SMILES IDX 19 37 20 38 66 39 21 40 65 41 22 42 23 43 24 44 59 45 25 46
REMARK SMILES IDX 64 47 58 48 60 49 26 50 63 51 57 52 56 53 27 55 49 56 34 57
REMARK SMILES IDX 48 58 35 59 38 60 47 61 61 62 36 63 37 64 46 66 62 67 39 68
REMARK SMILES IDX 28 69 29 70 33 71 30 72 32 73 31 74 50 75 51 76 55 77 52 78
REMARK SMILES IDX 54 79 53 80 40 81 41 82 45 83 42 84 44 85 43 86
REMARK H PARENT 3 14 3 15 70 21 75 29 60 54 38 65
REMARK Flexibility Score: inf
ROOT
ATOM      1  C   UNL A   1      30.087  27.928  22.690  1.00  0.00     0.188 C 
ENDROOT
BRANCH   1   2
ATOM      2  O   UNL A   1      30.792  26.727  22.986  1.00  0.00    -0.376 OA
BRANCH   2   3
ATOM      3  C   UNL A   1      31.630  26.218  21.943  1.00  0.00     0.202 C 
BRANCH   3   4
ATOM      4  C   UNL A   1      33.138  26.238  22.228  1.00  0.00     0.261 C 
BRANCH   4   5
ATOM      5  O   UNL A   1      33.579  25.030  22.884  1.00  0.00    -0.459 OA
BRANCH   5   6
ATOM      6  C   UNL A   1      33.630  25.080  24.242  1.00  0.00     0.368 C 
ATOM      7  O   UNL A   1      34.180  25.987  24.862  1.00  0.00    -0.245 OA
BRANCH   6   8
ATOM      8  C   UNL A   1      32.807  23.941  24.927  1.00  0.00     0.200 C 
ATOM      9  C   UNL A   1      33.237  23.774  26.395  1.00  0.00     0.087 C 
ATOM     10  C   UNL A   1      33.065  22.524  24.374  1.00  0.00     0.146 C 
ATOM     11  C   UNL A   1      34.454  22.851  26.347  1.00  0.00     0.072 C 
ATOM     12  C   UNL A   1      34.289  21.950  25.112  1.00  0.00     0.191 C 
BRANCH   8  13
ATOM     13  N   UNL A   1      31.345  24.221  24.810  1.00  0.00    -0.332 N 
ATOM     14  H   UNL A   1      31.225  25.023  24.191  1.00  0.00     0.347 HD
ATOM     15  H   UNL A   1      30.917  23.367  24.451  1.00  0.00     0.347 HD
BRANCH  13  16
ATOM     16  C   UNL A   1      30.672  24.518  26.076  1.00  0.00     0.257 C 
ATOM     17  C   UNL A   1      30.265  25.984  26.099  1.00  0.00     0.071 C 
ENDBRANCH  13  16
ENDBRANCH   8  13
BRANCH  12  18
ATOM     18  N   UNL A   1      35.443  21.612  24.262  1.00  0.00    -0.332 N 
ATOM     19  C   UNL A   1      36.411  20.678  24.823  1.00  0.00     0.262 C 
ATOM     20  C   UNL A   1      36.166  22.666  23.562  1.00  0.00     0.262 C 
ATOM     21  H   UNL A   1      34.883  21.151  23.545  1.00  0.00     0.348 HD
ATOM     22  C   UNL A   1      37.400  21.307  25.802  1.00  0.00     0.071 C 
ATOM     23  C   UNL A   1      37.040  23.498  24.482  1.00  0.00     0.071 C 
ATOM     24  C   UNL A   1      37.962  22.698  25.432  1.00  0.00     0.055 C 
BRANCH  24  25
ATOM     25  C   UNL A   1      38.217  23.622  26.666  1.00  0.00     0.265 C 
BRANCH  25  26
ATOM     26  N   UNL A   1      39.568  24.109  27.001  1.00  0.00    -0.340 N 
ATOM     27  C   UNL A   1      39.438  25.067  28.115  1.00  0.00     0.332 C 
ATOM     28  C   UNL A   1      40.499  23.059  27.407  1.00  0.00     0.332 C 
ATOM     29  H   UNL A   1      39.952  24.527  26.154  1.00  0.00     0.347 HD
ENDBRANCH  25  26
ENDBRANCH  24  25
ENDBRANCH  12  18
ENDBRANCH   6   8
ENDBRANCH   5   6
ENDBRANCH   4   5
ENDBRANCH   3   4
ENDBRANCH   2   3
ENDBRANCH   1   2
BRANCH   1  30
ATOM     30  C   UNL A   1      30.295  29.098  23.659  1.00  0.00     0.188 C 
BRANCH  30  31
ATOM     31  O   UNL A   1      31.624  29.253  24.132  1.00  0.00    -0.376 OA
BRANCH  31  32
ATOM     32  C   UNL A   1      31.817  29.224  25.546  1.00  0.00     0.202 C 
BRANCH  32  33
ATOM     33  C   UNL A   1      31.972  30.615  26.195  1.00  0.00     0.261 C 
BRANCH  33  34
ATOM     34  O   UNL A   1      32.774  30.638  27.392  1.00  0.00    -0.460 OA
BRANCH  34  35
ATOM     35  C   UNL A   1      33.495  31.763  27.613  1.00  0.00     0.338 C 
ATOM     36  O   UNL A   1      33.051  32.887  27.780  1.00  0.00    -0.246 OA
BRANCH  35  37
ATOM     37  C   UNL A   1      34.901  31.371  27.905  1.00  0.00     0.060 A 
ATOM     38  C   UNL A   1      35.223  30.006  27.855  1.00  0.00     0.016 A 
ATOM     39  C   UNL A   1      35.913  32.317  28.114  1.00  0.00     0.016 A 
ATOM     40  C   UNL A   1      36.527  29.581  28.112  1.00  0.00     0.010 A 
ATOM     41  C   UNL A   1      37.220  31.891  28.375  1.00  0.00     0.010 A 
ATOM     42  C   UNL A   1      37.516  30.518  28.440  1.00  0.00    -0.014 A 
BRANCH  42  43
ATOM     43  C   UNL A   1      38.718  30.056  29.177  1.00  0.00     0.031 A 
ATOM     44  C   UNL A   1      38.801  30.413  30.640  1.00  0.00     0.074 A 
ATOM     45  C   UNL A   1      39.687  29.317  28.613  1.00  0.00     0.049 A 
ATOM     46  N   UNL A   1      39.715  30.108  31.525  1.00  0.00    -0.248 NA
ATOM     47  C   UNL A   1      37.700  31.235  31.170  1.00  0.00     0.031 C 
ATOM     48  C   UNL A   1      39.728  28.883  27.220  1.00  0.00     0.029 A 
ATOM     49  N   UNL A   1      40.836  28.802  29.164  1.00  0.00    -0.354 N 
ATOM     50  C   UNL A   1      39.297  30.705  32.709  1.00  0.00     0.074 A 
ATOM     51  C   UNL A   1      38.079  31.425  32.420  1.00  0.00     0.031 C 
ATOM     52  C   UNL A   1      40.851  28.167  27.022  1.00  0.00     0.029 A 
ATOM     53  C   UNL A   1      41.614  28.110  28.269  1.00  0.00     0.049 A 
ATOM     54  H   UNL A   1      41.078  28.917  30.111  1.00  0.00     0.167 HD
ATOM     55  C   UNL A   1      39.864  30.655  33.937  1.00  0.00     0.031 A 
ATOM     56  C   UNL A   1      42.807  27.506  28.440  1.00  0.00     0.031 A 
ATOM     57  C   UNL A   1      41.089  29.967  34.231  1.00  0.00     0.049 A 
ATOM     58  C   UNL A   1      43.453  27.499  29.802  1.00  0.00     0.074 A 
ATOM     59  C   UNL A   1      41.743  29.848  35.443  1.00  0.00     0.029 A 
ATOM     60  N   UNL A   1      41.853  29.293  33.291  1.00  0.00    -0.354 N 
ATOM     61  N   UNL A   1      43.025  28.026  30.926  1.00  0.00    -0.248 NA
ATOM     62  C   UNL A   1      44.739  26.794  29.923  1.00  0.00     0.031 C 
ATOM     63  C   UNL A   1      42.934  29.145  35.225  1.00  0.00     0.029 A 
ATOM     64  C   UNL A   1      42.986  28.773  33.890  1.00  0.00     0.049 A 
ATOM     65  H   UNL A   1      41.623  29.199  32.338  1.00  0.00     0.167 HD
ATOM     66  C   UNL A   1      43.972  27.691  31.889  1.00  0.00     0.074 A 
ATOM     67  C   UNL A   1      44.989  26.906  31.220  1.00  0.00     0.031 C 
ATOM     68  C   UNL A   1      43.994  28.000  33.210  1.00  0.00     0.031 A 
BRANCH  55  69
ATOM     69  C   UNL A   1      39.169  31.418  35.029  1.00  0.00    -0.014 A 
ATOM     70  C   UNL A   1      39.363  32.800  35.196  1.00  0.00     0.009 A 
ATOM     71  C   UNL A   1      38.345  30.734  35.935  1.00  0.00     0.009 A 
ATOM     72  C   UNL A   1      38.791  33.469  36.279  1.00  0.00     0.001 A 
ATOM     73  C   UNL A   1      37.747  31.412  36.998  1.00  0.00     0.001 A 
ATOM     74  C   UNL A   1      37.983  32.775  37.178  1.00  0.00     0.000 A 
ENDBRANCH  55  69
BRANCH  56  75
ATOM     75  C   UNL A   1      43.477  26.855  27.283  1.00  0.00    -0.014 A 
ATOM     76  C   UNL A   1      44.320  27.586  26.431  1.00  0.00     0.009 A 
ATOM     77  C   UNL A   1      43.271  25.490  27.025  1.00  0.00     0.009 A 
ATOM     78  C   UNL A   1      44.929  26.967  25.337  1.00  0.00     0.001 A 
ATOM     79  C   UNL A   1      43.902  24.869  25.945  1.00  0.00     0.001 A 
ATOM     80  C   UNL A   1      44.725  25.608  25.099  1.00  0.00     0.000 A 
ENDBRANCH  56  75
BRANCH  68  81
ATOM     81  C   UNL A   1      45.129  27.454  34.032  1.00  0.00    -0.014 A 
ATOM     82  C   UNL A   1      45.058  26.192  34.641  1.00  0.00     0.009 A 
ATOM     83  C   UNL A   1      46.311  28.204  34.160  1.00  0.00     0.009 A 
ATOM     84  C   UNL A   1      46.132  25.709  35.393  1.00  0.00     0.001 A 
ATOM     85  C   UNL A   1      47.393  27.705  34.887  1.00  0.00     0.001 A 
ATOM     86  C   UNL A   1      47.299  26.463  35.512  1.00  0.00     0.000 A 
ENDBRANCH  68  81
ENDBRANCH  42  43
ENDBRANCH  35  37
ENDBRANCH  34  35
ENDBRANCH  33  34
ENDBRANCH  32  33
ENDBRANCH  31  32
ENDBRANCH  30  31
ENDBRANCH   1  30
TORSDOF 22
ENDMDL
MODEL 3
REMARK VINA RESULT:      -9.0      1.393      6.139
REMARK SMILES CC[NH2+][C@@]1(C(=O)OCCOCCOCCOC(=O)c2ccc(-c3c4nc(c(-c5ccccc5)c5ccc([nH]5)c(-c5ccccc5)c5nc(c(-c6ccccc6)c6ccc3[nH]6)C=C5)C=C4)cc2)CC[C@H]([NH+]2CCC(C[NH+](C)C)CC2)C1
REMARK SMILES IDX 11 1 10 2 9 3 8 4 7 5 5 6 6 7 4 8 67 9 80 10 68 11 69 12
REMARK SMILES IDX 3 13 2 16 1 17 70 18 71 19 79 20 72 22 78 23 73 24 74 25
REMARK SMILES IDX 75 26 76 27 77 28 12 30 13 31 14 32 15 33 16 34 17 35 18 36
REMARK SMILES IDX 19 37 20 38 66 39 21 40 65 41 22 42 23 43 24 44 59 45 25 46
REMARK SMILES IDX 64 47 58 48 60 49 26 50 63 51 57 52 56 53 27 55 49 56 34 57
REMARK SMILES IDX 48 58 35 59 38 60 47 61 61 62 36 63 37 64 46 66 62 67 39 68
REMARK SMILES IDX 28 69 29 70 33 71 30 72 32 73 31 74 50 75 51 76 55 77 52 78
REMARK SMILES IDX 54 79 53 80 40 81 41 82 45 83 42 84 44 85 43 86
REMARK H PARENT 3 14 3 15 70 21 75 29 60 54 38 65
REMARK Flexibility Score: inf
ROOT
ATOM      1  C   UNL A   1      30.409  27.984  22.760  1.00  0.00     0.188 C 
ENDROOT
BRANCH   1   2
ATOM      2  O   UNL A   1      31.046  26.794  23.215  1.00  0.00    -0.376 OA
BRANCH   2   3
ATOM      3  C   UNL A   1      32.205  26.384  22.481  1.00  0.00     0.202 C 
BRANCH   3   4
ATOM      4  C   UNL A   1      33.529  26.403  23.257  1.00  0.00     0.261 C 
BRANCH   4   5
ATOM      5  O   UNL A   1      33.626  25.301  24.185  1.00  0.00    -0.459 OA
BRANCH   5   6
ATOM      6  C   UNL A   1      33.269  25.576  25.469  1.00  0.00     0.368 C 
ATOM      7  O   UNL A   1      33.798  26.459  26.139  1.00  0.00    -0.245 OA
BRANCH   6   8
ATOM      8  C   UNL A   1      32.035  24.747  25.951  1.00  0.00     0.200 C 
ATOM      9  C   UNL A   1      32.406  23.895  27.178  1.00  0.00     0.087 C 
ATOM     10  C   UNL A   1      31.549  23.664  24.967  1.00  0.00     0.146 C 
ATOM     11  C   UNL A   1      33.023  22.621  26.601  1.00  0.00     0.072 C 
ATOM     12  C   UNL A   1      32.381  22.392  25.223  1.00  0.00     0.191 C 
BRANCH   8  13
ATOM     13  N   UNL A   1      30.885  25.656  26.239  1.00  0.00    -0.332 N 
ATOM     14  H   UNL A   1      30.985  25.999  27.195  1.00  0.00     0.347 HD
ATOM     15  H   UNL A   1      30.922  26.396  25.539  1.00  0.00     0.347 HD
BRANCH  13  16
ATOM     16  C   UNL A   1      29.565  25.035  26.114  1.00  0.00     0.257 C 
ATOM     17  C   UNL A   1      28.688  25.893  25.213  1.00  0.00     0.071 C 
ENDBRANCH  13  16
ENDBRANCH   8  13
BRANCH  12  18
ATOM     18  N   UNL A   1      33.183  21.918  24.083  1.00  0.00    -0.332 N 
ATOM     19  C   UNL A   1      32.479  21.136  23.075  1.00  0.00     0.262 C 
ATOM     20  C   UNL A   1      34.489  21.313  24.312  1.00  0.00     0.262 C 
ATOM     21  H   UNL A   1      33.381  22.854  23.729  1.00  0.00     0.348 HD
ATOM     22  C   UNL A   1      32.265  19.670  23.450  1.00  0.00     0.071 C 
ATOM     23  C   UNL A   1      34.400  19.909  24.883  1.00  0.00     0.071 C 
ATOM     24  C   UNL A   1      33.440  18.948  24.146  1.00  0.00     0.055 C 
BRANCH  24  25
ATOM     25  C   UNL A   1      32.989  17.890  25.205  1.00  0.00     0.265 C 
BRANCH  25  26
ATOM     26  N   UNL A   1      33.130  16.443  24.961  1.00  0.00    -0.340 N 
ATOM     27  C   UNL A   1      34.553  16.095  25.128  1.00  0.00     0.332 C 
ATOM     28  C   UNL A   1      32.345  15.605  25.863  1.00  0.00     0.332 C 
ATOM     29  H   UNL A   1      32.781  16.265  24.019  1.00  0.00     0.347 HD
ENDBRANCH  25  26
ENDBRANCH  24  25
ENDBRANCH  12  18
ENDBRANCH   6   8
ENDBRANCH   5   6
ENDBRANCH   4   5
ENDBRANCH   3   4
ENDBRANCH   2   3
ENDBRANCH   1   2
BRANCH   1  30
ATOM     30  C   UNL A   1      30.442  29.183  23.716  1.00  0.00     0.188 C 
BRANCH  30  31
ATOM     31  O   UNL A   1      31.719  29.479  24.261  1.00  0.00    -0.376 OA
BRANCH  31  32
ATOM     32  C   UNL A   1      31.863  29.367  25.676  1.00  0.00     0.202 C 
BRANCH  32  33
ATOM     33  C   UNL A   1      32.051  30.715  26.404  1.00  0.00     0.261 C 
BRANCH  33  34
ATOM     34  O   UNL A   1      32.930  30.669  27.545  1.00  0.00    -0.460 OA
BRANCH  34  35
ATOM     35  C   UNL A   1      33.736  31.742  27.729  1.00  0.00     0.338 C 
ATOM     36  O   UNL A   1      33.379  32.898  27.882  1.00  0.00    -0.246 OA
BRANCH  35  37
ATOM     37  C   UNL A   1      35.115  31.252  28.001  1.00  0.00     0.060 A 
ATOM     38  C   UNL A   1      35.336  29.867  27.969  1.00  0.00     0.016 A 
ATOM     39  C   UNL A   1      36.197  32.124  28.175  1.00  0.00     0.016 A 
ATOM     40  C   UNL A   1      36.609  29.351  28.208  1.00  0.00     0.010 A 
ATOM     41  C   UNL A   1      37.475  31.608  28.419  1.00  0.00     0.010 A 
ATOM     42  C   UNL A   1      37.671  30.218  28.502  1.00  0.00    -0.014 A 
BRANCH  42  43
ATOM     43  C   UNL A   1      38.850  29.682  29.225  1.00  0.00     0.031 A 
ATOM     44  C   UNL A   1      38.992  30.059  30.678  1.00  0.00     0.074 A 
ATOM     45  C   UNL A   1      39.749  28.860  28.657  1.00  0.00     0.049 A 
ATOM     46  N   UNL A   1      39.899  29.704  31.551  1.00  0.00    -0.248 NA
ATOM     47  C   UNL A   1      37.967  30.973  31.212  1.00  0.00     0.031 C 
ATOM     48  C   UNL A   1      39.727  28.397  27.273  1.00  0.00     0.029 A 
ATOM     49  N   UNL A   1      40.867  28.271  29.196  1.00  0.00    -0.354 N 
ATOM     50  C   UNL A   1      39.552  30.353  32.730  1.00  0.00     0.074 A 
ATOM     51  C   UNL A   1      38.386  31.158  32.450  1.00  0.00     0.031 C 
ATOM     52  C   UNL A   1      40.788  27.595  27.068  1.00  0.00     0.029 A 
ATOM     53  C   UNL A   1      41.571  27.504  28.300  1.00  0.00     0.049 A 
ATOM     54  H   UNL A   1      41.138  28.386  30.135  1.00  0.00     0.167 HD
ATOM     55  C   UNL A   1      40.140  30.285  33.947  1.00  0.00     0.031 A 
ATOM     56  C   UNL A   1      42.719  26.816  28.460  1.00  0.00     0.031 A 
ATOM     57  C   UNL A   1      41.316  29.513  34.231  1.00  0.00     0.049 A 
ATOM     58  C   UNL A   1      43.392  26.786  29.809  1.00  0.00     0.074 A 
ATOM     59  C   UNL A   1      41.986  29.367  35.431  1.00  0.00     0.029 A 
ATOM     60  N   UNL A   1      42.007  28.764  33.290  1.00  0.00    -0.354 N 
ATOM     61  N   UNL A   1      43.030  27.366  30.929  1.00  0.00    -0.248 NA
ATOM     62  C   UNL A   1      44.624  25.989  29.918  1.00  0.00     0.031 C 
ATOM     63  C   UNL A   1      43.115  28.573  35.205  1.00  0.00     0.029 A 
ATOM     64  C   UNL A   1      43.110  28.172  33.878  1.00  0.00     0.049 A 
ATOM     65  H   UNL A   1      41.751  28.669  32.344  1.00  0.00     0.167 HD
ATOM     66  C   UNL A   1      43.969  26.979  31.881  1.00  0.00     0.074 A 
ATOM     67  C   UNL A   1      44.909  26.107  31.208  1.00  0.00     0.031 C 
ATOM     68  C   UNL A   1      44.042  27.311  33.194  1.00  0.00     0.031 A 
BRANCH  55  69
ATOM     69  C   UNL A   1      39.529  31.120  35.037  1.00  0.00    -0.014 A 
ATOM     70  C   UNL A   1      38.509  30.616  35.861  1.00  0.00     0.009 A 
ATOM     71  C   UNL A   1      39.949  32.447  35.211  1.00  0.00     0.009 A 
ATOM     72  C   UNL A   1      37.883  31.441  36.798  1.00  0.00     0.001 A 
ATOM     73  C   UNL A   1      39.345  33.260  36.171  1.00  0.00     0.001 A 
ATOM     74  C   UNL A   1      38.303  32.761  36.952  1.00  0.00     0.000 A 
ENDBRANCH  55  69
BRANCH  56  75
ATOM     75  C   UNL A   1      43.313  26.093  27.304  1.00  0.00    -0.014 A 
ATOM     76  C   UNL A   1      44.228  26.727  26.448  1.00  0.00     0.009 A 
ATOM     77  C   UNL A   1      42.962  24.757  27.051  1.00  0.00     0.009 A 
ATOM     78  C   UNL A   1      44.765  26.044  25.355  1.00  0.00     0.001 A 
ATOM     79  C   UNL A   1      43.521  24.069  25.972  1.00  0.00     0.001 A 
ATOM     80  C   UNL A   1      44.417  24.714  25.122  1.00  0.00     0.000 A 
ENDBRANCH  56  75
BRANCH  68  81
ATOM     81  C   UNL A   1      45.151  26.698  34.004  1.00  0.00    -0.014 A 
ATOM     82  C   UNL A   1      45.001  25.454  34.635  1.00  0.00     0.009 A 
ATOM     83  C   UNL A   1      46.386  27.362  34.098  1.00  0.00     0.009 A 
ATOM     84  C   UNL A   1      46.051  24.906  35.376  1.00  0.00     0.001 A 
ATOM     85  C   UNL A   1      47.443  26.797  34.814  1.00  0.00     0.001 A 
ATOM     86  C   UNL A   1      47.272  25.575  35.461  1.00  0.00     0.000 A 
ENDBRANCH  68  81
ENDBRANCH  42  43
ENDBRANCH  35  37
ENDBRANCH  34  35
ENDBRANCH  33  34
ENDBRANCH  32  33
ENDBRANCH  31  32
ENDBRANCH  30  31
ENDBRANCH   1  30
TORSDOF 22
ENDMDL
