MODEL 1
REMARK VINA RESULT:     -10.0      0.000      0.000
REMARK SMILES Cc1noc(C)c1CNc1ccc(Cl)c(C(=O)OCCOCCOCCOC(=O)c2ccc(-c3c4nc(c(-c5ccccc5)c5ccc([nH]5)c(-c5ccccc5)c5nc(c(-c6ccccc6)c6ccc3[nH]6)C=C5)C=C4)cc2)n1
REMARK SMILES IDX 22 1 21 2 20 3 19 4 18 5 16 6 17 7 15 8 10 9 11 10 78 11
REMARK SMILES IDX 12 12 13 13 14 14 9 15 8 17 7 18 1 19 2 20 3 21 4 22 5 23
REMARK SMILES IDX 6 24 23 25 24 26 25 27 26 28 27 29 28 30 29 31 30 32 31 33
REMARK SMILES IDX 77 34 32 35 76 36 33 37 34 38 35 39 70 40 36 41 75 42 69 43
REMARK SMILES IDX 71 44 37 45 74 46 68 47 67 48 38 50 60 51 45 52 59 53 46 54
REMARK SMILES IDX 49 55 58 56 72 57 47 58 48 59 57 61 73 62 50 63 39 64 40 65
REMARK SMILES IDX 44 66 41 67 43 68 42 69 61 70 62 71 66 72 63 73 65 74 64 75
REMARK SMILES IDX 51 76 52 77 56 78 53 79 55 80 54 81
REMARK H PARENT 9 16 71 49 49 60
REMARK Flexibility Score: inf
ROOT
ATOM      1  C   UNL A   1      40.106  21.031  26.295  1.00  0.00     0.188 C 
ENDROOT
BRANCH   1   2
ATOM      2  O   UNL A   1      39.035  21.968  26.372  1.00  0.00    -0.376 OA
BRANCH   2   3
ATOM      3  C   UNL A   1      37.874  21.759  25.567  1.00  0.00     0.202 C 
BRANCH   3   4
ATOM      4  C   UNL A   1      36.589  22.510  25.938  1.00  0.00     0.261 C 
BRANCH   4   5
ATOM      5  O   UNL A   1      35.495  21.616  26.207  1.00  0.00    -0.458 OA
BRANCH   5   6
ATOM      6  C   UNL A   1      34.261  22.180  26.203  1.00  0.00     0.358 C 
ATOM      7  O   UNL A   1      33.838  23.020  26.982  1.00  0.00    -0.244 OA
BRANCH   6   8
ATOM      8  C   UNL A   1      33.531  21.771  24.977  1.00  0.00     0.169 A 
ATOM      9  C   UNL A   1      32.508  19.973  23.911  1.00  0.00     0.127 A 
ATOM     10  C   UNL A   1      32.301  20.748  22.778  1.00  0.00     0.048 A 
ATOM     11  N   UNL A   1      33.089  20.477  25.010  1.00  0.00    -0.222 NA
ATOM     12  C   UNL A   1      32.708  22.086  22.776  1.00  0.00     0.027 A 
ATOM     13  C   UNL A   1      33.350  22.616  23.893  1.00  0.00     0.074 A 
ATOM     14  Cl  UNL A   1      33.896  24.245  23.841  1.00  0.00    -0.082 Cl
BRANCH   9  15
ATOM     15  N   UNL A   1      32.156  18.644  23.986  1.00  0.00    -0.366 N 
ATOM     16  H   UNL A   1      31.808  18.172  23.197  1.00  0.00     0.162 HD
BRANCH  15  17
ATOM     17  C   UNL A   1      32.309  17.948  25.259  1.00  0.00     0.156 C 
BRANCH  17  18
ATOM     18  C   UNL A   1      33.265  16.800  25.251  1.00  0.00     0.037 A 
ATOM     19  C   UNL A   1      35.533  17.962  24.614  1.00  0.00     0.071 C 
ATOM     20  C   UNL A   1      34.663  16.813  24.962  1.00  0.00     0.086 A 
ATOM     21  N   UNL A   1      35.190  15.585  25.043  1.00  0.00    -0.085 NA
ATOM     22  O   UNL A   1      34.150  14.748  25.379  1.00  0.00    -0.361 OA
ATOM     23  C   UNL A   1      33.005  15.468  25.499  1.00  0.00     0.138 A 
ATOM     24  C   UNL A   1      31.794  14.698  25.843  1.00  0.00     0.091 C 
ENDBRANCH  17  18
ENDBRANCH  15  17
ENDBRANCH   9  15
ENDBRANCH   6   8
ENDBRANCH   5   6
ENDBRANCH   4   5
ENDBRANCH   3   4
ENDBRANCH   2   3
ENDBRANCH   1   2
BRANCH   1  25
ATOM     25  C   UNL A   1      41.212  21.074  27.371  1.00  0.00     0.188 C 
BRANCH  25  26
ATOM     26  O   UNL A   1      42.290  20.202  27.132  1.00  0.00    -0.376 OA
BRANCH  26  27
ATOM     27  C   UNL A   1      42.191  19.196  26.139  1.00  0.00     0.202 C 
BRANCH  27  28
ATOM     28  C   UNL A   1      43.389  18.520  25.442  1.00  0.00     0.261 C 
BRANCH  28  29
ATOM     29  O   UNL A   1      43.882  19.095  24.229  1.00  0.00    -0.460 OA
BRANCH  29  30
ATOM     30  C   UNL A   1      45.136  19.599  24.263  1.00  0.00     0.338 C 
ATOM     31  O   UNL A   1      46.156  19.084  23.850  1.00  0.00    -0.246 OA
BRANCH  30  32
ATOM     32  C   UNL A   1      45.046  20.992  24.748  1.00  0.00     0.060 A 
ATOM     33  C   UNL A   1      44.696  21.999  23.841  1.00  0.00     0.016 A 
ATOM     34  C   UNL A   1      45.312  21.297  26.084  1.00  0.00     0.016 A 
ATOM     35  C   UNL A   1      44.629  23.326  24.267  1.00  0.00     0.010 A 
ATOM     36  C   UNL A   1      45.264  22.630  26.504  1.00  0.00     0.010 A 
ATOM     37  C   UNL A   1      44.945  23.651  25.593  1.00  0.00    -0.014 A 
BRANCH  37  38
ATOM     38  C   UNL A   1      45.081  25.071  25.995  1.00  0.00     0.031 A 
ATOM     39  C   UNL A   1      46.445  25.705  25.969  1.00  0.00     0.074 A 
ATOM     40  C   UNL A   1      44.012  25.788  26.385  1.00  0.00     0.049 A 
ATOM     41  N   UNL A   1      46.807  26.910  26.327  1.00  0.00    -0.248 NA
ATOM     42  C   UNL A   1      47.550  24.865  25.475  1.00  0.00     0.031 C 
ATOM     43  C   UNL A   1      42.634  25.303  26.428  1.00  0.00     0.029 A 
ATOM     44  N   UNL A   1      43.928  27.082  26.838  1.00  0.00    -0.354 N 
ATOM     45  C   UNL A   1      48.179  26.969  26.115  1.00  0.00     0.074 A 
ATOM     46  C   UNL A   1      48.588  25.676  25.612  1.00  0.00     0.031 C 
ATOM     47  C   UNL A   1      41.842  26.281  26.904  1.00  0.00     0.029 A 
ATOM     48  C   UNL A   1      42.663  27.446  27.229  1.00  0.00     0.049 A 
ATOM     49  H   UNL A   1      44.702  27.690  26.878  1.00  0.00     0.167 HD
ATOM     50  C   UNL A   1      49.021  28.008  26.321  1.00  0.00     0.031 A 
ATOM     51  C   UNL A   1      42.225  28.579  27.811  1.00  0.00     0.031 A 
ATOM     52  C   UNL A   1      48.620  29.292  26.828  1.00  0.00     0.049 A 
ATOM     53  C   UNL A   1      43.197  29.696  28.089  1.00  0.00     0.074 A 
ATOM     54  C   UNL A   1      49.398  30.418  27.030  1.00  0.00     0.029 A 
ATOM     55  N   UNL A   1      47.334  29.614  27.227  1.00  0.00    -0.354 N 
ATOM     56  N   UNL A   1      44.481  29.761  27.830  1.00  0.00    -0.248 NA
ATOM     57  C   UNL A   1      42.656  30.901  28.737  1.00  0.00     0.031 C 
ATOM     58  C   UNL A   1      48.595  31.405  27.609  1.00  0.00     0.029 A 
ATOM     59  C   UNL A   1      47.304  30.912  27.709  1.00  0.00     0.049 A 
ATOM     60  H   UNL A   1      46.557  29.012  27.176  1.00  0.00     0.167 HD
ATOM     61  C   UNL A   1      44.892  31.019  28.256  1.00  0.00     0.074 A 
ATOM     62  C   UNL A   1      43.719  31.691  28.775  1.00  0.00     0.031 C 
ATOM     63  C   UNL A   1      46.130  31.569  28.220  1.00  0.00     0.031 A 
BRANCH  50  64
ATOM     64  C   UNL A   1      50.479  27.789  26.033  1.00  0.00    -0.014 A 
ATOM     65  C   UNL A   1      51.023  28.062  24.769  1.00  0.00     0.009 A 
ATOM     66  C   UNL A   1      51.331  27.361  27.064  1.00  0.00     0.009 A 
ATOM     67  C   UNL A   1      52.390  27.889  24.538  1.00  0.00     0.001 A 
ATOM     68  C   UNL A   1      52.699  27.214  26.837  1.00  0.00     0.001 A 
ATOM     69  C   UNL A   1      53.227  27.472  25.573  1.00  0.00     0.000 A 
ENDBRANCH  50  64
BRANCH  51  70
ATOM     70  C   UNL A   1      40.801  28.711  28.220  1.00  0.00    -0.014 A 
ATOM     71  C   UNL A   1      40.369  28.269  29.479  1.00  0.00     0.009 A 
ATOM     72  C   UNL A   1      39.856  29.238  27.325  1.00  0.00     0.009 A 
ATOM     73  C   UNL A   1      39.015  28.320  29.821  1.00  0.00     0.001 A 
ATOM     74  C   UNL A   1      38.508  29.315  27.681  1.00  0.00     0.001 A 
ATOM     75  C   UNL A   1      38.087  28.845  28.922  1.00  0.00     0.000 A 
ENDBRANCH  51  70
BRANCH  63  76
ATOM     76  C   UNL A   1      46.277  32.979  28.722  1.00  0.00    -0.014 A 
ATOM     77  C   UNL A   1      46.616  33.246  30.057  1.00  0.00     0.009 A 
ATOM     78  C   UNL A   1      46.119  34.052  27.832  1.00  0.00     0.009 A 
ATOM     79  C   UNL A   1      46.764  34.564  30.496  1.00  0.00     0.001 A 
ATOM     80  C   UNL A   1      46.297  35.366  28.266  1.00  0.00     0.001 A 
ATOM     81  C   UNL A   1      46.610  35.621  29.600  1.00  0.00     0.000 A 
ENDBRANCH  63  76
ENDBRANCH  37  38
ENDBRANCH  30  32
ENDBRANCH  29  30
ENDBRANCH  28  29
ENDBRANCH  27  28
ENDBRANCH  26  27
ENDBRANCH  25  26
ENDBRANCH   1  25
TORSDOF 20
ENDMDL
MODEL 2
REMARK VINA RESULT:      -9.9      2.339      6.543
REMARK SMILES Cc1noc(C)c1CNc1ccc(Cl)c(C(=O)OCCOCCOCCOC(=O)c2ccc(-c3c4nc(c(-c5ccccc5)c5ccc([nH]5)c(-c5ccccc5)c5nc(c(-c6ccccc6)c6ccc3[nH]6)C=C5)C=C4)cc2)n1
REMARK SMILES IDX 22 1 21 2 20 3 19 4 18 5 16 6 17 7 15 8 10 9 11 10 78 11
REMARK SMILES IDX 12 12 13 13 14 14 9 15 8 17 7 18 1 19 2 20 3 21 4 22 5 23
REMARK SMILES IDX 6 24 23 25 24 26 25 27 26 28 27 29 28 30 29 31 30 32 31 33
REMARK SMILES IDX 77 34 32 35 76 36 33 37 34 38 35 39 70 40 36 41 75 42 69 43
REMARK SMILES IDX 71 44 37 45 74 46 68 47 67 48 38 50 60 51 45 52 59 53 46 54
REMARK SMILES IDX 49 55 58 56 72 57 47 58 48 59 57 61 73 62 50 63 39 64 40 65
REMARK SMILES IDX 44 66 41 67 43 68 42 69 61 70 62 71 66 72 63 73 65 74 64 75
REMARK SMILES IDX 51 76 52 77 56 78 53 79 55 80 54 81
REMARK H PARENT 9 16 71 49 49 60
REMARK Flexibility Score: inf
ROOT
ATOM      1  C   UNL A   1      36.636  23.558  24.846  1.00  0.00     0.188 C 
ENDROOT
BRANCH   1   2
ATOM      2  O   UNL A   1      35.338  24.036  25.192  1.00  0.00    -0.376 OA
BRANCH   2   3
ATOM      3  C   UNL A   1      34.743  23.599  26.414  1.00  0.00     0.202 C 
BRANCH   3   4
ATOM      4  C   UNL A   1      34.283  22.140  26.516  1.00  0.00     0.261 C 
BRANCH   4   5
ATOM      5  O   UNL A   1      32.976  22.021  27.104  1.00  0.00    -0.458 OA
BRANCH   5   6
ATOM      6  C   UNL A   1      31.945  22.456  26.336  1.00  0.00     0.358 C 
ATOM      7  O   UNL A   1      31.164  23.355  26.602  1.00  0.00    -0.244 OA
BRANCH   6   8
ATOM      8  C   UNL A   1      32.005  21.799  25.006  1.00  0.00     0.169 A 
ATOM      9  C   UNL A   1      32.141  19.741  23.931  1.00  0.00     0.127 A 
ATOM     10  C   UNL A   1      32.261  20.377  22.703  1.00  0.00     0.048 A 
ATOM     11  N   UNL A   1      31.986  20.433  25.069  1.00  0.00    -0.222 NA
ATOM     12  C   UNL A   1      32.223  21.774  22.646  1.00  0.00     0.027 A 
ATOM     13  C   UNL A   1      32.104  22.512  23.821  1.00  0.00     0.074 A 
ATOM     14  Cl  UNL A   1      32.122  24.228  23.729  1.00  0.00    -0.082 Cl
BRANCH   9  15
ATOM     15  N   UNL A   1      32.190  18.372  24.075  1.00  0.00    -0.366 N 
ATOM     16  H   UNL A   1      31.993  17.780  23.314  1.00  0.00     0.162 HD
BRANCH  15  17
ATOM     17  C   UNL A   1      32.539  17.815  25.376  1.00  0.00     0.156 C 
BRANCH  17  18
ATOM     18  C   UNL A   1      33.435  16.619  25.342  1.00  0.00     0.037 A 
ATOM     19  C   UNL A   1      35.778  17.687  24.822  1.00  0.00     0.071 C 
ATOM     20  C   UNL A   1      34.840  16.571  25.093  1.00  0.00     0.086 A 
ATOM     21  N   UNL A   1      35.299  15.314  25.133  1.00  0.00    -0.085 NA
ATOM     22  O   UNL A   1      34.207  14.519  25.401  1.00  0.00    -0.361 OA
ATOM     23  C   UNL A   1      33.098  15.293  25.522  1.00  0.00     0.138 A 
ATOM     24  C   UNL A   1      31.839  14.575  25.797  1.00  0.00     0.091 C 
ENDBRANCH  17  18
ENDBRANCH  15  17
ENDBRANCH   9  15
ENDBRANCH   6   8
ENDBRANCH   5   6
ENDBRANCH   4   5
ENDBRANCH   3   4
ENDBRANCH   2   3
ENDBRANCH   1   2
BRANCH   1  25
ATOM     25  C   UNL A   1      37.715  23.470  25.945  1.00  0.00     0.188 C 
BRANCH  25  26
ATOM     26  O   UNL A   1      38.244  22.181  26.140  1.00  0.00    -0.376 OA
BRANCH  26  27
ATOM     27  C   UNL A   1      37.976  21.149  25.206  1.00  0.00     0.202 C 
BRANCH  27  28
ATOM     28  C   UNL A   1      38.802  19.855  25.057  1.00  0.00     0.261 C 
BRANCH  28  29
ATOM     29  O   UNL A   1      39.664  19.472  26.131  1.00  0.00    -0.460 OA
BRANCH  29  30
ATOM     30  C   UNL A   1      40.982  19.732  25.973  1.00  0.00     0.338 C 
ATOM     31  O   UNL A   1      41.799  19.077  25.356  1.00  0.00    -0.246 OA
BRANCH  30  32
ATOM     32  C   UNL A   1      41.248  21.066  26.547  1.00  0.00     0.060 A 
ATOM     33  C   UNL A   1      41.688  22.089  25.699  1.00  0.00     0.016 A 
ATOM     34  C   UNL A   1      41.072  21.298  27.913  1.00  0.00     0.016 A 
ATOM     35  C   UNL A   1      41.971  23.351  26.221  1.00  0.00     0.010 A 
ATOM     36  C   UNL A   1      41.376  22.559  28.437  1.00  0.00     0.010 A 
ATOM     37  C   UNL A   1      41.848  23.583  27.598  1.00  0.00    -0.014 A 
BRANCH  37  38
ATOM     38  C   UNL A   1      42.347  24.849  28.184  1.00  0.00     0.031 A 
ATOM     39  C   UNL A   1      41.367  25.958  28.455  1.00  0.00     0.074 A 
ATOM     40  C   UNL A   1      43.651  25.018  28.466  1.00  0.00     0.049 A 
ATOM     41  N   UNL A   1      41.585  27.164  28.913  1.00  0.00    -0.248 NA
ATOM     42  C   UNL A   1      39.951  25.667  28.170  1.00  0.00     0.031 C 
ATOM     43  C   UNL A   1      44.697  24.015  28.277  1.00  0.00     0.029 A 
ATOM     44  N   UNL A   1      44.318  26.113  28.958  1.00  0.00    -0.354 N 
ATOM     45  C   UNL A   1      40.340  27.779  28.958  1.00  0.00     0.074 A 
ATOM     46  C   UNL A   1      39.373  26.821  28.468  1.00  0.00     0.031 C 
ATOM     47  C   UNL A   1      45.881  24.549  28.630  1.00  0.00     0.029 A 
ATOM     48  C   UNL A   1      45.678  25.938  29.035  1.00  0.00     0.049 A 
ATOM     49  H   UNL A   1      43.864  26.944  29.229  1.00  0.00     0.167 HD
ATOM     50  C   UNL A   1      40.031  29.031  29.370  1.00  0.00     0.031 A 
ATOM     51  C   UNL A   1      46.650  26.810  29.366  1.00  0.00     0.031 A 
ATOM     52  C   UNL A   1      40.989  29.988  29.850  1.00  0.00     0.049 A 
ATOM     53  C   UNL A   1      46.282  28.218  29.759  1.00  0.00     0.074 A 
ATOM     54  C   UNL A   1      40.762  31.266  30.329  1.00  0.00     0.029 A 
ATOM     55  N   UNL A   1      42.357  29.778  29.898  1.00  0.00    -0.354 N 
ATOM     56  N   UNL A   1      45.096  28.770  29.854  1.00  0.00    -0.248 NA
ATOM     57  C   UNL A   1      47.392  29.124  30.098  1.00  0.00     0.031 C 
ATOM     58  C   UNL A   1      41.999  31.853  30.611  1.00  0.00     0.029 A 
ATOM     59  C   UNL A   1      42.991  30.918  30.364  1.00  0.00     0.049 A 
ATOM     60  H   UNL A   1      42.811  28.944  29.639  1.00  0.00     0.167 HD
ATOM     61  C   UNL A   1      45.316  30.072  30.288  1.00  0.00     0.074 A 
ATOM     62  C   UNL A   1      46.746  30.224  30.454  1.00  0.00     0.031 C 
ATOM     63  C   UNL A   1      44.414  31.055  30.527  1.00  0.00     0.031 A 
BRANCH  50  64
ATOM     64  C   UNL A   1      38.593  29.456  29.286  1.00  0.00    -0.014 A 
ATOM     65  C   UNL A   1      37.713  29.276  30.364  1.00  0.00     0.009 A 
ATOM     66  C   UNL A   1      38.130  30.102  28.128  1.00  0.00     0.009 A 
ATOM     67  C   UNL A   1      36.391  29.718  30.276  1.00  0.00     0.001 A 
ATOM     68  C   UNL A   1      36.816  30.563  28.053  1.00  0.00     0.001 A 
ATOM     69  C   UNL A   1      35.946  30.366  29.124  1.00  0.00     0.000 A 
ENDBRANCH  50  64
BRANCH  51  70
ATOM     70  C   UNL A   1      48.078  26.404  29.299  1.00  0.00    -0.014 A 
ATOM     71  C   UNL A   1      48.811  26.536  28.110  1.00  0.00     0.009 A 
ATOM     72  C   UNL A   1      48.703  25.832  30.420  1.00  0.00     0.009 A 
ATOM     73  C   UNL A   1      50.127  26.073  28.035  1.00  0.00     0.001 A 
ATOM     74  C   UNL A   1      50.028  25.398  30.350  1.00  0.00     0.001 A 
ATOM     75  C   UNL A   1      50.735  25.507  29.155  1.00  0.00     0.000 A 
ENDBRANCH  51  70
BRANCH  63  76
ATOM     76  C   UNL A   1      44.939  32.371  31.030  1.00  0.00    -0.014 A 
ATOM     77  C   UNL A   1      45.271  33.409  30.147  1.00  0.00     0.009 A 
ATOM     78  C   UNL A   1      45.059  32.588  32.412  1.00  0.00     0.009 A 
ATOM     79  C   UNL A   1      45.742  34.629  30.639  1.00  0.00     0.001 A 
ATOM     80  C   UNL A   1      45.500  33.817  32.901  1.00  0.00     0.001 A 
ATOM     81  C   UNL A   1      45.850  34.834  32.014  1.00  0.00     0.000 A 
ENDBRANCH  63  76
ENDBRANCH  37  38
ENDBRANCH  30  32
ENDBRANCH  29  30
ENDBRANCH  28  29
ENDBRANCH  27  28
ENDBRANCH  26  27
ENDBRANCH  25  26
ENDBRANCH   1  25
TORSDOF 20
ENDMDL
MODEL 3
REMARK VINA RESULT:      -9.8      4.442      8.078
REMARK SMILES Cc1noc(C)c1CNc1ccc(Cl)c(C(=O)OCCOCCOCCOC(=O)c2ccc(-c3c4nc(c(-c5ccccc5)c5ccc([nH]5)c(-c5ccccc5)c5nc(c(-c6ccccc6)c6ccc3[nH]6)C=C5)C=C4)cc2)n1
REMARK SMILES IDX 22 1 21 2 20 3 19 4 18 5 16 6 17 7 15 8 10 9 11 10 78 11
REMARK SMILES IDX 12 12 13 13 14 14 9 15 8 17 7 18 1 19 2 20 3 21 4 22 5 23
REMARK SMILES IDX 6 24 23 25 24 26 25 27 26 28 27 29 28 30 29 31 30 32 31 33
REMARK SMILES IDX 77 34 32 35 76 36 33 37 34 38 35 39 70 40 36 41 75 42 69 43
REMARK SMILES IDX 71 44 37 45 74 46 68 47 67 48 38 50 60 51 45 52 59 53 46 54
REMARK SMILES IDX 49 55 58 56 72 57 47 58 48 59 57 61 73 62 50 63 39 64 40 65
REMARK SMILES IDX 44 66 41 67 43 68 42 69 61 70 62 71 66 72 63 73 65 74 64 75
REMARK SMILES IDX 51 76 52 77 56 78 53 79 55 80 54 81
REMARK H PARENT 9 16 71 49 49 60
REMARK Flexibility Score: inf
ROOT
ATOM      1  C   UNL A   1      39.504  20.605  25.865  1.00  0.00     0.188 C 
ENDROOT
BRANCH   1   2
ATOM      2  O   UNL A   1      39.137  21.936  26.220  1.00  0.00    -0.376 OA
BRANCH   2   3
ATOM      3  C   UNL A   1      37.989  22.524  25.607  1.00  0.00     0.202 C 
BRANCH   3   4
ATOM      4  C   UNL A   1      36.878  21.594  25.104  1.00  0.00     0.261 C 
BRANCH   4   5
ATOM      5  O   UNL A   1      35.897  21.319  26.120  1.00  0.00    -0.458 OA
BRANCH   5   6
ATOM      6  C   UNL A   1      34.820  22.145  26.133  1.00  0.00     0.358 C 
ATOM      7  O   UNL A   1      34.675  23.145  26.818  1.00  0.00    -0.244 OA
BRANCH   6   8
ATOM      8  C   UNL A   1      33.891  21.768  25.039  1.00  0.00     0.169 A 
ATOM      9  C   UNL A   1      32.615  20.025  24.174  1.00  0.00     0.127 A 
ATOM     10  C   UNL A   1      32.285  20.799  23.070  1.00  0.00     0.048 A 
ATOM     11  N   UNL A   1      33.383  20.504  25.163  1.00  0.00    -0.222 NA
ATOM     12  C   UNL A   1      32.766  22.109  22.981  1.00  0.00     0.027 A 
ATOM     13  C   UNL A   1      33.599  22.611  23.978  1.00  0.00     0.074 A 
ATOM     14  Cl  UNL A   1      34.225  24.203  23.813  1.00  0.00    -0.082 Cl
BRANCH   9  15
ATOM     15  N   UNL A   1      32.201  18.720  24.327  1.00  0.00    -0.366 N 
ATOM     16  H   UNL A   1      31.700  18.266  23.612  1.00  0.00     0.162 HD
BRANCH  15  17
ATOM     17  C   UNL A   1      32.516  18.025  25.569  1.00  0.00     0.156 C 
BRANCH  17  18
ATOM     18  C   UNL A   1      33.366  16.804  25.421  1.00  0.00     0.037 A 
ATOM     19  C   UNL A   1      35.659  17.807  24.625  1.00  0.00     0.071 C 
ATOM     20  C   UNL A   1      34.728  16.717  25.003  1.00  0.00     0.086 A 
ATOM     21  N   UNL A   1      35.152  15.447  24.981  1.00  0.00    -0.085 NA
ATOM     22  O   UNL A   1      34.077  14.682  25.376  1.00  0.00    -0.361 OA
ATOM     23  C   UNL A   1      33.014  15.487  25.635  1.00  0.00     0.138 A 
ATOM     24  C   UNL A   1      31.777  14.803  26.058  1.00  0.00     0.091 C 
ENDBRANCH  17  18
ENDBRANCH  15  17
ENDBRANCH   9  15
ENDBRANCH   6   8
ENDBRANCH   5   6
ENDBRANCH   4   5
ENDBRANCH   3   4
ENDBRANCH   2   3
ENDBRANCH   1   2
BRANCH   1  25
ATOM     25  C   UNL A   1      40.934  20.118  26.177  1.00  0.00     0.188 C 
BRANCH  25  26
ATOM     26  O   UNL A   1      41.924  21.111  26.066  1.00  0.00    -0.376 OA
BRANCH  26  27
ATOM     27  C   UNL A   1      43.259  20.758  25.746  1.00  0.00     0.202 C 
BRANCH  27  28
ATOM     28  C   UNL A   1      44.364  21.755  25.342  1.00  0.00     0.261 C 
BRANCH  28  29
ATOM     29  O   UNL A   1      44.614  22.874  26.196  1.00  0.00    -0.460 OA
BRANCH  29  30
ATOM     30  C   UNL A   1      44.429  24.101  25.657  1.00  0.00     0.338 C 
ATOM     31  O   UNL A   1      44.650  24.452  24.515  1.00  0.00    -0.246 OA
BRANCH  30  32
ATOM     32  C   UNL A   1      43.739  24.933  26.664  1.00  0.00     0.060 A 
ATOM     33  C   UNL A   1      44.175  26.248  26.864  1.00  0.00     0.016 A 
ATOM     34  C   UNL A   1      42.677  24.413  27.407  1.00  0.00     0.016 A 
ATOM     35  C   UNL A   1      43.556  27.046  27.826  1.00  0.00     0.010 A 
ATOM     36  C   UNL A   1      42.072  25.208  28.385  1.00  0.00     0.010 A 
ATOM     37  C   UNL A   1      42.524  26.519  28.614  1.00  0.00    -0.014 A 
BRANCH  37  38
ATOM     38  C   UNL A   1      42.010  27.287  29.773  1.00  0.00     0.031 A 
ATOM     39  C   UNL A   1      40.749  28.091  29.609  1.00  0.00     0.074 A 
ATOM     40  C   UNL A   1      42.655  27.278  30.953  1.00  0.00     0.049 A 
ATOM     41  N   UNL A   1      40.149  28.875  30.466  1.00  0.00    -0.248 NA
ATOM     42  C   UNL A   1      40.077  27.997  28.302  1.00  0.00     0.031 C 
ATOM     43  C   UNL A   1      43.870  26.520  31.252  1.00  0.00     0.029 A 
ATOM     44  N   UNL A   1      42.381  27.949  32.120  1.00  0.00    -0.354 N 
ATOM     45  C   UNL A   1      39.038  29.379  29.801  1.00  0.00     0.074 A 
ATOM     46  C   UNL A   1      39.055  28.825  28.464  1.00  0.00     0.031 C 
ATOM     47  C   UNL A   1      44.249  26.785  32.514  1.00  0.00     0.029 A 
ATOM     48  C   UNL A   1      43.324  27.755  33.099  1.00  0.00     0.049 A 
ATOM     49  H   UNL A   1      41.584  28.514  32.242  1.00  0.00     0.167 HD
ATOM     50  C   UNL A   1      38.090  30.227  30.261  1.00  0.00     0.031 A 
ATOM     51  C   UNL A   1      43.443  28.319  34.316  1.00  0.00     0.031 A 
ATOM     52  C   UNL A   1      38.074  30.787  31.586  1.00  0.00     0.049 A 
ATOM     53  C   UNL A   1      42.408  29.312  34.779  1.00  0.00     0.074 A 
ATOM     54  C   UNL A   1      37.129  31.623  32.154  1.00  0.00     0.029 A 
ATOM     55  N   UNL A   1      39.054  30.579  32.541  1.00  0.00    -0.354 N 
ATOM     56  N   UNL A   1      41.331  29.735  34.163  1.00  0.00    -0.248 NA
ATOM     57  C   UNL A   1      42.603  29.900  36.114  1.00  0.00     0.031 C 
ATOM     58  C   UNL A   1      37.569  31.970  33.435  1.00  0.00     0.029 A 
ATOM     59  C   UNL A   1      38.757  31.301  33.684  1.00  0.00     0.049 A 
ATOM     60  H   UNL A   1      39.845  30.004  32.425  1.00  0.00     0.167 HD
ATOM     61  C   UNL A   1      40.709  30.614  35.042  1.00  0.00     0.074 A 
ATOM     62  C   UNL A   1      41.519  30.651  36.241  1.00  0.00     0.031 C 
ATOM     63  C   UNL A   1      39.569  31.327  34.871  1.00  0.00     0.031 A 
BRANCH  50  64
ATOM     64  C   UNL A   1      37.002  30.638  29.311  1.00  0.00    -0.014 A 
ATOM     65  C   UNL A   1      35.990  29.745  28.929  1.00  0.00     0.009 A 
ATOM     66  C   UNL A   1      36.959  31.960  28.840  1.00  0.00     0.009 A 
ATOM     67  C   UNL A   1      34.966  30.164  28.076  1.00  0.00     0.001 A 
ATOM     68  C   UNL A   1      35.922  32.382  28.008  1.00  0.00     0.001 A 
ATOM     69  C   UNL A   1      34.929  31.482  27.622  1.00  0.00     0.000 A 
ENDBRANCH  50  64
BRANCH  51  70
ATOM     70  C   UNL A   1      44.612  28.004  35.179  1.00  0.00    -0.014 A 
ATOM     71  C   UNL A   1      45.827  28.690  35.028  1.00  0.00     0.009 A 
ATOM     72  C   UNL A   1      44.529  26.974  36.131  1.00  0.00     0.009 A 
ATOM     73  C   UNL A   1      46.943  28.328  35.786  1.00  0.00     0.001 A 
ATOM     74  C   UNL A   1      45.639  26.636  36.908  1.00  0.00     0.001 A 
ATOM     75  C   UNL A   1      46.847  27.304  36.727  1.00  0.00     0.000 A 
ENDBRANCH  51  70
BRANCH  63  76
ATOM     76  C   UNL A   1      39.107  32.180  36.020  1.00  0.00    -0.014 A 
ATOM     77  C   UNL A   1      39.703  33.420  36.294  1.00  0.00     0.009 A 
ATOM     78  C   UNL A   1      38.026  31.755  36.809  1.00  0.00     0.009 A 
ATOM     79  C   UNL A   1      39.246  34.203  37.356  1.00  0.00     0.001 A 
ATOM     80  C   UNL A   1      37.552  32.553  37.850  1.00  0.00     0.001 A 
ATOM     81  C   UNL A   1      38.168  33.772  38.129  1.00  0.00     0.000 A 
ENDBRANCH  63  76
ENDBRANCH  37  38
ENDBRANCH  30  32
ENDBRANCH  29  30
ENDBRANCH  28  29
ENDBRANCH  27  28
ENDBRANCH  26  27
ENDBRANCH  25  26
ENDBRANCH   1  25
TORSDOF 20
ENDMDL
