MODEL 1
REMARK VINA RESULT:     -10.0      0.000      0.000
REMARK SMILES O=C(CC[C@H]1CC[C@@H](O)CC1)OCCOCCOCCOC(=O)c1ccc(-c2c3nc(c(-c4ccccc4)c4ccc([nH]4)c(-c4ccccc4)c4nc(c(-c5ccccc5)c5ccc2[nH]5)C=C4)C=C3)cc1
REMARK SMILES IDX 16 1 15 2 14 3 13 4 12 5 2 6 1 7 3 8 4 9 5 10 6 11 11 12
REMARK SMILES IDX 7 13 10 14 8 15 9 16 17 18 18 19 19 20 20 21 21 22 22 23
REMARK SMILES IDX 23 24 24 25 25 26 71 27 26 28 70 29 27 30 28 31 29 32 64 33
REMARK SMILES IDX 30 34 69 35 63 36 65 37 31 38 68 39 62 40 61 41 32 43 54 44
REMARK SMILES IDX 39 45 53 46 40 47 43 48 52 49 66 50 41 51 42 52 51 54 67 55
REMARK SMILES IDX 44 56 33 57 34 58 38 59 35 60 37 61 36 62 55 63 56 64 60 65
REMARK SMILES IDX 57 66 59 67 58 68 45 69 46 70 50 71 47 72 49 73 48 74
REMARK H PARENT 9 17 65 42 43 53
REMARK Flexibility Score: inf
ROOT
ATOM      1  C   UNL A   1      42.713  18.444  26.383  1.00  0.00     0.188 C 
ENDROOT
BRANCH   1   2
ATOM      2  O   UNL A   1      41.587  19.309  26.665  1.00  0.00    -0.376 OA
BRANCH   2   3
ATOM      3  C   UNL A   1      41.524  20.505  27.477  1.00  0.00     0.202 C 
BRANCH   3   4
ATOM      4  C   UNL A   1      40.356  21.738  27.421  1.00  0.00     0.261 C 
BRANCH   4   5
ATOM      5  O   UNL A   1      39.005  21.953  26.090  1.00  0.00    -0.463 OA
BRANCH   5   6
ATOM      6  C   UNL A   1      37.821  22.172  25.309  1.00  0.00     0.305 C 
ATOM      7  O   UNL A   1      37.402  21.336  24.513  1.00  0.00    -0.252 OA
BRANCH   6   8
ATOM      8  C   UNL A   1      37.161  23.523  25.387  1.00  0.00     0.123 C 
BRANCH   8   9
ATOM      9  C   UNL A   1      35.878  23.459  24.609  1.00  0.00     0.015 C 
BRANCH   9  10
ATOM     10  C   UNL A   1      34.778  23.396  25.653  1.00  0.00    -0.010 C 
ATOM     11  C   UNL A   1      33.858  21.756  25.219  1.00  0.00     0.006 C 
ATOM     12  C   UNL A   1      33.780  25.044  25.585  1.00  0.00     0.006 C 
ATOM     13  C   UNL A   1      32.112  21.885  24.326  1.00  0.00     0.032 C 
ATOM     14  C   UNL A   1      32.043  25.125  24.794  1.00  0.00     0.032 C 
ATOM     15  C   UNL A   1      31.136  23.530  24.357  1.00  0.00     0.114 C 
BRANCH  15  16
ATOM     16  O   UNL A   1      30.385  23.650  23.158  1.00  0.00    -0.393 OA
ATOM     17  H   UNL A   1      30.324  22.783  22.728  1.00  0.00     0.210 HD
ENDBRANCH  15  16
ENDBRANCH   9  10
ENDBRANCH   8   9
ENDBRANCH   6   8
ENDBRANCH   5   6
ENDBRANCH   4   5
ENDBRANCH   3   4
ENDBRANCH   2   3
ENDBRANCH   1   2
BRANCH   1  18
ATOM     18  C   UNL A   1      43.992  18.852  25.575  1.00  0.00     0.188 C 
BRANCH  18  19
ATOM     19  O   UNL A   1      44.149  20.190  25.158  1.00  0.00    -0.376 OA
BRANCH  19  20
ATOM     20  C   UNL A   1      45.474  20.571  24.847  1.00  0.00     0.202 C 
BRANCH  20  21
ATOM     21  C   UNL A   1      46.030  21.846  25.517  1.00  0.00     0.261 C 
BRANCH  21  22
ATOM     22  O   UNL A   1      45.060  22.774  26.053  1.00  0.00    -0.460 OA
BRANCH  22  23
ATOM     23  C   UNL A   1      44.595  23.735  25.203  1.00  0.00     0.338 C 
ATOM     24  O   UNL A   1      44.657  23.724  23.992  1.00  0.00    -0.246 OA
BRANCH  23  25
ATOM     25  C   UNL A   1      43.768  24.717  25.972  1.00  0.00     0.060 A 
ATOM     26  C   UNL A   1      44.078  26.088  25.897  1.00  0.00     0.016 A 
ATOM     27  C   UNL A   1      42.710  24.293  26.773  1.00  0.00     0.016 A 
ATOM     28  C   UNL A   1      43.370  27.026  26.660  1.00  0.00     0.010 A 
ATOM     29  C   UNL A   1      42.025  25.225  27.563  1.00  0.00     0.010 A 
ATOM     30  C   UNL A   1      42.380  26.589  27.546  1.00  0.00    -0.014 A 
BRANCH  30  31
ATOM     31  C   UNL A   1      41.915  27.467  28.655  1.00  0.00     0.031 A 
ATOM     32  C   UNL A   1      42.676  27.400  29.956  1.00  0.00     0.074 A 
ATOM     33  C   UNL A   1      40.845  28.275  28.550  1.00  0.00     0.049 A 
ATOM     34  N   UNL A   1      42.393  27.930  31.119  1.00  0.00    -0.248 NA
ATOM     35  C   UNL A   1      43.923  26.614  29.939  1.00  0.00     0.031 C 
ATOM     36  C   UNL A   1      40.058  28.495  27.341  1.00  0.00     0.029 A 
ATOM     37  N   UNL A   1      40.223  29.048  29.504  1.00  0.00    -0.354 N 
ATOM     38  C   UNL A   1      43.409  27.518  31.973  1.00  0.00     0.074 A 
ATOM     39  C   UNL A   1      44.303  26.682  31.204  1.00  0.00     0.031 C 
ATOM     40  C   UNL A   1      39.039  29.328  27.631  1.00  0.00     0.029 A 
ATOM     41  C   UNL A   1      39.078  29.661  29.055  1.00  0.00     0.049 A 
ATOM     42  H   UNL A   1      40.567  29.153  30.420  1.00  0.00     0.167 HD
ATOM     43  C   UNL A   1      43.584  27.804  33.285  1.00  0.00     0.031 A 
ATOM     44  C   UNL A   1      38.149  30.374  29.725  1.00  0.00     0.031 A 
ATOM     45  C   UNL A   1      42.692  28.624  34.058  1.00  0.00     0.049 A 
ATOM     46  C   UNL A   1      38.311  30.602  31.209  1.00  0.00     0.074 A 
ATOM     47  C   UNL A   1      42.792  28.988  35.388  1.00  0.00     0.029 A 
ATOM     48  N   UNL A   1      41.529  29.198  33.570  1.00  0.00    -0.354 N 
ATOM     49  N   UNL A   1      39.283  30.224  32.005  1.00  0.00    -0.248 NA
ATOM     50  C   UNL A   1      37.244  31.355  31.888  1.00  0.00     0.031 C 
ATOM     51  C   UNL A   1      41.652  29.724  35.725  1.00  0.00     0.029 A 
ATOM     52  C   UNL A   1      40.882  29.882  34.584  1.00  0.00     0.049 A 
ATOM     53  H   UNL A   1      41.211  29.130  32.641  1.00  0.00     0.167 HD
ATOM     54  C   UNL A   1      38.961  30.720  33.264  1.00  0.00     0.074 A 
ATOM     55  C   UNL A   1      37.712  31.438  33.125  1.00  0.00     0.031 C 
ATOM     56  C   UNL A   1      39.641  30.596  34.431  1.00  0.00     0.031 A 
BRANCH  43  57
ATOM     57  C   UNL A   1      44.762  27.179  33.981  1.00  0.00    -0.014 A 
ATOM     58  C   UNL A   1      44.688  25.897  34.548  1.00  0.00     0.009 A 
ATOM     59  C   UNL A   1      45.978  27.879  34.044  1.00  0.00     0.009 A 
ATOM     60  C   UNL A   1      45.796  25.345  35.194  1.00  0.00     0.001 A 
ATOM     61  C   UNL A   1      47.093  27.311  34.660  1.00  0.00     0.001 A 
ATOM     62  C   UNL A   1      46.999  26.049  35.244  1.00  0.00     0.000 A 
ENDBRANCH  43  57
BRANCH  44  63
ATOM     63  C   UNL A   1      36.945  30.895  29.017  1.00  0.00    -0.014 A 
ATOM     64  C   UNL A   1      35.880  30.042  28.687  1.00  0.00     0.009 A 
ATOM     65  C   UNL A   1      36.873  32.243  28.629  1.00  0.00     0.009 A 
ATOM     66  C   UNL A   1      34.784  30.521  27.962  1.00  0.00     0.001 A 
ATOM     67  C   UNL A   1      35.763  32.727  27.934  1.00  0.00     0.001 A 
ATOM     68  C   UNL A   1      34.724  31.863  27.592  1.00  0.00     0.000 A 
ENDBRANCH  44  63
BRANCH  56  69
ATOM     69  C   UNL A   1      39.078  31.282  35.647  1.00  0.00    -0.014 A 
ATOM     70  C   UNL A   1      38.163  30.640  36.495  1.00  0.00     0.009 A 
ATOM     71  C   UNL A   1      39.526  32.569  35.984  1.00  0.00     0.009 A 
ATOM     72  C   UNL A   1      37.688  31.284  37.640  1.00  0.00     0.001 A 
ATOM     73  C   UNL A   1      39.075  33.198  37.145  1.00  0.00     0.001 A 
ATOM     74  C   UNL A   1      38.150  32.558  37.967  1.00  0.00     0.000 A 
ENDBRANCH  56  69
ENDBRANCH  30  31
ENDBRANCH  23  25
ENDBRANCH  22  23
ENDBRANCH  21  22
ENDBRANCH  20  21
ENDBRANCH  19  20
ENDBRANCH  18  19
ENDBRANCH   1  18
TORSDOF 20
ENDMDL
MODEL 2
REMARK VINA RESULT:      -9.7      4.533      7.048
REMARK SMILES O=C(CC[C@H]1CC[C@@H](O)CC1)OCCOCCOCCOC(=O)c1ccc(-c2c3nc(c(-c4ccccc4)c4ccc([nH]4)c(-c4ccccc4)c4nc(c(-c5ccccc5)c5ccc2[nH]5)C=C4)C=C3)cc1
REMARK SMILES IDX 16 1 15 2 14 3 13 4 12 5 2 6 1 7 3 8 4 9 5 10 6 11 11 12
REMARK SMILES IDX 7 13 10 14 8 15 9 16 17 18 18 19 19 20 20 21 21 22 22 23
REMARK SMILES IDX 23 24 24 25 25 26 71 27 26 28 70 29 27 30 28 31 29 32 64 33
REMARK SMILES IDX 30 34 69 35 63 36 65 37 31 38 68 39 62 40 61 41 32 43 54 44
REMARK SMILES IDX 39 45 53 46 40 47 43 48 52 49 66 50 41 51 42 52 51 54 67 55
REMARK SMILES IDX 44 56 33 57 34 58 38 59 35 60 37 61 36 62 55 63 56 64 60 65
REMARK SMILES IDX 57 66 59 67 58 68 45 69 46 70 50 71 47 72 49 73 48 74
REMARK H PARENT 9 17 65 42 43 53
REMARK Flexibility Score: inf
ROOT
ATOM      1  C   UNL A   1      40.450  22.267  27.444  1.00  0.00     0.188 C 
ENDROOT
BRANCH   1   2
ATOM      2  O   UNL A   1      39.981  23.631  27.559  1.00  0.00    -0.376 OA
BRANCH   2   3
ATOM      3  C   UNL A   1      38.847  24.272  26.930  1.00  0.00     0.202 C 
BRANCH   3   4
ATOM      4  C   UNL A   1      37.761  23.595  25.811  1.00  0.00     0.261 C 
BRANCH   4   5
ATOM      5  O   UNL A   1      35.948  24.123  25.538  1.00  0.00    -0.463 OA
BRANCH   5   6
ATOM      6  C   UNL A   1      34.560  24.271  25.202  1.00  0.00     0.305 C 
ATOM      7  O   UNL A   1      33.709  24.536  26.047  1.00  0.00    -0.252 OA
BRANCH   6   8
ATOM      8  C   UNL A   1      34.136  23.963  23.790  1.00  0.00     0.123 C 
BRANCH   8   9
ATOM      9  C   UNL A   1      34.480  22.530  23.503  1.00  0.00     0.015 C 
BRANCH   9  10
ATOM     10  C   UNL A   1      33.500  21.710  24.323  1.00  0.00    -0.010 C 
ATOM     11  C   UNL A   1      34.643  20.462  25.250  1.00  0.00     0.006 C 
ATOM     12  C   UNL A   1      32.156  21.002  23.135  1.00  0.00     0.006 C 
ATOM     13  C   UNL A   1      34.677  18.599  24.624  1.00  0.00     0.032 C 
ATOM     14  C   UNL A   1      32.155  19.165  22.613  1.00  0.00     0.032 C 
ATOM     15  C   UNL A   1      33.274  17.936  23.506  1.00  0.00     0.114 C 
BRANCH  15  16
ATOM     16  O   UNL A   1      33.803  16.954  22.627  1.00  0.00    -0.393 OA
ATOM     17  H   UNL A   1      33.196  16.199  22.584  1.00  0.00     0.210 HD
ENDBRANCH  15  16
ENDBRANCH   9  10
ENDBRANCH   8   9
ENDBRANCH   6   8
ENDBRANCH   5   6
ENDBRANCH   4   5
ENDBRANCH   3   4
ENDBRANCH   2   3
ENDBRANCH   1   2
BRANCH   1  18
ATOM     18  C   UNL A   1      40.451  21.415  26.130  1.00  0.00     0.188 C 
BRANCH  18  19
ATOM     19  O   UNL A   1      40.691  20.028  26.204  1.00  0.00    -0.376 OA
BRANCH  19  20
ATOM     20  C   UNL A   1      41.940  19.662  26.755  1.00  0.00     0.202 C 
BRANCH  20  21
ATOM     21  C   UNL A   1      42.856  18.748  25.912  1.00  0.00     0.261 C 
BRANCH  21  22
ATOM     22  O   UNL A   1      43.309  19.274  24.644  1.00  0.00    -0.460 OA
BRANCH  22  23
ATOM     23  C   UNL A   1      44.655  19.458  24.502  1.00  0.00     0.338 C 
ATOM     24  O   UNL A   1      45.469  18.627  24.161  1.00  0.00    -0.246 OA
BRANCH  23  25
ATOM     25  C   UNL A   1      44.966  20.919  24.597  1.00  0.00     0.060 A 
ATOM     26  C   UNL A   1      46.031  21.345  25.413  1.00  0.00     0.016 A 
ATOM     27  C   UNL A   1      44.208  21.861  23.906  1.00  0.00     0.016 A 
ATOM     28  C   UNL A   1      46.304  22.709  25.580  1.00  0.00     0.010 A 
ATOM     29  C   UNL A   1      44.458  23.225  24.100  1.00  0.00     0.010 A 
ATOM     30  C   UNL A   1      45.475  23.658  24.973  1.00  0.00    -0.014 A 
BRANCH  30  31
ATOM     31  C   UNL A   1      45.461  25.067  25.453  1.00  0.00     0.031 A 
ATOM     32  C   UNL A   1      46.778  25.802  25.483  1.00  0.00     0.074 A 
ATOM     33  C   UNL A   1      44.346  25.684  25.883  1.00  0.00     0.049 A 
ATOM     34  N   UNL A   1      47.075  26.968  25.998  1.00  0.00    -0.248 NA
ATOM     35  C   UNL A   1      47.919  25.114  24.851  1.00  0.00     0.031 C 
ATOM     36  C   UNL A   1      42.996  25.128  25.849  1.00  0.00     0.029 A 
ATOM     37  N   UNL A   1      44.186  26.923  26.461  1.00  0.00    -0.354 N 
ATOM     38  C   UNL A   1      48.437  27.137  25.778  1.00  0.00     0.074 A 
ATOM     39  C   UNL A   1      48.912  25.951  25.100  1.00  0.00     0.031 C 
ATOM     40  C   UNL A   1      42.147  26.012  26.407  1.00  0.00     0.029 A 
ATOM     41  C   UNL A   1      42.901  27.175  26.878  1.00  0.00     0.049 A 
ATOM     42  H   UNL A   1      44.922  27.568  26.564  1.00  0.00     0.167 HD
ATOM     43  C   UNL A   1      49.229  28.183  26.113  1.00  0.00     0.031 A 
ATOM     44  C   UNL A   1      42.400  28.205  27.592  1.00  0.00     0.031 A 
ATOM     45  C   UNL A   1      48.765  29.359  26.797  1.00  0.00     0.049 A 
ATOM     46  C   UNL A   1      43.317  29.317  28.039  1.00  0.00     0.074 A 
ATOM     47  C   UNL A   1      49.484  30.482  27.164  1.00  0.00     0.029 A 
ATOM     48  N   UNL A   1      47.463  29.556  27.227  1.00  0.00    -0.354 N 
ATOM     49  N   UNL A   1      44.599  29.478  27.811  1.00  0.00    -0.248 NA
ATOM     50  C   UNL A   1      42.717  30.391  28.846  1.00  0.00     0.031 C 
ATOM     51  C   UNL A   1      48.633  31.328  27.880  1.00  0.00     0.029 A 
ATOM     52  C   UNL A   1      47.366  30.767  27.890  1.00  0.00     0.049 A 
ATOM     53  H   UNL A   1      46.717  28.930  27.082  1.00  0.00     0.167 HD
ATOM     54  C   UNL A   1      44.947  30.681  28.415  1.00  0.00     0.074 A 
ATOM     55  C   UNL A   1      43.741  31.217  29.008  1.00  0.00     0.031 C 
ATOM     56  C   UNL A   1      46.158  31.291  28.472  1.00  0.00     0.031 A 
BRANCH  43  57
ATOM     57  C   UNL A   1      50.693  28.078  25.787  1.00  0.00    -0.014 A 
ATOM     58  C   UNL A   1      51.611  27.519  26.691  1.00  0.00     0.009 A 
ATOM     59  C   UNL A   1      51.157  28.522  24.539  1.00  0.00     0.009 A 
ATOM     60  C   UNL A   1      52.966  27.441  26.364  1.00  0.00     0.001 A 
ATOM     61  C   UNL A   1      52.506  28.412  24.202  1.00  0.00     0.001 A 
ATOM     62  C   UNL A   1      53.412  27.881  25.119  1.00  0.00     0.000 A 
ENDBRANCH  43  57
BRANCH  44  63
ATOM     63  C   UNL A   1      40.960  28.224  27.976  1.00  0.00    -0.014 A 
ATOM     64  C   UNL A   1      40.024  28.950  27.222  1.00  0.00     0.009 A 
ATOM     65  C   UNL A   1      40.519  27.550  29.126  1.00  0.00     0.009 A 
ATOM     66  C   UNL A   1      38.688  29.022  27.626  1.00  0.00     0.001 A 
ATOM     67  C   UNL A   1      39.177  27.595  29.510  1.00  0.00     0.001 A 
ATOM     68  C   UNL A   1      38.265  28.340  28.765  1.00  0.00     0.000 A 
ENDBRANCH  44  63
BRANCH  56  69
ATOM     69  C   UNL A   1      46.239  32.627  29.161  1.00  0.00    -0.014 A 
ATOM     70  C   UNL A   1      46.557  32.732  30.523  1.00  0.00     0.009 A 
ATOM     71  C   UNL A   1      46.059  33.802  28.414  1.00  0.00     0.009 A 
ATOM     72  C   UNL A   1      46.667  33.987  31.128  1.00  0.00     0.001 A 
ATOM     73  C   UNL A   1      46.201  35.054  29.013  1.00  0.00     0.001 A 
ATOM     74  C   UNL A   1      46.496  35.145  30.371  1.00  0.00     0.000 A 
ENDBRANCH  56  69
ENDBRANCH  30  31
ENDBRANCH  23  25
ENDBRANCH  22  23
ENDBRANCH  21  22
ENDBRANCH  20  21
ENDBRANCH  19  20
ENDBRANCH  18  19
ENDBRANCH   1  18
TORSDOF 20
ENDMDL
MODEL 3
REMARK VINA RESULT:      -9.4      4.354      9.859
REMARK SMILES O=C(CC[C@H]1CC[C@@H](O)CC1)OCCOCCOCCOC(=O)c1ccc(-c2c3nc(c(-c4ccccc4)c4ccc([nH]4)c(-c4ccccc4)c4nc(c(-c5ccccc5)c5ccc2[nH]5)C=C4)C=C3)cc1
REMARK SMILES IDX 16 1 15 2 14 3 13 4 12 5 2 6 1 7 3 8 4 9 5 10 6 11 11 12
REMARK SMILES IDX 7 13 10 14 8 15 9 16 17 18 18 19 19 20 20 21 21 22 22 23
REMARK SMILES IDX 23 24 24 25 25 26 71 27 26 28 70 29 27 30 28 31 29 32 64 33
REMARK SMILES IDX 30 34 69 35 63 36 65 37 31 38 68 39 62 40 61 41 32 43 54 44
REMARK SMILES IDX 39 45 53 46 40 47 43 48 52 49 66 50 41 51 42 52 51 54 67 55
REMARK SMILES IDX 44 56 33 57 34 58 38 59 35 60 37 61 36 62 55 63 56 64 60 65
REMARK SMILES IDX 57 66 59 67 58 68 45 69 46 70 50 71 47 72 49 73 48 74
REMARK H PARENT 9 17 65 42 43 53
REMARK Flexibility Score: inf
ROOT
ATOM      1  C   UNL A   1      33.949  32.052  28.000  1.00  0.00     0.188 C 
ENDROOT
BRANCH   1   2
ATOM      2  O   UNL A   1      32.873  31.326  27.361  1.00  0.00    -0.376 OA
BRANCH   2   3
ATOM      3  C   UNL A   1      32.914  30.088  26.612  1.00  0.00     0.202 C 
BRANCH   3   4
ATOM      4  C   UNL A   1      31.772  29.515  25.491  1.00  0.00     0.261 C 
BRANCH   4   5
ATOM      5  O   UNL A   1      31.174  27.712  25.312  1.00  0.00    -0.463 OA
BRANCH   5   6
ATOM      6  C   UNL A   1      30.691  26.368  25.457  1.00  0.00     0.305 C 
ATOM      7  O   UNL A   1      30.162  25.973  26.493  1.00  0.00    -0.252 OA
BRANCH   6   8
ATOM      8  C   UNL A   1      30.964  25.393  24.343  1.00  0.00     0.123 C 
BRANCH   8   9
ATOM      9  C   UNL A   1      31.046  24.017  24.938  1.00  0.00     0.015 C 
BRANCH   9  10
ATOM     10  C   UNL A   1      32.455  23.535  24.645  1.00  0.00    -0.010 C 
ATOM     11  C   UNL A   1      32.166  22.011  23.498  1.00  0.00     0.006 C 
ATOM     12  C   UNL A   1      33.361  23.252  26.324  1.00  0.00     0.006 C 
ATOM     13  C   UNL A   1      32.409  20.218  24.266  1.00  0.00     0.032 C 
ATOM     14  C   UNL A   1      33.668  21.495  27.006  1.00  0.00     0.032 C 
ATOM     15  C   UNL A   1      33.382  19.995  25.898  1.00  0.00     0.114 C 
BRANCH  15  16
ATOM     16  O   UNL A   1      32.847  18.892  26.613  1.00  0.00    -0.393 OA
ATOM     17  H   UNL A   1      33.567  18.307  26.892  1.00  0.00     0.210 HD
ENDBRANCH  15  16
ENDBRANCH   9  10
ENDBRANCH   8   9
ENDBRANCH   6   8
ENDBRANCH   5   6
ENDBRANCH   4   5
ENDBRANCH   3   4
ENDBRANCH   2   3
ENDBRANCH   1   2
BRANCH   1  18
ATOM     18  C   UNL A   1      34.080  33.611  28.063  1.00  0.00     0.188 C 
BRANCH  18  19
ATOM     19  O   UNL A   1      33.067  34.366  28.687  1.00  0.00    -0.376 OA
BRANCH  19  20
ATOM     20  C   UNL A   1      33.293  35.760  28.728  1.00  0.00     0.202 C 
BRANCH  20  21
ATOM     21  C   UNL A   1      32.755  36.540  29.947  1.00  0.00     0.261 C 
BRANCH  21  22
ATOM     22  O   UNL A   1      33.506  36.424  31.176  1.00  0.00    -0.460 OA
BRANCH  22  23
ATOM     23  C   UNL A   1      33.110  35.449  32.047  1.00  0.00     0.338 C 
ATOM     24  O   UNL A   1      31.986  35.017  32.191  1.00  0.00    -0.246 OA
BRANCH  23  25
ATOM     25  C   UNL A   1      34.319  34.803  32.647  1.00  0.00     0.060 A 
ATOM     26  C   UNL A   1      35.598  35.289  32.312  1.00  0.00     0.016 A 
ATOM     27  C   UNL A   1      34.199  33.720  33.514  1.00  0.00     0.016 A 
ATOM     28  C   UNL A   1      36.753  34.663  32.800  1.00  0.00     0.010 A 
ATOM     29  C   UNL A   1      35.353  33.072  33.973  1.00  0.00     0.010 A 
ATOM     30  C   UNL A   1      36.634  33.509  33.582  1.00  0.00    -0.014 A 
BRANCH  30  31
ATOM     31  C   UNL A   1      37.793  32.591  33.757  1.00  0.00     0.031 A 
ATOM     32  C   UNL A   1      38.632  32.765  34.999  1.00  0.00     0.074 A 
ATOM     33  C   UNL A   1      38.131  31.656  32.852  1.00  0.00     0.049 A 
ATOM     34  N   UNL A   1      39.776  32.216  35.320  1.00  0.00    -0.248 NA
ATOM     35  C   UNL A   1      38.107  33.699  36.011  1.00  0.00     0.031 C 
ATOM     36  C   UNL A   1      37.380  31.328  31.644  1.00  0.00     0.029 A 
ATOM     37  N   UNL A   1      39.225  30.822  32.807  1.00  0.00    -0.354 N 
ATOM     38  C   UNL A   1      40.117  32.759  36.553  1.00  0.00     0.074 A 
ATOM     39  C   UNL A   1      39.073  33.691  36.915  1.00  0.00     0.031 C 
ATOM     40  C   UNL A   1      38.048  30.379  30.961  1.00  0.00     0.029 A 
ATOM     41  C   UNL A   1      39.295  30.067  31.660  1.00  0.00     0.049 A 
ATOM     42  H   UNL A   1      39.892  30.770  33.528  1.00  0.00     0.167 HD
ATOM     43  C   UNL A   1      41.206  32.511  37.320  1.00  0.00     0.031 A 
ATOM     44  C   UNL A   1      40.271  29.252  31.210  1.00  0.00     0.031 A 
ATOM     45  C   UNL A   1      42.253  31.594  36.960  1.00  0.00     0.049 A 
ATOM     46  C   UNL A   1      41.522  29.061  32.033  1.00  0.00     0.074 A 
ATOM     47  C   UNL A   1      43.387  31.258  37.676  1.00  0.00     0.029 A 
ATOM     48  N   UNL A   1      42.297  30.876  35.776  1.00  0.00    -0.354 N 
ATOM     49  N   UNL A   1      41.829  29.564  33.206  1.00  0.00    -0.248 NA
ATOM     50  C   UNL A   1      42.564  28.189  31.469  1.00  0.00     0.031 C 
ATOM     51  C   UNL A   1      44.155  30.391  36.894  1.00  0.00     0.029 A 
ATOM     52  C   UNL A   1      43.460  30.127  35.724  1.00  0.00     0.049 A 
ATOM     53  H   UNL A   1      41.605  30.895  35.076  1.00  0.00     0.167 HD
ATOM     54  C   UNL A   1      43.077  29.044  33.530  1.00  0.00     0.074 A 
ATOM     55  C   UNL A   1      43.467  28.176  32.439  1.00  0.00     0.031 C 
ATOM     56  C   UNL A   1      43.834  29.264  34.635  1.00  0.00     0.031 A 
BRANCH  43  57
ATOM     57  C   UNL A   1      41.343  33.283  38.602  1.00  0.00    -0.014 A 
ATOM     58  C   UNL A   1      42.216  34.377  38.714  1.00  0.00     0.009 A 
ATOM     59  C   UNL A   1      40.561  32.925  39.712  1.00  0.00     0.009 A 
ATOM     60  C   UNL A   1      42.328  35.072  39.920  1.00  0.00     0.001 A 
ATOM     61  C   UNL A   1      40.650  33.641  40.905  1.00  0.00     0.001 A 
ATOM     62  C   UNL A   1      41.541  34.708  41.013  1.00  0.00     0.000 A 
ENDBRANCH  43  57
BRANCH  44  63
ATOM     63  C   UNL A   1      40.139  28.579  29.887  1.00  0.00    -0.014 A 
ATOM     64  C   UNL A   1      39.571  27.297  29.786  1.00  0.00     0.009 A 
ATOM     65  C   UNL A   1      40.618  29.196  28.720  1.00  0.00     0.009 A 
ATOM     66  C   UNL A   1      39.513  26.642  28.552  1.00  0.00     0.001 A 
ATOM     67  C   UNL A   1      40.528  28.553  27.483  1.00  0.00     0.001 A 
ATOM     68  C   UNL A   1      39.984  27.272  27.402  1.00  0.00     0.000 A 
ENDBRANCH  44  63
BRANCH  56  69
ATOM     69  C   UNL A   1      45.141  28.526  34.747  1.00  0.00    -0.014 A 
ATOM     70  C   UNL A   1      46.345  29.092  34.302  1.00  0.00     0.009 A 
ATOM     71  C   UNL A   1      45.173  27.269  35.374  1.00  0.00     0.009 A 
ATOM     72  C   UNL A   1      47.550  28.402  34.457  1.00  0.00     0.001 A 
ATOM     73  C   UNL A   1      46.383  26.597  35.557  1.00  0.00     0.001 A 
ATOM     74  C   UNL A   1      47.568  27.160  35.090  1.00  0.00     0.000 A 
ENDBRANCH  56  69
ENDBRANCH  30  31
ENDBRANCH  23  25
ENDBRANCH  22  23
ENDBRANCH  21  22
ENDBRANCH  20  21
ENDBRANCH  19  20
ENDBRANCH  18  19
ENDBRANCH   1  18
TORSDOF 20
ENDMDL
