MODEL 1
REMARK VINA RESULT:     -11.4      0.000      0.000
REMARK SMILES CCOC(=O)c1c(NC(=O)[C@@H]2[C@@H](C(=O)OCCOCCOCCOC(=O)c3ccc(-c4c5nc(c(-c6ccccc6)c6ccc([nH]6)c(-c6ccccc6)c6nc(c(-c7ccccc7)c7ccc4[nH]7)C=C6)C=C5)cc3)[C@@H]3C=C[C@H]2CC3)sc2c1CCC2
REMARK SMILES IDX 18 1 17 2 16 3 15 4 13 5 14 6 12 7 11 8 78 9 75 10 77 11
REMARK SMILES IDX 79 12 76 13 80 14 9 15 8 16 10 18 7 19 6 20 83 21 81 22
REMARK SMILES IDX 82 23 84 24 86 25 85 26 4 27 5 28 3 29 2 30 1 31 19 32 20 33
REMARK SMILES IDX 21 34 22 35 23 36 24 37 25 38 26 39 27 40 28 41 74 42 29 43
REMARK SMILES IDX 73 44 30 45 31 46 32 47 67 48 33 49 72 50 66 51 68 52 34 53
REMARK SMILES IDX 71 54 65 55 64 56 35 58 57 59 42 60 56 61 43 62 46 63 55 64
REMARK SMILES IDX 69 65 44 66 45 67 54 69 70 70 47 71 36 72 37 73 41 74 38 75
REMARK SMILES IDX 40 76 39 77 58 78 59 79 63 80 60 81 62 82 61 83 48 84 49 85
REMARK SMILES IDX 53 86 50 87 52 88 51 89
REMARK H PARENT 8 17 68 57 46 68
REMARK Flexibility Score: inf
ROOT
ATOM      1  O   UNL A   1      39.199  22.411  26.558  1.00  0.00    -0.376 OA
ENDROOT
BRANCH   1   2
ATOM      2  C   UNL A   1      37.904  22.539  25.969  1.00  0.00     0.202 C 
BRANCH   2   3
ATOM      3  C   UNL A   1      37.424  23.961  25.617  1.00  0.00     0.261 C 
BRANCH   3   4
ATOM      4  O   UNL A   1      36.076  24.031  25.104  1.00  0.00    -0.463 OA
BRANCH   4   5
ATOM      5  C   UNL A   1      35.794  23.283  24.014  1.00  0.00     0.310 C 
ATOM      6  O   UNL A   1      36.501  23.234  23.012  1.00  0.00    -0.252 OA
BRANCH   5   7
ATOM      7  C   UNL A   1      34.520  22.447  24.125  1.00  0.00     0.119 C 
ATOM      8  C   UNL A   1      33.344  23.352  24.527  1.00  0.00     0.100 C 
ATOM      9  C   UNL A   1      32.480  22.687  25.636  1.00  0.00     0.025 C 
ATOM     10  C   UNL A   1      34.516  21.185  25.037  1.00  0.00     0.026 C 
ATOM     11  C   UNL A   1      32.104  21.283  25.237  1.00  0.00    -0.027 C 
ATOM     12  C   UNL A   1      33.388  22.479  26.886  1.00  0.00     0.009 C 
ATOM     13  C   UNL A   1      33.158  20.497  24.955  1.00  0.00    -0.027 C 
ATOM     14  C   UNL A   1      34.580  21.565  26.522  1.00  0.00     0.009 C 
BRANCH   8  15
ATOM     15  C   UNL A   1      32.584  24.007  23.364  1.00  0.00     0.229 C 
ATOM     16  N   UNL A   1      31.839  25.143  23.329  1.00  0.00    -0.317 N 
ATOM     17  H   UNL A   1      31.395  25.282  22.462  1.00  0.00     0.170 HD
ATOM     18  O   UNL A   1      32.731  23.470  22.248  1.00  0.00    -0.274 OA
BRANCH  16  19
ATOM     19  C   UNL A   1      31.565  26.144  24.236  1.00  0.00     0.110 A 
ATOM     20  C   UNL A   1      31.333  27.497  23.964  1.00  0.00     0.098 A 
ATOM     21  C   UNL A   1      31.525  28.223  25.177  1.00  0.00    -0.017 A 
ATOM     22  S   UNL A   1      31.085  25.828  25.844  1.00  0.00    -0.122 S 
ATOM     23  C   UNL A   1      31.507  27.386  26.260  1.00  0.00     0.011 A 
ATOM     24  C   UNL A   1      31.681  29.629  25.629  1.00  0.00     0.038 C 
ATOM     25  C   UNL A   1      31.757  28.032  27.564  1.00  0.00     0.047 C 
ATOM     26  C   UNL A   1      32.196  29.451  27.099  1.00  0.00     0.010 C 
BRANCH  20  27
ATOM     27  C   UNL A   1      31.024  27.968  22.626  1.00  0.00     0.341 C 
ATOM     28  O   UNL A   1      30.700  27.189  21.737  1.00  0.00    -0.246 OA
BRANCH  27  29
ATOM     29  O   UNL A   1      31.061  29.322  22.489  1.00  0.00    -0.462 OA
BRANCH  29  30
ATOM     30  C   UNL A   1      29.851  29.924  21.997  1.00  0.00     0.230 C 
ATOM     31  C   UNL A   1      28.648  29.746  22.911  1.00  0.00     0.049 C 
ENDBRANCH  29  30
ENDBRANCH  27  29
ENDBRANCH  20  27
ENDBRANCH  16  19
ENDBRANCH   8  15
ENDBRANCH   5   7
ENDBRANCH   4   5
ENDBRANCH   3   4
ENDBRANCH   2   3
ENDBRANCH   1   2
BRANCH   1  32
ATOM     32  C   UNL A   1      39.961  21.270  26.175  1.00  0.00     0.188 C 
BRANCH  32  33
ATOM     33  C   UNL A   1      40.941  20.717  27.227  1.00  0.00     0.188 C 
BRANCH  33  34
ATOM     34  O   UNL A   1      41.293  19.360  26.990  1.00  0.00    -0.376 OA
BRANCH  34  35
ATOM     35  C   UNL A   1      42.643  18.916  27.020  1.00  0.00     0.202 C 
BRANCH  35  36
ATOM     36  C   UNL A   1      43.320  18.560  25.713  1.00  0.00     0.261 C 
BRANCH  36  37
ATOM     37  O   UNL A   1      43.453  19.650  24.814  1.00  0.00    -0.460 OA
BRANCH  37  38
ATOM     38  C   UNL A   1      44.558  19.833  24.068  1.00  0.00     0.338 C 
ATOM     39  O   UNL A   1      45.116  19.056  23.310  1.00  0.00    -0.246 OA
BRANCH  38  40
ATOM     40  C   UNL A   1      44.981  21.205  24.372  1.00  0.00     0.060 A 
ATOM     41  C   UNL A   1      45.964  21.390  25.340  1.00  0.00     0.016 A 
ATOM     42  C   UNL A   1      44.213  22.274  23.871  1.00  0.00     0.016 A 
ATOM     43  C   UNL A   1      45.963  22.589  26.015  1.00  0.00     0.010 A 
ATOM     44  C   UNL A   1      44.183  23.446  24.566  1.00  0.00     0.010 A 
ATOM     45  C   UNL A   1      44.984  23.538  25.693  1.00  0.00    -0.014 A 
BRANCH  45  46
ATOM     46  C   UNL A   1      44.827  24.690  26.540  1.00  0.00     0.031 A 
ATOM     47  C   UNL A   1      45.944  25.635  26.422  1.00  0.00     0.074 A 
ATOM     48  C   UNL A   1      43.715  24.900  27.268  1.00  0.00     0.049 A 
ATOM     49  N   UNL A   1      46.867  25.839  27.297  1.00  0.00    -0.248 NA
ATOM     50  C   UNL A   1      46.175  26.285  25.122  1.00  0.00     0.031 C 
ATOM     51  C   UNL A   1      42.448  24.165  27.230  1.00  0.00     0.029 A 
ATOM     52  N   UNL A   1      43.455  25.917  28.130  1.00  0.00    -0.354 N 
ATOM     53  C   UNL A   1      47.665  26.831  26.753  1.00  0.00     0.074 A 
ATOM     54  C   UNL A   1      47.334  26.901  25.352  1.00  0.00     0.031 C 
ATOM     55  C   UNL A   1      41.493  24.900  27.846  1.00  0.00     0.029 A 
ATOM     56  C   UNL A   1      42.108  26.088  28.419  1.00  0.00     0.049 A 
ATOM     57  H   UNL A   1      44.160  26.484  28.516  1.00  0.00     0.167 HD
ATOM     58  C   UNL A   1      48.278  27.734  27.562  1.00  0.00     0.031 A 
ATOM     59  C   UNL A   1      41.547  27.169  29.016  1.00  0.00     0.031 A 
ATOM     60  C   UNL A   1      48.328  27.279  28.932  1.00  0.00     0.049 A 
ATOM     61  C   UNL A   1      42.627  27.911  29.714  1.00  0.00     0.074 A 
ATOM     62  C   UNL A   1      48.794  26.138  29.558  1.00  0.00     0.029 A 
ATOM     63  N   UNL A   1      47.467  27.871  29.827  1.00  0.00    -0.354 N 
ATOM     64  N   UNL A   1      43.220  27.465  30.783  1.00  0.00    -0.248 NA
ATOM     65  C   UNL A   1      43.368  28.917  28.967  1.00  0.00     0.031 C 
ATOM     66  C   UNL A   1      47.836  25.856  30.576  1.00  0.00     0.029 A 
ATOM     67  C   UNL A   1      46.885  26.876  30.568  1.00  0.00     0.049 A 
ATOM     68  H   UNL A   1      47.298  28.837  29.918  1.00  0.00     0.167 HD
ATOM     69  C   UNL A   1      44.561  27.758  30.585  1.00  0.00     0.074 A 
ATOM     70  C   UNL A   1      44.578  28.751  29.511  1.00  0.00     0.031 C 
ATOM     71  C   UNL A   1      45.540  26.950  31.094  1.00  0.00     0.031 A 
BRANCH  58  72
ATOM     72  C   UNL A   1      48.364  29.195  27.199  1.00  0.00    -0.014 A 
ATOM     73  C   UNL A   1      49.604  29.840  27.329  1.00  0.00     0.009 A 
ATOM     74  C   UNL A   1      47.232  30.019  27.037  1.00  0.00     0.009 A 
ATOM     75  C   UNL A   1      49.689  31.235  27.388  1.00  0.00     0.001 A 
ATOM     76  C   UNL A   1      47.319  31.411  27.049  1.00  0.00     0.001 A 
ATOM     77  C   UNL A   1      48.547  32.019  27.258  1.00  0.00     0.000 A 
ENDBRANCH  58  72
BRANCH  59  78
ATOM     78  C   UNL A   1      40.201  27.750  28.816  1.00  0.00    -0.014 A 
ATOM     79  C   UNL A   1      39.253  27.734  29.852  1.00  0.00     0.009 A 
ATOM     80  C   UNL A   1      39.931  28.560  27.698  1.00  0.00     0.009 A 
ATOM     81  C   UNL A   1      38.103  28.534  29.791  1.00  0.00     0.001 A 
ATOM     82  C   UNL A   1      38.779  29.352  27.633  1.00  0.00     0.001 A 
ATOM     83  C   UNL A   1      37.875  29.352  28.688  1.00  0.00     0.000 A 
ENDBRANCH  59  78
BRANCH  71  84
ATOM     84  C   UNL A   1      45.138  25.891  32.094  1.00  0.00    -0.014 A 
ATOM     85  C   UNL A   1      44.633  24.630  31.729  1.00  0.00     0.009 A 
ATOM     86  C   UNL A   1      45.390  26.134  33.452  1.00  0.00     0.009 A 
ATOM     87  C   UNL A   1      44.337  23.666  32.699  1.00  0.00     0.001 A 
ATOM     88  C   UNL A   1      45.120  25.163  34.419  1.00  0.00     0.001 A 
ATOM     89  C   UNL A   1      44.583  23.934  34.043  1.00  0.00     0.000 A 
ENDBRANCH  71  84
ENDBRANCH  45  46
ENDBRANCH  38  40
ENDBRANCH  37  38
ENDBRANCH  36  37
ENDBRANCH  35  36
ENDBRANCH  34  35
ENDBRANCH  33  34
ENDBRANCH  32  33
ENDBRANCH   1  32
TORSDOF 22
ENDMDL
MODEL 2
REMARK VINA RESULT:     -11.1      5.045     10.603
REMARK SMILES CCOC(=O)c1c(NC(=O)[C@@H]2[C@@H](C(=O)OCCOCCOCCOC(=O)c3ccc(-c4c5nc(c(-c6ccccc6)c6ccc([nH]6)c(-c6ccccc6)c6nc(c(-c7ccccc7)c7ccc4[nH]7)C=C6)C=C5)cc3)[C@@H]3C=C[C@H]2CC3)sc2c1CCC2
REMARK SMILES IDX 18 1 17 2 16 3 15 4 13 5 14 6 12 7 11 8 78 9 75 10 77 11
REMARK SMILES IDX 79 12 76 13 80 14 9 15 8 16 10 18 7 19 6 20 83 21 81 22
REMARK SMILES IDX 82 23 84 24 86 25 85 26 4 27 5 28 3 29 2 30 1 31 19 32 20 33
REMARK SMILES IDX 21 34 22 35 23 36 24 37 25 38 26 39 27 40 28 41 74 42 29 43
REMARK SMILES IDX 73 44 30 45 31 46 32 47 67 48 33 49 72 50 66 51 68 52 34 53
REMARK SMILES IDX 71 54 65 55 64 56 35 58 57 59 42 60 56 61 43 62 46 63 55 64
REMARK SMILES IDX 69 65 44 66 45 67 54 69 70 70 47 71 36 72 37 73 41 74 38 75
REMARK SMILES IDX 40 76 39 77 58 78 59 79 63 80 60 81 62 82 61 83 48 84 49 85
REMARK SMILES IDX 53 86 50 87 52 88 51 89
REMARK H PARENT 8 17 68 57 46 68
REMARK Flexibility Score: inf
ROOT
ATOM      1  O   UNL A   1      34.931  30.876  27.875  1.00  0.00    -0.376 OA
ENDROOT
BRANCH   1   2
ATOM      2  C   UNL A   1      34.528  29.531  27.618  1.00  0.00     0.202 C 
BRANCH   2   3
ATOM      3  C   UNL A   1      34.028  29.202  26.197  1.00  0.00     0.261 C 
BRANCH   3   4
ATOM      4  O   UNL A   1      33.416  27.902  26.061  1.00  0.00    -0.463 OA
BRANCH   4   5
ATOM      5  C   UNL A   1      33.361  27.376  24.816  1.00  0.00     0.310 C 
ATOM      6  O   UNL A   1      33.850  27.906  23.824  1.00  0.00    -0.252 OA
BRANCH   5   7
ATOM      7  C   UNL A   1      32.663  26.021  24.726  1.00  0.00     0.119 C 
ATOM      8  C   UNL A   1      32.168  25.790  23.289  1.00  0.00     0.100 C 
ATOM      9  C   UNL A   1      30.720  25.224  23.280  1.00  0.00     0.025 C 
ATOM     10  C   UNL A   1      31.503  25.696  25.713  1.00  0.00     0.026 C 
ATOM     11  C   UNL A   1      30.616  24.031  24.193  1.00  0.00    -0.027 C 
ATOM     12  C   UNL A   1      29.792  26.281  23.954  1.00  0.00     0.009 C 
ATOM     13  C   UNL A   1      30.994  24.282  25.459  1.00  0.00    -0.027 C 
ATOM     14  C   UNL A   1      30.254  26.533  25.406  1.00  0.00     0.009 C 
BRANCH   8  15
ATOM     15  C   UNL A   1      33.174  25.119  22.342  1.00  0.00     0.229 C 
ATOM     16  N   UNL A   1      33.659  23.849  22.330  1.00  0.00    -0.317 N 
ATOM     17  H   UNL A   1      34.361  23.715  21.654  1.00  0.00     0.170 HD
ATOM     18  O   UNL A   1      33.554  25.809  21.375  1.00  0.00    -0.274 OA
BRANCH  16  19
ATOM     19  C   UNL A   1      33.387  22.707  23.053  1.00  0.00     0.110 A 
ATOM     20  C   UNL A   1      33.923  22.337  24.291  1.00  0.00     0.098 A 
ATOM     21  C   UNL A   1      33.716  20.935  24.453  1.00  0.00    -0.017 A 
ATOM     22  S   UNL A   1      32.040  21.708  22.729  1.00  0.00    -0.122 S 
ATOM     23  C   UNL A   1      32.774  20.473  23.574  1.00  0.00     0.011 A 
ATOM     24  C   UNL A   1      34.170  19.829  25.333  1.00  0.00     0.038 C 
ATOM     25  C   UNL A   1      32.526  19.018  23.618  1.00  0.00     0.047 C 
ATOM     26  C   UNL A   1      33.687  18.560  24.549  1.00  0.00     0.010 C 
BRANCH  20  27
ATOM     27  C   UNL A   1      34.610  23.290  25.145  1.00  0.00     0.341 C 
ATOM     28  O   UNL A   1      34.324  23.400  26.332  1.00  0.00    -0.246 OA
BRANCH  27  29
ATOM     29  O   UNL A   1      35.615  23.968  24.528  1.00  0.00    -0.462 OA
BRANCH  29  30
ATOM     30  C   UNL A   1      36.919  23.370  24.637  1.00  0.00     0.230 C 
ATOM     31  C   UNL A   1      37.699  23.795  25.873  1.00  0.00     0.049 C 
ENDBRANCH  29  30
ENDBRANCH  27  29
ENDBRANCH  20  27
ENDBRANCH  16  19
ENDBRANCH   8  15
ENDBRANCH   5   7
ENDBRANCH   4   5
ENDBRANCH   3   4
ENDBRANCH   2   3
ENDBRANCH   1   2
BRANCH   1  32
ATOM     32  C   UNL A   1      33.893  31.852  27.924  1.00  0.00     0.188 C 
BRANCH  32  33
ATOM     33  C   UNL A   1      34.063  32.980  28.960  1.00  0.00     0.188 C 
BRANCH  33  34
ATOM     34  O   UNL A   1      34.597  34.170  28.392  1.00  0.00    -0.376 OA
BRANCH  34  35
ATOM     35  C   UNL A   1      34.091  35.455  28.726  1.00  0.00     0.202 C 
BRANCH  35  36
ATOM     36  C   UNL A   1      32.953  35.552  29.722  1.00  0.00     0.261 C 
BRANCH  36  37
ATOM     37  O   UNL A   1      33.357  35.929  31.029  1.00  0.00    -0.460 OA
BRANCH  37  38
ATOM     38  C   UNL A   1      32.899  35.304  32.128  1.00  0.00     0.338 C 
ATOM     39  O   UNL A   1      31.762  35.255  32.571  1.00  0.00    -0.246 OA
BRANCH  38  40
ATOM     40  C   UNL A   1      34.088  34.680  32.717  1.00  0.00     0.060 A 
ATOM     41  C   UNL A   1      35.206  35.478  32.941  1.00  0.00     0.016 A 
ATOM     42  C   UNL A   1      34.144  33.275  32.795  1.00  0.00     0.016 A 
ATOM     43  C   UNL A   1      36.433  34.855  32.941  1.00  0.00     0.010 A 
ATOM     44  C   UNL A   1      35.361  32.660  32.753  1.00  0.00     0.010 A 
ATOM     45  C   UNL A   1      36.482  33.473  32.718  1.00  0.00    -0.014 A 
BRANCH  45  46
ATOM     46  C   UNL A   1      37.759  32.851  32.486  1.00  0.00     0.031 A 
ATOM     47  C   UNL A   1      38.572  32.759  33.705  1.00  0.00     0.074 A 
ATOM     48  C   UNL A   1      38.097  32.325  31.295  1.00  0.00     0.049 A 
ATOM     49  N   UNL A   1      39.616  33.462  33.981  1.00  0.00    -0.248 NA
ATOM     50  C   UNL A   1      38.070  31.941  34.820  1.00  0.00     0.031 C 
ATOM     51  C   UNL A   1      37.251  32.120  30.117  1.00  0.00     0.029 A 
ATOM     52  N   UNL A   1      39.272  31.748  30.934  1.00  0.00    -0.354 N 
ATOM     53  C   UNL A   1      40.048  32.997  35.212  1.00  0.00     0.074 A 
ATOM     54  C   UNL A   1      38.955  32.241  35.771  1.00  0.00     0.031 C 
ATOM     55  C   UNL A   1      37.869  31.259  29.275  1.00  0.00     0.029 A 
ATOM     56  C   UNL A   1      39.192  30.955  29.798  1.00  0.00     0.049 A 
ATOM     57  H   UNL A   1      40.109  31.881  31.435  1.00  0.00     0.167 HD
ATOM     58  C   UNL A   1      41.373  32.986  35.511  1.00  0.00     0.031 A 
ATOM     59  C   UNL A   1      40.121  30.060  29.378  1.00  0.00     0.031 A 
ATOM     60  C   UNL A   1      42.127  33.850  34.632  1.00  0.00     0.049 A 
ATOM     61  C   UNL A   1      41.404  30.395  30.044  1.00  0.00     0.074 A 
ATOM     62  C   UNL A   1      42.039  35.182  34.272  1.00  0.00     0.029 A 
ATOM     63  N   UNL A   1      42.893  33.250  33.659  1.00  0.00    -0.354 N 
ATOM     64  N   UNL A   1      42.102  31.454  29.752  1.00  0.00    -0.248 NA
ATOM     65  C   UNL A   1      41.678  29.812  31.350  1.00  0.00     0.031 C 
ATOM     66  C   UNL A   1      42.339  35.211  32.879  1.00  0.00     0.029 A 
ATOM     67  C   UNL A   1      42.669  33.915  32.482  1.00  0.00     0.049 A 
ATOM     68  H   UNL A   1      43.494  32.480  33.786  1.00  0.00     0.167 HD
ATOM     69  C   UNL A   1      42.528  31.939  30.980  1.00  0.00     0.074 A 
ATOM     70  C   UNL A   1      42.337  30.829  31.913  1.00  0.00     0.031 C 
ATOM     71  C   UNL A   1      42.706  33.280  31.183  1.00  0.00     0.031 A 
BRANCH  58  72
ATOM     72  C   UNL A   1      42.012  31.834  36.244  1.00  0.00    -0.014 A 
ATOM     73  C   UNL A   1      42.910  32.125  37.283  1.00  0.00     0.009 A 
ATOM     74  C   UNL A   1      42.005  30.510  35.760  1.00  0.00     0.009 A 
ATOM     75  C   UNL A   1      43.816  31.164  37.743  1.00  0.00     0.001 A 
ATOM     76  C   UNL A   1      42.876  29.536  36.250  1.00  0.00     0.001 A 
ATOM     77  C   UNL A   1      43.805  29.874  37.220  1.00  0.00     0.000 A 
ENDBRANCH  58  72
BRANCH  59  78
ATOM     78  C   UNL A   1      39.926  28.788  28.648  1.00  0.00    -0.014 A 
ATOM     79  C   UNL A   1      40.464  28.609  27.363  1.00  0.00     0.009 A 
ATOM     80  C   UNL A   1      39.440  27.649  29.315  1.00  0.00     0.009 A 
ATOM     81  C   UNL A   1      40.554  27.334  26.789  1.00  0.00     0.001 A 
ATOM     82  C   UNL A   1      39.523  26.376  28.739  1.00  0.00     0.001 A 
ATOM     83  C   UNL A   1      40.097  26.217  27.483  1.00  0.00     0.000 A 
ENDBRANCH  59  78
BRANCH  71  84
ATOM     84  C   UNL A   1      42.688  34.190  29.977  1.00  0.00    -0.014 A 
ATOM     85  C   UNL A   1      41.525  34.813  29.492  1.00  0.00     0.009 A 
ATOM     86  C   UNL A   1      43.913  34.522  29.381  1.00  0.00     0.009 A 
ATOM     87  C   UNL A   1      41.581  35.696  28.408  1.00  0.00     0.001 A 
ATOM     88  C   UNL A   1      43.974  35.424  28.316  1.00  0.00     0.001 A 
ATOM     89  C   UNL A   1      42.807  36.001  27.822  1.00  0.00     0.000 A 
ENDBRANCH  71  84
ENDBRANCH  45  46
ENDBRANCH  38  40
ENDBRANCH  37  38
ENDBRANCH  36  37
ENDBRANCH  35  36
ENDBRANCH  34  35
ENDBRANCH  33  34
ENDBRANCH  32  33
ENDBRANCH   1  32
TORSDOF 22
ENDMDL
MODEL 3
REMARK VINA RESULT:     -11.1      5.228     10.708
REMARK SMILES CCOC(=O)c1c(NC(=O)[C@@H]2[C@@H](C(=O)OCCOCCOCCOC(=O)c3ccc(-c4c5nc(c(-c6ccccc6)c6ccc([nH]6)c(-c6ccccc6)c6nc(c(-c7ccccc7)c7ccc4[nH]7)C=C6)C=C5)cc3)[C@@H]3C=C[C@H]2CC3)sc2c1CCC2
REMARK SMILES IDX 18 1 17 2 16 3 15 4 13 5 14 6 12 7 11 8 78 9 75 10 77 11
REMARK SMILES IDX 79 12 76 13 80 14 9 15 8 16 10 18 7 19 6 20 83 21 81 22
REMARK SMILES IDX 82 23 84 24 86 25 85 26 4 27 5 28 3 29 2 30 1 31 19 32 20 33
REMARK SMILES IDX 21 34 22 35 23 36 24 37 25 38 26 39 27 40 28 41 74 42 29 43
REMARK SMILES IDX 73 44 30 45 31 46 32 47 67 48 33 49 72 50 66 51 68 52 34 53
REMARK SMILES IDX 71 54 65 55 64 56 35 58 57 59 42 60 56 61 43 62 46 63 55 64
REMARK SMILES IDX 69 65 44 66 45 67 54 69 70 70 47 71 36 72 37 73 41 74 38 75
REMARK SMILES IDX 40 76 39 77 58 78 59 79 63 80 60 81 62 82 61 83 48 84 49 85
REMARK SMILES IDX 53 86 50 87 52 88 51 89
REMARK H PARENT 8 17 68 57 46 68
REMARK Flexibility Score: inf
ROOT
ATOM      1  O   UNL A   1      32.131  30.864  25.998  1.00  0.00    -0.376 OA
ENDROOT
BRANCH   1   2
ATOM      2  C   UNL A   1      31.499  29.637  25.634  1.00  0.00     0.202 C 
BRANCH   2   3
ATOM      3  C   UNL A   1      31.068  29.472  24.163  1.00  0.00     0.261 C 
BRANCH   3   4
ATOM      4  O   UNL A   1      31.147  28.121  23.660  1.00  0.00    -0.463 OA
BRANCH   4   5
ATOM      5  C   UNL A   1      32.364  27.684  23.263  1.00  0.00     0.310 C 
ATOM      6  O   UNL A   1      33.026  28.209  22.373  1.00  0.00    -0.252 OA
BRANCH   5   7
ATOM      7  C   UNL A   1      32.895  26.481  24.039  1.00  0.00     0.119 C 
ATOM      8  C   UNL A   1      31.719  25.691  24.636  1.00  0.00     0.100 C 
ATOM      9  C   UNL A   1      32.005  25.291  26.111  1.00  0.00     0.025 C 
ATOM     10  C   UNL A   1      33.963  26.705  25.151  1.00  0.00     0.026 C 
ATOM     11  C   UNL A   1      33.350  24.621  26.222  1.00  0.00    -0.027 C 
ATOM     12  C   UNL A   1      32.182  26.603  26.935  1.00  0.00     0.009 C 
ATOM     13  C   UNL A   1      34.367  25.364  25.752  1.00  0.00    -0.027 C 
ATOM     14  C   UNL A   1      33.364  27.421  26.368  1.00  0.00     0.009 C 
BRANCH   8  15
ATOM     15  C   UNL A   1      31.125  24.602  23.730  1.00  0.00     0.229 C 
ATOM     16  N   UNL A   1      31.702  23.492  23.197  1.00  0.00    -0.317 N 
ATOM     17  H   UNL A   1      31.104  23.011  22.581  1.00  0.00     0.170 HD
ATOM     18  O   UNL A   1      29.902  24.689  23.505  1.00  0.00    -0.274 OA
BRANCH  16  19
ATOM     19  C   UNL A   1      32.934  22.889  23.326  1.00  0.00     0.110 A 
ATOM     20  C   UNL A   1      33.237  21.714  24.023  1.00  0.00     0.098 A 
ATOM     21  C   UNL A   1      34.644  21.699  24.257  1.00  0.00    -0.017 A 
ATOM     22  S   UNL A   1      34.262  23.279  22.325  1.00  0.00    -0.122 S 
ATOM     23  C   UNL A   1      35.288  22.594  23.446  1.00  0.00     0.011 A 
ATOM     24  C   UNL A   1      35.636  20.958  25.077  1.00  0.00     0.038 C 
ATOM     25  C   UNL A   1      36.746  22.700  23.651  1.00  0.00     0.047 C 
ATOM     26  C   UNL A   1      36.912  21.859  24.951  1.00  0.00     0.010 C 
BRANCH  20  27
ATOM     27  C   UNL A   1      32.205  20.784  24.442  1.00  0.00     0.341 C 
ATOM     28  O   UNL A   1      31.390  21.085  25.307  1.00  0.00    -0.246 OA
BRANCH  27  29
ATOM     29  O   UNL A   1      32.193  19.614  23.747  1.00  0.00    -0.462 OA
BRANCH  29  30
ATOM     30  C   UNL A   1      32.666  18.464  24.469  1.00  0.00     0.230 C 
ATOM     31  C   UNL A   1      33.909  17.819  23.874  1.00  0.00     0.049 C 
ENDBRANCH  29  30
ENDBRANCH  27  29
ENDBRANCH  20  27
ENDBRANCH  16  19
ENDBRANCH   8  15
ENDBRANCH   5   7
ENDBRANCH   4   5
ENDBRANCH   3   4
ENDBRANCH   2   3
ENDBRANCH   1   2
BRANCH   1  32
ATOM     32  C   UNL A   1      32.602  30.963  27.339  1.00  0.00     0.188 C 
BRANCH  32  33
ATOM     33  C   UNL A   1      33.738  31.974  27.592  1.00  0.00     0.188 C 
BRANCH  33  34
ATOM     34  O   UNL A   1      33.255  33.280  27.882  1.00  0.00    -0.376 OA
BRANCH  34  35
ATOM     35  C   UNL A   1      34.008  34.206  28.653  1.00  0.00     0.202 C 
BRANCH  35  36
ATOM     36  C   UNL A   1      33.277  35.341  29.341  1.00  0.00     0.261 C 
BRANCH  36  37
ATOM     37  O   UNL A   1      32.578  34.953  30.513  1.00  0.00    -0.460 OA
BRANCH  37  38
ATOM     38  C   UNL A   1      32.746  35.583  31.690  1.00  0.00     0.338 C 
ATOM     39  O   UNL A   1      32.133  36.531  32.153  1.00  0.00    -0.246 OA
BRANCH  38  40
ATOM     40  C   UNL A   1      33.868  34.880  32.322  1.00  0.00     0.060 A 
ATOM     41  C   UNL A   1      34.980  35.626  32.701  1.00  0.00     0.016 A 
ATOM     42  C   UNL A   1      33.885  33.472  32.291  1.00  0.00     0.016 A 
ATOM     43  C   UNL A   1      36.188  34.969  32.753  1.00  0.00     0.010 A 
ATOM     44  C   UNL A   1      35.087  32.828  32.301  1.00  0.00     0.010 A 
ATOM     45  C   UNL A   1      36.225  33.608  32.424  1.00  0.00    -0.014 A 
BRANCH  45  46
ATOM     46  C   UNL A   1      37.503  32.970  32.249  1.00  0.00     0.031 A 
ATOM     47  C   UNL A   1      38.282  32.915  33.492  1.00  0.00     0.074 A 
ATOM     48  C   UNL A   1      37.868  32.399  31.087  1.00  0.00     0.049 A 
ATOM     49  N   UNL A   1      39.324  33.620  33.771  1.00  0.00    -0.248 NA
ATOM     50  C   UNL A   1      37.743  32.140  34.621  1.00  0.00     0.031 C 
ATOM     51  C   UNL A   1      37.053  32.158  29.894  1.00  0.00     0.029 A 
ATOM     52  N   UNL A   1      39.048  31.801  30.778  1.00  0.00    -0.354 N 
ATOM     53  C   UNL A   1      39.718  33.196  35.029  1.00  0.00     0.074 A 
ATOM     54  C   UNL A   1      38.605  32.468  35.584  1.00  0.00     0.031 C 
ATOM     55  C   UNL A   1      37.686  31.263  29.100  1.00  0.00     0.029 A 
ATOM     56  C   UNL A   1      38.992  30.968  29.670  1.00  0.00     0.049 A 
ATOM     57  H   UNL A   1      39.872  31.946  31.297  1.00  0.00     0.167 HD
ATOM     58  C   UNL A   1      41.035  33.186  35.364  1.00  0.00     0.031 A 
ATOM     59  C   UNL A   1      39.925  30.053  29.307  1.00  0.00     0.031 A 
ATOM     60  C   UNL A   1      41.819  34.013  34.476  1.00  0.00     0.049 A 
ATOM     61  C   UNL A   1      41.192  30.402  29.995  1.00  0.00     0.074 A 
ATOM     62  C   UNL A   1      41.751  35.332  34.067  1.00  0.00     0.029 A 
ATOM     63  N   UNL A   1      42.606  33.373  33.546  1.00  0.00    -0.354 N 
ATOM     64  N   UNL A   1      41.906  31.445  29.685  1.00  0.00    -0.248 NA
ATOM     65  C   UNL A   1      41.426  29.864  31.327  1.00  0.00     0.031 C 
ATOM     66  C   UNL A   1      42.090  35.309  32.682  1.00  0.00     0.029 A 
ATOM     67  C   UNL A   1      42.420  33.998  32.340  1.00  0.00     0.049 A 
ATOM     68  H   UNL A   1      43.197  32.604  33.717  1.00  0.00     0.167 HD
ATOM     69  C   UNL A   1      42.303  31.971  30.906  1.00  0.00     0.074 A 
ATOM     70  C   UNL A   1      42.078  30.896  31.873  1.00  0.00     0.031 C 
ATOM     71  C   UNL A   1      42.487  33.316  31.067  1.00  0.00     0.031 A 
BRANCH  58  72
ATOM     72  C   UNL A   1      41.645  32.057  36.154  1.00  0.00    -0.014 A 
ATOM     73  C   UNL A   1      42.474  32.378  37.241  1.00  0.00     0.009 A 
ATOM     74  C   UNL A   1      41.687  30.725  35.695  1.00  0.00     0.009 A 
ATOM     75  C   UNL A   1      43.364  31.439  37.772  1.00  0.00     0.001 A 
ATOM     76  C   UNL A   1      42.539  29.773  36.253  1.00  0.00     0.001 A 
ATOM     77  C   UNL A   1      43.403  30.141  37.272  1.00  0.00     0.000 A 
ENDBRANCH  58  72
BRANCH  59  78
ATOM     78  C   UNL A   1      39.739  28.757  28.617  1.00  0.00    -0.014 A 
ATOM     79  C   UNL A   1      40.331  28.520  27.366  1.00  0.00     0.009 A 
ATOM     80  C   UNL A   1      39.203  27.653  29.304  1.00  0.00     0.009 A 
ATOM     81  C   UNL A   1      40.424  27.222  26.845  1.00  0.00     0.001 A 
ATOM     82  C   UNL A   1      39.288  26.357  28.780  1.00  0.00     0.001 A 
ATOM     83  C   UNL A   1      39.915  26.140  27.559  1.00  0.00     0.000 A 
ENDBRANCH  59  78
BRANCH  71  84
ATOM     84  C   UNL A   1      42.508  34.183  29.829  1.00  0.00    -0.014 A 
ATOM     85  C   UNL A   1      43.596  34.239  28.939  1.00  0.00     0.009 A 
ATOM     86  C   UNL A   1      41.340  34.878  29.487  1.00  0.00     0.009 A 
ATOM     87  C   UNL A   1      43.533  35.013  27.775  1.00  0.00     0.001 A 
ATOM     88  C   UNL A   1      41.266  35.629  28.312  1.00  0.00     0.001 A 
ATOM     89  C   UNL A   1      42.367  35.706  27.463  1.00  0.00     0.000 A 
ENDBRANCH  71  84
ENDBRANCH  45  46
ENDBRANCH  38  40
ENDBRANCH  37  38
ENDBRANCH  36  37
ENDBRANCH  35  36
ENDBRANCH  34  35
ENDBRANCH  33  34
ENDBRANCH  32  33
ENDBRANCH   1  32
TORSDOF 22
ENDMDL
