MODEL 1
REMARK VINA RESULT:      -9.9      0.000      0.000
REMARK SMILES Cc1ccc(OCCC[N@H+]2CCCC[C@@H]2C(=O)OCCOCCOCCOC(=O)c2ccc(-c3c4nc(c(-c5ccccc5)c5ccc([nH]5)c(-c5ccccc5)c5nc(c(-c6ccccc6)c6ccc3[nH]6)C=C5)C=C4)cc2)cc1C
REMARK SMILES IDX 21 1 20 2 19 3 18 4 16 5 17 6 15 7 10 8 11 9 12 11 14 12
REMARK SMILES IDX 13 13 9 14 8 15 7 16 6 17 5 18 1 19 2 20 3 21 79 22 4 23
REMARK SMILES IDX 78 24 80 25 22 26 23 27 24 28 25 29 26 30 27 31 28 32 29 33
REMARK SMILES IDX 30 34 31 35 77 36 32 37 76 38 33 39 34 40 35 41 70 42 36 43
REMARK SMILES IDX 75 44 69 45 71 46 37 47 74 48 68 49 67 50 38 52 60 53 45 54
REMARK SMILES IDX 59 55 46 56 49 57 58 58 72 59 47 60 48 61 57 63 73 64 50 65
REMARK SMILES IDX 39 66 40 67 44 68 41 69 43 70 42 71 61 72 62 73 66 74 63 75
REMARK SMILES IDX 65 76 64 77 51 78 52 79 56 80 53 81 55 82 54 83
REMARK H PARENT 10 10 71 51 49 62
REMARK Flexibility Score: inf
ROOT
ATOM      1  O   UNL A   1      39.702  21.049  26.635  1.00  0.00    -0.376 OA
ENDROOT
BRANCH   1   2
ATOM      2  C   UNL A   1      39.122  22.174  25.987  1.00  0.00     0.202 C 
BRANCH   2   3
ATOM      3  C   UNL A   1      37.697  21.948  25.485  1.00  0.00     0.261 C 
BRANCH   3   4
ATOM      4  O   UNL A   1      36.714  23.016  25.520  1.00  0.00    -0.459 OA
BRANCH   4   5
ATOM      5  C   UNL A   1      35.383  22.876  25.759  1.00  0.00     0.364 C 
ATOM      6  O   UNL A   1      34.737  23.439  26.617  1.00  0.00    -0.245 OA
BRANCH   5   7
ATOM      7  C   UNL A   1      34.727  21.923  24.757  1.00  0.00     0.295 C 
ATOM      8  N   UNL A   1      33.555  22.560  24.076  1.00  0.00    -0.323 N 
ATOM      9  C   UNL A   1      32.864  21.546  23.244  1.00  0.00     0.262 C 
ATOM     10  H   UNL A   1      32.928  22.927  24.790  1.00  0.00     0.348 HD
ATOM     11  C   UNL A   1      32.477  20.276  24.007  1.00  0.00     0.062 C 
ATOM     12  C   UNL A   1      34.405  20.624  25.515  1.00  0.00     0.078 C 
ATOM     13  C   UNL A   1      33.699  19.620  24.629  1.00  0.00     0.013 C 
BRANCH   8  14
ATOM     14  C   UNL A   1      33.997  23.679  23.195  1.00  0.00     0.266 C 
BRANCH  14  15
ATOM     15  C   UNL A   1      32.926  24.240  22.236  1.00  0.00     0.103 C 
BRANCH  15  16
ATOM     16  C   UNL A   1      33.020  25.734  21.899  1.00  0.00     0.235 C 
BRANCH  16  17
ATOM     17  O   UNL A   1      31.742  26.410  21.956  1.00  0.00    -0.493 OA
BRANCH  17  18
ATOM     18  C   UNL A   1      31.664  27.303  22.992  1.00  0.00     0.119 A 
ATOM     19  C   UNL A   1      31.724  30.442  25.931  1.00  0.00     0.044 C 
ATOM     20  C   UNL A   1      31.652  29.264  24.999  1.00  0.00    -0.048 A 
ATOM     21  C   UNL A   1      30.741  29.316  23.934  1.00  0.00     0.007 A 
ATOM     22  C   UNL A   1      32.473  28.125  25.141  1.00  0.00    -0.045 A 
ATOM     23  C   UNL A   1      30.729  28.326  22.955  1.00  0.00     0.047 A 
ATOM     24  C   UNL A   1      32.478  27.151  24.115  1.00  0.00     0.050 A 
ATOM     25  C   UNL A   1      33.355  27.943  26.346  1.00  0.00     0.045 C 
ENDBRANCH  17  18
ENDBRANCH  16  17
ENDBRANCH  15  16
ENDBRANCH  14  15
ENDBRANCH   8  14
ENDBRANCH   5   7
ENDBRANCH   4   5
ENDBRANCH   3   4
ENDBRANCH   2   3
ENDBRANCH   1   2
BRANCH   1  26
ATOM     26  C   UNL A   1      40.957  21.301  27.260  1.00  0.00     0.188 C 
BRANCH  26  27
ATOM     27  C   UNL A   1      42.127  20.865  26.371  1.00  0.00     0.188 C 
BRANCH  27  28
ATOM     28  O   UNL A   1      43.374  21.550  26.498  1.00  0.00    -0.376 OA
BRANCH  28  29
ATOM     29  C   UNL A   1      44.375  21.308  25.519  1.00  0.00     0.202 C 
BRANCH  29  30
ATOM     30  C   UNL A   1      44.341  22.230  24.294  1.00  0.00     0.261 C 
BRANCH  30  31
ATOM     31  O   UNL A   1      43.457  23.360  24.429  1.00  0.00    -0.460 OA
BRANCH  31  32
ATOM     32  C   UNL A   1      44.046  24.477  24.916  1.00  0.00     0.338 C 
ATOM     33  O   UNL A   1      45.215  24.805  24.790  1.00  0.00    -0.246 OA
BRANCH  32  34
ATOM     34  C   UNL A   1      43.058  25.367  25.565  1.00  0.00     0.060 A 
ATOM     35  C   UNL A   1      43.408  26.715  25.716  1.00  0.00     0.016 A 
ATOM     36  C   UNL A   1      41.897  24.873  26.166  1.00  0.00     0.016 A 
ATOM     37  C   UNL A   1      42.662  27.549  26.546  1.00  0.00     0.010 A 
ATOM     38  C   UNL A   1      41.157  25.706  27.016  1.00  0.00     0.010 A 
ATOM     39  C   UNL A   1      41.581  27.026  27.265  1.00  0.00    -0.014 A 
BRANCH  39  40
ATOM     40  C   UNL A   1      41.115  27.765  28.469  1.00  0.00     0.031 A 
ATOM     41  C   UNL A   1      41.885  27.582  29.755  1.00  0.00     0.074 A 
ATOM     42  C   UNL A   1      40.096  28.642  28.425  1.00  0.00     0.049 A 
ATOM     43  N   UNL A   1      41.699  28.142  30.924  1.00  0.00    -0.248 NA
ATOM     44  C   UNL A   1      43.021  26.644  29.716  1.00  0.00     0.031 C 
ATOM     45  C   UNL A   1      39.295  28.960  27.245  1.00  0.00     0.029 A 
ATOM     46  N   UNL A   1      39.569  29.433  29.416  1.00  0.00    -0.354 N 
ATOM     47  C   UNL A   1      42.680  27.615  31.756  1.00  0.00     0.074 A 
ATOM     48  C   UNL A   1      43.444  26.674  30.970  1.00  0.00     0.031 C 
ATOM     49  C   UNL A   1      38.367  29.873  27.586  1.00  0.00     0.029 A 
ATOM     50  C   UNL A   1      38.499  30.191  29.007  1.00  0.00     0.049 A 
ATOM     51  H   UNL A   1      39.923  29.455  30.334  1.00  0.00     0.167 HD
ATOM     52  C   UNL A   1      42.935  27.891  33.056  1.00  0.00     0.031 A 
ATOM     53  C   UNL A   1      37.709  31.032  29.704  1.00  0.00     0.031 A 
ATOM     54  C   UNL A   1      42.196  28.832  33.851  1.00  0.00     0.049 A 
ATOM     55  C   UNL A   1      37.985  31.284  31.166  1.00  0.00     0.074 A 
ATOM     56  C   UNL A   1      42.405  29.195  35.171  1.00  0.00     0.029 A 
ATOM     57  N   UNL A   1      41.105  29.556  33.404  1.00  0.00    -0.354 N 
ATOM     58  N   UNL A   1      38.941  30.810  31.925  1.00  0.00    -0.248 NA
ATOM     59  C   UNL A   1      37.072  32.207  31.861  1.00  0.00     0.031 C 
ATOM     60  C   UNL A   1      41.408  30.103  35.538  1.00  0.00     0.029 A 
ATOM     61  C   UNL A   1      40.614  30.346  34.429  1.00  0.00     0.049 A 
ATOM     62  H   UNL A   1      40.735  29.516  32.493  1.00  0.00     0.167 HD
ATOM     63  C   UNL A   1      38.764  31.400  33.172  1.00  0.00     0.074 A 
ATOM     64  C   UNL A   1      37.623  32.281  33.063  1.00  0.00     0.031 C 
ATOM     65  C   UNL A   1      39.483  31.227  34.308  1.00  0.00     0.031 A 
BRANCH  52  66
ATOM     66  C   UNL A   1      44.052  27.138  33.719  1.00  0.00    -0.014 A 
ATOM     67  C   UNL A   1      43.847  25.862  34.266  1.00  0.00     0.009 A 
ATOM     68  C   UNL A   1      45.340  27.695  33.750  1.00  0.00     0.009 A 
ATOM     69  C   UNL A   1      44.908  25.167  34.850  1.00  0.00     0.001 A 
ATOM     70  C   UNL A   1      46.402  26.988  34.312  1.00  0.00     0.001 A 
ATOM     71  C   UNL A   1      46.186  25.728  34.867  1.00  0.00     0.000 A 
ENDBRANCH  52  66
BRANCH  53  72
ATOM     72  C   UNL A   1      36.549  31.693  29.048  1.00  0.00    -0.014 A 
ATOM     73  C   UNL A   1      36.598  33.050  28.694  1.00  0.00     0.009 A 
ATOM     74  C   UNL A   1      35.357  30.982  28.846  1.00  0.00     0.009 A 
ATOM     75  C   UNL A   1      35.464  33.691  28.189  1.00  0.00     0.001 A 
ATOM     76  C   UNL A   1      34.234  31.617  28.313  1.00  0.00     0.001 A 
ATOM     77  C   UNL A   1      34.283  32.973  27.999  1.00  0.00     0.000 A 
ENDBRANCH  53  72
BRANCH  65  78
ATOM     78  C   UNL A   1      39.088  32.039  35.511  1.00  0.00    -0.014 A 
ATOM     79  C   UNL A   1      38.143  31.565  36.436  1.00  0.00     0.009 A 
ATOM     80  C   UNL A   1      39.693  33.285  35.737  1.00  0.00     0.009 A 
ATOM     81  C   UNL A   1      37.783  32.343  37.538  1.00  0.00     0.001 A 
ATOM     82  C   UNL A   1      39.353  34.046  36.856  1.00  0.00     0.001 A 
ATOM     83  C   UNL A   1      38.390  33.581  37.749  1.00  0.00     0.000 A 
ENDBRANCH  65  78
ENDBRANCH  39  40
ENDBRANCH  32  34
ENDBRANCH  31  32
ENDBRANCH  30  31
ENDBRANCH  29  30
ENDBRANCH  28  29
ENDBRANCH  27  28
ENDBRANCH  26  27
ENDBRANCH   1  26
TORSDOF 22
ENDMDL
MODEL 2
REMARK VINA RESULT:      -9.8      3.586      7.716
REMARK SMILES Cc1ccc(OCCC[N@H+]2CCCC[C@@H]2C(=O)OCCOCCOCCOC(=O)c2ccc(-c3c4nc(c(-c5ccccc5)c5ccc([nH]5)c(-c5ccccc5)c5nc(c(-c6ccccc6)c6ccc3[nH]6)C=C5)C=C4)cc2)cc1C
REMARK SMILES IDX 21 1 20 2 19 3 18 4 16 5 17 6 15 7 10 8 11 9 12 11 14 12
REMARK SMILES IDX 13 13 9 14 8 15 7 16 6 17 5 18 1 19 2 20 3 21 79 22 4 23
REMARK SMILES IDX 78 24 80 25 22 26 23 27 24 28 25 29 26 30 27 31 28 32 29 33
REMARK SMILES IDX 30 34 31 35 77 36 32 37 76 38 33 39 34 40 35 41 70 42 36 43
REMARK SMILES IDX 75 44 69 45 71 46 37 47 74 48 68 49 67 50 38 52 60 53 45 54
REMARK SMILES IDX 59 55 46 56 49 57 58 58 72 59 47 60 48 61 57 63 73 64 50 65
REMARK SMILES IDX 39 66 40 67 44 68 41 69 43 70 42 71 61 72 62 73 66 74 63 75
REMARK SMILES IDX 65 76 64 77 51 78 52 79 56 80 53 81 55 82 54 83
REMARK H PARENT 10 10 71 51 49 62
REMARK Flexibility Score: inf
ROOT
ATOM      1  O   UNL A   1      31.888  21.437  24.893  1.00  0.00    -0.376 OA
ENDROOT
BRANCH   1   2
ATOM      2  C   UNL A   1      31.049  22.458  25.421  1.00  0.00     0.202 C 
BRANCH   2   3
ATOM      3  C   UNL A   1      31.554  23.076  26.723  1.00  0.00     0.261 C 
BRANCH   3   4
ATOM      4  O   UNL A   1      31.252  24.456  27.062  1.00  0.00    -0.459 OA
BRANCH   4   5
ATOM      5  C   UNL A   1      30.226  25.198  26.569  1.00  0.00     0.364 C 
ATOM      6  O   UNL A   1      29.058  25.120  26.885  1.00  0.00    -0.245 OA
BRANCH   5   7
ATOM      7  C   UNL A   1      30.715  26.233  25.553  1.00  0.00     0.295 C 
ATOM      8  N   UNL A   1      30.804  27.600  26.157  1.00  0.00    -0.323 N 
ATOM      9  C   UNL A   1      31.122  28.583  25.095  1.00  0.00     0.262 C 
ATOM     10  H   UNL A   1      29.910  27.819  26.594  1.00  0.00     0.348 HD
ATOM     11  C   UNL A   1      30.168  28.536  23.899  1.00  0.00     0.062 C 
ATOM     12  C   UNL A   1      29.793  26.130  24.326  1.00  0.00     0.078 C 
ATOM     13  C   UNL A   1      30.153  27.152  23.269  1.00  0.00     0.013 C 
BRANCH   8  14
ATOM     14  C   UNL A   1      31.876  27.653  27.193  1.00  0.00     0.266 C 
BRANCH  14  15
ATOM     15  C   UNL A   1      33.031  28.637  26.913  1.00  0.00     0.103 C 
BRANCH  15  16
ATOM     16  C   UNL A   1      34.153  28.138  25.994  1.00  0.00     0.235 C 
BRANCH  16  17
ATOM     17  O   UNL A   1      34.111  26.709  25.772  1.00  0.00    -0.493 OA
BRANCH  17  18
ATOM     18  C   UNL A   1      33.887  26.387  24.459  1.00  0.00     0.119 A 
ATOM     19  C   UNL A   1      32.665  25.523  20.427  1.00  0.00     0.044 C 
ATOM     20  C   UNL A   1      33.209  25.761  21.809  1.00  0.00    -0.048 A 
ATOM     21  C   UNL A   1      33.502  27.080  22.187  1.00  0.00     0.007 A 
ATOM     22  C   UNL A   1      33.414  24.722  22.741  1.00  0.00    -0.045 A 
ATOM     23  C   UNL A   1      33.868  27.383  23.496  1.00  0.00     0.047 A 
ATOM     24  C   UNL A   1      33.743  25.053  24.076  1.00  0.00     0.050 A 
ATOM     25  C   UNL A   1      33.266  23.278  22.345  1.00  0.00     0.045 C 
ENDBRANCH  17  18
ENDBRANCH  16  17
ENDBRANCH  15  16
ENDBRANCH  14  15
ENDBRANCH   8  14
ENDBRANCH   5   7
ENDBRANCH   4   5
ENDBRANCH   3   4
ENDBRANCH   2   3
ENDBRANCH   1   2
BRANCH   1  26
ATOM     26  C   UNL A   1      32.973  21.060  25.735  1.00  0.00     0.188 C 
BRANCH  26  27
ATOM     27  C   UNL A   1      34.013  20.228  24.978  1.00  0.00     0.188 C 
BRANCH  27  28
ATOM     28  O   UNL A   1      35.384  20.621  25.045  1.00  0.00    -0.376 OA
BRANCH  28  29
ATOM     29  C   UNL A   1      36.377  19.609  24.956  1.00  0.00     0.202 C 
BRANCH  29  30
ATOM     30  C   UNL A   1      37.803  20.101  24.672  1.00  0.00     0.261 C 
BRANCH  30  31
ATOM     31  O   UNL A   1      38.190  21.258  25.438  1.00  0.00    -0.460 OA
BRANCH  31  32
ATOM     32  C   UNL A   1      39.364  21.124  26.099  1.00  0.00     0.338 C 
ATOM     33  O   UNL A   1      40.131  20.176  26.050  1.00  0.00    -0.246 OA
BRANCH  32  34
ATOM     34  C   UNL A   1      39.700  22.354  26.852  1.00  0.00     0.060 A 
ATOM     35  C   UNL A   1      39.033  23.532  26.489  1.00  0.00     0.016 A 
ATOM     36  C   UNL A   1      40.756  22.399  27.766  1.00  0.00     0.016 A 
ATOM     37  C   UNL A   1      39.480  24.767  26.953  1.00  0.00     0.010 A 
ATOM     38  C   UNL A   1      41.217  23.643  28.219  1.00  0.00     0.010 A 
ATOM     39  C   UNL A   1      40.625  24.834  27.755  1.00  0.00    -0.014 A 
BRANCH  39  40
ATOM     40  C   UNL A   1      41.350  26.131  27.837  1.00  0.00     0.031 A 
ATOM     41  C   UNL A   1      40.740  27.233  28.670  1.00  0.00     0.074 A 
ATOM     42  C   UNL A   1      42.555  26.318  27.270  1.00  0.00     0.049 A 
ATOM     43  N   UNL A   1      41.195  28.434  28.925  1.00  0.00    -0.248 NA
ATOM     44  C   UNL A   1      39.442  26.938  29.304  1.00  0.00     0.031 C 
ATOM     45  C   UNL A   1      43.289  25.331  26.482  1.00  0.00     0.029 A 
ATOM     46  N   UNL A   1      43.375  27.420  27.282  1.00  0.00    -0.354 N 
ATOM     47  C   UNL A   1      40.238  29.037  29.732  1.00  0.00     0.074 A 
ATOM     48  C   UNL A   1      39.165  28.084  29.906  1.00  0.00     0.031 C 
ATOM     49  C   UNL A   1      44.449  25.879  26.075  1.00  0.00     0.029 A 
ATOM     50  C   UNL A   1      44.531  27.256  26.559  1.00  0.00     0.049 A 
ATOM     51  H   UNL A   1      43.154  28.250  27.763  1.00  0.00     0.167 HD
ATOM     52  C   UNL A   1      40.246  30.270  30.291  1.00  0.00     0.031 A 
ATOM     53  C   UNL A   1      45.532  28.123  26.307  1.00  0.00     0.031 A 
ATOM     54  C   UNL A   1      41.308  31.226  30.141  1.00  0.00     0.049 A 
ATOM     55  C   UNL A   1      45.493  29.509  26.901  1.00  0.00     0.074 A 
ATOM     56  C   UNL A   1      41.411  32.490  30.696  1.00  0.00     0.029 A 
ATOM     57  N   UNL A   1      42.446  31.028  29.379  1.00  0.00    -0.354 N 
ATOM     58  N   UNL A   1      44.601  30.049  27.696  1.00  0.00    -0.248 NA
ATOM     59  C   UNL A   1      46.617  30.402  26.571  1.00  0.00     0.031 C 
ATOM     60  C   UNL A   1      42.591  33.077  30.229  1.00  0.00     0.029 A 
ATOM     61  C   UNL A   1      43.246  32.156  29.429  1.00  0.00     0.049 A 
ATOM     62  H   UNL A   1      42.654  30.207  28.878  1.00  0.00     0.167 HD
ATOM     63  C   UNL A   1      45.072  31.325  27.984  1.00  0.00     0.074 A 
ATOM     64  C   UNL A   1      46.336  31.474  27.298  1.00  0.00     0.031 C 
ATOM     65  C   UNL A   1      44.507  32.291  28.750  1.00  0.00     0.031 A 
BRANCH  52  66
ATOM     66  C   UNL A   1      39.048  30.673  31.100  1.00  0.00    -0.014 A 
ATOM     67  C   UNL A   1      39.011  30.490  32.491  1.00  0.00     0.009 A 
ATOM     68  C   UNL A   1      37.960  31.293  30.464  1.00  0.00     0.009 A 
ATOM     69  C   UNL A   1      37.897  30.902  33.226  1.00  0.00     0.001 A 
ATOM     70  C   UNL A   1      36.860  31.724  31.205  1.00  0.00     0.001 A 
ATOM     71  C   UNL A   1      36.826  31.524  32.584  1.00  0.00     0.000 A 
ENDBRANCH  52  66
BRANCH  53  72
ATOM     72  C   UNL A   1      46.662  27.732  25.423  1.00  0.00    -0.014 A 
ATOM     73  C   UNL A   1      46.645  28.038  24.053  1.00  0.00     0.009 A 
ATOM     74  C   UNL A   1      47.730  26.981  25.937  1.00  0.00     0.009 A 
ATOM     75  C   UNL A   1      47.653  27.563  23.210  1.00  0.00     0.001 A 
ATOM     76  C   UNL A   1      48.751  26.533  25.097  1.00  0.00     0.001 A 
ATOM     77  C   UNL A   1      48.704  26.811  23.733  1.00  0.00     0.000 A 
ENDBRANCH  53  72
BRANCH  65  78
ATOM     78  C   UNL A   1      45.271  33.575  28.924  1.00  0.00    -0.014 A 
ATOM     79  C   UNL A   1      46.263  33.709  29.908  1.00  0.00     0.009 A 
ATOM     80  C   UNL A   1      45.011  34.658  28.070  1.00  0.00     0.009 A 
ATOM     81  C   UNL A   1      46.950  34.916  30.059  1.00  0.00     0.001 A 
ATOM     82  C   UNL A   1      45.721  35.852  28.203  1.00  0.00     0.001 A 
ATOM     83  C   UNL A   1      46.680  35.985  29.204  1.00  0.00     0.000 A 
ENDBRANCH  65  78
ENDBRANCH  39  40
ENDBRANCH  32  34
ENDBRANCH  31  32
ENDBRANCH  30  31
ENDBRANCH  29  30
ENDBRANCH  28  29
ENDBRANCH  27  28
ENDBRANCH  26  27
ENDBRANCH   1  26
TORSDOF 22
ENDMDL
MODEL 3
REMARK VINA RESULT:      -9.6      3.552      5.375
REMARK SMILES Cc1ccc(OCCC[N@H+]2CCCC[C@@H]2C(=O)OCCOCCOCCOC(=O)c2ccc(-c3c4nc(c(-c5ccccc5)c5ccc([nH]5)c(-c5ccccc5)c5nc(c(-c6ccccc6)c6ccc3[nH]6)C=C5)C=C4)cc2)cc1C
REMARK SMILES IDX 21 1 20 2 19 3 18 4 16 5 17 6 15 7 10 8 11 9 12 11 14 12
REMARK SMILES IDX 13 13 9 14 8 15 7 16 6 17 5 18 1 19 2 20 3 21 79 22 4 23
REMARK SMILES IDX 78 24 80 25 22 26 23 27 24 28 25 29 26 30 27 31 28 32 29 33
REMARK SMILES IDX 30 34 31 35 77 36 32 37 76 38 33 39 34 40 35 41 70 42 36 43
REMARK SMILES IDX 75 44 69 45 71 46 37 47 74 48 68 49 67 50 38 52 60 53 45 54
REMARK SMILES IDX 59 55 46 56 49 57 58 58 72 59 47 60 48 61 57 63 73 64 50 65
REMARK SMILES IDX 39 66 40 67 44 68 41 69 43 70 42 71 61 72 62 73 66 74 63 75
REMARK SMILES IDX 65 76 64 77 51 78 52 79 56 80 53 81 55 82 54 83
REMARK H PARENT 10 10 71 51 49 62
REMARK Flexibility Score: inf
ROOT
ATOM      1  O   UNL A   1      34.085  22.524  25.784  1.00  0.00    -0.376 OA
ENDROOT
BRANCH   1   2
ATOM      2  C   UNL A   1      33.420  22.898  26.985  1.00  0.00     0.202 C 
BRANCH   2   3
ATOM      3  C   UNL A   1      31.922  23.151  26.824  1.00  0.00     0.261 C 
BRANCH   3   4
ATOM      4  O   UNL A   1      31.334  24.423  27.203  1.00  0.00    -0.459 OA
BRANCH   4   5
ATOM      5  C   UNL A   1      31.108  25.481  26.380  1.00  0.00     0.364 C 
ATOM      6  O   UNL A   1      30.481  26.485  26.646  1.00  0.00    -0.245 OA
BRANCH   5   7
ATOM      7  C   UNL A   1      31.796  25.300  25.025  1.00  0.00     0.295 C 
ATOM      8  N   UNL A   1      32.696  26.453  24.705  1.00  0.00    -0.323 N 
ATOM      9  C   UNL A   1      33.205  26.304  23.320  1.00  0.00     0.262 C 
ATOM     10  H   UNL A   1      32.161  27.315  24.800  1.00  0.00     0.348 HD
ATOM     11  C   UNL A   1      32.106  26.112  22.272  1.00  0.00     0.062 C 
ATOM     12  C   UNL A   1      30.689  25.038  23.990  1.00  0.00     0.078 C 
ATOM     13  C   UNL A   1      31.254  24.894  22.592  1.00  0.00     0.013 C 
BRANCH   8  14
ATOM     14  C   UNL A   1      33.858  26.495  25.638  1.00  0.00     0.266 C 
BRANCH  14  15
ATOM     15  C   UNL A   1      34.045  27.815  26.416  1.00  0.00     0.103 C 
BRANCH  15  16
ATOM     16  C   UNL A   1      33.520  29.090  25.744  1.00  0.00     0.235 C 
BRANCH  16  17
ATOM     17  O   UNL A   1      32.346  29.631  26.395  1.00  0.00    -0.493 OA
BRANCH  17  18
ATOM     18  C   UNL A   1      31.414  30.091  25.502  1.00  0.00     0.119 A 
ATOM     19  C   UNL A   1      28.115  31.420  23.084  1.00  0.00     0.044 C 
ATOM     20  C   UNL A   1      29.345  30.962  23.819  1.00  0.00    -0.048 A 
ATOM     21  C   UNL A   1      29.892  31.814  24.790  1.00  0.00     0.007 A 
ATOM     22  C   UNL A   1      29.955  29.712  23.585  1.00  0.00    -0.045 A 
ATOM     23  C   UNL A   1      30.939  31.389  25.604  1.00  0.00     0.047 A 
ATOM     24  C   UNL A   1      30.988  29.280  24.449  1.00  0.00     0.050 A 
ATOM     25  C   UNL A   1      29.510  28.825  22.454  1.00  0.00     0.045 C 
ENDBRANCH  17  18
ENDBRANCH  16  17
ENDBRANCH  15  16
ENDBRANCH  14  15
ENDBRANCH   8  14
ENDBRANCH   5   7
ENDBRANCH   4   5
ENDBRANCH   3   4
ENDBRANCH   2   3
ENDBRANCH   1   2
BRANCH   1  26
ATOM     26  C   UNL A   1      35.503  22.441  25.888  1.00  0.00     0.188 C 
BRANCH  26  27
ATOM     27  C   UNL A   1      36.175  22.505  24.512  1.00  0.00     0.188 C 
BRANCH  27  28
ATOM     28  O   UNL A   1      37.292  21.653  24.256  1.00  0.00    -0.376 OA
BRANCH  28  29
ATOM     29  C   UNL A   1      37.321  20.379  24.884  1.00  0.00     0.202 C 
BRANCH  29  30
ATOM     30  C   UNL A   1      38.717  19.791  25.127  1.00  0.00     0.261 C 
BRANCH  30  31
ATOM     31  O   UNL A   1      39.546  20.582  26.000  1.00  0.00    -0.460 OA
BRANCH  31  32
ATOM     32  C   UNL A   1      40.829  20.160  26.090  1.00  0.00     0.338 C 
ATOM     33  O   UNL A   1      41.277  19.088  25.715  1.00  0.00    -0.246 OA
BRANCH  32  34
ATOM     34  C   UNL A   1      41.710  21.225  26.619  1.00  0.00     0.060 A 
ATOM     35  C   UNL A   1      41.722  21.417  28.008  1.00  0.00     0.016 A 
ATOM     36  C   UNL A   1      42.373  22.125  25.781  1.00  0.00     0.016 A 
ATOM     37  C   UNL A   1      42.305  22.558  28.556  1.00  0.00     0.010 A 
ATOM     38  C   UNL A   1      42.944  23.282  26.331  1.00  0.00     0.010 A 
ATOM     39  C   UNL A   1      42.845  23.536  27.712  1.00  0.00    -0.014 A 
BRANCH  39  40
ATOM     40  C   UNL A   1      43.014  24.912  28.251  1.00  0.00     0.031 A 
ATOM     41  C   UNL A   1      44.407  25.363  28.621  1.00  0.00     0.074 A 
ATOM     42  C   UNL A   1      41.991  25.781  28.336  1.00  0.00     0.049 A 
ATOM     43  N   UNL A   1      44.814  26.523  29.074  1.00  0.00    -0.248 NA
ATOM     44  C   UNL A   1      45.487  24.374  28.454  1.00  0.00     0.031 C 
ATOM     45  C   UNL A   1      40.604  25.505  27.967  1.00  0.00     0.029 A 
ATOM     46  N   UNL A   1      41.975  27.087  28.761  1.00  0.00    -0.354 N 
ATOM     47  C   UNL A   1      46.186  26.395  29.257  1.00  0.00     0.074 A 
ATOM     48  C   UNL A   1      46.541  25.043  28.892  1.00  0.00     0.031 C 
ATOM     49  C   UNL A   1      39.868  26.608  28.195  1.00  0.00     0.029 A 
ATOM     50  C   UNL A   1      40.727  27.660  28.739  1.00  0.00     0.049 A 
ATOM     51  H   UNL A   1      42.782  27.567  29.055  1.00  0.00     0.167 HD
ATOM     52  C   UNL A   1      47.080  27.319  29.682  1.00  0.00     0.031 A 
ATOM     53  C   UNL A   1      40.323  28.886  29.126  1.00  0.00     0.031 A 
ATOM     54  C   UNL A   1      46.749  28.671  30.038  1.00  0.00     0.049 A 
ATOM     55  C   UNL A   1      41.333  29.881  29.644  1.00  0.00     0.074 A 
ATOM     56  C   UNL A   1      47.598  29.683  30.452  1.00  0.00     0.029 A 
ATOM     57  N   UNL A   1      45.470  29.199  30.026  1.00  0.00    -0.354 N 
ATOM     58  N   UNL A   1      42.631  29.758  29.770  1.00  0.00    -0.248 NA
ATOM     59  C   UNL A   1      40.813  31.195  30.057  1.00  0.00     0.031 C 
ATOM     60  C   UNL A   1      46.824  30.812  30.739  1.00  0.00     0.029 A 
ATOM     61  C   UNL A   1      45.502  30.516  30.449  1.00  0.00     0.049 A 
ATOM     62  H   UNL A   1      44.659  28.711  29.755  1.00  0.00     0.167 HD
ATOM     63  C   UNL A   1      43.084  30.985  30.245  1.00  0.00     0.074 A 
ATOM     64  C   UNL A   1      41.927  31.844  30.364  1.00  0.00     0.031 C 
ATOM     65  C   UNL A   1      44.347  31.366  30.556  1.00  0.00     0.031 A 
BRANCH  52  66
ATOM     66  C   UNL A   1      48.511  26.888  29.818  1.00  0.00    -0.014 A 
ATOM     67  C   UNL A   1      49.042  26.501  31.058  1.00  0.00     0.009 A 
ATOM     68  C   UNL A   1      49.324  26.821  28.676  1.00  0.00     0.009 A 
ATOM     69  C   UNL A   1      50.369  26.075  31.154  1.00  0.00     0.001 A 
ATOM     70  C   UNL A   1      50.641  26.371  28.772  1.00  0.00     0.001 A 
ATOM     71  C   UNL A   1      51.165  26.004  30.010  1.00  0.00     0.000 A 
ENDBRANCH  52  66
BRANCH  53  72
ATOM     72  C   UNL A   1      38.884  29.257  29.073  1.00  0.00    -0.014 A 
ATOM     73  C   UNL A   1      38.056  29.096  30.195  1.00  0.00     0.009 A 
ATOM     74  C   UNL A   1      38.316  29.703  27.869  1.00  0.00     0.009 A 
ATOM     75  C   UNL A   1      36.682  29.333  30.101  1.00  0.00     0.001 A 
ATOM     76  C   UNL A   1      36.948  29.968  27.786  1.00  0.00     0.001 A 
ATOM     77  C   UNL A   1      36.131  29.770  28.897  1.00  0.00     0.000 A 
ENDBRANCH  53  72
BRANCH  65  78
ATOM     78  C   UNL A   1      44.552  32.785  31.010  1.00  0.00    -0.014 A 
ATOM     79  C   UNL A   1      44.751  33.827  30.090  1.00  0.00     0.009 A 
ATOM     80  C   UNL A   1      44.515  33.087  32.381  1.00  0.00     0.009 A 
ATOM     81  C   UNL A   1      44.953  35.135  30.538  1.00  0.00     0.001 A 
ATOM     82  C   UNL A   1      44.686  34.400  32.823  1.00  0.00     0.001 A 
ATOM     83  C   UNL A   1      44.916  35.421  31.903  1.00  0.00     0.000 A 
ENDBRANCH  65  78
ENDBRANCH  39  40
ENDBRANCH  32  34
ENDBRANCH  31  32
ENDBRANCH  30  31
ENDBRANCH  29  30
ENDBRANCH  28  29
ENDBRANCH  27  28
ENDBRANCH  26  27
ENDBRANCH   1  26
TORSDOF 22
ENDMDL
