MODEL 1
REMARK VINA RESULT:      -9.2      0.000      0.000
REMARK SMILES C#CCN(CC(=O)OCCOCCOCCOC(=O)c1ccc(-c2c3nc(c(-c4ccccc4)c4ccc([nH]4)c(-c4ccccc4)c4nc(c(-c5ccccc5)c5ccc2[nH]5)C=C4)C=C3)cc1)C(=O)Nc1cc(Br)ccc1C
REMARK SMILES IDX 12 1 11 2 10 3 9 4 8 5 6 6 7 7 5 8 4 9 3 10 2 11 1 12 68 13
REMARK SMILES IDX 69 14 70 15 71 17 72 18 77 19 73 20 76 21 78 22 74 23 75 24
REMARK SMILES IDX 13 25 14 26 15 27 16 28 17 29 18 30 19 31 20 32 21 33 67 34
REMARK SMILES IDX 22 35 66 36 23 37 24 38 25 39 60 40 26 41 65 42 59 43 61 44
REMARK SMILES IDX 27 45 64 46 58 47 57 48 28 50 50 51 35 52 49 53 36 54 39 55
REMARK SMILES IDX 48 56 62 57 37 58 38 59 47 61 63 62 40 63 29 64 30 65 34 66
REMARK SMILES IDX 31 67 33 68 32 69 51 70 52 71 56 72 53 73 55 74 54 75 41 76
REMARK SMILES IDX 42 77 46 78 43 79 45 80 44 81
REMARK H PARENT 70 16 61 49 39 60
REMARK Flexibility Score: inf
ROOT
ATOM      1  C   UNL A   1      43.790  18.406  25.565  1.00  0.00     0.188 C 
ENDROOT
BRANCH   1   2
ATOM      2  O   UNL A   1      42.863  18.961  26.507  1.00  0.00    -0.376 OA
BRANCH   2   3
ATOM      3  C   UNL A   1      42.297  20.278  26.490  1.00  0.00     0.202 C 
BRANCH   3   4
ATOM      4  C   UNL A   1      40.843  20.396  27.082  1.00  0.00     0.261 C 
BRANCH   4   5
ATOM      5  O   UNL A   1      39.893  21.026  26.152  1.00  0.00    -0.462 OA
BRANCH   5   6
ATOM      6  C   UNL A   1      39.326  22.219  26.514  1.00  0.00     0.325 C 
ATOM      7  O   UNL A   1      39.840  22.961  27.350  1.00  0.00    -0.250 OA
BRANCH   6   8
ATOM      8  C   UNL A   1      37.975  22.622  25.786  1.00  0.00     0.245 C 
BRANCH   8   9
ATOM      9  N   UNL A   1      37.201  21.827  24.780  1.00  0.00    -0.302 N 
BRANCH   9  10
ATOM     10  C   UNL A   1      36.837  22.541  23.521  1.00  0.00     0.211 C 
BRANCH  10  11
ATOM     11  C   UNL A   1      35.773  23.568  23.873  1.00  0.00    -0.085 C 
ATOM     12  C   UNL A   1      34.860  24.449  24.174  1.00  0.00     0.006 C 
ENDBRANCH  10  11
ENDBRANCH   9  10
BRANCH   9  13
ATOM     13  C   UNL A   1      36.795  20.479  24.880  1.00  0.00     0.323 C 
ATOM     14  O   UNL A   1      37.431  19.529  24.412  1.00  0.00    -0.248 OA
ATOM     15  N   UNL A   1      35.649  20.098  25.519  1.00  0.00    -0.307 N 
ATOM     16  H   UNL A   1      35.756  19.396  26.202  1.00  0.00     0.171 HD
BRANCH  15  17
ATOM     17  C   UNL A   1      34.342  20.566  25.335  1.00  0.00     0.046 A 
ATOM     18  C   UNL A   1      33.798  21.563  26.149  1.00  0.00     0.042 A 
ATOM     19  C   UNL A   1      33.512  19.956  24.418  1.00  0.00    -0.027 A 
ATOM     20  C   UNL A   1      32.554  22.112  25.817  1.00  0.00     0.020 A 
ATOM     21  C   UNL A   1      32.407  20.662  23.942  1.00  0.00     0.007 A 
ATOM     22  C   UNL A   1      33.669  18.482  24.181  1.00  0.00     0.046 C 
ATOM     23  Br  UNL A   1      31.641  23.333  26.925  1.00  0.00    -0.051 Br
ATOM     24  C   UNL A   1      31.920  21.747  24.644  1.00  0.00     0.016 A 
ENDBRANCH  15  17
ENDBRANCH   9  13
ENDBRANCH   8   9
ENDBRANCH   6   8
ENDBRANCH   5   6
ENDBRANCH   4   5
ENDBRANCH   3   4
ENDBRANCH   2   3
ENDBRANCH   1   2
BRANCH   1  25
ATOM     25  C   UNL A   1      44.349  19.035  24.265  1.00  0.00     0.188 C 
BRANCH  25  26
ATOM     26  O   UNL A   1      45.755  19.003  24.084  1.00  0.00    -0.376 OA
BRANCH  26  27
ATOM     27  C   UNL A   1      46.456  19.850  24.981  1.00  0.00     0.202 C 
BRANCH  27  28
ATOM     28  C   UNL A   1      45.695  21.110  25.435  1.00  0.00     0.261 C 
BRANCH  28  29
ATOM     29  O   UNL A   1      45.855  22.232  24.547  1.00  0.00    -0.460 OA
BRANCH  29  30
ATOM     30  C   UNL A   1      44.692  22.766  24.084  1.00  0.00     0.338 C 
ATOM     31  O   UNL A   1      44.099  22.431  23.075  1.00  0.00    -0.246 OA
BRANCH  30  32
ATOM     32  C   UNL A   1      44.181  23.810  25.017  1.00  0.00     0.060 A 
ATOM     33  C   UNL A   1      44.767  25.082  24.962  1.00  0.00     0.016 A 
ATOM     34  C   UNL A   1      43.178  23.557  25.961  1.00  0.00     0.016 A 
ATOM     35  C   UNL A   1      44.381  26.083  25.862  1.00  0.00     0.010 A 
ATOM     36  C   UNL A   1      42.795  24.558  26.865  1.00  0.00     0.010 A 
ATOM     37  C   UNL A   1      43.414  25.819  26.842  1.00  0.00    -0.014 A 
BRANCH  37  38
ATOM     38  C   UNL A   1      43.173  26.791  27.940  1.00  0.00     0.031 A 
ATOM     39  C   UNL A   1      44.201  26.934  29.024  1.00  0.00     0.074 A 
ATOM     40  C   UNL A   1      42.072  27.560  27.991  1.00  0.00     0.049 A 
ATOM     41  N   UNL A   1      44.181  27.702  30.083  1.00  0.00    -0.248 NA
ATOM     42  C   UNL A   1      45.409  26.108  28.893  1.00  0.00     0.031 C 
ATOM     43  C   UNL A   1      41.020  27.581  26.983  1.00  0.00     0.029 A 
ATOM     44  N   UNL A   1      41.657  28.477  28.931  1.00  0.00    -0.354 N 
ATOM     45  C   UNL A   1      45.380  27.466  30.737  1.00  0.00     0.074 A 
ATOM     46  C   UNL A   1      46.090  26.462  29.973  1.00  0.00     0.031 C 
ATOM     47  C   UNL A   1      40.085  28.469  27.360  1.00  0.00     0.029 A 
ATOM     48  C   UNL A   1      40.430  29.027  28.658  1.00  0.00     0.049 A 
ATOM     49  H   UNL A   1      42.190  28.715  29.725  1.00  0.00     0.167 HD
ATOM     50  C   UNL A   1      45.851  28.031  31.874  1.00  0.00     0.031 A 
ATOM     51  C   UNL A   1      39.639  29.854  29.371  1.00  0.00     0.031 A 
ATOM     52  C   UNL A   1      45.133  28.983  32.677  1.00  0.00     0.049 A 
ATOM     53  C   UNL A   1      40.114  30.354  30.705  1.00  0.00     0.074 A 
ATOM     54  C   UNL A   1      45.534  29.590  33.855  1.00  0.00     0.029 A 
ATOM     55  N   UNL A   1      43.857  29.448  32.402  1.00  0.00    -0.354 N 
ATOM     56  N   UNL A   1      41.261  30.139  31.299  1.00  0.00    -0.248 NA
ATOM     57  C   UNL A   1      39.191  31.209  31.465  1.00  0.00     0.031 C 
ATOM     58  C   UNL A   1      44.476  30.377  34.324  1.00  0.00     0.029 A 
ATOM     59  C   UNL A   1      43.440  30.306  33.407  1.00  0.00     0.049 A 
ATOM     60  H   UNL A   1      43.326  29.205  31.610  1.00  0.00     0.167 HD
ATOM     61  C   UNL A   1      41.212  30.858  32.485  1.00  0.00     0.074 A 
ATOM     62  C   UNL A   1      39.925  31.521  32.525  1.00  0.00     0.031 C 
ATOM     63  C   UNL A   1      42.158  30.962  33.448  1.00  0.00     0.031 A 
BRANCH  50  64
ATOM     64  C   UNL A   1      47.202  27.572  32.334  1.00  0.00    -0.014 A 
ATOM     65  C   UNL A   1      48.364  28.281  31.993  1.00  0.00     0.009 A 
ATOM     66  C   UNL A   1      47.313  26.403  33.100  1.00  0.00     0.009 A 
ATOM     67  C   UNL A   1      49.618  27.803  32.377  1.00  0.00     0.001 A 
ATOM     68  C   UNL A   1      48.566  25.941  33.504  1.00  0.00     0.001 A 
ATOM     69  C   UNL A   1      49.718  26.635  33.133  1.00  0.00     0.000 A 
ENDBRANCH  50  64
BRANCH  51  70
ATOM     70  C   UNL A   1      38.283  30.222  28.873  1.00  0.00    -0.014 A 
ATOM     71  C   UNL A   1      37.907  31.565  28.718  1.00  0.00     0.009 A 
ATOM     72  C   UNL A   1      37.341  29.220  28.582  1.00  0.00     0.009 A 
ATOM     73  C   UNL A   1      36.611  31.896  28.309  1.00  0.00     0.001 A 
ATOM     74  C   UNL A   1      36.057  29.554  28.146  1.00  0.00     0.001 A 
ATOM     75  C   UNL A   1      35.689  30.891  28.020  1.00  0.00     0.000 A 
ENDBRANCH  51  70
BRANCH  63  76
ATOM     76  C   UNL A   1      41.858  31.862  34.611  1.00  0.00    -0.014 A 
ATOM     77  C   UNL A   1      41.898  33.259  34.486  1.00  0.00     0.009 A 
ATOM     78  C   UNL A   1      41.496  31.299  35.845  1.00  0.00     0.009 A 
ATOM     79  C   UNL A   1      41.608  34.074  35.583  1.00  0.00     0.001 A 
ATOM     80  C   UNL A   1      41.179  32.115  36.931  1.00  0.00     0.001 A 
ATOM     81  C   UNL A   1      41.243  33.501  36.802  1.00  0.00     0.000 A 
ENDBRANCH  63  76
ENDBRANCH  37  38
ENDBRANCH  30  32
ENDBRANCH  29  30
ENDBRANCH  28  29
ENDBRANCH  27  28
ENDBRANCH  26  27
ENDBRANCH  25  26
ENDBRANCH   1  25
TORSDOF 22
ENDMDL
MODEL 2
REMARK VINA RESULT:      -9.0      3.825      7.984
REMARK SMILES C#CCN(CC(=O)OCCOCCOCCOC(=O)c1ccc(-c2c3nc(c(-c4ccccc4)c4ccc([nH]4)c(-c4ccccc4)c4nc(c(-c5ccccc5)c5ccc2[nH]5)C=C4)C=C3)cc1)C(=O)Nc1cc(Br)ccc1C
REMARK SMILES IDX 12 1 11 2 10 3 9 4 8 5 6 6 7 7 5 8 4 9 3 10 2 11 1 12 68 13
REMARK SMILES IDX 69 14 70 15 71 17 72 18 77 19 73 20 76 21 78 22 74 23 75 24
REMARK SMILES IDX 13 25 14 26 15 27 16 28 17 29 18 30 19 31 20 32 21 33 67 34
REMARK SMILES IDX 22 35 66 36 23 37 24 38 25 39 60 40 26 41 65 42 59 43 61 44
REMARK SMILES IDX 27 45 64 46 58 47 57 48 28 50 50 51 35 52 49 53 36 54 39 55
REMARK SMILES IDX 48 56 62 57 37 58 38 59 47 61 63 62 40 63 29 64 30 65 34 66
REMARK SMILES IDX 31 67 33 68 32 69 51 70 52 71 56 72 53 73 55 74 54 75 41 76
REMARK SMILES IDX 42 77 46 78 43 79 45 80 44 81
REMARK H PARENT 70 16 61 49 39 60
REMARK Flexibility Score: inf
ROOT
ATOM      1  C   UNL A   1      36.519  22.936  24.066  1.00  0.00     0.188 C 
ENDROOT
BRANCH   1   2
ATOM      2  O   UNL A   1      35.164  23.343  23.841  1.00  0.00    -0.376 OA
BRANCH   2   3
ATOM      3  C   UNL A   1      34.606  23.855  22.623  1.00  0.00     0.202 C 
BRANCH   3   4
ATOM      4  C   UNL A   1      33.033  23.860  22.550  1.00  0.00     0.261 C 
BRANCH   4   5
ATOM      5  O   UNL A   1      32.489  25.091  21.954  1.00  0.00    -0.462 OA
BRANCH   5   6
ATOM      6  C   UNL A   1      31.303  25.575  22.437  1.00  0.00     0.325 C 
ATOM      7  O   UNL A   1      30.484  24.853  23.004  1.00  0.00    -0.250 OA
BRANCH   6   8
ATOM      8  C   UNL A   1      31.034  27.128  22.254  1.00  0.00     0.245 C 
BRANCH   8   9
ATOM      9  N   UNL A   1      30.401  28.072  23.228  1.00  0.00    -0.302 N 
BRANCH   9  10
ATOM     10  C   UNL A   1      28.941  28.323  23.042  1.00  0.00     0.211 C 
BRANCH  10  11
ATOM     11  C   UNL A   1      28.800  29.587  22.211  1.00  0.00    -0.085 C 
ATOM     12  C   UNL A   1      28.679  30.672  21.497  1.00  0.00     0.006 C 
ENDBRANCH  10  11
ENDBRANCH   9  10
BRANCH   9  13
ATOM     13  C   UNL A   1      31.022  28.734  24.309  1.00  0.00     0.323 C 
ATOM     14  O   UNL A   1      31.495  29.873  24.244  1.00  0.00    -0.248 OA
ATOM     15  N   UNL A   1      31.150  28.167  25.547  1.00  0.00    -0.307 N 
ATOM     16  H   UNL A   1      30.822  28.712  26.299  1.00  0.00     0.171 HD
BRANCH  15  17
ATOM     17  C   UNL A   1      31.685  26.921  25.893  1.00  0.00     0.046 A 
ATOM     18  C   UNL A   1      30.867  25.817  26.154  1.00  0.00     0.042 A 
ATOM     19  C   UNL A   1      33.040  26.786  26.110  1.00  0.00    -0.027 A 
ATOM     20  C   UNL A   1      31.454  24.559  26.328  1.00  0.00     0.020 A 
ATOM     21  C   UNL A   1      33.608  25.514  26.030  1.00  0.00     0.007 A 
ATOM     22  C   UNL A   1      33.791  27.951  26.686  1.00  0.00     0.046 C 
ATOM     23  Br  UNL A   1      30.478  23.035  26.853  1.00  0.00    -0.051 Br
ATOM     24  C   UNL A   1      32.813  24.390  26.141  1.00  0.00     0.016 A 
ENDBRANCH  15  17
ENDBRANCH   9  13
ENDBRANCH   8   9
ENDBRANCH   6   8
ENDBRANCH   5   6
ENDBRANCH   4   5
ENDBRANCH   3   4
ENDBRANCH   2   3
ENDBRANCH   1   2
BRANCH   1  25
ATOM     25  C   UNL A   1      37.105  21.504  24.134  1.00  0.00     0.188 C 
BRANCH  25  26
ATOM     26  O   UNL A   1      37.324  20.955  25.424  1.00  0.00    -0.376 OA
BRANCH  26  27
ATOM     27  C   UNL A   1      38.698  20.866  25.770  1.00  0.00     0.202 C 
BRANCH  27  28
ATOM     28  C   UNL A   1      39.387  19.536  25.409  1.00  0.00     0.261 C 
BRANCH  28  29
ATOM     29  O   UNL A   1      40.489  19.204  26.272  1.00  0.00    -0.460 OA
BRANCH  29  30
ATOM     30  C   UNL A   1      41.676  19.773  25.928  1.00  0.00     0.338 C 
ATOM     31  O   UNL A   1      42.522  19.287  25.200  1.00  0.00    -0.246 OA
BRANCH  30  32
ATOM     32  C   UNL A   1      41.804  21.132  26.526  1.00  0.00     0.060 A 
ATOM     33  C   UNL A   1      42.169  22.190  25.681  1.00  0.00     0.016 A 
ATOM     34  C   UNL A   1      41.615  21.379  27.892  1.00  0.00     0.016 A 
ATOM     35  C   UNL A   1      42.377  23.474  26.198  1.00  0.00     0.010 A 
ATOM     36  C   UNL A   1      41.827  22.666  28.410  1.00  0.00     0.010 A 
ATOM     37  C   UNL A   1      42.238  23.715  27.572  1.00  0.00    -0.014 A 
BRANCH  37  38
ATOM     38  C   UNL A   1      42.684  25.008  28.155  1.00  0.00     0.031 A 
ATOM     39  C   UNL A   1      41.672  26.090  28.385  1.00  0.00     0.074 A 
ATOM     40  C   UNL A   1      43.964  25.238  28.498  1.00  0.00     0.049 A 
ATOM     41  N   UNL A   1      41.848  27.298  28.859  1.00  0.00    -0.248 NA
ATOM     42  C   UNL A   1      40.280  25.768  28.041  1.00  0.00     0.031 C 
ATOM     43  C   UNL A   1      45.045  24.268  28.394  1.00  0.00     0.029 A 
ATOM     44  N   UNL A   1      44.569  26.365  29.008  1.00  0.00    -0.354 N 
ATOM     45  C   UNL A   1      40.588  27.874  28.888  1.00  0.00     0.074 A 
ATOM     46  C   UNL A   1      39.662  26.897  28.355  1.00  0.00     0.031 C 
ATOM     47  C   UNL A   1      46.178  24.842  28.831  1.00  0.00     0.029 A 
ATOM     48  C   UNL A   1      45.925  26.232  29.178  1.00  0.00     0.049 A 
ATOM     49  H   UNL A   1      44.077  27.190  29.229  1.00  0.00     0.167 HD
ATOM     50  C   UNL A   1      40.230  29.108  29.318  1.00  0.00     0.031 A 
ATOM     51  C   UNL A   1      46.876  27.119  29.533  1.00  0.00     0.031 A 
ATOM     52  C   UNL A   1      41.144  30.111  29.791  1.00  0.00     0.049 A 
ATOM     53  C   UNL A   1      46.479  28.529  29.860  1.00  0.00     0.074 A 
ATOM     54  C   UNL A   1      40.863  31.394  30.227  1.00  0.00     0.029 A 
ATOM     55  N   UNL A   1      42.519  29.955  29.867  1.00  0.00    -0.354 N 
ATOM     56  N   UNL A   1      45.279  29.052  29.905  1.00  0.00    -0.248 NA
ATOM     57  C   UNL A   1      47.560  29.468  30.188  1.00  0.00     0.031 C 
ATOM     58  C   UNL A   1      42.073  32.035  30.511  1.00  0.00     0.029 A 
ATOM     59  C   UNL A   1      43.104  31.132  30.309  1.00  0.00     0.049 A 
ATOM     60  H   UNL A   1      43.008  29.132  29.642  1.00  0.00     0.167 HD
ATOM     61  C   UNL A   1      45.457  30.372  30.297  1.00  0.00     0.074 A 
ATOM     62  C   UNL A   1      46.880  30.568  30.485  1.00  0.00     0.031 C 
ATOM     63  C   UNL A   1      44.519  31.328  30.491  1.00  0.00     0.031 A 
BRANCH  50  64
ATOM     64  C   UNL A   1      38.771  29.444  29.231  1.00  0.00    -0.014 A 
ATOM     65  C   UNL A   1      37.919  29.264  30.331  1.00  0.00     0.009 A 
ATOM     66  C   UNL A   1      38.241  29.926  28.025  1.00  0.00     0.009 A 
ATOM     67  C   UNL A   1      36.553  29.523  30.212  1.00  0.00     0.001 A 
ATOM     68  C   UNL A   1      36.879  30.207  27.917  1.00  0.00     0.001 A 
ATOM     69  C   UNL A   1      36.034  29.995  29.006  1.00  0.00     0.000 A 
ENDBRANCH  50  64
BRANCH  51  70
ATOM     70  C   UNL A   1      48.314  26.724  29.541  1.00  0.00    -0.014 A 
ATOM     71  C   UNL A   1      48.908  26.174  30.687  1.00  0.00     0.009 A 
ATOM     72  C   UNL A   1      49.111  26.932  28.403  1.00  0.00     0.009 A 
ATOM     73  C   UNL A   1      50.271  25.866  30.701  1.00  0.00     0.001 A 
ATOM     74  C   UNL A   1      50.467  26.597  28.410  1.00  0.00     0.001 A 
ATOM     75  C   UNL A   1      51.049  26.075  29.562  1.00  0.00     0.000 A 
ENDBRANCH  51  70
BRANCH  63  76
ATOM     76  C   UNL A   1      44.993  32.668  30.974  1.00  0.00    -0.014 A 
ATOM     77  C   UNL A   1      45.315  33.698  30.077  1.00  0.00     0.009 A 
ATOM     78  C   UNL A   1      45.088  32.912  32.353  1.00  0.00     0.009 A 
ATOM     79  C   UNL A   1      45.748  34.938  30.552  1.00  0.00     0.001 A 
ATOM     80  C   UNL A   1      45.493  34.160  32.826  1.00  0.00     0.001 A 
ATOM     81  C   UNL A   1      45.831  35.169  31.926  1.00  0.00     0.000 A 
ENDBRANCH  63  76
ENDBRANCH  37  38
ENDBRANCH  30  32
ENDBRANCH  29  30
ENDBRANCH  28  29
ENDBRANCH  27  28
ENDBRANCH  26  27
ENDBRANCH  25  26
ENDBRANCH   1  25
TORSDOF 22
ENDMDL
MODEL 3
REMARK VINA RESULT:      -8.7      4.806     10.197
REMARK SMILES C#CCN(CC(=O)OCCOCCOCCOC(=O)c1ccc(-c2c3nc(c(-c4ccccc4)c4ccc([nH]4)c(-c4ccccc4)c4nc(c(-c5ccccc5)c5ccc2[nH]5)C=C4)C=C3)cc1)C(=O)Nc1cc(Br)ccc1C
REMARK SMILES IDX 12 1 11 2 10 3 9 4 8 5 6 6 7 7 5 8 4 9 3 10 2 11 1 12 68 13
REMARK SMILES IDX 69 14 70 15 71 17 72 18 77 19 73 20 76 21 78 22 74 23 75 24
REMARK SMILES IDX 13 25 14 26 15 27 16 28 17 29 18 30 19 31 20 32 21 33 67 34
REMARK SMILES IDX 22 35 66 36 23 37 24 38 25 39 60 40 26 41 65 42 59 43 61 44
REMARK SMILES IDX 27 45 64 46 58 47 57 48 28 50 50 51 35 52 49 53 36 54 39 55
REMARK SMILES IDX 48 56 62 57 37 58 38 59 47 61 63 62 40 63 29 64 30 65 34 66
REMARK SMILES IDX 31 67 33 68 32 69 51 70 52 71 56 72 53 73 55 74 54 75 41 76
REMARK SMILES IDX 42 77 46 78 43 79 45 80 44 81
REMARK H PARENT 70 16 61 49 39 60
REMARK Flexibility Score: inf
ROOT
ATOM      1  C   UNL A   1      34.434  31.544  28.051  1.00  0.00     0.188 C 
ENDROOT
BRANCH   1   2
ATOM      2  O   UNL A   1      34.590  30.333  27.302  1.00  0.00    -0.376 OA
BRANCH   2   3
ATOM      3  C   UNL A   1      33.836  29.122  27.449  1.00  0.00     0.202 C 
BRANCH   3   4
ATOM      4  C   UNL A   1      32.283  29.262  27.227  1.00  0.00     0.261 C 
BRANCH   4   5
ATOM      5  O   UNL A   1      31.679  28.066  26.619  1.00  0.00    -0.462 OA
BRANCH   5   6
ATOM      6  C   UNL A   1      31.800  27.896  25.266  1.00  0.00     0.325 C 
ATOM      7  O   UNL A   1      31.233  28.633  24.461  1.00  0.00    -0.250 OA
BRANCH   6   8
ATOM      8  C   UNL A   1      32.729  26.708  24.773  1.00  0.00     0.245 C 
BRANCH   8   9
ATOM      9  N   UNL A   1      32.317  25.444  24.083  1.00  0.00    -0.302 N 
BRANCH   9  10
ATOM     10  C   UNL A   1      31.115  24.756  24.641  1.00  0.00     0.211 C 
BRANCH  10  11
ATOM     11  C   UNL A   1      31.543  24.064  25.925  1.00  0.00    -0.085 C 
ATOM     12  C   UNL A   1      31.910  23.470  27.026  1.00  0.00     0.006 C 
ENDBRANCH  10  11
ENDBRANCH   9  10
BRANCH   9  13
ATOM     13  C   UNL A   1      32.922  24.844  22.959  1.00  0.00     0.323 C 
ATOM     14  O   UNL A   1      32.504  24.962  21.802  1.00  0.00    -0.248 OA
ATOM     15  N   UNL A   1      34.045  24.070  23.049  1.00  0.00    -0.307 N 
ATOM     16  H   UNL A   1      34.784  24.323  22.449  1.00  0.00     0.171 HD
BRANCH  15  17
ATOM     17  C   UNL A   1      34.290  22.967  23.876  1.00  0.00     0.046 A 
ATOM     18  C   UNL A   1      33.475  21.832  23.847  1.00  0.00     0.042 A 
ATOM     19  C   UNL A   1      35.276  23.030  24.838  1.00  0.00    -0.027 A 
ATOM     20  C   UNL A   1      33.861  20.696  24.567  1.00  0.00     0.020 A 
ATOM     21  C   UNL A   1      35.792  21.837  25.347  1.00  0.00     0.007 A 
ATOM     22  C   UNL A   1      35.555  24.353  25.490  1.00  0.00     0.046 C 
ATOM     23  Br  UNL A   1      32.767  19.172  24.745  1.00  0.00    -0.051 Br
ATOM     24  C   UNL A   1      35.082  20.660  25.214  1.00  0.00     0.016 A 
ENDBRANCH  15  17
ENDBRANCH   9  13
ENDBRANCH   8   9
ENDBRANCH   6   8
ENDBRANCH   5   6
ENDBRANCH   4   5
ENDBRANCH   3   4
ENDBRANCH   2   3
ENDBRANCH   1   2
BRANCH   1  25
ATOM     25  C   UNL A   1      35.233  32.036  29.282  1.00  0.00     0.188 C 
BRANCH  25  26
ATOM     26  O   UNL A   1      34.608  32.998  30.118  1.00  0.00    -0.376 OA
BRANCH  26  27
ATOM     27  C   UNL A   1      34.606  32.633  31.489  1.00  0.00     0.202 C 
BRANCH  27  28
ATOM     28  C   UNL A   1      35.117  33.712  32.463  1.00  0.00     0.261 C 
BRANCH  28  29
ATOM     29  O   UNL A   1      36.258  34.439  31.972  1.00  0.00    -0.460 OA
BRANCH  29  30
ATOM     30  C   UNL A   1      37.404  34.252  32.681  1.00  0.00     0.338 C 
ATOM     31  O   UNL A   1      37.631  34.666  33.803  1.00  0.00    -0.246 OA
BRANCH  30  32
ATOM     32  C   UNL A   1      38.365  33.406  31.918  1.00  0.00     0.060 A 
ATOM     33  C   UNL A   1      39.295  32.650  32.645  1.00  0.00     0.016 A 
ATOM     34  C   UNL A   1      38.398  33.373  30.518  1.00  0.00     0.016 A 
ATOM     35  C   UNL A   1      40.270  31.894  31.984  1.00  0.00     0.010 A 
ATOM     36  C   UNL A   1      39.379  32.618  29.856  1.00  0.00     0.010 A 
ATOM     37  C   UNL A   1      40.339  31.897  30.584  1.00  0.00    -0.014 A 
BRANCH  37  38
ATOM     38  C   UNL A   1      41.507  31.294  29.889  1.00  0.00     0.031 A 
ATOM     39  C   UNL A   1      41.393  29.897  29.353  1.00  0.00     0.074 A 
ATOM     40  C   UNL A   1      42.661  31.961  29.710  1.00  0.00     0.049 A 
ATOM     41  N   UNL A   1      42.293  29.174  28.738  1.00  0.00    -0.248 NA
ATOM     42  C   UNL A   1      40.094  29.232  29.530  1.00  0.00     0.031 C 
ATOM     43  C   UNL A   1      42.900  33.339  30.116  1.00  0.00     0.029 A 
ATOM     44  N   UNL A   1      43.848  31.565  29.136  1.00  0.00    -0.354 N 
ATOM     45  C   UNL A   1      41.666  27.975  28.437  1.00  0.00     0.074 A 
ATOM     46  C   UNL A   1      40.320  28.056  28.964  1.00  0.00     0.031 C 
ATOM     47  C   UNL A   1      44.156  33.672  29.773  1.00  0.00     0.029 A 
ATOM     48  C   UNL A   1      44.830  32.522  29.191  1.00  0.00     0.049 A 
ATOM     49  H   UNL A   1      43.981  30.680  28.725  1.00  0.00     0.167 HD
ATOM     50  C   UNL A   1      42.163  26.899  27.781  1.00  0.00     0.031 A 
ATOM     51  C   UNL A   1      46.136  32.489  28.855  1.00  0.00     0.031 A 
ATOM     52  C   UNL A   1      43.514  26.778  27.307  1.00  0.00     0.049 A 
ATOM     53  C   UNL A   1      46.709  31.232  28.268  1.00  0.00     0.074 A 
ATOM     54  C   UNL A   1      44.103  25.712  26.649  1.00  0.00     0.029 A 
ATOM     55  N   UNL A   1      44.496  27.744  27.460  1.00  0.00    -0.354 N 
ATOM     56  N   UNL A   1      46.096  30.114  27.968  1.00  0.00    -0.248 NA
ATOM     57  C   UNL A   1      48.148  31.231  27.969  1.00  0.00     0.031 C 
ATOM     58  C   UNL A   1      45.456  26.009  26.457  1.00  0.00     0.029 A 
ATOM     59  C   UNL A   1      45.697  27.284  26.942  1.00  0.00     0.049 A 
ATOM     60  H   UNL A   1      44.361  28.626  27.874  1.00  0.00     0.167 HD
ATOM     61  C   UNL A   1      47.066  29.288  27.416  1.00  0.00     0.074 A 
ATOM     62  C   UNL A   1      48.307  30.036  27.415  1.00  0.00     0.031 C 
ATOM     63  C   UNL A   1      46.931  28.027  26.945  1.00  0.00     0.031 A 
BRANCH  50  64
ATOM     64  C   UNL A   1      41.228  25.741  27.599  1.00  0.00    -0.014 A 
ATOM     65  C   UNL A   1      41.423  24.536  28.293  1.00  0.00     0.009 A 
ATOM     66  C   UNL A   1      40.153  25.851  26.706  1.00  0.00     0.009 A 
ATOM     67  C   UNL A   1      40.580  23.449  28.063  1.00  0.00     0.001 A 
ATOM     68  C   UNL A   1      39.296  24.770  26.497  1.00  0.00     0.001 A 
ATOM     69  C   UNL A   1      39.517  23.566  27.167  1.00  0.00     0.000 A 
ENDBRANCH  50  64
BRANCH  51  70
ATOM     70  C   UNL A   1      47.016  33.662  29.119  1.00  0.00    -0.014 A 
ATOM     71  C   UNL A   1      47.674  33.812  30.350  1.00  0.00     0.009 A 
ATOM     72  C   UNL A   1      47.175  34.661  28.144  1.00  0.00     0.009 A 
ATOM     73  C   UNL A   1      48.447  34.948  30.607  1.00  0.00     0.001 A 
ATOM     74  C   UNL A   1      47.971  35.782  28.394  1.00  0.00     0.001 A 
ATOM     75  C   UNL A   1      48.597  35.930  29.628  1.00  0.00     0.000 A 
ENDBRANCH  51  70
BRANCH  63  76
ATOM     76  C   UNL A   1      48.148  27.383  26.346  1.00  0.00    -0.014 A 
ATOM     77  C   UNL A   1      49.027  26.613  27.123  1.00  0.00     0.009 A 
ATOM     78  C   UNL A   1      48.398  27.523  24.972  1.00  0.00     0.009 A 
ATOM     79  C   UNL A   1      50.148  26.019  26.539  1.00  0.00     0.001 A 
ATOM     80  C   UNL A   1      49.504  26.906  24.386  1.00  0.00     0.001 A 
ATOM     81  C   UNL A   1      50.382  26.162  25.171  1.00  0.00     0.000 A 
ENDBRANCH  63  76
ENDBRANCH  37  38
ENDBRANCH  30  32
ENDBRANCH  29  30
ENDBRANCH  28  29
ENDBRANCH  27  28
ENDBRANCH  26  27
ENDBRANCH  25  26
ENDBRANCH   1  25
TORSDOF 22
ENDMDL
