MODEL 1
REMARK VINA RESULT:      -8.9      0.000      0.000
REMARK SMILES CC1(C)CSC[C@H]([NH2+]CCC(=O)OCCOCCOCCOC(=O)c2ccc(-c3c4nc(c(-c5ccccc5)c5ccc([nH]5)c(-c5ccccc5)c5nc(c(-c6ccccc6)c6ccc3[nH]6)C=C5)C=C4)cc2)C1
REMARK SMILES IDX 17 1 16 2 15 3 14 4 13 5 11 6 12 7 10 8 9 9 8 10 7 13 1 14
REMARK SMILES IDX 2 15 3 16 4 17 73 18 5 19 6 20 18 21 19 22 20 23 21 24 22 25
REMARK SMILES IDX 23 26 24 27 25 28 26 29 72 30 27 31 71 32 28 33 29 34 30 35
REMARK SMILES IDX 65 36 31 37 70 38 64 39 66 40 32 41 69 42 63 43 62 44 33 46
REMARK SMILES IDX 55 47 40 48 54 49 41 50 44 51 53 52 67 53 42 54 43 55 52 57
REMARK SMILES IDX 68 58 45 59 34 60 35 61 39 62 36 63 38 64 37 65 56 66 57 67
REMARK SMILES IDX 61 68 58 69 60 70 59 71 46 72 47 73 51 74 48 75 50 76 49 77
REMARK H PARENT 8 11 8 12 66 45 44 56
REMARK Flexibility Score: inf
ROOT
ATOM      1  C   UNL A   1      37.446  22.699  25.243  1.00  0.00     0.188 C 
ENDROOT
BRANCH   1   2
ATOM      2  O   UNL A   1      36.667  23.274  26.279  1.00  0.00    -0.376 OA
BRANCH   2   3
ATOM      3  C   UNL A   1      35.252  23.310  26.123  1.00  0.00     0.202 C 
BRANCH   3   4
ATOM      4  C   UNL A   1      34.384  22.330  26.936  1.00  0.00     0.261 C 
BRANCH   4   5
ATOM      5  O   UNL A   1      33.725  21.289  26.173  1.00  0.00    -0.463 OA
BRANCH   5   6
ATOM      6  C   UNL A   1      32.433  21.523  25.838  1.00  0.00     0.311 C 
ATOM      7  O   UNL A   1      31.742  20.740  25.190  1.00  0.00    -0.252 OA
BRANCH   6   8
ATOM      8  C   UNL A   1      31.845  22.842  26.306  1.00  0.00     0.184 C 
BRANCH   8   9
ATOM      9  C   UNL A   1      30.351  23.100  26.539  1.00  0.00     0.272 C 
BRANCH   9  10
ATOM     10  N   UNL A   1      29.917  24.492  26.603  1.00  0.00    -0.343 N 
ATOM     11  H   UNL A   1      28.936  24.533  26.325  1.00  0.00     0.346 HD
ATOM     12  H   UNL A   1      30.069  24.802  27.562  1.00  0.00     0.346 HD
BRANCH  10  13
ATOM     13  C   UNL A   1      30.689  25.410  25.728  1.00  0.00     0.193 C 
ATOM     14  C   UNL A   1      33.599  26.625  25.369  1.00  0.00     0.012 C 
ATOM     15  C   UNL A   1      32.397  27.381  25.980  1.00  0.00    -0.021 C 
ATOM     16  C   UNL A   1      32.940  28.335  27.068  1.00  0.00     0.012 C 
ATOM     17  C   UNL A   1      31.674  28.238  24.920  1.00  0.00     0.076 C 
ATOM     18  C   UNL A   1      31.420  26.392  26.667  1.00  0.00     0.073 C 
ATOM     19  S   UNL A   1      30.839  27.272  23.626  1.00  0.00    -0.155 SA
ATOM     20  C   UNL A   1      29.848  26.180  24.688  1.00  0.00     0.134 C 
ENDBRANCH  10  13
ENDBRANCH   9  10
ENDBRANCH   8   9
ENDBRANCH   6   8
ENDBRANCH   5   6
ENDBRANCH   4   5
ENDBRANCH   3   4
ENDBRANCH   2   3
ENDBRANCH   1   2
BRANCH   1  21
ATOM     21  C   UNL A   1      36.997  21.364  24.634  1.00  0.00     0.188 C 
BRANCH  21  22
ATOM     22  O   UNL A   1      37.877  20.278  24.823  1.00  0.00    -0.376 OA
BRANCH  22  23
ATOM     23  C   UNL A   1      39.096  20.507  25.513  1.00  0.00     0.202 C 
BRANCH  23  24
ATOM     24  C   UNL A   1      39.971  19.295  25.884  1.00  0.00     0.261 C 
BRANCH  24  25
ATOM     25  O   UNL A   1      41.282  19.239  25.291  1.00  0.00    -0.460 OA
BRANCH  25  26
ATOM     26  C   UNL A   1      42.341  19.375  26.122  1.00  0.00     0.338 C 
ATOM     27  O   UNL A   1      43.268  18.590  26.256  1.00  0.00    -0.246 OA
BRANCH  26  28
ATOM     28  C   UNL A   1      42.340  20.767  26.635  1.00  0.00     0.060 A 
ATOM     29  C   UNL A   1      42.647  21.814  25.752  1.00  0.00     0.016 A 
ATOM     30  C   UNL A   1      41.998  21.047  27.960  1.00  0.00     0.016 A 
ATOM     31  C   UNL A   1      42.637  23.138  26.196  1.00  0.00     0.010 A 
ATOM     32  C   UNL A   1      42.012  22.373  28.410  1.00  0.00     0.010 A 
ATOM     33  C   UNL A   1      42.359  23.423  27.539  1.00  0.00    -0.014 A 
BRANCH  33  34
ATOM     34  C   UNL A   1      42.599  24.791  28.069  1.00  0.00     0.031 A 
ATOM     35  C   UNL A   1      44.004  25.188  28.437  1.00  0.00     0.074 A 
ATOM     36  C   UNL A   1      41.600  25.683  28.198  1.00  0.00     0.049 A 
ATOM     37  N   UNL A   1      44.452  26.322  28.911  1.00  0.00    -0.248 NA
ATOM     38  C   UNL A   1      45.041  24.163  28.243  1.00  0.00     0.031 C 
ATOM     39  C   UNL A   1      40.203  25.453  27.840  1.00  0.00     0.029 A 
ATOM     40  N   UNL A   1      41.620  26.973  28.670  1.00  0.00    -0.354 N 
ATOM     41  C   UNL A   1      45.819  26.143  29.089  1.00  0.00     0.074 A 
ATOM     42  C   UNL A   1      46.119  24.782  28.699  1.00  0.00     0.031 C 
ATOM     43  C   UNL A   1      39.499  26.571  28.095  1.00  0.00     0.029 A 
ATOM     44  C   UNL A   1      40.388  27.579  28.667  1.00  0.00     0.049 A 
ATOM     45  H   UNL A   1      42.440  27.422  28.980  1.00  0.00     0.167 HD
ATOM     46  C   UNL A   1      46.744  27.028  29.533  1.00  0.00     0.031 A 
ATOM     47  C   UNL A   1      40.017  28.805  29.089  1.00  0.00     0.031 A 
ATOM     48  C   UNL A   1      46.450  28.377  29.940  1.00  0.00     0.049 A 
ATOM     49  C   UNL A   1      41.051  29.742  29.660  1.00  0.00     0.074 A 
ATOM     50  C   UNL A   1      47.326  29.357  30.373  1.00  0.00     0.029 A 
ATOM     51  N   UNL A   1      45.179  28.932  29.982  1.00  0.00    -0.354 N 
ATOM     52  N   UNL A   1      42.346  29.577  29.782  1.00  0.00    -0.248 NA
ATOM     53  C   UNL A   1      40.564  31.043  30.141  1.00  0.00     0.031 C 
ATOM     54  C   UNL A   1      46.577  30.478  30.749  1.00  0.00     0.029 A 
ATOM     55  C   UNL A   1      45.243  30.224  30.476  1.00  0.00     0.049 A 
ATOM     56  H   UNL A   1      44.354  28.473  29.703  1.00  0.00     0.167 HD
ATOM     57  C   UNL A   1      42.831  30.762  30.324  1.00  0.00     0.074 A 
ATOM     58  C   UNL A   1      41.694  31.644  30.486  1.00  0.00     0.031 C 
ATOM     59  C   UNL A   1      44.106  31.093  30.652  1.00  0.00     0.031 A 
BRANCH  46  60
ATOM     60  C   UNL A   1      48.162  26.535  29.655  1.00  0.00    -0.014 A 
ATOM     61  C   UNL A   1      48.636  25.930  30.831  1.00  0.00     0.009 A 
ATOM     62  C   UNL A   1      49.036  26.674  28.566  1.00  0.00     0.009 A 
ATOM     63  C   UNL A   1      49.967  25.520  30.928  1.00  0.00     0.001 A 
ATOM     64  C   UNL A   1      50.357  26.229  28.653  1.00  0.00     0.001 A 
ATOM     65  C   UNL A   1      50.825  25.665  29.838  1.00  0.00     0.000 A 
ENDBRANCH  46  60
BRANCH  47  66
ATOM     66  C   UNL A   1      38.595  29.231  28.990  1.00  0.00    -0.014 A 
ATOM     67  C   UNL A   1      38.112  29.835  27.818  1.00  0.00     0.009 A 
ATOM     68  C   UNL A   1      37.720  29.062  30.074  1.00  0.00     0.009 A 
ATOM     69  C   UNL A   1      36.790  30.278  27.741  1.00  0.00     0.001 A 
ATOM     70  C   UNL A   1      36.389  29.478  29.983  1.00  0.00     0.001 A 
ATOM     71  C   UNL A   1      35.928  30.093  28.821  1.00  0.00     0.000 A 
ENDBRANCH  47  66
BRANCH  59  72
ATOM     72  C   UNL A   1      44.341  32.480  31.190  1.00  0.00    -0.014 A 
ATOM     73  C   UNL A   1      44.582  33.571  30.338  1.00  0.00     0.009 A 
ATOM     74  C   UNL A   1      44.311  32.702  32.576  1.00  0.00     0.009 A 
ATOM     75  C   UNL A   1      44.840  34.839  30.864  1.00  0.00     0.001 A 
ATOM     76  C   UNL A   1      44.531  33.978  33.099  1.00  0.00     0.001 A 
ATOM     77  C   UNL A   1      44.812  35.042  32.243  1.00  0.00     0.000 A 
ENDBRANCH  59  72
ENDBRANCH  33  34
ENDBRANCH  26  28
ENDBRANCH  25  26
ENDBRANCH  24  25
ENDBRANCH  23  24
ENDBRANCH  22  23
ENDBRANCH  21  22
ENDBRANCH   1  21
TORSDOF 20
ENDMDL
MODEL 2
REMARK VINA RESULT:      -8.8      2.914      3.973
REMARK SMILES CC1(C)CSC[C@H]([NH2+]CCC(=O)OCCOCCOCCOC(=O)c2ccc(-c3c4nc(c(-c5ccccc5)c5ccc([nH]5)c(-c5ccccc5)c5nc(c(-c6ccccc6)c6ccc3[nH]6)C=C5)C=C4)cc2)C1
REMARK SMILES IDX 17 1 16 2 15 3 14 4 13 5 11 6 12 7 10 8 9 9 8 10 7 13 1 14
REMARK SMILES IDX 2 15 3 16 4 17 73 18 5 19 6 20 18 21 19 22 20 23 21 24 22 25
REMARK SMILES IDX 23 26 24 27 25 28 26 29 72 30 27 31 71 32 28 33 29 34 30 35
REMARK SMILES IDX 65 36 31 37 70 38 64 39 66 40 32 41 69 42 63 43 62 44 33 46
REMARK SMILES IDX 55 47 40 48 54 49 41 50 44 51 53 52 67 53 42 54 43 55 52 57
REMARK SMILES IDX 68 58 45 59 34 60 35 61 39 62 36 63 38 64 37 65 56 66 57 67
REMARK SMILES IDX 61 68 58 69 60 70 59 71 46 72 47 73 51 74 48 75 50 76 49 77
REMARK H PARENT 8 11 8 12 66 45 44 56
REMARK Flexibility Score: inf
ROOT
ATOM      1  C   UNL A   1      34.858  22.904  23.153  1.00  0.00     0.188 C 
ENDROOT
BRANCH   1   2
ATOM      2  O   UNL A   1      34.182  23.833  22.319  1.00  0.00    -0.376 OA
BRANCH   2   3
ATOM      3  C   UNL A   1      32.758  23.839  22.325  1.00  0.00     0.202 C 
BRANCH   3   4
ATOM      4  C   UNL A   1      32.017  25.152  22.640  1.00  0.00     0.261 C 
BRANCH   4   5
ATOM      5  O   UNL A   1      32.812  26.194  23.258  1.00  0.00    -0.463 OA
BRANCH   5   6
ATOM      6  C   UNL A   1      33.359  27.104  22.415  1.00  0.00     0.311 C 
ATOM      7  O   UNL A   1      33.699  26.851  21.261  1.00  0.00    -0.252 OA
BRANCH   6   8
ATOM      8  C   UNL A   1      33.547  28.505  22.968  1.00  0.00     0.184 C 
BRANCH   8   9
ATOM      9  C   UNL A   1      33.239  28.925  24.411  1.00  0.00     0.272 C 
BRANCH   9  10
ATOM     10  N   UNL A   1      32.046  29.736  24.630  1.00  0.00    -0.343 N 
ATOM     11  H   UNL A   1      31.795  29.675  25.617  1.00  0.00     0.346 HD
ATOM     12  H   UNL A   1      32.280  30.685  24.340  1.00  0.00     0.346 HD
BRANCH  10  13
ATOM     13  C   UNL A   1      30.871  29.319  23.823  1.00  0.00     0.193 C 
ATOM     14  C   UNL A   1      28.951  30.364  21.521  1.00  0.00     0.012 C 
ATOM     15  C   UNL A   1      28.587  30.325  23.023  1.00  0.00    -0.021 C 
ATOM     16  C   UNL A   1      27.665  31.528  23.319  1.00  0.00     0.012 C 
ATOM     17  C   UNL A   1      27.814  29.039  23.381  1.00  0.00     0.076 C 
ATOM     18  C   UNL A   1      29.858  30.480  23.899  1.00  0.00     0.073 C 
ATOM     19  S   UNL A   1      28.795  27.515  23.235  1.00  0.00    -0.155 SA
ATOM     20  C   UNL A   1      30.212  27.996  24.266  1.00  0.00     0.134 C 
ENDBRANCH  10  13
ENDBRANCH   9  10
ENDBRANCH   8   9
ENDBRANCH   6   8
ENDBRANCH   5   6
ENDBRANCH   4   5
ENDBRANCH   3   4
ENDBRANCH   2   3
ENDBRANCH   1   2
BRANCH   1  21
ATOM     21  C   UNL A   1      34.049  22.125  24.199  1.00  0.00     0.188 C 
BRANCH  21  22
ATOM     22  O   UNL A   1      34.649  20.943  24.679  1.00  0.00    -0.376 OA
BRANCH  22  23
ATOM     23  C   UNL A   1      35.762  21.055  25.553  1.00  0.00     0.202 C 
BRANCH  23  24
ATOM     24  C   UNL A   1      37.120  20.493  25.093  1.00  0.00     0.261 C 
BRANCH  24  25
ATOM     25  O   UNL A   1      38.238  21.400  25.121  1.00  0.00    -0.460 OA
BRANCH  25  26
ATOM     26  C   UNL A   1      39.225  21.135  26.009  1.00  0.00     0.338 C 
ATOM     27  O   UNL A   1      39.784  20.062  26.178  1.00  0.00    -0.246 OA
BRANCH  26  28
ATOM     28  C   UNL A   1      39.713  22.430  26.544  1.00  0.00     0.060 A 
ATOM     29  C   UNL A   1      39.042  23.608  26.183  1.00  0.00     0.016 A 
ATOM     30  C   UNL A   1      40.795  22.483  27.426  1.00  0.00     0.016 A 
ATOM     31  C   UNL A   1      39.462  24.842  26.683  1.00  0.00     0.010 A 
ATOM     32  C   UNL A   1      41.231  23.724  27.907  1.00  0.00     0.010 A 
ATOM     33  C   UNL A   1      40.587  24.912  27.516  1.00  0.00    -0.014 A 
BRANCH  33  34
ATOM     34  C   UNL A   1      41.186  26.234  27.837  1.00  0.00     0.031 A 
ATOM     35  C   UNL A   1      42.527  26.582  27.246  1.00  0.00     0.074 A 
ATOM     36  C   UNL A   1      40.550  27.128  28.615  1.00  0.00     0.049 A 
ATOM     37  N   UNL A   1      43.240  27.671  27.380  1.00  0.00    -0.248 NA
ATOM     38  C   UNL A   1      43.145  25.559  26.388  1.00  0.00     0.031 C 
ATOM     39  C   UNL A   1      39.232  26.945  29.216  1.00  0.00     0.029 A 
ATOM     40  N   UNL A   1      40.940  28.380  29.027  1.00  0.00    -0.354 N 
ATOM     41  C   UNL A   1      44.396  27.460  26.640  1.00  0.00     0.074 A 
ATOM     42  C   UNL A   1      44.302  26.127  26.083  1.00  0.00     0.031 C 
ATOM     43  C   UNL A   1      38.915  28.051  29.914  1.00  0.00     0.029 A 
ATOM     44  C   UNL A   1      40.022  29.002  29.838  1.00  0.00     0.049 A 
ATOM     45  H   UNL A   1      41.794  28.792  28.766  1.00  0.00     0.167 HD
ATOM     46  C   UNL A   1      45.443  28.296  26.435  1.00  0.00     0.031 A 
ATOM     47  C   UNL A   1      40.074  30.199  30.457  1.00  0.00     0.031 A 
ATOM     48  C   UNL A   1      45.552  29.615  27.001  1.00  0.00     0.049 A 
ATOM     49  C   UNL A   1      41.288  31.076  30.284  1.00  0.00     0.074 A 
ATOM     50  C   UNL A   1      46.560  30.548  26.824  1.00  0.00     0.029 A 
ATOM     51  N   UNL A   1      44.631  30.184  27.868  1.00  0.00    -0.354 N 
ATOM     52  N   UNL A   1      42.355  30.883  29.546  1.00  0.00    -0.248 NA
ATOM     53  C   UNL A   1      41.294  32.345  31.027  1.00  0.00     0.031 C 
ATOM     54  C   UNL A   1      46.285  31.649  27.644  1.00  0.00     0.029 A 
ATOM     55  C   UNL A   1      45.068  31.435  28.269  1.00  0.00     0.049 A 
ATOM     56  H   UNL A   1      43.790  29.759  28.155  1.00  0.00     0.167 HD
ATOM     57  C   UNL A   1      43.142  32.018  29.712  1.00  0.00     0.074 A 
ATOM     58  C   UNL A   1      42.419  32.902  30.602  1.00  0.00     0.031 C 
ATOM     59  C   UNL A   1      44.353  32.305  29.170  1.00  0.00     0.031 A 
BRANCH  46  60
ATOM     60  C   UNL A   1      46.586  27.775  25.604  1.00  0.00    -0.014 A 
ATOM     61  C   UNL A   1      47.647  27.053  26.175  1.00  0.00     0.009 A 
ATOM     62  C   UNL A   1      46.591  28.005  24.220  1.00  0.00     0.009 A 
ATOM     63  C   UNL A   1      48.712  26.618  25.384  1.00  0.00     0.001 A 
ATOM     64  C   UNL A   1      47.641  27.537  23.426  1.00  0.00     0.001 A 
ATOM     65  C   UNL A   1      48.706  26.856  24.010  1.00  0.00     0.000 A 
ENDBRANCH  46  60
BRANCH  47  66
ATOM     66  C   UNL A   1      38.939  30.651  31.305  1.00  0.00    -0.014 A 
ATOM     67  C   UNL A   1      38.905  30.341  32.674  1.00  0.00     0.009 A 
ATOM     68  C   UNL A   1      37.872  31.372  30.747  1.00  0.00     0.009 A 
ATOM     69  C   UNL A   1      37.816  30.724  33.461  1.00  0.00     0.001 A 
ATOM     70  C   UNL A   1      36.800  31.781  31.544  1.00  0.00     0.001 A 
ATOM     71  C   UNL A   1      36.769  31.450  32.897  1.00  0.00     0.000 A 
ENDBRANCH  47  66
BRANCH  59  72
ATOM     72  C   UNL A   1      44.956  33.645  29.501  1.00  0.00    -0.014 A 
ATOM     73  C   UNL A   1      44.839  34.742  28.631  1.00  0.00     0.009 A 
ATOM     74  C   UNL A   1      45.645  33.817  30.712  1.00  0.00     0.009 A 
ATOM     75  C   UNL A   1      45.445  35.961  28.941  1.00  0.00     0.001 A 
ATOM     76  C   UNL A   1      46.217  35.047  31.038  1.00  0.00     0.001 A 
ATOM     77  C   UNL A   1      46.131  36.114  30.146  1.00  0.00     0.000 A 
ENDBRANCH  59  72
ENDBRANCH  33  34
ENDBRANCH  26  28
ENDBRANCH  25  26
ENDBRANCH  24  25
ENDBRANCH  23  24
ENDBRANCH  22  23
ENDBRANCH  21  22
ENDBRANCH   1  21
TORSDOF 20
ENDMDL
MODEL 3
REMARK VINA RESULT:      -8.8      4.361      8.722
REMARK SMILES CC1(C)CSC[C@H]([NH2+]CCC(=O)OCCOCCOCCOC(=O)c2ccc(-c3c4nc(c(-c5ccccc5)c5ccc([nH]5)c(-c5ccccc5)c5nc(c(-c6ccccc6)c6ccc3[nH]6)C=C5)C=C4)cc2)C1
REMARK SMILES IDX 17 1 16 2 15 3 14 4 13 5 11 6 12 7 10 8 9 9 8 10 7 13 1 14
REMARK SMILES IDX 2 15 3 16 4 17 73 18 5 19 6 20 18 21 19 22 20 23 21 24 22 25
REMARK SMILES IDX 23 26 24 27 25 28 26 29 72 30 27 31 71 32 28 33 29 34 30 35
REMARK SMILES IDX 65 36 31 37 70 38 64 39 66 40 32 41 69 42 63 43 62 44 33 46
REMARK SMILES IDX 55 47 40 48 54 49 41 50 44 51 53 52 67 53 42 54 43 55 52 57
REMARK SMILES IDX 68 58 45 59 34 60 35 61 39 62 36 63 38 64 37 65 56 66 57 67
REMARK SMILES IDX 61 68 58 69 60 70 59 71 46 72 47 73 51 74 48 75 50 76 49 77
REMARK H PARENT 8 11 8 12 66 45 44 56
REMARK Flexibility Score: inf
ROOT
ATOM      1  C   UNL A   1      45.727  21.191  24.657  1.00  0.00     0.188 C 
ENDROOT
BRANCH   1   2
ATOM      2  O   UNL A   1      45.950  22.073  25.746  1.00  0.00    -0.376 OA
BRANCH   2   3
ATOM      3  C   UNL A   1      46.583  23.323  25.489  1.00  0.00     0.202 C 
BRANCH   3   4
ATOM      4  C   UNL A   1      45.740  24.489  24.940  1.00  0.00     0.261 C 
BRANCH   4   5
ATOM      5  O   UNL A   1      46.485  25.588  24.360  1.00  0.00    -0.463 OA
BRANCH   5   6
ATOM      6  C   UNL A   1      46.475  26.749  25.060  1.00  0.00     0.311 C 
ATOM      7  O   UNL A   1      45.512  27.144  25.716  1.00  0.00    -0.252 OA
BRANCH   6   8
ATOM      8  C   UNL A   1      47.742  27.583  25.000  1.00  0.00     0.184 C 
BRANCH   8   9
ATOM      9  C   UNL A   1      48.930  27.304  24.070  1.00  0.00     0.272 C 
BRANCH   9  10
ATOM     10  N   UNL A   1      48.628  27.000  22.676  1.00  0.00    -0.343 N 
ATOM     11  H   UNL A   1      48.247  26.055  22.630  1.00  0.00     0.346 HD
ATOM     12  H   UNL A   1      47.968  27.708  22.357  1.00  0.00     0.346 HD
BRANCH  10  13
ATOM     13  C   UNL A   1      49.803  27.073  21.770  1.00  0.00     0.193 C 
ATOM     14  C   UNL A   1      52.555  28.612  21.403  1.00  0.00     0.012 C 
ATOM     15  C   UNL A   1      51.266  28.907  20.602  1.00  0.00    -0.021 C 
ATOM     16  C   UNL A   1      51.232  30.421  20.300  1.00  0.00     0.012 C 
ATOM     17  C   UNL A   1      51.257  28.157  19.254  1.00  0.00     0.076 C 
ATOM     18  C   UNL A   1      50.009  28.566  21.444  1.00  0.00     0.073 C 
ATOM     19  S   UNL A   1      51.149  26.349  19.409  1.00  0.00    -0.155 SA
ATOM     20  C   UNL A   1      49.678  26.247  20.472  1.00  0.00     0.134 C 
ENDBRANCH  10  13
ENDBRANCH   9  10
ENDBRANCH   8   9
ENDBRANCH   6   8
ENDBRANCH   5   6
ENDBRANCH   4   5
ENDBRANCH   3   4
ENDBRANCH   2   3
ENDBRANCH   1   2
BRANCH   1  21
ATOM     21  C   UNL A   1      46.561  19.907  24.563  1.00  0.00     0.188 C 
BRANCH  21  22
ATOM     22  O   UNL A   1      45.837  18.700  24.650  1.00  0.00    -0.376 OA
BRANCH  22  23
ATOM     23  C   UNL A   1      44.884  18.554  25.692  1.00  0.00     0.202 C 
BRANCH  23  24
ATOM     24  C   UNL A   1      43.387  18.597  25.335  1.00  0.00     0.261 C 
BRANCH  24  25
ATOM     25  O   UNL A   1      42.475  18.883  26.411  1.00  0.00    -0.460 OA
BRANCH  25  26
ATOM     26  C   UNL A   1      41.466  19.747  26.151  1.00  0.00     0.338 C 
ATOM     27  O   UNL A   1      40.336  19.459  25.784  1.00  0.00    -0.246 OA
BRANCH  26  28
ATOM     28  C   UNL A   1      41.869  21.082  26.658  1.00  0.00     0.060 A 
ATOM     29  C   UNL A   1      41.826  21.322  28.039  1.00  0.00     0.016 A 
ATOM     30  C   UNL A   1      42.327  22.075  25.789  1.00  0.00     0.016 A 
ATOM     31  C   UNL A   1      42.217  22.560  28.553  1.00  0.00     0.010 A 
ATOM     32  C   UNL A   1      42.694  23.324  26.303  1.00  0.00     0.010 A 
ATOM     33  C   UNL A   1      42.615  23.584  27.684  1.00  0.00    -0.014 A 
BRANCH  33  34
ATOM     34  C   UNL A   1      42.781  24.968  28.199  1.00  0.00     0.031 A 
ATOM     35  C   UNL A   1      44.159  25.433  28.592  1.00  0.00     0.074 A 
ATOM     36  C   UNL A   1      41.740  25.815  28.296  1.00  0.00     0.049 A 
ATOM     37  N   UNL A   1      44.545  26.592  29.060  1.00  0.00    -0.248 NA
ATOM     38  C   UNL A   1      45.245  24.454  28.434  1.00  0.00     0.031 C 
ATOM     39  C   UNL A   1      40.364  25.517  27.910  1.00  0.00     0.029 A 
ATOM     40  N   UNL A   1      41.692  27.111  28.750  1.00  0.00    -0.354 N 
ATOM     41  C   UNL A   1      45.913  26.478  29.269  1.00  0.00     0.074 A 
ATOM     42  C   UNL A   1      46.284  25.127  28.905  1.00  0.00     0.031 C 
ATOM     43  C   UNL A   1      39.604  26.605  28.135  1.00  0.00     0.029 A 
ATOM     44  C   UNL A   1      40.434  27.661  28.713  1.00  0.00     0.049 A 
ATOM     45  H   UNL A   1      42.484  27.600  29.071  1.00  0.00     0.167 HD
ATOM     46  C   UNL A   1      46.788  27.409  29.721  1.00  0.00     0.031 A 
ATOM     47  C   UNL A   1      39.999  28.873  29.110  1.00  0.00     0.031 A 
ATOM     48  C   UNL A   1      46.424  28.749  30.103  1.00  0.00     0.049 A 
ATOM     49  C   UNL A   1      40.976  29.864  29.690  1.00  0.00     0.074 A 
ATOM     50  C   UNL A   1      47.246  29.773  30.542  1.00  0.00     0.029 A 
ATOM     51  N   UNL A   1      45.130  29.246  30.111  1.00  0.00    -0.354 N 
ATOM     52  N   UNL A   1      42.275  29.759  29.842  1.00  0.00    -0.248 NA
ATOM     53  C   UNL A   1      40.421  31.147  30.143  1.00  0.00     0.031 C 
ATOM     54  C   UNL A   1      46.438  30.864  30.887  1.00  0.00     0.029 A 
ATOM     55  C   UNL A   1      45.124  30.546  30.588  1.00  0.00     0.049 A 
ATOM     56  H   UNL A   1      44.332  28.746  29.820  1.00  0.00     0.167 HD
ATOM     57  C   UNL A   1      42.694  30.972  30.378  1.00  0.00     0.074 A 
ATOM     58  C   UNL A   1      41.515  31.803  30.504  1.00  0.00     0.031 C 
ATOM     59  C   UNL A   1      43.945  31.364  30.728  1.00  0.00     0.031 A 
BRANCH  46  60
ATOM     60  C   UNL A   1      48.224  26.984  29.880  1.00  0.00    -0.014 A 
ATOM     61  C   UNL A   1      49.170  27.176  28.860  1.00  0.00     0.009 A 
ATOM     62  C   UNL A   1      48.636  26.387  31.082  1.00  0.00     0.009 A 
ATOM     63  C   UNL A   1      50.485  26.734  29.022  1.00  0.00     0.001 A 
ATOM     64  C   UNL A   1      49.961  25.979  31.255  1.00  0.00     0.001 A 
ATOM     65  C   UNL A   1      50.880  26.140  30.221  1.00  0.00     0.000 A 
ENDBRANCH  46  60
BRANCH  47  66
ATOM     66  C   UNL A   1      38.561  29.233  28.975  1.00  0.00    -0.014 A 
ATOM     67  C   UNL A   1      38.063  29.730  27.760  1.00  0.00     0.009 A 
ATOM     68  C   UNL A   1      37.687  29.108  30.065  1.00  0.00     0.009 A 
ATOM     69  C   UNL A   1      36.725  30.113  27.647  1.00  0.00     0.001 A 
ATOM     70  C   UNL A   1      36.341  29.462  29.939  1.00  0.00     0.001 A 
ATOM     71  C   UNL A   1      35.864  29.972  28.734  1.00  0.00     0.000 A 
ENDBRANCH  47  66
BRANCH  59  72
ATOM     72  C   UNL A   1      44.105  32.767  31.253  1.00  0.00    -0.014 A 
ATOM     73  C   UNL A   1      43.976  33.063  32.620  1.00  0.00     0.009 A 
ATOM     74  C   UNL A   1      44.402  33.811  30.363  1.00  0.00     0.009 A 
ATOM     75  C   UNL A   1      44.086  34.380  33.074  1.00  0.00     0.001 A 
ATOM     76  C   UNL A   1      44.549  35.121  30.823  1.00  0.00     0.001 A 
ATOM     77  C   UNL A   1      44.376  35.407  32.177  1.00  0.00     0.000 A 
ENDBRANCH  59  72
ENDBRANCH  33  34
ENDBRANCH  26  28
ENDBRANCH  25  26
ENDBRANCH  24  25
ENDBRANCH  23  24
ENDBRANCH  22  23
ENDBRANCH  21  22
ENDBRANCH   1  21
TORSDOF 20
ENDMDL
