MODEL 1
REMARK VINA RESULT:      -8.6      0.000      0.000
REMARK SMILES C=CC[NH2+]CC(=O)N1CCC[C@@H]1C(=O)OCCOCCOCCOC(=O)c1ccc(-c2c3nc(c(-c4ccccc4)c4ccc([nH]4)c(-c4ccccc4)c4nc(c(-c5ccccc5)c5ccc2[nH]5)C=C4)C=C3)cc1
REMARK SMILES IDX 18 1 17 2 16 3 15 4 13 5 14 6 12 7 8 8 9 9 10 10 11 11 6 12
REMARK SMILES IDX 7 13 5 14 4 15 3 18 2 19 1 20 19 21 20 22 21 23 22 24 23 25
REMARK SMILES IDX 24 26 25 27 26 28 27 29 28 30 74 31 29 32 73 33 30 34 31 35
REMARK SMILES IDX 32 36 67 37 33 38 72 39 66 40 68 41 34 42 71 43 65 44 64 45
REMARK SMILES IDX 35 47 57 48 42 49 56 50 43 51 46 52 55 53 69 54 44 55 45 56
REMARK SMILES IDX 54 58 70 59 47 60 36 61 37 62 41 63 38 64 40 65 39 66 58 67
REMARK SMILES IDX 59 68 63 69 60 70 62 71 61 72 48 73 49 74 53 75 50 76 52 77
REMARK SMILES IDX 51 78
REMARK H PARENT 4 16 4 17 68 46 46 57
REMARK Flexibility Score: inf
ROOT
ATOM      1  O   UNL A   1      34.179  31.262  28.270  1.00  0.00    -0.376 OA
ENDROOT
BRANCH   1   2
ATOM      2  C   UNL A   1      33.060  31.279  27.378  1.00  0.00     0.202 C 
BRANCH   2   3
ATOM      3  C   UNL A   1      32.383  29.935  27.074  1.00  0.00     0.261 C 
BRANCH   3   4
ATOM      4  O   UNL A   1      33.211  29.038  26.305  1.00  0.00    -0.462 OA
BRANCH   4   5
ATOM      5  C   UNL A   1      32.574  27.973  25.763  1.00  0.00     0.328 C 
ATOM      6  O   UNL A   1      31.459  27.591  26.111  1.00  0.00    -0.250 OA
BRANCH   5   7
ATOM      7  C   UNL A   1      33.345  27.286  24.628  1.00  0.00     0.195 C 
ATOM      8  N   UNL A   1      32.478  27.251  23.458  1.00  0.00    -0.324 N 
ATOM      9  C   UNL A   1      32.801  26.063  22.688  1.00  0.00     0.121 C 
ATOM     10  C   UNL A   1      33.158  25.033  23.727  1.00  0.00     0.024 C 
ATOM     11  C   UNL A   1      33.869  25.851  24.790  1.00  0.00     0.039 C 
BRANCH   8  12
ATOM     12  C   UNL A   1      32.209  28.472  22.835  1.00  0.00     0.278 C 
ATOM     13  O   UNL A   1      33.088  29.282  22.555  1.00  0.00    -0.268 OA
BRANCH  12  14
ATOM     14  C   UNL A   1      30.714  28.672  22.478  1.00  0.00     0.362 C 
BRANCH  14  15
ATOM     15  N   UNL A   1      30.254  30.070  22.727  1.00  0.00    -0.335 N 
ATOM     16  H   UNL A   1      29.857  30.142  23.663  1.00  0.00     0.347 HD
ATOM     17  H   UNL A   1      31.039  30.718  22.656  1.00  0.00     0.347 HD
BRANCH  15  18
ATOM     18  C   UNL A   1      29.242  30.396  21.737  1.00  0.00     0.289 C 
BRANCH  18  19
ATOM     19  C   UNL A   1      28.019  31.115  22.181  1.00  0.00     0.025 C 
ATOM     20  C   UNL A   1      27.703  31.167  23.485  1.00  0.00     0.010 C 
ENDBRANCH  18  19
ENDBRANCH  15  18
ENDBRANCH  14  15
ENDBRANCH  12  14
ENDBRANCH   8  12
ENDBRANCH   5   7
ENDBRANCH   4   5
ENDBRANCH   3   4
ENDBRANCH   2   3
ENDBRANCH   1   2
BRANCH   1  21
ATOM     21  C   UNL A   1      35.196  32.238  28.071  1.00  0.00     0.188 C 
BRANCH  21  22
ATOM     22  C   UNL A   1      35.240  33.386  29.084  1.00  0.00     0.188 C 
BRANCH  22  23
ATOM     23  O   UNL A   1      34.589  34.564  28.650  1.00  0.00    -0.376 OA
BRANCH  23  24
ATOM     24  C   UNL A   1      33.258  34.837  29.072  1.00  0.00     0.202 C 
BRANCH  24  25
ATOM     25  C   UNL A   1      32.903  36.264  29.543  1.00  0.00     0.261 C 
BRANCH  25  26
ATOM     26  O   UNL A   1      33.229  36.613  30.902  1.00  0.00    -0.460 OA
BRANCH  26  27
ATOM     27  C   UNL A   1      32.743  35.834  31.895  1.00  0.00     0.338 C 
ATOM     28  O   UNL A   1      31.565  35.641  32.156  1.00  0.00    -0.246 OA
BRANCH  27  29
ATOM     29  C   UNL A   1      33.869  35.015  32.428  1.00  0.00     0.060 A 
ATOM     30  C   UNL A   1      35.169  35.544  32.364  1.00  0.00     0.016 A 
ATOM     31  C   UNL A   1      33.651  33.796  33.075  1.00  0.00     0.016 A 
ATOM     32  C   UNL A   1      36.253  34.839  32.902  1.00  0.00     0.010 A 
ATOM     33  C   UNL A   1      34.737  33.081  33.593  1.00  0.00     0.010 A 
ATOM     34  C   UNL A   1      36.048  33.580  33.477  1.00  0.00    -0.014 A 
BRANCH  34  35
ATOM     35  C   UNL A   1      37.184  32.651  33.722  1.00  0.00     0.031 A 
ATOM     36  C   UNL A   1      37.989  32.868  34.976  1.00  0.00     0.074 A 
ATOM     37  C   UNL A   1      37.543  31.685  32.856  1.00  0.00     0.049 A 
ATOM     38  N   UNL A   1      39.137  32.354  35.331  1.00  0.00    -0.248 NA
ATOM     39  C   UNL A   1      37.421  33.808  35.959  1.00  0.00     0.031 C 
ATOM     40  C   UNL A   1      36.820  31.310  31.644  1.00  0.00     0.029 A 
ATOM     41  N   UNL A   1      38.641  30.855  32.862  1.00  0.00    -0.354 N 
ATOM     42  C   UNL A   1      39.444  32.936  36.556  1.00  0.00     0.074 A 
ATOM     43  C   UNL A   1      38.368  33.842  36.882  1.00  0.00     0.031 C 
ATOM     44  C   UNL A   1      37.508  30.341  31.008  1.00  0.00     0.029 A 
ATOM     45  C   UNL A   1      38.746  30.068  31.739  1.00  0.00     0.049 A 
ATOM     46  H   UNL A   1      39.290  30.827  33.603  1.00  0.00     0.167 HD
ATOM     47  C   UNL A   1      40.533  32.742  37.333  1.00  0.00     0.031 A 
ATOM     48  C   UNL A   1      39.745  29.259  31.329  1.00  0.00     0.031 A 
ATOM     49  C   UNL A   1      41.605  31.841  37.013  1.00  0.00     0.049 A 
ATOM     50  C   UNL A   1      40.993  29.130  32.173  1.00  0.00     0.074 A 
ATOM     51  C   UNL A   1      42.742  31.564  37.751  1.00  0.00     0.029 A 
ATOM     52  N   UNL A   1      41.674  31.079  35.860  1.00  0.00    -0.354 N 
ATOM     53  N   UNL A   1      41.271  29.675  33.333  1.00  0.00    -0.248 NA
ATOM     54  C   UNL A   1      42.070  28.272  31.648  1.00  0.00     0.031 C 
ATOM     55  C   UNL A   1      43.531  30.680  37.014  1.00  0.00     0.029 A 
ATOM     56  C   UNL A   1      42.849  30.350  35.854  1.00  0.00     0.049 A 
ATOM     57  H   UNL A   1      40.990  31.058  35.151  1.00  0.00     0.167 HD
ATOM     58  C   UNL A   1      42.523  29.186  33.695  1.00  0.00     0.074 A 
ATOM     59  C   UNL A   1      42.954  28.304  32.634  1.00  0.00     0.031 C 
ATOM     60  C   UNL A   1      43.248  29.443  34.811  1.00  0.00     0.031 A 
BRANCH  47  61
ATOM     61  C   UNL A   1      40.651  33.554  38.590  1.00  0.00    -0.014 A 
ATOM     62  C   UNL A   1      40.168  33.080  39.819  1.00  0.00     0.009 A 
ATOM     63  C   UNL A   1      41.322  34.788  38.551  1.00  0.00     0.009 A 
ATOM     64  C   UNL A   1      40.340  33.835  40.981  1.00  0.00     0.001 A 
ATOM     65  C   UNL A   1      41.518  35.525  39.719  1.00  0.00     0.001 A 
ATOM     66  C   UNL A   1      41.022  35.052  40.931  1.00  0.00     0.000 A 
ENDBRANCH  47  61
BRANCH  48  67
ATOM     67  C   UNL A   1      39.657  28.533  30.030  1.00  0.00    -0.014 A 
ATOM     68  C   UNL A   1      39.237  27.194  29.986  1.00  0.00     0.009 A 
ATOM     69  C   UNL A   1      40.066  29.150  28.837  1.00  0.00     0.009 A 
ATOM     70  C   UNL A   1      39.269  26.478  28.785  1.00  0.00     0.001 A 
ATOM     71  C   UNL A   1      40.063  28.443  27.632  1.00  0.00     0.001 A 
ATOM     72  C   UNL A   1      39.678  27.104  27.609  1.00  0.00     0.000 A 
ENDBRANCH  48  67
BRANCH  60  73
ATOM     73  C   UNL A   1      44.539  28.699  35.006  1.00  0.00    -0.014 A 
ATOM     74  C   UNL A   1      45.770  29.235  34.602  1.00  0.00     0.009 A 
ATOM     75  C   UNL A   1      44.525  27.479  35.705  1.00  0.00     0.009 A 
ATOM     76  C   UNL A   1      46.958  28.553  34.876  1.00  0.00     0.001 A 
ATOM     77  C   UNL A   1      45.714  26.817  36.005  1.00  0.00     0.001 A 
ATOM     78  C   UNL A   1      46.931  27.352  35.585  1.00  0.00     0.000 A 
ENDBRANCH  60  73
ENDBRANCH  34  35
ENDBRANCH  27  29
ENDBRANCH  26  27
ENDBRANCH  25  26
ENDBRANCH  24  25
ENDBRANCH  23  24
ENDBRANCH  22  23
ENDBRANCH  21  22
ENDBRANCH   1  21
TORSDOF 22
ENDMDL
MODEL 2
REMARK VINA RESULT:      -8.6      0.972      2.684
REMARK SMILES C=CC[NH2+]CC(=O)N1CCC[C@@H]1C(=O)OCCOCCOCCOC(=O)c1ccc(-c2c3nc(c(-c4ccccc4)c4ccc([nH]4)c(-c4ccccc4)c4nc(c(-c5ccccc5)c5ccc2[nH]5)C=C4)C=C3)cc1
REMARK SMILES IDX 18 1 17 2 16 3 15 4 13 5 14 6 12 7 8 8 9 9 10 10 11 11 6 12
REMARK SMILES IDX 7 13 5 14 4 15 3 18 2 19 1 20 19 21 20 22 21 23 22 24 23 25
REMARK SMILES IDX 24 26 25 27 26 28 27 29 28 30 74 31 29 32 73 33 30 34 31 35
REMARK SMILES IDX 32 36 67 37 33 38 72 39 66 40 68 41 34 42 71 43 65 44 64 45
REMARK SMILES IDX 35 47 57 48 42 49 56 50 43 51 46 52 55 53 69 54 44 55 45 56
REMARK SMILES IDX 54 58 70 59 47 60 36 61 37 62 41 63 38 64 40 65 39 66 58 67
REMARK SMILES IDX 59 68 63 69 60 70 62 71 61 72 48 73 49 74 53 75 50 76 52 77
REMARK SMILES IDX 51 78
REMARK H PARENT 4 16 4 17 68 46 46 57
REMARK Flexibility Score: inf
ROOT
ATOM      1  O   UNL A   1      34.020  31.176  28.117  1.00  0.00    -0.376 OA
ENDROOT
BRANCH   1   2
ATOM      2  C   UNL A   1      32.904  31.374  27.244  1.00  0.00     0.202 C 
BRANCH   2   3
ATOM      3  C   UNL A   1      32.397  30.153  26.462  1.00  0.00     0.261 C 
BRANCH   3   4
ATOM      4  O   UNL A   1      33.290  29.739  25.406  1.00  0.00    -0.462 OA
BRANCH   4   5
ATOM      5  C   UNL A   1      32.749  28.927  24.468  1.00  0.00     0.328 C 
ATOM      6  O   UNL A   1      33.401  28.354  23.598  1.00  0.00    -0.250 OA
BRANCH   5   7
ATOM      7  C   UNL A   1      31.232  28.737  24.597  1.00  0.00     0.195 C 
ATOM      8  N   UNL A   1      30.955  27.308  24.529  1.00  0.00    -0.324 N 
ATOM      9  C   UNL A   1      29.648  27.126  23.923  1.00  0.00     0.121 C 
ATOM     10  C   UNL A   1      29.553  28.234  22.908  1.00  0.00     0.024 C 
ATOM     11  C   UNL A   1      30.271  29.386  23.589  1.00  0.00     0.039 C 
BRANCH   8  12
ATOM     12  C   UNL A   1      31.368  26.534  25.616  1.00  0.00     0.278 C 
ATOM     13  O   UNL A   1      31.042  26.786  26.772  1.00  0.00    -0.268 OA
BRANCH  12  14
ATOM     14  C   UNL A   1      32.218  25.301  25.215  1.00  0.00     0.362 C 
BRANCH  14  15
ATOM     15  N   UNL A   1      33.383  25.095  26.124  1.00  0.00    -0.335 N 
ATOM     16  H   UNL A   1      34.194  25.600  25.766  1.00  0.00     0.347 HD
ATOM     17  H   UNL A   1      33.169  25.446  27.058  1.00  0.00     0.347 HD
BRANCH  15  18
ATOM     18  C   UNL A   1      33.672  23.673  26.175  1.00  0.00     0.289 C 
BRANCH  18  19
ATOM     19  C   UNL A   1      35.089  23.231  26.099  1.00  0.00     0.025 C 
ATOM     20  C   UNL A   1      36.038  24.080  25.669  1.00  0.00     0.010 C 
ENDBRANCH  18  19
ENDBRANCH  15  18
ENDBRANCH  14  15
ENDBRANCH  12  14
ENDBRANCH   8  12
ENDBRANCH   5   7
ENDBRANCH   4   5
ENDBRANCH   3   4
ENDBRANCH   2   3
ENDBRANCH   1   2
BRANCH   1  21
ATOM     21  C   UNL A   1      35.089  32.112  28.043  1.00  0.00     0.188 C 
BRANCH  21  22
ATOM     22  C   UNL A   1      35.088  33.226  29.094  1.00  0.00     0.188 C 
BRANCH  22  23
ATOM     23  O   UNL A   1      34.519  34.441  28.648  1.00  0.00    -0.376 OA
BRANCH  23  24
ATOM     24  C   UNL A   1      33.193  34.787  29.030  1.00  0.00     0.202 C 
BRANCH  24  25
ATOM     25  C   UNL A   1      32.904  36.233  29.490  1.00  0.00     0.261 C 
BRANCH  25  26
ATOM     26  O   UNL A   1      33.275  36.586  30.836  1.00  0.00    -0.460 OA
BRANCH  26  27
ATOM     27  C   UNL A   1      32.786  35.836  31.850  1.00  0.00     0.338 C 
ATOM     28  O   UNL A   1      31.609  35.666  32.127  1.00  0.00    -0.246 OA
BRANCH  27  29
ATOM     29  C   UNL A   1      33.905  35.011  32.390  1.00  0.00     0.060 A 
ATOM     30  C   UNL A   1      35.209  35.530  32.325  1.00  0.00     0.016 A 
ATOM     31  C   UNL A   1      33.676  33.798  33.045  1.00  0.00     0.016 A 
ATOM     32  C   UNL A   1      36.287  34.820  32.869  1.00  0.00     0.010 A 
ATOM     33  C   UNL A   1      34.756  33.079  33.570  1.00  0.00     0.010 A 
ATOM     34  C   UNL A   1      36.072  33.566  33.452  1.00  0.00    -0.014 A 
BRANCH  34  35
ATOM     35  C   UNL A   1      37.200  32.631  33.704  1.00  0.00     0.031 A 
ATOM     36  C   UNL A   1      38.003  32.848  34.960  1.00  0.00     0.074 A 
ATOM     37  C   UNL A   1      37.553  31.658  32.845  1.00  0.00     0.049 A 
ATOM     38  N   UNL A   1      39.146  32.327  35.320  1.00  0.00    -0.248 NA
ATOM     39  C   UNL A   1      37.440  33.798  35.936  1.00  0.00     0.031 C 
ATOM     40  C   UNL A   1      36.830  31.281  31.633  1.00  0.00     0.029 A 
ATOM     41  N   UNL A   1      38.645  30.819  32.858  1.00  0.00    -0.354 N 
ATOM     42  C   UNL A   1      39.455  32.913  36.542  1.00  0.00     0.074 A 
ATOM     43  C   UNL A   1      38.385  33.830  36.861  1.00  0.00     0.031 C 
ATOM     44  C   UNL A   1      37.513  30.304  31.004  1.00  0.00     0.029 A 
ATOM     45  C   UNL A   1      38.747  30.025  31.739  1.00  0.00     0.049 A 
ATOM     46  H   UNL A   1      39.292  30.790  33.600  1.00  0.00     0.167 HD
ATOM     47  C   UNL A   1      40.541  32.716  37.324  1.00  0.00     0.031 A 
ATOM     48  C   UNL A   1      39.741  29.206  31.336  1.00  0.00     0.031 A 
ATOM     49  C   UNL A   1      41.606  31.805  37.010  1.00  0.00     0.049 A 
ATOM     50  C   UNL A   1      40.986  29.073  32.184  1.00  0.00     0.074 A 
ATOM     51  C   UNL A   1      42.739  31.523  37.753  1.00  0.00     0.029 A 
ATOM     52  N   UNL A   1      41.673  31.036  35.862  1.00  0.00    -0.354 N 
ATOM     53  N   UNL A   1      41.265  29.622  33.342  1.00  0.00    -0.248 NA
ATOM     54  C   UNL A   1      42.057  28.204  31.666  1.00  0.00     0.031 C 
ATOM     55  C   UNL A   1      43.524  30.629  37.023  1.00  0.00     0.029 A 
ATOM     56  C   UNL A   1      42.842  30.298  35.863  1.00  0.00     0.049 A 
ATOM     57  H   UNL A   1      40.990  31.017  35.152  1.00  0.00     0.167 HD
ATOM     58  C   UNL A   1      42.512  29.126  33.709  1.00  0.00     0.074 A 
ATOM     59  C   UNL A   1      42.939  28.234  32.655  1.00  0.00     0.031 C 
ATOM     60  C   UNL A   1      43.236  29.383  34.826  1.00  0.00     0.031 A 
BRANCH  47  61
ATOM     61  C   UNL A   1      40.661  33.534  38.577  1.00  0.00    -0.014 A 
ATOM     62  C   UNL A   1      40.164  33.074  39.805  1.00  0.00     0.009 A 
ATOM     63  C   UNL A   1      41.350  34.758  38.535  1.00  0.00     0.009 A 
ATOM     64  C   UNL A   1      40.338  33.834  40.963  1.00  0.00     0.001 A 
ATOM     65  C   UNL A   1      41.549  35.499  39.699  1.00  0.00     0.001 A 
ATOM     66  C   UNL A   1      41.038  35.040  40.911  1.00  0.00     0.000 A 
ENDBRANCH  47  61
BRANCH  48  67
ATOM     67  C   UNL A   1      39.650  28.474  30.041  1.00  0.00    -0.014 A 
ATOM     68  C   UNL A   1      39.241  27.131  30.005  1.00  0.00     0.009 A 
ATOM     69  C   UNL A   1      40.047  29.089  28.843  1.00  0.00     0.009 A 
ATOM     70  C   UNL A   1      39.271  26.411  28.807  1.00  0.00     0.001 A 
ATOM     71  C   UNL A   1      40.042  28.377  27.641  1.00  0.00     0.001 A 
ATOM     72  C   UNL A   1      39.668  27.035  27.626  1.00  0.00     0.000 A 
ENDBRANCH  48  67
BRANCH  60  73
ATOM     73  C   UNL A   1      44.522  28.630  35.029  1.00  0.00    -0.014 A 
ATOM     74  C   UNL A   1      45.758  29.154  34.624  1.00  0.00     0.009 A 
ATOM     75  C   UNL A   1      44.497  27.414  35.733  1.00  0.00     0.009 A 
ATOM     76  C   UNL A   1      46.940  28.465  34.906  1.00  0.00     0.001 A 
ATOM     77  C   UNL A   1      45.679  26.744  36.040  1.00  0.00     0.001 A 
ATOM     78  C   UNL A   1      46.902  27.268  35.620  1.00  0.00     0.000 A 
ENDBRANCH  60  73
ENDBRANCH  34  35
ENDBRANCH  27  29
ENDBRANCH  26  27
ENDBRANCH  25  26
ENDBRANCH  24  25
ENDBRANCH  23  24
ENDBRANCH  22  23
ENDBRANCH  21  22
ENDBRANCH   1  21
TORSDOF 22
ENDMDL
MODEL 3
REMARK VINA RESULT:      -8.3      4.909      9.941
REMARK SMILES C=CC[NH2+]CC(=O)N1CCC[C@@H]1C(=O)OCCOCCOCCOC(=O)c1ccc(-c2c3nc(c(-c4ccccc4)c4ccc([nH]4)c(-c4ccccc4)c4nc(c(-c5ccccc5)c5ccc2[nH]5)C=C4)C=C3)cc1
REMARK SMILES IDX 18 1 17 2 16 3 15 4 13 5 14 6 12 7 8 8 9 9 10 10 11 11 6 12
REMARK SMILES IDX 7 13 5 14 4 15 3 18 2 19 1 20 19 21 20 22 21 23 22 24 23 25
REMARK SMILES IDX 24 26 25 27 26 28 27 29 28 30 74 31 29 32 73 33 30 34 31 35
REMARK SMILES IDX 32 36 67 37 33 38 72 39 66 40 68 41 34 42 71 43 65 44 64 45
REMARK SMILES IDX 35 47 57 48 42 49 56 50 43 51 46 52 55 53 69 54 44 55 45 56
REMARK SMILES IDX 54 58 70 59 47 60 36 61 37 62 41 63 38 64 40 65 39 66 58 67
REMARK SMILES IDX 59 68 63 69 60 70 62 71 61 72 48 73 49 74 53 75 50 76 52 77
REMARK SMILES IDX 51 78
REMARK H PARENT 4 16 4 17 68 46 46 57
REMARK Flexibility Score: inf
ROOT
ATOM      1  O   UNL A   1      35.130  23.251  24.619  1.00  0.00    -0.376 OA
ENDROOT
BRANCH   1   2
ATOM      2  C   UNL A   1      34.600  23.933  23.479  1.00  0.00     0.202 C 
BRANCH   2   3
ATOM      3  C   UNL A   1      33.671  25.128  23.743  1.00  0.00     0.261 C 
BRANCH   3   4
ATOM      4  O   UNL A   1      33.686  26.109  22.685  1.00  0.00    -0.462 OA
BRANCH   4   5
ATOM      5  C   UNL A   1      33.619  27.401  23.084  1.00  0.00     0.328 C 
ATOM      6  O   UNL A   1      33.970  28.353  22.391  1.00  0.00    -0.250 OA
BRANCH   5   7
ATOM      7  C   UNL A   1      33.020  27.599  24.483  1.00  0.00     0.195 C 
ATOM      8  N   UNL A   1      31.855  28.464  24.351  1.00  0.00    -0.324 N 
ATOM      9  C   UNL A   1      31.724  29.239  25.572  1.00  0.00     0.121 C 
ATOM     10  C   UNL A   1      33.144  29.497  26.002  1.00  0.00     0.024 C 
ATOM     11  C   UNL A   1      33.857  28.212  25.616  1.00  0.00     0.039 C 
BRANCH   8  12
ATOM     12  C   UNL A   1      30.739  27.925  23.707  1.00  0.00     0.278 C 
ATOM     13  O   UNL A   1      30.259  26.836  24.010  1.00  0.00    -0.268 OA
BRANCH  12  14
ATOM     14  C   UNL A   1      30.135  28.857  22.626  1.00  0.00     0.362 C 
BRANCH  14  15
ATOM     15  N   UNL A   1      28.865  29.499  23.078  1.00  0.00    -0.335 N 
ATOM     16  H   UNL A   1      28.196  29.523  22.308  1.00  0.00     0.347 HD
ATOM     17  H   UNL A   1      28.455  28.968  23.848  1.00  0.00     0.347 HD
BRANCH  15  18
ATOM     18  C   UNL A   1      29.170  30.853  23.507  1.00  0.00     0.289 C 
BRANCH  18  19
ATOM     19  C   UNL A   1      28.352  31.971  22.967  1.00  0.00     0.025 C 
ATOM     20  C   UNL A   1      28.077  32.033  21.654  1.00  0.00     0.010 C 
ENDBRANCH  18  19
ENDBRANCH  15  18
ENDBRANCH  14  15
ENDBRANCH  12  14
ENDBRANCH   8  12
ENDBRANCH   5   7
ENDBRANCH   4   5
ENDBRANCH   3   4
ENDBRANCH   2   3
ENDBRANCH   1   2
BRANCH   1  21
ATOM     21  C   UNL A   1      36.370  23.710  25.144  1.00  0.00     0.188 C 
BRANCH  21  22
ATOM     22  C   UNL A   1      37.492  22.671  25.241  1.00  0.00     0.188 C 
BRANCH  22  23
ATOM     23  O   UNL A   1      37.065  21.401  25.691  1.00  0.00    -0.376 OA
BRANCH  23  24
ATOM     24  C   UNL A   1      37.366  20.239  24.927  1.00  0.00     0.202 C 
BRANCH  24  25
ATOM     25  C   UNL A   1      38.815  19.704  24.924  1.00  0.00     0.261 C 
BRANCH  25  26
ATOM     26  O   UNL A   1      39.521  19.696  26.179  1.00  0.00    -0.460 OA
BRANCH  26  27
ATOM     27  C   UNL A   1      40.873  19.663  26.151  1.00  0.00     0.338 C 
ATOM     28  O   UNL A   1      41.568  18.803  25.631  1.00  0.00    -0.246 OA
BRANCH  27  29
ATOM     29  C   UNL A   1      41.374  20.996  26.593  1.00  0.00     0.060 A 
ATOM     30  C   UNL A   1      41.264  21.333  27.952  1.00  0.00     0.016 A 
ATOM     31  C   UNL A   1      42.035  21.861  25.718  1.00  0.00     0.016 A 
ATOM     32  C   UNL A   1      41.770  22.549  28.428  1.00  0.00     0.010 A 
ATOM     33  C   UNL A   1      42.522  23.086  26.189  1.00  0.00     0.010 A 
ATOM     34  C   UNL A   1      42.360  23.454  27.538  1.00  0.00    -0.014 A 
BRANCH  34  35
ATOM     35  C   UNL A   1      42.573  24.877  27.915  1.00  0.00     0.031 A 
ATOM     36  C   UNL A   1      43.968  25.279  28.316  1.00  0.00     0.074 A 
ATOM     37  C   UNL A   1      41.577  25.781  27.964  1.00  0.00     0.049 A 
ATOM     38  N   UNL A   1      44.390  26.379  28.882  1.00  0.00    -0.248 NA
ATOM     39  C   UNL A   1      45.030  24.292  28.050  1.00  0.00     0.031 C 
ATOM     40  C   UNL A   1      40.198  25.560  27.536  1.00  0.00     0.029 A 
ATOM     41  N   UNL A   1      41.580  27.077  28.430  1.00  0.00    -0.354 N 
ATOM     42  C   UNL A   1      45.755  26.200  29.074  1.00  0.00     0.074 A 
ATOM     43  C   UNL A   1      46.092  24.888  28.569  1.00  0.00     0.031 C 
ATOM     44  C   UNL A   1      39.481  26.674  27.785  1.00  0.00     0.029 A 
ATOM     45  C   UNL A   1      40.337  27.665  28.438  1.00  0.00     0.049 A 
ATOM     46  H   UNL A   1      42.397  27.539  28.727  1.00  0.00     0.167 HD
ATOM     47  C   UNL A   1      46.648  27.047  29.633  1.00  0.00     0.031 A 
ATOM     48  C   UNL A   1      39.931  28.844  28.954  1.00  0.00     0.031 A 
ATOM     49  C   UNL A   1      46.318  28.352  30.135  1.00  0.00     0.049 A 
ATOM     50  C   UNL A   1      40.933  29.733  29.656  1.00  0.00     0.074 A 
ATOM     51  C   UNL A   1      47.162  29.291  30.703  1.00  0.00     0.029 A 
ATOM     52  N   UNL A   1      45.046  28.896  30.136  1.00  0.00    -0.354 N 
ATOM     53  N   UNL A   1      42.222  29.561  29.825  1.00  0.00    -0.248 NA
ATOM     54  C   UNL A   1      40.419  30.983  30.244  1.00  0.00     0.031 C 
ATOM     55  C   UNL A   1      46.387  30.380  31.106  1.00  0.00     0.029 A 
ATOM     56  C   UNL A   1      45.077  30.150  30.720  1.00  0.00     0.049 A 
ATOM     57  H   UNL A   1      44.241  28.457  29.776  1.00  0.00     0.167 HD
ATOM     58  C   UNL A   1      42.676  30.698  30.486  1.00  0.00     0.074 A 
ATOM     59  C   UNL A   1      41.528  31.553  30.692  1.00  0.00     0.031 C 
ATOM     60  C   UNL A   1      43.934  31.008  30.882  1.00  0.00     0.031 A 
BRANCH  47  61
ATOM     61  C   UNL A   1      48.066  26.576  29.780  1.00  0.00    -0.014 A 
ATOM     62  C   UNL A   1      48.480  25.826  30.890  1.00  0.00     0.009 A 
ATOM     63  C   UNL A   1      48.985  26.830  28.747  1.00  0.00     0.009 A 
ATOM     64  C   UNL A   1      49.792  25.356  30.972  1.00  0.00     0.001 A 
ATOM     65  C   UNL A   1      50.286  26.333  28.819  1.00  0.00     0.001 A 
ATOM     66  C   UNL A   1      50.691  25.602  29.933  1.00  0.00     0.000 A 
ENDBRANCH  47  61
BRANCH  48  67
ATOM     67  C   UNL A   1      38.500  29.255  28.888  1.00  0.00    -0.014 A 
ATOM     68  C   UNL A   1      37.983  29.865  27.733  1.00  0.00     0.009 A 
ATOM     69  C   UNL A   1      37.663  29.113  30.006  1.00  0.00     0.009 A 
ATOM     70  C   UNL A   1      36.675  30.359  27.715  1.00  0.00     0.001 A 
ATOM     71  C   UNL A   1      36.345  29.575  29.972  1.00  0.00     0.001 A 
ATOM     72  C   UNL A   1      35.856  30.210  28.832  1.00  0.00     0.000 A 
ENDBRANCH  48  67
BRANCH  60  73
ATOM     73  C   UNL A   1      44.175  32.361  31.493  1.00  0.00    -0.014 A 
ATOM     74  C   UNL A   1      44.395  33.500  30.705  1.00  0.00     0.009 A 
ATOM     75  C   UNL A   1      44.074  32.507  32.887  1.00  0.00     0.009 A 
ATOM     76  C   UNL A   1      44.529  34.754  31.305  1.00  0.00     0.001 A 
ATOM     77  C   UNL A   1      44.177  33.764  33.480  1.00  0.00     0.001 A 
ATOM     78  C   UNL A   1      44.411  34.888  32.688  1.00  0.00     0.000 A 
ENDBRANCH  60  73
ENDBRANCH  34  35
ENDBRANCH  27  29
ENDBRANCH  26  27
ENDBRANCH  25  26
ENDBRANCH  24  25
ENDBRANCH  23  24
ENDBRANCH  22  23
ENDBRANCH  21  22
ENDBRANCH   1  21
TORSDOF 22
ENDMDL
