MODEL 1
REMARK VINA RESULT:     -10.4      0.000      0.000
REMARK SMILES CS(=O)(=O)c1ccc(/C=C(/C(=O)OCCOCCOCCOC(=O)c2ccc(-c3c4nc(c(-c5ccccc5)c5ccc([nH]5)c(-c5ccccc5)c5nc(c(-c6ccccc6)c6ccc3[nH]6)C=C5)C=C4)cc2)c2ccc(F)cc2)cc1
REMARK SMILES IDX 17 1 16 2 15 3 14 4 13 5 11 6 12 7 10 8 9 9 8 10 5 11 6 12
REMARK SMILES IDX 81 13 7 14 80 15 2 16 1 17 3 18 4 19 73 20 74 21 79 22 75 23
REMARK SMILES IDX 78 24 76 25 77 26 18 27 19 28 20 29 21 30 22 31 23 32 24 33
REMARK SMILES IDX 25 34 26 35 72 36 27 37 71 38 28 39 29 40 30 41 65 42 31 43
REMARK SMILES IDX 70 44 64 45 66 46 32 47 69 48 63 49 62 50 33 52 55 53 40 54
REMARK SMILES IDX 54 55 41 56 44 57 53 58 67 59 42 60 43 61 52 63 68 64 45 65
REMARK SMILES IDX 34 66 35 67 39 68 36 69 38 70 37 71 56 72 57 73 61 74 58 75
REMARK SMILES IDX 60 76 59 77 46 78 47 79 51 80 48 81 50 82 49 83
REMARK H PARENT 66 51 44 62
REMARK Flexibility Score: inf
ROOT
ATOM      1  C   UNL A   1      32.874  29.167  23.861  1.00  0.00     0.188 C 
ENDROOT
BRANCH   1   2
ATOM      2  O   UNL A   1      32.388  28.804  22.583  1.00  0.00    -0.376 OA
BRANCH   2   3
ATOM      3  C   UNL A   1      31.951  27.462  22.442  1.00  0.00     0.202 C 
BRANCH   3   4
ATOM      4  C   UNL A   1      33.005  26.337  22.473  1.00  0.00     0.261 C 
BRANCH   4   5
ATOM      5  O   UNL A   1      33.625  26.060  23.745  1.00  0.00    -0.460 OA
BRANCH   5   6
ATOM      6  C   UNL A   1      32.900  25.396  24.679  1.00  0.00     0.338 C 
ATOM      7  O   UNL A   1      31.977  25.877  25.319  1.00  0.00    -0.246 OA
BRANCH   6   8
ATOM      8  C   UNL A   1      33.286  23.938  24.730  1.00  0.00     0.067 C 
ATOM      9  C   UNL A   1      32.328  22.978  24.790  1.00  0.00     0.024 C 
BRANCH   9  10
ATOM     10  C   UNL A   1      32.491  21.500  24.714  1.00  0.00    -0.025 A 
ATOM     11  C   UNL A   1      33.184  18.808  24.285  1.00  0.00     0.067 A 
ATOM     12  C   UNL A   1      33.349  19.371  25.548  1.00  0.00     0.021 A 
ATOM     13  C   UNL A   1      32.553  19.531  23.273  1.00  0.00     0.021 A 
ATOM     14  C   UNL A   1      32.966  20.699  25.763  1.00  0.00     0.009 A 
ATOM     15  C   UNL A   1      32.206  20.870  23.492  1.00  0.00     0.009 A 
BRANCH  11  16
ATOM     16  S   UNL A   1      33.833  17.188  23.947  1.00  0.00     0.175 S 
ATOM     17  C   UNL A   1      32.825  16.084  24.909  1.00  0.00     0.163 C 
ATOM     18  O   UNL A   1      35.171  17.132  24.507  1.00  0.00    -0.224 OA
ATOM     19  O   UNL A   1      33.595  16.922  22.543  1.00  0.00    -0.224 OA
ENDBRANCH  11  16
ENDBRANCH   9  10
BRANCH   8  20
ATOM     20  C   UNL A   1      34.730  23.606  24.722  1.00  0.00    -0.011 A 
ATOM     21  C   UNL A   1      35.486  23.779  25.896  1.00  0.00     0.012 A 
ATOM     22  C   UNL A   1      35.321  22.983  23.613  1.00  0.00     0.012 A 
ATOM     23  C   UNL A   1      36.792  23.295  25.976  1.00  0.00     0.040 A 
ATOM     24  C   UNL A   1      36.625  22.489  23.703  1.00  0.00     0.040 A 
ATOM     25  C   UNL A   1      37.343  22.640  24.884  1.00  0.00     0.123 A 
ATOM     26  F   UNL A   1      38.573  22.122  24.980  1.00  0.00    -0.207 F 
ENDBRANCH   8  20
ENDBRANCH   6   8
ENDBRANCH   5   6
ENDBRANCH   4   5
ENDBRANCH   3   4
ENDBRANCH   2   3
ENDBRANCH   1   2
BRANCH   1  27
ATOM     27  C   UNL A   1      31.753  29.507  24.866  1.00  0.00     0.188 C 
BRANCH  27  28
ATOM     28  O   UNL A   1      31.686  28.840  26.117  1.00  0.00    -0.376 OA
BRANCH  28  29
ATOM     29  C   UNL A   1      32.433  29.346  27.213  1.00  0.00     0.202 C 
BRANCH  29  30
ATOM     30  C   UNL A   1      32.864  30.827  27.254  1.00  0.00     0.261 C 
BRANCH  30  31
ATOM     31  O   UNL A   1      34.278  31.092  27.258  1.00  0.00    -0.460 OA
BRANCH  31  32
ATOM     32  C   UNL A   1      34.839  31.305  28.472  1.00  0.00     0.338 C 
ATOM     33  O   UNL A   1      34.361  31.931  29.410  1.00  0.00    -0.246 OA
BRANCH  32  34
ATOM     34  C   UNL A   1      36.073  30.501  28.596  1.00  0.00     0.060 A 
ATOM     35  C   UNL A   1      36.343  29.859  29.815  1.00  0.00     0.016 A 
ATOM     36  C   UNL A   1      36.982  30.419  27.542  1.00  0.00     0.016 A 
ATOM     37  C   UNL A   1      37.526  29.141  29.987  1.00  0.00     0.010 A 
ATOM     38  C   UNL A   1      38.185  29.727  27.727  1.00  0.00     0.010 A 
ATOM     39  C   UNL A   1      38.473  29.104  28.956  1.00  0.00    -0.014 A 
BRANCH  39  40
ATOM     40  C   UNL A   1      39.841  28.594  29.222  1.00  0.00     0.031 A 
ATOM     41  C   UNL A   1      40.822  29.505  29.907  1.00  0.00     0.074 A 
ATOM     42  C   UNL A   1      40.214  27.353  28.864  1.00  0.00     0.049 A 
ATOM     43  N   UNL A   1      42.093  29.321  30.156  1.00  0.00    -0.248 NA
ATOM     44  C   UNL A   1      40.296  30.799  30.371  1.00  0.00     0.031 C 
ATOM     45  C   UNL A   1      39.348  26.346  28.255  1.00  0.00     0.029 A 
ATOM     46  N   UNL A   1      41.439  26.737  28.955  1.00  0.00    -0.354 N 
ATOM     47  C   UNL A   1      42.521  30.479  30.794  1.00  0.00     0.074 A 
ATOM     48  C   UNL A   1      41.380  31.365  30.876  1.00  0.00     0.031 C 
ATOM     49  C   UNL A   1      40.074  25.240  28.013  1.00  0.00     0.029 A 
ATOM     50  C   UNL A   1      41.463  25.479  28.405  1.00  0.00     0.049 A 
ATOM     51  H   UNL A   1      42.224  27.157  29.375  1.00  0.00     0.167 HD
ATOM     52  C   UNL A   1      43.754  30.781  31.264  1.00  0.00     0.031 A 
ATOM     53  C   UNL A   1      42.496  24.634  28.206  1.00  0.00     0.031 A 
ATOM     54  C   UNL A   1      44.899  29.917  31.155  1.00  0.00     0.049 A 
ATOM     55  C   UNL A   1      43.884  25.040  28.638  1.00  0.00     0.074 A 
ATOM     56  C   UNL A   1      46.191  30.139  31.598  1.00  0.00     0.029 A 
ATOM     57  N   UNL A   1      44.891  28.671  30.549  1.00  0.00    -0.354 N 
ATOM     58  N   UNL A   1      44.277  26.133  29.249  1.00  0.00    -0.248 NA
ATOM     59  C   UNL A   1      44.970  24.090  28.352  1.00  0.00     0.031 C 
ATOM     60  C   UNL A   1      46.981  29.057  31.200  1.00  0.00     0.029 A 
ATOM     61  C   UNL A   1      46.163  28.126  30.578  1.00  0.00     0.049 A 
ATOM     62  H   UNL A   1      44.099  28.239  30.155  1.00  0.00     0.167 HD
ATOM     63  C   UNL A   1      45.645  25.982  29.454  1.00  0.00     0.074 A 
ATOM     64  C   UNL A   1      46.012  24.692  28.913  1.00  0.00     0.031 C 
ATOM     65  C   UNL A   1      46.518  26.836  30.044  1.00  0.00     0.031 A 
BRANCH  52  66
ATOM     66  C   UNL A   1      43.937  32.135  31.893  1.00  0.00    -0.014 A 
ATOM     67  C   UNL A   1      43.872  32.312  33.284  1.00  0.00     0.009 A 
ATOM     68  C   UNL A   1      44.202  33.247  31.078  1.00  0.00     0.009 A 
ATOM     69  C   UNL A   1      44.030  33.583  33.842  1.00  0.00     0.001 A 
ATOM     70  C   UNL A   1      44.392  34.509  31.640  1.00  0.00     0.001 A 
ATOM     71  C   UNL A   1      44.296  34.679  33.020  1.00  0.00     0.000 A 
ENDBRANCH  52  66
BRANCH  53  72
ATOM     72  C   UNL A   1      42.278  23.326  27.531  1.00  0.00    -0.014 A 
ATOM     73  C   UNL A   1      41.997  22.171  28.277  1.00  0.00     0.009 A 
ATOM     74  C   UNL A   1      42.396  23.217  26.136  1.00  0.00     0.009 A 
ATOM     75  C   UNL A   1      41.873  20.931  27.645  1.00  0.00     0.001 A 
ATOM     76  C   UNL A   1      42.237  21.982  25.503  1.00  0.00     0.001 A 
ATOM     77  C   UNL A   1      41.989  20.838  26.259  1.00  0.00     0.000 A 
ENDBRANCH  53  72
BRANCH  65  78
ATOM     78  C   UNL A   1      47.946  26.385  30.195  1.00  0.00    -0.014 A 
ATOM     79  C   UNL A   1      48.396  25.724  31.348  1.00  0.00     0.009 A 
ATOM     80  C   UNL A   1      48.845  26.579  29.132  1.00  0.00     0.009 A 
ATOM     81  C   UNL A   1      49.722  25.295  31.446  1.00  0.00     0.001 A 
ATOM     82  C   UNL A   1      50.160  26.121  29.219  1.00  0.00     0.001 A 
ATOM     83  C   UNL A   1      50.601  25.488  30.380  1.00  0.00     0.000 A 
ENDBRANCH  65  78
ENDBRANCH  39  40
ENDBRANCH  32  34
ENDBRANCH  31  32
ENDBRANCH  30  31
ENDBRANCH  29  30
ENDBRANCH  28  29
ENDBRANCH  27  28
ENDBRANCH   1  27
TORSDOF 20
ENDMDL
MODEL 2
REMARK VINA RESULT:     -10.1      3.516      8.180
REMARK SMILES CS(=O)(=O)c1ccc(/C=C(/C(=O)OCCOCCOCCOC(=O)c2ccc(-c3c4nc(c(-c5ccccc5)c5ccc([nH]5)c(-c5ccccc5)c5nc(c(-c6ccccc6)c6ccc3[nH]6)C=C5)C=C4)cc2)c2ccc(F)cc2)cc1
REMARK SMILES IDX 17 1 16 2 15 3 14 4 13 5 11 6 12 7 10 8 9 9 8 10 5 11 6 12
REMARK SMILES IDX 81 13 7 14 80 15 2 16 1 17 3 18 4 19 73 20 74 21 79 22 75 23
REMARK SMILES IDX 78 24 76 25 77 26 18 27 19 28 20 29 21 30 22 31 23 32 24 33
REMARK SMILES IDX 25 34 26 35 72 36 27 37 71 38 28 39 29 40 30 41 65 42 31 43
REMARK SMILES IDX 70 44 64 45 66 46 32 47 69 48 63 49 62 50 33 52 55 53 40 54
REMARK SMILES IDX 54 55 41 56 44 57 53 58 67 59 42 60 43 61 52 63 68 64 45 65
REMARK SMILES IDX 34 66 35 67 39 68 36 69 38 70 37 71 56 72 57 73 61 74 58 75
REMARK SMILES IDX 60 76 59 77 46 78 47 79 51 80 48 81 50 82 49 83
REMARK H PARENT 66 51 44 62
REMARK Flexibility Score: inf
ROOT
ATOM      1  C   UNL A   1      31.766  22.135  24.315  1.00  0.00     0.188 C 
ENDROOT
BRANCH   1   2
ATOM      2  O   UNL A   1      31.513  22.038  25.703  1.00  0.00    -0.376 OA
BRANCH   2   3
ATOM      3  C   UNL A   1      30.663  23.033  26.251  1.00  0.00     0.202 C 
BRANCH   3   4
ATOM      4  C   UNL A   1      31.011  24.515  26.008  1.00  0.00     0.261 C 
BRANCH   4   5
ATOM      5  O   UNL A   1      32.324  24.950  26.412  1.00  0.00    -0.460 OA
BRANCH   5   6
ATOM      6  C   UNL A   1      33.119  25.536  25.482  1.00  0.00     0.338 C 
ATOM      7  O   UNL A   1      33.642  24.955  24.544  1.00  0.00    -0.246 OA
BRANCH   6   8
ATOM      8  C   UNL A   1      33.164  27.032  25.672  1.00  0.00     0.067 C 
ATOM      9  C   UNL A   1      33.826  27.569  26.730  1.00  0.00     0.024 C 
BRANCH   9  10
ATOM     10  C   UNL A   1      34.099  29.002  27.023  1.00  0.00    -0.025 A 
ATOM     11  C   UNL A   1      34.405  31.619  28.010  1.00  0.00     0.067 A 
ATOM     12  C   UNL A   1      35.526  30.814  27.827  1.00  0.00     0.021 A 
ATOM     13  C   UNL A   1      33.151  31.182  27.580  1.00  0.00     0.021 A 
ATOM     14  C   UNL A   1      35.370  29.528  27.300  1.00  0.00     0.009 A 
ATOM     15  C   UNL A   1      33.004  29.879  27.086  1.00  0.00     0.009 A 
BRANCH  11  16
ATOM     16  S   UNL A   1      34.562  33.178  28.848  1.00  0.00     0.175 S 
ATOM     17  C   UNL A   1      33.365  34.236  28.068  1.00  0.00     0.163 C 
ATOM     18  O   UNL A   1      35.871  33.714  28.523  1.00  0.00    -0.224 OA
ATOM     19  O   UNL A   1      34.158  32.963  30.222  1.00  0.00    -0.224 OA
ENDBRANCH  11  16
ENDBRANCH   9  10
BRANCH   8  20
ATOM     20  C   UNL A   1      32.461  27.876  24.678  1.00  0.00    -0.011 A 
ATOM     21  C   UNL A   1      33.161  28.343  23.550  1.00  0.00     0.012 A 
ATOM     22  C   UNL A   1      31.078  28.091  24.762  1.00  0.00     0.012 A 
ATOM     23  C   UNL A   1      32.483  28.971  22.504  1.00  0.00     0.040 A 
ATOM     24  C   UNL A   1      30.402  28.708  23.706  1.00  0.00     0.040 A 
ATOM     25  C   UNL A   1      31.107  29.133  22.587  1.00  0.00     0.123 A 
ATOM     26  F   UNL A   1      30.448  29.679  21.558  1.00  0.00    -0.207 F 
ENDBRANCH   8  20
ENDBRANCH   6   8
ENDBRANCH   5   6
ENDBRANCH   4   5
ENDBRANCH   3   4
ENDBRANCH   2   3
ENDBRANCH   1   2
BRANCH   1  27
ATOM     27  C   UNL A   1      32.959  21.273  23.850  1.00  0.00     0.188 C 
BRANCH  27  28
ATOM     28  O   UNL A   1      34.288  21.659  24.164  1.00  0.00    -0.376 OA
BRANCH  28  29
ATOM     29  C   UNL A   1      35.104  20.776  24.919  1.00  0.00     0.202 C 
BRANCH  29  30
ATOM     30  C   UNL A   1      36.246  21.321  25.801  1.00  0.00     0.261 C 
BRANCH  30  31
ATOM     31  O   UNL A   1      37.477  21.656  25.136  1.00  0.00    -0.460 OA
BRANCH  31  32
ATOM     32  C   UNL A   1      38.615  21.306  25.782  1.00  0.00     0.338 C 
ATOM     33  O   UNL A   1      39.173  20.216  25.764  1.00  0.00    -0.246 OA
BRANCH  32  34
ATOM     34  C   UNL A   1      39.228  22.505  26.392  1.00  0.00     0.060 A 
ATOM     35  C   UNL A   1      38.743  23.772  26.029  1.00  0.00     0.016 A 
ATOM     36  C   UNL A   1      40.301  22.390  27.275  1.00  0.00     0.016 A 
ATOM     37  C   UNL A   1      39.336  24.926  26.540  1.00  0.00     0.010 A 
ATOM     38  C   UNL A   1      40.917  23.549  27.760  1.00  0.00     0.010 A 
ATOM     39  C   UNL A   1      40.453  24.822  27.378  1.00  0.00    -0.014 A 
BRANCH  39  40
ATOM     40  C   UNL A   1      41.259  26.027  27.694  1.00  0.00     0.031 A 
ATOM     41  C   UNL A   1      40.660  27.072  28.593  1.00  0.00     0.074 A 
ATOM     42  C   UNL A   1      42.497  26.199  27.195  1.00  0.00     0.049 A 
ATOM     43  N   UNL A   1      41.128  28.246  28.931  1.00  0.00    -0.248 NA
ATOM     44  C   UNL A   1      39.354  26.747  29.190  1.00  0.00     0.031 C 
ATOM     45  C   UNL A   1      43.222  25.239  26.367  1.00  0.00     0.029 A 
ATOM     46  N   UNL A   1      43.355  27.266  27.310  1.00  0.00    -0.354 N 
ATOM     47  C   UNL A   1      40.170  28.804  29.768  1.00  0.00     0.074 A 
ATOM     48  C   UNL A   1      39.088  27.850  29.871  1.00  0.00     0.031 C 
ATOM     49  C   UNL A   1      44.415  25.767  26.036  1.00  0.00     0.029 A 
ATOM     50  C   UNL A   1      44.514  27.119  26.587  1.00  0.00     0.049 A 
ATOM     51  H   UNL A   1      43.159  28.059  27.859  1.00  0.00     0.167 HD
ATOM     52  C   UNL A   1      40.186  30.006  30.392  1.00  0.00     0.031 A 
ATOM     53  C   UNL A   1      45.519  27.989  26.366  1.00  0.00     0.031 A 
ATOM     54  C   UNL A   1      41.244  30.972  30.265  1.00  0.00     0.049 A 
ATOM     55  C   UNL A   1      45.462  29.366  26.981  1.00  0.00     0.074 A 
ATOM     56  C   UNL A   1      41.347  32.219  30.856  1.00  0.00     0.029 A 
ATOM     57  N   UNL A   1      42.377  30.802  29.487  1.00  0.00    -0.354 N 
ATOM     58  N   UNL A   1      44.556  29.882  27.778  1.00  0.00    -0.248 NA
ATOM     59  C   UNL A   1      46.569  30.281  26.663  1.00  0.00     0.031 C 
ATOM     60  C   UNL A   1      42.509  32.833  30.380  1.00  0.00     0.029 A 
ATOM     61  C   UNL A   1      43.169  31.936  29.555  1.00  0.00     0.049 A 
ATOM     62  H   UNL A   1      42.587  29.996  28.961  1.00  0.00     0.167 HD
ATOM     63  C   UNL A   1      45.006  31.162  28.087  1.00  0.00     0.074 A 
ATOM     64  C   UNL A   1      46.267  31.341  27.400  1.00  0.00     0.031 C 
ATOM     65  C   UNL A   1      44.428  32.102  28.875  1.00  0.00     0.031 A 
BRANCH  52  66
ATOM     66  C   UNL A   1      38.987  30.364  31.225  1.00  0.00    -0.014 A 
ATOM     67  C   UNL A   1      37.818  30.880  30.644  1.00  0.00     0.009 A 
ATOM     68  C   UNL A   1      39.021  30.157  32.613  1.00  0.00     0.009 A 
ATOM     69  C   UNL A   1      36.723  31.219  31.442  1.00  0.00     0.001 A 
ATOM     70  C   UNL A   1      37.914  30.467  33.404  1.00  0.00     0.001 A 
ATOM     71  C   UNL A   1      36.770  31.007  32.820  1.00  0.00     0.000 A 
ENDBRANCH  52  66
BRANCH  53  72
ATOM     72  C   UNL A   1      46.662  27.612  25.489  1.00  0.00    -0.014 A 
ATOM     73  C   UNL A   1      46.652  27.928  24.122  1.00  0.00     0.009 A 
ATOM     74  C   UNL A   1      47.749  26.890  26.009  1.00  0.00     0.009 A 
ATOM     75  C   UNL A   1      47.689  27.502  23.288  1.00  0.00     0.001 A 
ATOM     76  C   UNL A   1      48.801  26.495  25.180  1.00  0.00     0.001 A 
ATOM     77  C   UNL A   1      48.765  26.790  23.818  1.00  0.00     0.000 A 
ENDBRANCH  53  72
BRANCH  65  78
ATOM     78  C   UNL A   1      45.176  33.391  29.091  1.00  0.00    -0.014 A 
ATOM     79  C   UNL A   1      45.026  34.487  28.228  1.00  0.00     0.009 A 
ATOM     80  C   UNL A   1      46.006  33.525  30.218  1.00  0.00     0.009 A 
ATOM     81  C   UNL A   1      45.715  35.678  28.471  1.00  0.00     0.001 A 
ATOM     82  C   UNL A   1      46.667  34.727  30.476  1.00  0.00     0.001 A 
ATOM     83  C   UNL A   1      46.529  35.799  29.598  1.00  0.00     0.000 A 
ENDBRANCH  65  78
ENDBRANCH  39  40
ENDBRANCH  32  34
ENDBRANCH  31  32
ENDBRANCH  30  31
ENDBRANCH  29  30
ENDBRANCH  28  29
ENDBRANCH  27  28
ENDBRANCH   1  27
TORSDOF 20
ENDMDL
MODEL 3
REMARK VINA RESULT:     -10.1      2.830      8.280
REMARK SMILES CS(=O)(=O)c1ccc(/C=C(/C(=O)OCCOCCOCCOC(=O)c2ccc(-c3c4nc(c(-c5ccccc5)c5ccc([nH]5)c(-c5ccccc5)c5nc(c(-c6ccccc6)c6ccc3[nH]6)C=C5)C=C4)cc2)c2ccc(F)cc2)cc1
REMARK SMILES IDX 17 1 16 2 15 3 14 4 13 5 11 6 12 7 10 8 9 9 8 10 5 11 6 12
REMARK SMILES IDX 81 13 7 14 80 15 2 16 1 17 3 18 4 19 73 20 74 21 79 22 75 23
REMARK SMILES IDX 78 24 76 25 77 26 18 27 19 28 20 29 21 30 22 31 23 32 24 33
REMARK SMILES IDX 25 34 26 35 72 36 27 37 71 38 28 39 29 40 30 41 65 42 31 43
REMARK SMILES IDX 70 44 64 45 66 46 32 47 69 48 63 49 62 50 33 52 55 53 40 54
REMARK SMILES IDX 54 55 41 56 44 57 53 58 67 59 42 60 43 61 52 63 68 64 45 65
REMARK SMILES IDX 34 66 35 67 39 68 36 69 38 70 37 71 56 72 57 73 61 74 58 75
REMARK SMILES IDX 60 76 59 77 46 78 47 79 51 80 48 81 50 82 49 83
REMARK H PARENT 66 51 44 62
REMARK Flexibility Score: inf
ROOT
ATOM      1  C   UNL A   1      35.619  22.288  25.524  1.00  0.00     0.188 C 
ENDROOT
BRANCH   1   2
ATOM      2  O   UNL A   1      34.627  21.289  25.396  1.00  0.00    -0.376 OA
BRANCH   2   3
ATOM      3  C   UNL A   1      33.912  20.967  26.579  1.00  0.00     0.202 C 
BRANCH   3   4
ATOM      4  C   UNL A   1      33.855  22.011  27.712  1.00  0.00     0.261 C 
BRANCH   4   5
ATOM      5  O   UNL A   1      33.288  23.295  27.386  1.00  0.00    -0.460 OA
BRANCH   5   6
ATOM      6  C   UNL A   1      31.969  23.354  27.078  1.00  0.00     0.338 C 
ATOM      7  O   UNL A   1      31.077  22.823  27.722  1.00  0.00    -0.246 OA
BRANCH   6   8
ATOM      8  C   UNL A   1      31.724  24.280  25.913  1.00  0.00     0.067 C 
ATOM      9  C   UNL A   1      30.967  25.397  26.072  1.00  0.00     0.024 C 
BRANCH   9  10
ATOM     10  C   UNL A   1      30.718  26.495  25.099  1.00  0.00    -0.025 A 
ATOM     11  C   UNL A   1      29.839  28.651  23.521  1.00  0.00     0.067 A 
ATOM     12  C   UNL A   1      30.967  28.798  24.323  1.00  0.00     0.021 A 
ATOM     13  C   UNL A   1      29.227  27.404  23.394  1.00  0.00     0.021 A 
ATOM     14  C   UNL A   1      31.421  27.709  25.075  1.00  0.00     0.009 A 
ATOM     15  C   UNL A   1      29.670  26.332  24.180  1.00  0.00     0.009 A 
BRANCH  11  16
ATOM     16  S   UNL A   1      29.143  30.068  22.705  1.00  0.00     0.175 S 
ATOM     17  C   UNL A   1      27.394  29.755  22.661  1.00  0.00     0.163 C 
ATOM     18  O   UNL A   1      29.609  30.048  21.330  1.00  0.00    -0.224 OA
ATOM     19  O   UNL A   1      29.384  31.211  23.562  1.00  0.00    -0.224 OA
ENDBRANCH  11  16
ENDBRANCH   9  10
BRANCH   8  20
ATOM     20  C   UNL A   1      32.328  23.923  24.608  1.00  0.00    -0.011 A 
ATOM     21  C   UNL A   1      31.901  22.757  23.945  1.00  0.00     0.012 A 
ATOM     22  C   UNL A   1      33.204  24.799  23.952  1.00  0.00     0.012 A 
ATOM     23  C   UNL A   1      32.304  22.497  22.635  1.00  0.00     0.040 A 
ATOM     24  C   UNL A   1      33.595  24.542  22.636  1.00  0.00     0.040 A 
ATOM     25  C   UNL A   1      33.135  23.401  21.988  1.00  0.00     0.123 A 
ATOM     26  F   UNL A   1      33.473  23.184  20.711  1.00  0.00    -0.207 F 
ENDBRANCH   8  20
ENDBRANCH   6   8
ENDBRANCH   5   6
ENDBRANCH   4   5
ENDBRANCH   3   4
ENDBRANCH   2   3
ENDBRANCH   1   2
BRANCH   1  27
ATOM     27  C   UNL A   1      36.854  22.040  24.633  1.00  0.00     0.188 C 
BRANCH  27  28
ATOM     28  O   UNL A   1      37.622  20.856  24.786  1.00  0.00    -0.376 OA
BRANCH  28  29
ATOM     29  C   UNL A   1      38.865  20.920  25.469  1.00  0.00     0.202 C 
BRANCH  29  30
ATOM     30  C   UNL A   1      39.715  19.650  25.677  1.00  0.00     0.261 C 
BRANCH  30  31
ATOM     31  O   UNL A   1      40.817  19.750  26.596  1.00  0.00    -0.460 OA
BRANCH  31  32
ATOM     32  C   UNL A   1      42.030  19.995  26.045  1.00  0.00     0.338 C 
ATOM     33  O   UNL A   1      42.625  19.306  25.227  1.00  0.00    -0.246 OA
BRANCH  32  34
ATOM     34  C   UNL A   1      42.486  21.347  26.432  1.00  0.00     0.060 A 
ATOM     35  C   UNL A   1      42.543  21.678  27.795  1.00  0.00     0.016 A 
ATOM     36  C   UNL A   1      42.807  22.298  25.464  1.00  0.00     0.016 A 
ATOM     37  C   UNL A   1      42.913  22.962  28.194  1.00  0.00     0.010 A 
ATOM     38  C   UNL A   1      43.144  23.595  25.864  1.00  0.00     0.010 A 
ATOM     39  C   UNL A   1      43.177  23.941  27.228  1.00  0.00    -0.014 A 
BRANCH  39  40
ATOM     40  C   UNL A   1      43.289  25.366  27.626  1.00  0.00     0.031 A 
ATOM     41  C   UNL A   1      44.661  25.944  27.835  1.00  0.00     0.074 A 
ATOM     42  C   UNL A   1      42.201  26.137  27.803  1.00  0.00     0.049 A 
ATOM     43  N   UNL A   1      45.007  27.126  28.275  1.00  0.00    -0.248 NA
ATOM     44  C   UNL A   1      45.795  25.066  27.502  1.00  0.00     0.031 C 
ATOM     45  C   UNL A   1      40.819  25.726  27.572  1.00  0.00     0.029 A 
ATOM     46  N   UNL A   1      42.100  27.437  28.238  1.00  0.00    -0.354 N 
ATOM     47  C   UNL A   1      46.397  27.130  28.285  1.00  0.00     0.074 A 
ATOM     48  C   UNL A   1      46.828  25.828  27.825  1.00  0.00     0.031 C 
ATOM     49  C   UNL A   1      40.004  26.751  27.881  1.00  0.00     0.029 A 
ATOM     50  C   UNL A   1      40.804  27.871  28.377  1.00  0.00     0.049 A 
ATOM     51  H   UNL A   1      42.882  28.004  28.430  1.00  0.00     0.167 HD
ATOM     52  C   UNL A   1      47.239  28.125  28.649  1.00  0.00     0.031 A 
ATOM     53  C   UNL A   1      40.321  29.023  28.882  1.00  0.00     0.031 A 
ATOM     54  C   UNL A   1      46.814  29.409  29.139  1.00  0.00     0.049 A 
ATOM     55  C   UNL A   1      41.278  30.075  29.387  1.00  0.00     0.074 A 
ATOM     56  C   UNL A   1      47.595  30.481  29.537  1.00  0.00     0.029 A 
ATOM     57  N   UNL A   1      45.493  29.791  29.308  1.00  0.00    -0.354 N 
ATOM     58  N   UNL A   1      42.590  30.074  29.384  1.00  0.00    -0.248 NA
ATOM     59  C   UNL A   1      40.683  31.290  29.966  1.00  0.00     0.031 C 
ATOM     60  C   UNL A   1      46.748  31.485  30.012  1.00  0.00     0.029 A 
ATOM     61  C   UNL A   1      45.437  31.069  29.836  1.00  0.00     0.049 A 
ATOM     62  H   UNL A   1      44.712  29.235  29.088  1.00  0.00     0.167 HD
ATOM     63  C   UNL A   1      42.974  31.299  29.921  1.00  0.00     0.074 A 
ATOM     64  C   UNL A   1      41.758  32.021  30.230  1.00  0.00     0.031 C 
ATOM     65  C   UNL A   1      44.222  31.785  30.132  1.00  0.00     0.031 A 
BRANCH  52  66
ATOM     66  C   UNL A   1      48.713  27.837  28.583  1.00  0.00    -0.014 A 
ATOM     67  C   UNL A   1      49.399  27.269  29.669  1.00  0.00     0.009 A 
ATOM     68  C   UNL A   1      49.422  28.116  27.404  1.00  0.00     0.009 A 
ATOM     69  C   UNL A   1      50.771  27.026  29.588  1.00  0.00     0.001 A 
ATOM     70  C   UNL A   1      50.786  27.841  27.314  1.00  0.00     0.001 A 
ATOM     71  C   UNL A   1      51.463  27.306  28.409  1.00  0.00     0.000 A 
ENDBRANCH  52  66
BRANCH  53  72
ATOM     72  C   UNL A   1      38.852  29.245  28.979  1.00  0.00    -0.014 A 
ATOM     73  C   UNL A   1      38.134  29.778  27.898  1.00  0.00     0.009 A 
ATOM     74  C   UNL A   1      38.168  28.967  30.173  1.00  0.00     0.009 A 
ATOM     75  C   UNL A   1      36.771  30.059  28.020  1.00  0.00     0.001 A 
ATOM     76  C   UNL A   1      36.798  29.215  30.282  1.00  0.00     0.001 A 
ATOM     77  C   UNL A   1      36.103  29.773  29.210  1.00  0.00     0.000 A 
ENDBRANCH  53  72
BRANCH  65  78
ATOM     78  C   UNL A   1      44.347  33.185  30.670  1.00  0.00    -0.014 A 
ATOM     79  C   UNL A   1      44.475  33.441  32.044  1.00  0.00     0.009 A 
ATOM     80  C   UNL A   1      44.394  34.266  29.773  1.00  0.00     0.009 A 
ATOM     81  C   UNL A   1      44.615  34.751  32.509  1.00  0.00     0.001 A 
ATOM     82  C   UNL A   1      44.567  35.570  30.238  1.00  0.00     0.001 A 
ATOM     83  C   UNL A   1      44.667  35.813  31.606  1.00  0.00     0.000 A 
ENDBRANCH  65  78
ENDBRANCH  39  40
ENDBRANCH  32  34
ENDBRANCH  31  32
ENDBRANCH  30  31
ENDBRANCH  29  30
ENDBRANCH  28  29
ENDBRANCH  27  28
ENDBRANCH   1  27
TORSDOF 20
ENDMDL
