MODEL 1
REMARK VINA RESULT:     -11.2      0.000      0.000
REMARK SMILES COc1ccc(-n2ccnc2C[N@@H+]2CCn3nc(C(=O)OCCOCCOCCOC(=O)c4ccc(-c5c6nc(c(-c7ccccc7)c7ccc([nH]7)c(-c7ccccc7)c7nc(c(-c8ccccc8)c8ccc5[nH]8)C=C7)C=C6)cc4)cc3C2)cc1
REMARK SMILES IDX 25 1 24 2 23 3 22 4 21 5 19 6 20 7 18 8 13 9 14 10 83 11
REMARK SMILES IDX 15 13 82 14 16 15 81 16 17 17 12 18 11 19 7 20 8 21 9 22
REMARK SMILES IDX 10 23 6 24 3 25 4 26 85 27 5 28 84 29 2 30 1 31 26 32 27 33
REMARK SMILES IDX 28 34 29 35 30 36 31 37 32 38 33 39 34 40 80 41 35 42 79 43
REMARK SMILES IDX 36 44 37 45 38 46 73 47 39 48 78 49 72 50 74 51 40 52 77 53
REMARK SMILES IDX 71 54 70 55 41 57 63 58 48 59 62 60 49 61 52 62 61 63 75 64
REMARK SMILES IDX 50 65 51 66 60 68 76 69 53 70 42 71 43 72 47 73 44 74 46 75
REMARK SMILES IDX 45 76 64 77 65 78 69 79 66 80 68 81 67 82 54 83 55 84 59 85
REMARK SMILES IDX 56 86 58 87 57 88
REMARK H PARENT 13 12 74 56 52 67
REMARK Flexibility Score: inf
ROOT
ATOM      1  C   UNL A   1      38.950  22.140  26.065  1.00  0.00     0.188 C 
ENDROOT
BRANCH   1   2
ATOM      2  O   UNL A   1      37.831  21.469  25.533  1.00  0.00    -0.376 OA
BRANCH   2   3
ATOM      3  C   UNL A   1      36.577  22.079  25.762  1.00  0.00     0.202 C 
BRANCH   3   4
ATOM      4  C   UNL A   1      36.311  23.611  25.577  1.00  0.00     0.261 C 
BRANCH   4   5
ATOM      5  O   UNL A   1      35.335  24.202  24.676  1.00  0.00    -0.458 OA
BRANCH   5   6
ATOM      6  C   UNL A   1      35.093  23.447  23.565  1.00  0.00     0.358 C 
ATOM      7  O   UNL A   1      35.988  23.307  22.737  1.00  0.00    -0.244 OA
BRANCH   6   8
ATOM      8  C   UNL A   1      33.795  22.704  23.406  1.00  0.00     0.170 A 
ATOM      9  N   UNL A   1      30.990  25.111  24.867  1.00  0.00    -0.322 N 
ATOM     10  C   UNL A   1      30.693  24.156  25.934  1.00  0.00     0.286 C 
ATOM     11  C   UNL A   1      30.718  24.456  23.540  1.00  0.00     0.319 C 
ATOM     12  H   UNL A   1      30.381  25.916  25.006  1.00  0.00     0.348 HD
ATOM     13  C   UNL A   1      31.148  22.702  25.688  1.00  0.00     0.206 C 
ATOM     14  C   UNL A   1      31.686  23.324  23.371  1.00  0.00     0.094 A 
ATOM     15  N   UNL A   1      31.943  22.559  24.474  1.00  0.00    -0.257 N 
ATOM     16  C   UNL A   1      32.744  23.105  22.500  1.00  0.00     0.067 A 
ATOM     17  N   UNL A   1      33.219  22.120  24.492  1.00  0.00    -0.165 NA
BRANCH   9  18
ATOM     18  C   UNL A   1      32.374  25.662  24.908  1.00  0.00     0.339 C 
BRANCH  18  19
ATOM     19  C   UNL A   1      32.735  27.118  25.256  1.00  0.00     0.168 A 
ATOM     20  N   UNL A   1      31.937  28.297  25.134  1.00  0.00    -0.299 N 
ATOM     21  C   UNL A   1      32.206  29.044  26.264  1.00  0.00     0.113 A 
ATOM     22  C   UNL A   1      33.249  28.431  26.898  1.00  0.00     0.132 A 
ATOM     23  N   UNL A   1      33.628  27.308  26.227  1.00  0.00    -0.236 NA
BRANCH  20  24
ATOM     24  C   UNL A   1      31.019  28.789  24.151  1.00  0.00     0.047 A 
ATOM     25  C   UNL A   1      29.094  29.731  22.329  1.00  0.00     0.119 A 
ATOM     26  C   UNL A   1      29.397  30.480  23.454  1.00  0.00     0.048 A 
ATOM     27  C   UNL A   1      29.911  28.648  21.999  1.00  0.00     0.048 A 
ATOM     28  C   UNL A   1      30.428  30.055  24.299  1.00  0.00     0.030 A 
ATOM     29  C   UNL A   1      30.862  28.158  22.920  1.00  0.00     0.030 A 
BRANCH  25  30
ATOM     30  O   UNL A   1      28.034  30.145  21.570  1.00  0.00    -0.497 OA
ATOM     31  C   UNL A   1      28.203  31.475  21.073  1.00  0.00     0.278 C 
ENDBRANCH  25  30
ENDBRANCH  20  24
ENDBRANCH  18  19
ENDBRANCH   9  18
ENDBRANCH   6   8
ENDBRANCH   5   6
ENDBRANCH   4   5
ENDBRANCH   3   4
ENDBRANCH   2   3
ENDBRANCH   1   2
BRANCH   1  32
ATOM     32  C   UNL A   1      40.189  21.244  26.134  1.00  0.00     0.188 C 
BRANCH  32  33
ATOM     33  O   UNL A   1      40.829  20.901  27.364  1.00  0.00    -0.376 OA
BRANCH  33  34
ATOM     34  C   UNL A   1      41.925  19.987  27.444  1.00  0.00     0.202 C 
BRANCH  34  35
ATOM     35  C   UNL A   1      42.389  19.239  26.192  1.00  0.00     0.261 C 
BRANCH  35  36
ATOM     36  O   UNL A   1      42.842  20.112  25.185  1.00  0.00    -0.460 OA
BRANCH  36  37
ATOM     37  C   UNL A   1      44.176  20.015  24.996  1.00  0.00     0.338 C 
ATOM     38  O   UNL A   1      44.868  19.024  25.004  1.00  0.00    -0.246 OA
BRANCH  37  39
ATOM     39  C   UNL A   1      44.679  21.367  24.729  1.00  0.00     0.060 A 
ATOM     40  C   UNL A   1      45.887  21.693  25.347  1.00  0.00     0.016 A 
ATOM     41  C   UNL A   1      43.804  22.316  24.196  1.00  0.00     0.016 A 
ATOM     42  C   UNL A   1      45.989  22.958  25.843  1.00  0.00     0.010 A 
ATOM     43  C   UNL A   1      43.893  23.570  24.706  1.00  0.00     0.010 A 
ATOM     44  C   UNL A   1      44.888  23.790  25.651  1.00  0.00    -0.014 A 
BRANCH  44  45
ATOM     45  C   UNL A   1      44.709  24.872  26.574  1.00  0.00     0.031 A 
ATOM     46  C   UNL A   1      45.819  25.821  26.515  1.00  0.00     0.074 A 
ATOM     47  C   UNL A   1      43.588  24.969  27.312  1.00  0.00     0.049 A 
ATOM     48  N   UNL A   1      46.794  25.910  27.350  1.00  0.00    -0.248 NA
ATOM     49  C   UNL A   1      46.004  26.564  25.259  1.00  0.00     0.031 C 
ATOM     50  C   UNL A   1      42.338  24.207  27.207  1.00  0.00     0.029 A 
ATOM     51  N   UNL A   1      43.299  25.888  28.259  1.00  0.00    -0.354 N 
ATOM     52  C   UNL A   1      47.608  26.897  26.824  1.00  0.00     0.074 A 
ATOM     53  C   UNL A   1      47.233  27.044  25.441  1.00  0.00     0.031 C 
ATOM     54  C   UNL A   1      41.361  24.874  27.868  1.00  0.00     0.029 A 
ATOM     55  C   UNL A   1      41.949  26.024  28.535  1.00  0.00     0.049 A 
ATOM     56  H   UNL A   1      43.992  26.418  28.716  1.00  0.00     0.167 HD
ATOM     57  C   UNL A   1      48.265  27.761  27.638  1.00  0.00     0.031 A 
ATOM     58  C   UNL A   1      41.383  27.077  29.178  1.00  0.00     0.031 A 
ATOM     59  C   UNL A   1      48.287  27.295  29.002  1.00  0.00     0.049 A 
ATOM     60  C   UNL A   1      42.474  27.801  29.886  1.00  0.00     0.074 A 
ATOM     61  C   UNL A   1      48.776  26.166  29.629  1.00  0.00     0.029 A 
ATOM     62  N   UNL A   1      47.357  27.839  29.858  1.00  0.00    -0.354 N 
ATOM     63  N   UNL A   1      43.119  27.300  30.902  1.00  0.00    -0.248 NA
ATOM     64  C   UNL A   1      43.182  28.849  29.162  1.00  0.00     0.031 C 
ATOM     65  C   UNL A   1      47.808  25.843  30.622  1.00  0.00     0.029 A 
ATOM     66  C   UNL A   1      46.813  26.823  30.602  1.00  0.00     0.049 A 
ATOM     67  H   UNL A   1      47.122  28.794  29.926  1.00  0.00     0.167 HD
ATOM     68  C   UNL A   1      44.450  27.633  30.681  1.00  0.00     0.074 A 
ATOM     69  C   UNL A   1      44.415  28.671  29.650  1.00  0.00     0.031 C 
ATOM     70  C   UNL A   1      45.460  26.826  31.122  1.00  0.00     0.031 A 
BRANCH  57  71
ATOM     71  C   UNL A   1      48.470  29.203  27.271  1.00  0.00    -0.014 A 
ATOM     72  C   UNL A   1      49.781  29.676  27.134  1.00  0.00     0.009 A 
ATOM     73  C   UNL A   1      47.443  30.170  27.309  1.00  0.00     0.009 A 
ATOM     74  C   UNL A   1      50.049  31.048  27.086  1.00  0.00     0.001 A 
ATOM     75  C   UNL A   1      47.701  31.535  27.214  1.00  0.00     0.001 A 
ATOM     76  C   UNL A   1      49.011  31.976  27.130  1.00  0.00     0.000 A 
ENDBRANCH  57  71
BRANCH  58  77
ATOM     77  C   UNL A   1      40.055  27.688  28.942  1.00  0.00    -0.014 A 
ATOM     78  C   UNL A   1      39.140  27.843  29.995  1.00  0.00     0.009 A 
ATOM     79  C   UNL A   1      39.784  28.365  27.738  1.00  0.00     0.009 A 
ATOM     80  C   UNL A   1      38.018  28.675  29.859  1.00  0.00     0.001 A 
ATOM     81  C   UNL A   1      38.663  29.192  27.601  1.00  0.00     0.001 A 
ATOM     82  C   UNL A   1      37.788  29.359  28.668  1.00  0.00     0.000 A 
ENDBRANCH  58  77
BRANCH  70  83
ATOM     83  C   UNL A   1      45.097  25.685  32.044  1.00  0.00    -0.014 A 
ATOM     84  C   UNL A   1      45.119  25.791  33.448  1.00  0.00     0.009 A 
ATOM     85  C   UNL A   1      44.564  24.520  31.476  1.00  0.00     0.009 A 
ATOM     86  C   UNL A   1      44.649  24.747  34.253  1.00  0.00     0.001 A 
ATOM     87  C   UNL A   1      44.075  23.488  32.280  1.00  0.00     0.001 A 
ATOM     88  C   UNL A   1      44.122  23.598  33.667  1.00  0.00     0.000 A 
ENDBRANCH  70  83
ENDBRANCH  44  45
ENDBRANCH  37  39
ENDBRANCH  36  37
ENDBRANCH  35  36
ENDBRANCH  34  35
ENDBRANCH  33  34
ENDBRANCH  32  33
ENDBRANCH   1  32
TORSDOF 21
ENDMDL
MODEL 2
REMARK VINA RESULT:     -10.9      1.687      2.405
REMARK SMILES COc1ccc(-n2ccnc2C[N@@H+]2CCn3nc(C(=O)OCCOCCOCCOC(=O)c4ccc(-c5c6nc(c(-c7ccccc7)c7ccc([nH]7)c(-c7ccccc7)c7nc(c(-c8ccccc8)c8ccc5[nH]8)C=C7)C=C6)cc4)cc3C2)cc1
REMARK SMILES IDX 25 1 24 2 23 3 22 4 21 5 19 6 20 7 18 8 13 9 14 10 83 11
REMARK SMILES IDX 15 13 82 14 16 15 81 16 17 17 12 18 11 19 7 20 8 21 9 22
REMARK SMILES IDX 10 23 6 24 3 25 4 26 85 27 5 28 84 29 2 30 1 31 26 32 27 33
REMARK SMILES IDX 28 34 29 35 30 36 31 37 32 38 33 39 34 40 80 41 35 42 79 43
REMARK SMILES IDX 36 44 37 45 38 46 73 47 39 48 78 49 72 50 74 51 40 52 77 53
REMARK SMILES IDX 71 54 70 55 41 57 63 58 48 59 62 60 49 61 52 62 61 63 75 64
REMARK SMILES IDX 50 65 51 66 60 68 76 69 53 70 42 71 43 72 47 73 44 74 46 75
REMARK SMILES IDX 45 76 64 77 65 78 69 79 66 80 68 81 67 82 54 83 55 84 59 85
REMARK SMILES IDX 56 86 58 87 57 88
REMARK H PARENT 13 12 74 56 52 67
REMARK Flexibility Score: inf
ROOT
ATOM      1  C   UNL A   1      39.998  20.415  26.148  1.00  0.00     0.188 C 
ENDROOT
BRANCH   1   2
ATOM      2  O   UNL A   1      39.664  21.548  26.916  1.00  0.00    -0.376 OA
BRANCH   2   3
ATOM      3  C   UNL A   1      38.964  22.571  26.237  1.00  0.00     0.202 C 
BRANCH   3   4
ATOM      4  C   UNL A   1      37.847  22.299  25.174  1.00  0.00     0.261 C 
BRANCH   4   5
ATOM      5  O   UNL A   1      36.958  23.296  24.599  1.00  0.00    -0.458 OA
BRANCH   5   6
ATOM      6  C   UNL A   1      35.837  23.520  25.345  1.00  0.00     0.358 C 
ATOM      7  O   UNL A   1      35.492  24.677  25.565  1.00  0.00    -0.244 OA
BRANCH   6   8
ATOM      8  C   UNL A   1      34.971  22.375  25.796  1.00  0.00     0.170 A 
ATOM      9  N   UNL A   1      31.224  23.576  25.239  1.00  0.00    -0.322 N 
ATOM     10  C   UNL A   1      30.969  23.527  26.678  1.00  0.00     0.286 C 
ATOM     11  C   UNL A   1      31.587  22.195  24.763  1.00  0.00     0.319 C 
ATOM     12  H   UNL A   1      30.367  23.900  24.793  1.00  0.00     0.348 HD
ATOM     13  C   UNL A   1      31.939  22.659  27.508  1.00  0.00     0.206 C 
ATOM     14  C   UNL A   1      32.884  21.806  25.406  1.00  0.00     0.094 A 
ATOM     15  N   UNL A   1      33.051  22.145  26.718  1.00  0.00    -0.257 N 
ATOM     16  C   UNL A   1      34.159  21.581  24.905  1.00  0.00     0.067 A 
ATOM     17  N   UNL A   1      34.337  22.447  26.998  1.00  0.00    -0.165 NA
BRANCH   9  18
ATOM     18  C   UNL A   1      32.265  24.562  24.836  1.00  0.00     0.339 C 
BRANCH  18  19
ATOM     19  C   UNL A   1      32.085  25.646  23.757  1.00  0.00     0.168 A 
ATOM     20  N   UNL A   1      32.588  26.982  23.731  1.00  0.00    -0.299 N 
ATOM     21  C   UNL A   1      32.983  27.204  22.426  1.00  0.00     0.113 A 
ATOM     22  C   UNL A   1      32.545  26.135  21.699  1.00  0.00     0.132 A 
ATOM     23  N   UNL A   1      31.916  25.231  22.501  1.00  0.00    -0.236 NA
BRANCH  20  24
ATOM     24  C   UNL A   1      32.729  28.019  24.709  1.00  0.00     0.047 A 
ATOM     25  C   UNL A   1      32.988  30.166  26.508  1.00  0.00     0.119 A 
ATOM     26  C   UNL A   1      31.765  29.919  25.909  1.00  0.00     0.048 A 
ATOM     27  C   UNL A   1      34.002  29.212  26.393  1.00  0.00     0.048 A 
ATOM     28  C   UNL A   1      31.619  28.788  25.098  1.00  0.00     0.030 A 
ATOM     29  C   UNL A   1      33.885  28.146  25.474  1.00  0.00     0.030 A 
BRANCH  25  30
ATOM     30  O   UNL A   1      33.106  31.318  27.236  1.00  0.00    -0.497 OA
ATOM     31  C   UNL A   1      34.312  31.360  28.004  1.00  0.00     0.278 C 
ENDBRANCH  25  30
ENDBRANCH  20  24
ENDBRANCH  18  19
ENDBRANCH   9  18
ENDBRANCH   6   8
ENDBRANCH   5   6
ENDBRANCH   4   5
ENDBRANCH   3   4
ENDBRANCH   2   3
ENDBRANCH   1   2
BRANCH   1  32
ATOM     32  C   UNL A   1      41.455  19.988  26.341  1.00  0.00     0.188 C 
BRANCH  32  33
ATOM     33  O   UNL A   1      42.014  18.834  25.711  1.00  0.00    -0.376 OA
BRANCH  33  34
ATOM     34  C   UNL A   1      43.393  18.476  25.823  1.00  0.00     0.202 C 
BRANCH  34  35
ATOM     35  C   UNL A   1      44.371  18.842  24.705  1.00  0.00     0.261 C 
BRANCH  35  36
ATOM     36  O   UNL A   1      44.282  20.198  24.339  1.00  0.00    -0.460 OA
BRANCH  36  37
ATOM     37  C   UNL A   1      45.422  20.870  24.612  1.00  0.00     0.338 C 
ATOM     38  O   UNL A   1      46.478  20.434  25.008  1.00  0.00    -0.246 OA
BRANCH  37  39
ATOM     39  C   UNL A   1      45.181  22.284  24.302  1.00  0.00     0.060 A 
ATOM     40  C   UNL A   1      46.289  23.123  24.417  1.00  0.00     0.016 A 
ATOM     41  C   UNL A   1      43.864  22.746  24.257  1.00  0.00     0.016 A 
ATOM     42  C   UNL A   1      46.061  24.355  24.954  1.00  0.00     0.010 A 
ATOM     43  C   UNL A   1      43.634  23.964  24.811  1.00  0.00     0.010 A 
ATOM     44  C   UNL A   1      44.742  24.646  25.299  1.00  0.00    -0.014 A 
BRANCH  44  45
ATOM     45  C   UNL A   1      44.528  25.629  26.319  1.00  0.00     0.031 A 
ATOM     46  C   UNL A   1      45.549  26.675  26.282  1.00  0.00     0.074 A 
ATOM     47  C   UNL A   1      43.450  25.567  27.120  1.00  0.00     0.049 A 
ATOM     48  N   UNL A   1      46.561  26.783  27.069  1.00  0.00    -0.248 NA
ATOM     49  C   UNL A   1      45.595  27.530  25.086  1.00  0.00     0.031 C 
ATOM     50  C   UNL A   1      42.264  24.708  27.018  1.00  0.00     0.029 A 
ATOM     51  N   UNL A   1      43.142  26.378  28.156  1.00  0.00    -0.354 N 
ATOM     52  C   UNL A   1      47.255  27.879  26.586  1.00  0.00     0.074 A 
ATOM     53  C   UNL A   1      46.787  28.102  25.243  1.00  0.00     0.031 C 
ATOM     54  C   UNL A   1      41.276  25.229  27.784  1.00  0.00     0.029 A 
ATOM     55  C   UNL A   1      41.804  26.371  28.514  1.00  0.00     0.049 A 
ATOM     56  H   UNL A   1      43.814  26.929  28.619  1.00  0.00     0.167 HD
ATOM     57  C   UNL A   1      47.886  28.729  27.435  1.00  0.00     0.031 A 
ATOM     58  C   UNL A   1      41.191  27.314  29.273  1.00  0.00     0.031 A 
ATOM     59  C   UNL A   1      48.029  28.159  28.751  1.00  0.00     0.049 A 
ATOM     60  C   UNL A   1      42.258  28.072  29.982  1.00  0.00     0.074 A 
ATOM     61  C   UNL A   1      48.648  27.031  29.253  1.00  0.00     0.029 A 
ATOM     62  N   UNL A   1      47.109  28.548  29.699  1.00  0.00    -0.354 N 
ATOM     63  N   UNL A   1      43.003  27.551  30.916  1.00  0.00    -0.248 NA
ATOM     64  C   UNL A   1      42.830  29.234  29.314  1.00  0.00     0.031 C 
ATOM     65  C   UNL A   1      47.772  26.545  30.265  1.00  0.00     0.029 A 
ATOM     66  C   UNL A   1      46.699  27.431  30.381  1.00  0.00     0.049 A 
ATOM     67  H   UNL A   1      46.800  29.469  29.860  1.00  0.00     0.167 HD
ATOM     68  C   UNL A   1      44.285  28.018  30.654  1.00  0.00     0.074 A 
ATOM     69  C   UNL A   1      44.101  29.128  29.718  1.00  0.00     0.031 C 
ATOM     70  C   UNL A   1      45.385  27.271  30.970  1.00  0.00     0.031 A 
BRANCH  57  71
ATOM     71  C   UNL A   1      47.945  30.209  27.182  1.00  0.00    -0.014 A 
ATOM     72  C   UNL A   1      49.195  30.840  27.215  1.00  0.00     0.009 A 
ATOM     73  C   UNL A   1      46.808  31.044  27.170  1.00  0.00     0.009 A 
ATOM     74  C   UNL A   1      49.295  32.234  27.281  1.00  0.00     0.001 A 
ATOM     75  C   UNL A   1      46.904  32.433  27.189  1.00  0.00     0.001 A 
ATOM     76  C   UNL A   1      48.151  33.028  27.271  1.00  0.00     0.000 A 
ENDBRANCH  57  71
BRANCH  58  77
ATOM     77  C   UNL A   1      39.805  27.821  29.161  1.00  0.00    -0.014 A 
ATOM     78  C   UNL A   1      38.974  27.894  30.290  1.00  0.00     0.009 A 
ATOM     79  C   UNL A   1      39.380  28.486  27.996  1.00  0.00     0.009 A 
ATOM     80  C   UNL A   1      37.783  28.636  30.264  1.00  0.00     0.001 A 
ATOM     81  C   UNL A   1      38.190  29.224  27.968  1.00  0.00     0.001 A 
ATOM     82  C   UNL A   1      37.400  29.312  29.108  1.00  0.00     0.000 A 
ENDBRANCH  58  77
BRANCH  70  83
ATOM     83  C   UNL A   1      45.175  26.033  31.810  1.00  0.00    -0.014 A 
ATOM     84  C   UNL A   1      45.294  26.022  33.213  1.00  0.00     0.009 A 
ATOM     85  C   UNL A   1      44.687  24.880  31.178  1.00  0.00     0.009 A 
ATOM     86  C   UNL A   1      44.963  24.880  33.952  1.00  0.00     0.001 A 
ATOM     87  C   UNL A   1      44.335  23.749  31.918  1.00  0.00     0.001 A 
ATOM     88  C   UNL A   1      44.478  23.747  33.304  1.00  0.00     0.000 A 
ENDBRANCH  70  83
ENDBRANCH  44  45
ENDBRANCH  37  39
ENDBRANCH  36  37
ENDBRANCH  35  36
ENDBRANCH  34  35
ENDBRANCH  33  34
ENDBRANCH  32  33
ENDBRANCH   1  32
TORSDOF 21
ENDMDL
MODEL 3
REMARK VINA RESULT:     -10.8      3.794      7.818
REMARK SMILES COc1ccc(-n2ccnc2C[N@@H+]2CCn3nc(C(=O)OCCOCCOCCOC(=O)c4ccc(-c5c6nc(c(-c7ccccc7)c7ccc([nH]7)c(-c7ccccc7)c7nc(c(-c8ccccc8)c8ccc5[nH]8)C=C7)C=C6)cc4)cc3C2)cc1
REMARK SMILES IDX 25 1 24 2 23 3 22 4 21 5 19 6 20 7 18 8 13 9 14 10 83 11
REMARK SMILES IDX 15 13 82 14 16 15 81 16 17 17 12 18 11 19 7 20 8 21 9 22
REMARK SMILES IDX 10 23 6 24 3 25 4 26 85 27 5 28 84 29 2 30 1 31 26 32 27 33
REMARK SMILES IDX 28 34 29 35 30 36 31 37 32 38 33 39 34 40 80 41 35 42 79 43
REMARK SMILES IDX 36 44 37 45 38 46 73 47 39 48 78 49 72 50 74 51 40 52 77 53
REMARK SMILES IDX 71 54 70 55 41 57 63 58 48 59 62 60 49 61 52 62 61 63 75 64
REMARK SMILES IDX 50 65 51 66 60 68 76 69 53 70 42 71 43 72 47 73 44 74 46 75
REMARK SMILES IDX 45 76 64 77 65 78 69 79 66 80 68 81 67 82 54 83 55 84 59 85
REMARK SMILES IDX 56 86 58 87 57 88
REMARK H PARENT 13 12 74 56 52 67
REMARK Flexibility Score: inf
ROOT
ATOM      1  C   UNL A   1      39.585  21.687  26.333  1.00  0.00     0.188 C 
ENDROOT
BRANCH   1   2
ATOM      2  O   UNL A   1      39.339  23.061  26.523  1.00  0.00    -0.376 OA
BRANCH   2   3
ATOM      3  C   UNL A   1      38.008  23.486  26.309  1.00  0.00     0.202 C 
BRANCH   3   4
ATOM      4  C   UNL A   1      37.362  23.633  24.890  1.00  0.00     0.261 C 
BRANCH   4   5
ATOM      5  O   UNL A   1      36.995  22.539  24.005  1.00  0.00    -0.458 OA
BRANCH   5   6
ATOM      6  C   UNL A   1      35.648  22.420  23.817  1.00  0.00     0.358 C 
ATOM      7  O   UNL A   1      35.119  23.047  22.903  1.00  0.00    -0.244 OA
BRANCH   6   8
ATOM      8  C   UNL A   1      34.839  21.454  24.637  1.00  0.00     0.170 A 
ATOM      9  N   UNL A   1      31.684  23.504  25.913  1.00  0.00    -0.322 N 
ATOM     10  C   UNL A   1      32.120  23.359  27.302  1.00  0.00     0.286 C 
ATOM     11  C   UNL A   1      31.434  22.137  25.337  1.00  0.00     0.319 C 
ATOM     12  H   UNL A   1      30.826  24.056  25.924  1.00  0.00     0.348 HD
ATOM     13  C   UNL A   1      33.117  22.213  27.581  1.00  0.00     0.206 C 
ATOM     14  C   UNL A   1      32.740  21.405  25.290  1.00  0.00     0.094 A 
ATOM     15  N   UNL A   1      33.573  21.555  26.362  1.00  0.00    -0.257 N 
ATOM     16  C   UNL A   1      33.539  20.959  24.246  1.00  0.00     0.067 A 
ATOM     17  N   UNL A   1      34.872  21.534  25.994  1.00  0.00    -0.165 NA
BRANCH   9  18
ATOM     18  C   UNL A   1      32.626  24.274  25.054  1.00  0.00     0.339 C 
BRANCH  18  19
ATOM     19  C   UNL A   1      32.227  25.075  23.801  1.00  0.00     0.168 A 
ATOM     20  N   UNL A   1      32.490  26.443  23.486  1.00  0.00    -0.299 N 
ATOM     21  C   UNL A   1      32.798  26.460  22.139  1.00  0.00     0.113 A 
ATOM     22  C   UNL A   1      32.527  25.210  21.662  1.00  0.00     0.132 A 
ATOM     23  N   UNL A   1      32.091  24.395  22.662  1.00  0.00    -0.236 NA
BRANCH  20  24
ATOM     24  C   UNL A   1      32.481  27.664  24.235  1.00  0.00     0.047 A 
ATOM     25  C   UNL A   1      32.485  29.973  25.842  1.00  0.00     0.119 A 
ATOM     26  C   UNL A   1      33.650  29.239  25.695  1.00  0.00     0.048 A 
ATOM     27  C   UNL A   1      31.400  29.691  25.009  1.00  0.00     0.048 A 
ATOM     28  C   UNL A   1      33.665  28.154  24.813  1.00  0.00     0.030 A 
ATOM     29  C   UNL A   1      31.385  28.521  24.218  1.00  0.00     0.030 A 
BRANCH  25  30
ATOM     30  O   UNL A   1      32.494  30.981  26.766  1.00  0.00    -0.497 OA
ATOM     31  C   UNL A   1      33.644  30.936  27.615  1.00  0.00     0.278 C 
ENDBRANCH  25  30
ENDBRANCH  20  24
ENDBRANCH  18  19
ENDBRANCH   9  18
ENDBRANCH   6   8
ENDBRANCH   5   6
ENDBRANCH   4   5
ENDBRANCH   3   4
ENDBRANCH   2   3
ENDBRANCH   1   2
BRANCH   1  32
ATOM     32  C   UNL A   1      40.854  21.217  27.049  1.00  0.00     0.188 C 
BRANCH  32  33
ATOM     33  O   UNL A   1      41.511  21.995  28.051  1.00  0.00    -0.376 OA
BRANCH  33  34
ATOM     34  C   UNL A   1      42.669  22.790  27.787  1.00  0.00     0.202 C 
BRANCH  34  35
ATOM     35  C   UNL A   1      42.605  23.910  26.747  1.00  0.00     0.261 C 
BRANCH  35  36
ATOM     36  O   UNL A   1      41.939  25.052  27.231  1.00  0.00    -0.460 OA
BRANCH  36  37
ATOM     37  C   UNL A   1      41.688  25.944  26.248  1.00  0.00     0.338 C 
ATOM     38  O   UNL A   1      42.220  26.043  25.167  1.00  0.00    -0.246 OA
BRANCH  37  39
ATOM     39  C   UNL A   1      40.586  26.799  26.704  1.00  0.00     0.060 A 
ATOM     40  C   UNL A   1      40.680  28.144  26.347  1.00  0.00     0.016 A 
ATOM     41  C   UNL A   1      39.738  26.322  27.706  1.00  0.00     0.016 A 
ATOM     42  C   UNL A   1      40.291  29.047  27.292  1.00  0.00     0.010 A 
ATOM     43  C   UNL A   1      39.369  27.217  28.658  1.00  0.00     0.010 A 
ATOM     44  C   UNL A   1      39.816  28.523  28.492  1.00  0.00    -0.014 A 
BRANCH  44  45
ATOM     45  C   UNL A   1      39.918  29.349  29.659  1.00  0.00     0.031 A 
ATOM     46  C   UNL A   1      38.740  30.200  29.821  1.00  0.00     0.074 A 
ATOM     47  C   UNL A   1      40.966  29.236  30.495  1.00  0.00     0.049 A 
ATOM     48  N   UNL A   1      38.656  31.452  29.535  1.00  0.00    -0.248 NA
ATOM     49  C   UNL A   1      37.455  29.531  30.073  1.00  0.00     0.031 C 
ATOM     50  C   UNL A   1      42.022  28.217  30.528  1.00  0.00     0.029 A 
ATOM     51  N   UNL A   1      41.232  29.976  31.593  1.00  0.00    -0.354 N 
ATOM     52  C   UNL A   1      37.337  31.775  29.794  1.00  0.00     0.074 A 
ATOM     53  C   UNL A   1      36.610  30.533  29.837  1.00  0.00     0.031 C 
ATOM     54  C   UNL A   1      42.636  28.260  31.735  1.00  0.00     0.029 A 
ATOM     55  C   UNL A   1      42.102  29.382  32.491  1.00  0.00     0.049 A 
ATOM     56  H   UNL A   1      40.837  30.867  31.743  1.00  0.00     0.167 HD
ATOM     57  C   UNL A   1      37.008  32.987  30.308  1.00  0.00     0.031 A 
ATOM     58  C   UNL A   1      42.265  29.751  33.787  1.00  0.00     0.031 A 
ATOM     59  C   UNL A   1      38.094  33.928  30.193  1.00  0.00     0.049 A 
ATOM     60  C   UNL A   1      41.697  31.120  33.930  1.00  0.00     0.074 A 
ATOM     61  C   UNL A   1      38.809  34.452  29.133  1.00  0.00     0.029 A 
ATOM     62  N   UNL A   1      38.870  34.121  31.314  1.00  0.00    -0.354 N 
ATOM     63  N   UNL A   1      42.230  32.175  33.378  1.00  0.00    -0.248 NA
ATOM     64  C   UNL A   1      40.282  31.243  34.256  1.00  0.00     0.031 C 
ATOM     65  C   UNL A   1      40.154  34.533  29.595  1.00  0.00     0.029 A 
ATOM     66  C   UNL A   1      40.186  34.121  30.929  1.00  0.00     0.049 A 
ATOM     67  H   UNL A   1      38.537  34.239  32.233  1.00  0.00     0.167 HD
ATOM     68  C   UNL A   1      41.153  32.903  32.885  1.00  0.00     0.074 A 
ATOM     69  C   UNL A   1      39.977  32.333  33.542  1.00  0.00     0.031 C 
ATOM     70  C   UNL A   1      41.282  33.680  31.769  1.00  0.00     0.031 A 
BRANCH  57  71
ATOM     71  C   UNL A   1      35.893  33.157  31.300  1.00  0.00    -0.014 A 
ATOM     72  C   UNL A   1      34.838  34.019  30.976  1.00  0.00     0.009 A 
ATOM     73  C   UNL A   1      35.964  32.708  32.636  1.00  0.00     0.009 A 
ATOM     74  C   UNL A   1      33.933  34.446  31.953  1.00  0.00     0.001 A 
ATOM     75  C   UNL A   1      35.037  33.094  33.601  1.00  0.00     0.001 A 
ATOM     76  C   UNL A   1      34.034  33.987  33.264  1.00  0.00     0.000 A 
ENDBRANCH  57  71
BRANCH  58  77
ATOM     77  C   UNL A   1      42.550  28.890  34.956  1.00  0.00    -0.014 A 
ATOM     78  C   UNL A   1      41.534  28.119  35.544  1.00  0.00     0.009 A 
ATOM     79  C   UNL A   1      43.878  28.614  35.333  1.00  0.00     0.009 A 
ATOM     80  C   UNL A   1      41.840  27.087  36.444  1.00  0.00     0.001 A 
ATOM     81  C   UNL A   1      44.183  27.587  36.234  1.00  0.00     0.001 A 
ATOM     82  C   UNL A   1      43.164  26.813  36.778  1.00  0.00     0.000 A 
ENDBRANCH  58  77
BRANCH  70  83
ATOM     83  C   UNL A   1      42.673  33.899  31.221  1.00  0.00    -0.014 A 
ATOM     84  C   UNL A   1      43.298  33.011  30.324  1.00  0.00     0.009 A 
ATOM     85  C   UNL A   1      43.309  35.117  31.497  1.00  0.00     0.009 A 
ATOM     86  C   UNL A   1      44.534  33.326  29.747  1.00  0.00     0.001 A 
ATOM     87  C   UNL A   1      44.531  35.440  30.904  1.00  0.00     0.001 A 
ATOM     88  C   UNL A   1      45.147  34.543  30.034  1.00  0.00     0.000 A 
ENDBRANCH  70  83
ENDBRANCH  44  45
ENDBRANCH  37  39
ENDBRANCH  36  37
ENDBRANCH  35  36
ENDBRANCH  34  35
ENDBRANCH  33  34
ENDBRANCH  32  33
ENDBRANCH   1  32
TORSDOF 21
ENDMDL
