MODEL 1
REMARK VINA RESULT:      -9.8      0.000      0.000
REMARK SMILES Cc1cccc(C(=O)[C@H](C)[C@@H](C)C(=O)OCCOCCOCCOC(=O)c2ccc(-c3c4nc(c(-c5ccccc5)c5ccc([nH]5)c(-c5ccccc5)c5nc(c(-c6ccccc6)c6ccc3[nH]6)C=C5)C=C4)cc2)c1C
REMARK SMILES IDX 19 1 18 2 17 3 16 4 15 5 13 6 14 7 11 8 12 9 9 10 10 11 7 12
REMARK SMILES IDX 8 13 6 14 1 15 2 16 3 17 75 18 4 19 76 20 5 21 20 22 21 23
REMARK SMILES IDX 22 24 23 25 24 26 25 27 26 28 27 29 28 30 74 31 29 32 73 33
REMARK SMILES IDX 30 34 31 35 32 36 67 37 33 38 72 39 66 40 68 41 34 42 71 43
REMARK SMILES IDX 65 44 64 45 35 47 57 48 42 49 56 50 43 51 46 52 55 53 69 54
REMARK SMILES IDX 44 55 45 56 54 58 70 59 47 60 36 61 37 62 41 63 38 64 40 65
REMARK SMILES IDX 39 66 58 67 59 68 63 69 60 70 62 71 61 72 48 73 49 74 53 75
REMARK SMILES IDX 50 76 52 77 51 78
REMARK H PARENT 68 46 46 57
REMARK Flexibility Score: inf
ROOT
ATOM      1  C   UNL A   1      35.201  32.787  28.061  1.00  0.00     0.188 C 
ENDROOT
BRANCH   1   2
ATOM      2  O   UNL A   1      34.256  31.820  28.517  1.00  0.00    -0.376 OA
BRANCH   2   3
ATOM      3  C   UNL A   1      33.282  31.348  27.588  1.00  0.00     0.202 C 
BRANCH   3   4
ATOM      4  C   UNL A   1      33.352  29.855  27.264  1.00  0.00     0.261 C 
BRANCH   4   5
ATOM      5  O   UNL A   1      32.188  29.362  26.557  1.00  0.00    -0.463 OA
BRANCH   5   6
ATOM      6  C   UNL A   1      31.756  28.119  26.904  1.00  0.00     0.309 C 
ATOM      7  O   UNL A   1      31.303  27.829  28.005  1.00  0.00    -0.252 OA
BRANCH   6   8
ATOM      8  C   UNL A   1      32.056  27.061  25.849  1.00  0.00     0.106 C 
ATOM      9  C   UNL A   1      31.030  27.304  24.735  1.00  0.00     0.021 C 
BRANCH   8  10
ATOM     10  C   UNL A   1      32.088  25.585  26.345  1.00  0.00     0.072 C 
ATOM     11  C   UNL A   1      30.723  24.905  26.184  1.00  0.00     0.017 C 
BRANCH  10  12
ATOM     12  C   UNL A   1      33.084  24.732  25.535  1.00  0.00     0.166 C 
ATOM     13  O   UNL A   1      34.165  25.220  25.205  1.00  0.00    -0.294 OA
BRANCH  12  14
ATOM     14  C   UNL A   1      32.761  23.298  25.143  1.00  0.00     0.021 A 
ATOM     15  C   UNL A   1      31.957  21.092  22.067  1.00  0.00     0.044 C 
ATOM     16  C   UNL A   1      32.311  21.564  23.457  1.00  0.00    -0.047 A 
ATOM     17  C   UNL A   1      32.580  20.580  24.418  1.00  0.00     0.004 A 
ATOM     18  C   UNL A   1      32.359  22.938  23.820  1.00  0.00    -0.037 A 
ATOM     19  C   UNL A   1      32.898  20.932  25.722  1.00  0.00     0.001 A 
ATOM     20  C   UNL A   1      31.923  23.983  22.819  1.00  0.00     0.045 C 
ATOM     21  C   UNL A   1      32.993  22.275  26.079  1.00  0.00     0.012 A 
ENDBRANCH  12  14
ENDBRANCH  10  12
ENDBRANCH   8  10
ENDBRANCH   6   8
ENDBRANCH   5   6
ENDBRANCH   4   5
ENDBRANCH   3   4
ENDBRANCH   2   3
ENDBRANCH   1   2
BRANCH   1  22
ATOM     22  C   UNL A   1      34.935  34.232  28.487  1.00  0.00     0.188 C 
BRANCH  22  23
ATOM     23  O   UNL A   1      33.718  34.462  29.194  1.00  0.00    -0.376 OA
BRANCH  23  24
ATOM     24  C   UNL A   1      33.058  35.694  28.914  1.00  0.00     0.202 C 
BRANCH  24  25
ATOM     25  C   UNL A   1      33.183  36.706  30.049  1.00  0.00     0.261 C 
BRANCH  25  26
ATOM     26  O   UNL A   1      32.229  36.408  31.084  1.00  0.00    -0.460 OA
BRANCH  26  27
ATOM     27  C   UNL A   1      32.755  36.390  32.325  1.00  0.00     0.338 C 
ATOM     28  O   UNL A   1      32.518  37.160  33.246  1.00  0.00    -0.246 OA
BRANCH  27  29
ATOM     29  C   UNL A   1      33.744  35.318  32.444  1.00  0.00     0.060 A 
ATOM     30  C   UNL A   1      33.371  34.045  32.885  1.00  0.00     0.016 A 
ATOM     31  C   UNL A   1      35.086  35.659  32.299  1.00  0.00     0.016 A 
ATOM     32  C   UNL A   1      34.352  33.131  33.272  1.00  0.00     0.010 A 
ATOM     33  C   UNL A   1      36.062  34.732  32.641  1.00  0.00     0.010 A 
ATOM     34  C   UNL A   1      35.703  33.480  33.170  1.00  0.00    -0.014 A 
BRANCH  34  35
ATOM     35  C   UNL A   1      36.789  32.587  33.629  1.00  0.00     0.031 A 
ATOM     36  C   UNL A   1      37.475  32.872  34.932  1.00  0.00     0.074 A 
ATOM     37  C   UNL A   1      37.235  31.618  32.812  1.00  0.00     0.049 A 
ATOM     38  N   UNL A   1      38.635  32.451  35.366  1.00  0.00    -0.248 NA
ATOM     39  C   UNL A   1      36.768  33.767  35.863  1.00  0.00     0.031 C 
ATOM     40  C   UNL A   1      36.615  31.224  31.548  1.00  0.00     0.029 A 
ATOM     41  N   UNL A   1      38.351  30.827  32.906  1.00  0.00    -0.354 N 
ATOM     42  C   UNL A   1      38.818  33.064  36.601  1.00  0.00     0.074 A 
ATOM     43  C   UNL A   1      37.648  33.880  36.848  1.00  0.00     0.031 C 
ATOM     44  C   UNL A   1      37.381  30.293  30.960  1.00  0.00     0.029 A 
ATOM     45  C   UNL A   1      38.570  30.078  31.776  1.00  0.00     0.049 A 
ATOM     46  H   UNL A   1      38.933  30.800  33.699  1.00  0.00     0.167 HD
ATOM     47  C   UNL A   1      39.878  32.962  37.438  1.00  0.00     0.031 A 
ATOM     48  C   UNL A   1      39.642  29.351  31.411  1.00  0.00     0.031 A 
ATOM     49  C   UNL A   1      41.035  32.148  37.167  1.00  0.00     0.049 A 
ATOM     50  C   UNL A   1      40.830  29.296  32.326  1.00  0.00     0.074 A 
ATOM     51  C   UNL A   1      42.163  31.959  37.947  1.00  0.00     0.029 A 
ATOM     52  N   UNL A   1      41.205  31.383  36.024  1.00  0.00    -0.354 N 
ATOM     53  N   UNL A   1      41.013  29.897  33.477  1.00  0.00    -0.248 NA
ATOM     54  C   UNL A   1      41.960  28.465  31.888  1.00  0.00     0.031 C 
ATOM     55  C   UNL A   1      43.034  31.109  37.255  1.00  0.00     0.029 A 
ATOM     56  C   UNL A   1      42.426  30.732  36.068  1.00  0.00     0.049 A 
ATOM     57  H   UNL A   1      40.554  31.313  35.288  1.00  0.00     0.167 HD
ATOM     58  C   UNL A   1      42.269  29.500  33.914  1.00  0.00     0.074 A 
ATOM     59  C   UNL A   1      42.797  28.600  32.907  1.00  0.00     0.031 C 
ATOM     60  C   UNL A   1      42.926  29.845  35.049  1.00  0.00     0.031 A 
BRANCH  47  61
ATOM     61  C   UNL A   1      39.857  33.785  38.694  1.00  0.00    -0.014 A 
ATOM     62  C   UNL A   1      39.504  33.225  39.932  1.00  0.00     0.009 A 
ATOM     63  C   UNL A   1      40.228  35.139  38.645  1.00  0.00     0.009 A 
ATOM     64  C   UNL A   1      39.497  34.011  41.089  1.00  0.00     0.001 A 
ATOM     65  C   UNL A   1      40.242  35.916  39.806  1.00  0.00     0.001 A 
ATOM     66  C   UNL A   1      39.869  35.353  41.025  1.00  0.00     0.000 A 
ENDBRANCH  47  61
BRANCH  48  67
ATOM     67  C   UNL A   1      39.640  28.658  30.100  1.00  0.00    -0.014 A 
ATOM     68  C   UNL A   1      40.051  29.332  28.942  1.00  0.00     0.009 A 
ATOM     69  C   UNL A   1      39.275  27.305  30.008  1.00  0.00     0.009 A 
ATOM     70  C   UNL A   1      40.090  28.667  27.714  1.00  0.00     0.001 A 
ATOM     71  C   UNL A   1      39.339  26.636  28.783  1.00  0.00     0.001 A 
ATOM     72  C   UNL A   1      39.741  27.319  27.637  1.00  0.00     0.000 A 
ENDBRANCH  48  67
BRANCH  60  73
ATOM     73  C   UNL A   1      44.266  29.209  35.272  1.00  0.00    -0.014 A 
ATOM     74  C   UNL A   1      45.446  29.828  34.835  1.00  0.00     0.009 A 
ATOM     75  C   UNL A   1      44.345  27.983  35.951  1.00  0.00     0.009 A 
ATOM     76  C   UNL A   1      46.681  29.214  35.048  1.00  0.00     0.001 A 
ATOM     77  C   UNL A   1      45.583  27.385  36.183  1.00  0.00     0.001 A 
ATOM     78  C   UNL A   1      46.749  27.995  35.724  1.00  0.00     0.000 A 
ENDBRANCH  60  73
ENDBRANCH  34  35
ENDBRANCH  27  29
ENDBRANCH  26  27
ENDBRANCH  25  26
ENDBRANCH  24  25
ENDBRANCH  23  24
ENDBRANCH  22  23
ENDBRANCH   1  22
TORSDOF 20
ENDMDL
MODEL 2
REMARK VINA RESULT:      -9.7      4.500      9.113
REMARK SMILES Cc1cccc(C(=O)[C@H](C)[C@@H](C)C(=O)OCCOCCOCCOC(=O)c2ccc(-c3c4nc(c(-c5ccccc5)c5ccc([nH]5)c(-c5ccccc5)c5nc(c(-c6ccccc6)c6ccc3[nH]6)C=C5)C=C4)cc2)c1C
REMARK SMILES IDX 19 1 18 2 17 3 16 4 15 5 13 6 14 7 11 8 12 9 9 10 10 11 7 12
REMARK SMILES IDX 8 13 6 14 1 15 2 16 3 17 75 18 4 19 76 20 5 21 20 22 21 23
REMARK SMILES IDX 22 24 23 25 24 26 25 27 26 28 27 29 28 30 74 31 29 32 73 33
REMARK SMILES IDX 30 34 31 35 32 36 67 37 33 38 72 39 66 40 68 41 34 42 71 43
REMARK SMILES IDX 65 44 64 45 35 47 57 48 42 49 56 50 43 51 46 52 55 53 69 54
REMARK SMILES IDX 44 55 45 56 54 58 70 59 47 60 36 61 37 62 41 63 38 64 40 65
REMARK SMILES IDX 39 66 58 67 59 68 63 69 60 70 62 71 61 72 48 73 49 74 53 75
REMARK SMILES IDX 50 76 52 77 51 78
REMARK H PARENT 68 46 46 57
REMARK Flexibility Score: inf
ROOT
ATOM      1  C   UNL A   1      33.042  36.192  30.481  1.00  0.00     0.188 C 
ENDROOT
BRANCH   1   2
ATOM      2  O   UNL A   1      32.941  35.074  31.362  1.00  0.00    -0.376 OA
BRANCH   2   3
ATOM      3  C   UNL A   1      34.067  34.766  32.181  1.00  0.00     0.202 C 
BRANCH   3   4
ATOM      4  C   UNL A   1      35.202  34.015  31.483  1.00  0.00     0.261 C 
BRANCH   4   5
ATOM      5  O   UNL A   1      36.517  34.538  31.790  1.00  0.00    -0.463 OA
BRANCH   5   6
ATOM      6  C   UNL A   1      37.562  33.688  31.600  1.00  0.00     0.309 C 
ATOM      7  O   UNL A   1      37.812  33.129  30.538  1.00  0.00    -0.252 OA
BRANCH   6   8
ATOM      8  C   UNL A   1      38.299  33.343  32.888  1.00  0.00     0.106 C 
ATOM      9  C   UNL A   1      37.896  34.438  33.885  1.00  0.00     0.021 C 
BRANCH   8  10
ATOM     10  C   UNL A   1      39.841  33.158  32.770  1.00  0.00     0.072 C 
ATOM     11  C   UNL A   1      40.585  34.488  32.945  1.00  0.00     0.017 C 
BRANCH  10  12
ATOM     12  C   UNL A   1      40.389  32.219  33.863  1.00  0.00     0.166 C 
ATOM     13  O   UNL A   1      40.609  32.668  34.988  1.00  0.00    -0.294 OA
BRANCH  12  14
ATOM     14  C   UNL A   1      40.656  30.748  33.580  1.00  0.00     0.021 A 
ATOM     15  C   UNL A   1      38.892  27.498  32.440  1.00  0.00     0.044 C 
ATOM     16  C   UNL A   1      39.934  28.525  32.814  1.00  0.00    -0.047 A 
ATOM     17  C   UNL A   1      41.278  28.152  32.676  1.00  0.00     0.004 A 
ATOM     18  C   UNL A   1      39.607  29.818  33.308  1.00  0.00    -0.037 A 
ATOM     19  C   UNL A   1      42.295  29.033  33.012  1.00  0.00     0.001 A 
ATOM     20  C   UNL A   1      38.162  30.156  33.593  1.00  0.00     0.045 C 
ATOM     21  C   UNL A   1      41.988  30.318  33.453  1.00  0.00     0.012 A 
ENDBRANCH  12  14
ENDBRANCH  10  12
ENDBRANCH   8  10
ENDBRANCH   6   8
ENDBRANCH   5   6
ENDBRANCH   4   5
ENDBRANCH   3   4
ENDBRANCH   2   3
ENDBRANCH   1   2
BRANCH   1  22
ATOM     22  C   UNL A   1      32.975  35.873  28.987  1.00  0.00     0.188 C 
BRANCH  22  23
ATOM     23  O   UNL A   1      34.018  35.044  28.477  1.00  0.00    -0.376 OA
BRANCH  23  24
ATOM     24  C   UNL A   1      33.615  33.768  27.985  1.00  0.00     0.202 C 
BRANCH  24  25
ATOM     25  C   UNL A   1      34.740  32.739  28.010  1.00  0.00     0.261 C 
BRANCH  25  26
ATOM     26  O   UNL A   1      34.295  31.534  28.658  1.00  0.00    -0.460 OA
BRANCH  26  27
ATOM     27  C   UNL A   1      34.734  30.402  28.073  1.00  0.00     0.338 C 
ATOM     28  O   UNL A   1      34.074  29.578  27.455  1.00  0.00    -0.246 OA
BRANCH  27  29
ATOM     29  C   UNL A   1      36.166  30.223  28.318  1.00  0.00     0.060 A 
ATOM     30  C   UNL A   1      37.071  30.158  27.256  1.00  0.00     0.016 A 
ATOM     31  C   UNL A   1      36.566  29.922  29.617  1.00  0.00     0.016 A 
ATOM     32  C   UNL A   1      38.370  29.699  27.479  1.00  0.00     0.010 A 
ATOM     33  C   UNL A   1      37.872  29.508  29.846  1.00  0.00     0.010 A 
ATOM     34  C   UNL A   1      38.769  29.352  28.775  1.00  0.00    -0.014 A 
BRANCH  34  35
ATOM     35  C   UNL A   1      40.106  28.793  29.069  1.00  0.00     0.031 A 
ATOM     36  C   UNL A   1      41.221  29.717  29.460  1.00  0.00     0.074 A 
ATOM     37  C   UNL A   1      40.337  27.487  28.850  1.00  0.00     0.049 A 
ATOM     38  N   UNL A   1      42.513  29.512  29.436  1.00  0.00    -0.248 NA
ATOM     39  C   UNL A   1      40.829  31.058  29.922  1.00  0.00     0.031 C 
ATOM     40  C   UNL A   1      39.320  26.492  28.514  1.00  0.00     0.029 A 
ATOM     41  N   UNL A   1      41.517  26.791  28.826  1.00  0.00    -0.354 N 
ATOM     42  C   UNL A   1      43.090  30.712  29.837  1.00  0.00     0.074 A 
ATOM     43  C   UNL A   1      42.008  31.636  30.103  1.00  0.00     0.031 C 
ATOM     44  C   UNL A   1      39.923  25.318  28.277  1.00  0.00     0.029 A 
ATOM     45  C   UNL A   1      41.366  25.500  28.381  1.00  0.00     0.049 A 
ATOM     46  H   UNL A   1      42.381  27.174  29.098  1.00  0.00     0.167 HD
ATOM     47  C   UNL A   1      44.406  31.011  29.953  1.00  0.00     0.031 A 
ATOM     48  C   UNL A   1      42.291  24.588  28.032  1.00  0.00     0.031 A 
ATOM     49  C   UNL A   1      45.466  30.076  29.677  1.00  0.00     0.049 A 
ATOM     50  C   UNL A   1      43.743  24.956  28.113  1.00  0.00     0.074 A 
ATOM     51  C   UNL A   1      46.834  30.264  29.770  1.00  0.00     0.029 A 
ATOM     52  N   UNL A   1      45.269  28.770  29.254  1.00  0.00    -0.354 N 
ATOM     53  N   UNL A   1      44.286  26.097  28.464  1.00  0.00    -0.248 NA
ATOM     54  C   UNL A   1      44.709  23.912  27.747  1.00  0.00     0.031 C 
ATOM     55  C   UNL A   1      47.465  29.082  29.366  1.00  0.00     0.029 A 
ATOM     56  C   UNL A   1      46.490  28.144  29.068  1.00  0.00     0.049 A 
ATOM     57  H   UNL A   1      44.390  28.350  29.108  1.00  0.00     0.167 HD
ATOM     58  C   UNL A   1      45.658  25.904  28.383  1.00  0.00     0.074 A 
ATOM     59  C   UNL A   1      45.862  24.532  27.958  1.00  0.00     0.031 C 
ATOM     60  C   UNL A   1      46.661  26.779  28.641  1.00  0.00     0.031 A 
BRANCH  47  61
ATOM     61  C   UNL A   1      44.771  32.414  30.348  1.00  0.00    -0.014 A 
ATOM     62  C   UNL A   1      44.816  32.809  31.694  1.00  0.00     0.009 A 
ATOM     63  C   UNL A   1      45.108  33.350  29.356  1.00  0.00     0.009 A 
ATOM     64  C   UNL A   1      45.163  34.119  32.036  1.00  0.00     0.001 A 
ATOM     65  C   UNL A   1      45.477  34.652  29.702  1.00  0.00     0.001 A 
ATOM     66  C   UNL A   1      45.496  35.038  31.041  1.00  0.00     0.000 A 
ENDBRANCH  47  61
BRANCH  48  67
ATOM     67  C   UNL A   1      41.855  23.259  27.538  1.00  0.00    -0.014 A 
ATOM     68  C   UNL A   1      41.689  23.033  26.165  1.00  0.00     0.009 A 
ATOM     69  C   UNL A   1      41.650  22.197  28.434  1.00  0.00     0.009 A 
ATOM     70  C   UNL A   1      41.319  21.771  25.697  1.00  0.00     0.001 A 
ATOM     71  C   UNL A   1      41.305  20.928  27.961  1.00  0.00     0.001 A 
ATOM     72  C   UNL A   1      41.135  20.718  26.593  1.00  0.00     0.000 A 
ENDBRANCH  48  67
BRANCH  60  73
ATOM     73  C   UNL A   1      48.061  26.258  28.510  1.00  0.00    -0.014 A 
ATOM     74  C   UNL A   1      48.751  25.741  29.616  1.00  0.00     0.009 A 
ATOM     75  C   UNL A   1      48.686  26.267  27.253  1.00  0.00     0.009 A 
ATOM     76  C   UNL A   1      50.056  25.269  29.470  1.00  0.00     0.001 A 
ATOM     77  C   UNL A   1      49.982  25.772  27.108  1.00  0.00     0.001 A 
ATOM     78  C   UNL A   1      50.669  25.282  28.218  1.00  0.00     0.000 A 
ENDBRANCH  60  73
ENDBRANCH  34  35
ENDBRANCH  27  29
ENDBRANCH  26  27
ENDBRANCH  25  26
ENDBRANCH  24  25
ENDBRANCH  23  24
ENDBRANCH  22  23
ENDBRANCH   1  22
TORSDOF 20
ENDMDL
MODEL 3
REMARK VINA RESULT:      -9.7      3.721      8.844
REMARK SMILES Cc1cccc(C(=O)[C@H](C)[C@@H](C)C(=O)OCCOCCOCCOC(=O)c2ccc(-c3c4nc(c(-c5ccccc5)c5ccc([nH]5)c(-c5ccccc5)c5nc(c(-c6ccccc6)c6ccc3[nH]6)C=C5)C=C4)cc2)c1C
REMARK SMILES IDX 19 1 18 2 17 3 16 4 15 5 13 6 14 7 11 8 12 9 9 10 10 11 7 12
REMARK SMILES IDX 8 13 6 14 1 15 2 16 3 17 75 18 4 19 76 20 5 21 20 22 21 23
REMARK SMILES IDX 22 24 23 25 24 26 25 27 26 28 27 29 28 30 74 31 29 32 73 33
REMARK SMILES IDX 30 34 31 35 32 36 67 37 33 38 72 39 66 40 68 41 34 42 71 43
REMARK SMILES IDX 65 44 64 45 35 47 57 48 42 49 56 50 43 51 46 52 55 53 69 54
REMARK SMILES IDX 44 55 45 56 54 58 70 59 47 60 36 61 37 62 41 63 38 64 40 65
REMARK SMILES IDX 39 66 58 67 59 68 63 69 60 70 62 71 61 72 48 73 49 74 53 75
REMARK SMILES IDX 50 76 52 77 51 78
REMARK H PARENT 68 46 46 57
REMARK Flexibility Score: inf
ROOT
ATOM      1  C   UNL A   1      34.581  21.164  24.329  1.00  0.00     0.188 C 
ENDROOT
BRANCH   1   2
ATOM      2  O   UNL A   1      33.507  20.268  24.043  1.00  0.00    -0.376 OA
BRANCH   2   3
ATOM      3  C   UNL A   1      32.313  20.390  24.812  1.00  0.00     0.202 C 
BRANCH   3   4
ATOM      4  C   UNL A   1      31.754  21.808  24.937  1.00  0.00     0.261 C 
BRANCH   4   5
ATOM      5  O   UNL A   1      31.983  22.409  26.234  1.00  0.00    -0.463 OA
BRANCH   5   6
ATOM      6  C   UNL A   1      31.313  23.566  26.489  1.00  0.00     0.309 C 
ATOM      7  O   UNL A   1      30.399  23.669  27.299  1.00  0.00    -0.252 OA
BRANCH   6   8
ATOM      8  C   UNL A   1      31.679  24.696  25.535  1.00  0.00     0.106 C 
ATOM      9  C   UNL A   1      33.072  25.160  25.979  1.00  0.00     0.021 C 
BRANCH   8  10
ATOM     10  C   UNL A   1      30.651  25.861  25.421  1.00  0.00     0.072 C 
ATOM     11  C   UNL A   1      31.230  27.179  25.949  1.00  0.00     0.017 C 
BRANCH  10  12
ATOM     12  C   UNL A   1      30.251  26.129  23.957  1.00  0.00     0.166 C 
ATOM     13  O   UNL A   1      30.651  25.369  23.075  1.00  0.00    -0.294 OA
BRANCH  12  14
ATOM     14  C   UNL A   1      29.367  27.309  23.582  1.00  0.00     0.021 A 
ATOM     15  C   UNL A   1      29.403  30.629  21.594  1.00  0.00     0.044 C 
ATOM     16  C   UNL A   1      28.962  29.412  22.373  1.00  0.00    -0.047 A 
ATOM     17  C   UNL A   1      27.585  29.248  22.577  1.00  0.00     0.004 A 
ATOM     18  C   UNL A   1      29.874  28.463  22.910  1.00  0.00    -0.037 A 
ATOM     19  C   UNL A   1      27.101  28.165  23.295  1.00  0.00     0.001 A 
ATOM     20  C   UNL A   1      31.359  28.727  22.812  1.00  0.00     0.045 C 
ATOM     21  C   UNL A   1      27.980  27.203  23.787  1.00  0.00     0.012 A 
ENDBRANCH  12  14
ENDBRANCH  10  12
ENDBRANCH   8  10
ENDBRANCH   6   8
ENDBRANCH   5   6
ENDBRANCH   4   5
ENDBRANCH   3   4
ENDBRANCH   2   3
ENDBRANCH   1   2
BRANCH   1  22
ATOM     22  C   UNL A   1      35.526  20.736  25.453  1.00  0.00     0.188 C 
BRANCH  22  23
ATOM     23  O   UNL A   1      36.918  20.901  25.197  1.00  0.00    -0.376 OA
BRANCH  23  24
ATOM     24  C   UNL A   1      37.291  22.108  24.535  1.00  0.00     0.202 C 
BRANCH  24  25
ATOM     25  C   UNL A   1      37.755  23.196  25.499  1.00  0.00     0.261 C 
BRANCH  25  26
ATOM     26  O   UNL A   1      38.630  22.634  26.494  1.00  0.00    -0.460 OA
BRANCH  26  27
ATOM     27  C   UNL A   1      39.866  23.171  26.503  1.00  0.00     0.338 C 
ATOM     28  O   UNL A   1      40.919  22.624  26.204  1.00  0.00    -0.246 OA
BRANCH  27  29
ATOM     29  C   UNL A   1      39.820  24.550  26.993  1.00  0.00     0.060 A 
ATOM     30  C   UNL A   1      40.525  25.565  26.340  1.00  0.00     0.016 A 
ATOM     31  C   UNL A   1      39.221  24.776  28.229  1.00  0.00     0.016 A 
ATOM     32  C   UNL A   1      40.713  26.795  26.972  1.00  0.00     0.010 A 
ATOM     33  C   UNL A   1      39.370  26.016  28.837  1.00  0.00     0.010 A 
ATOM     34  C   UNL A   1      40.151  27.018  28.235  1.00  0.00    -0.014 A 
BRANCH  34  35
ATOM     35  C   UNL A   1      40.371  28.270  28.989  1.00  0.00     0.031 A 
ATOM     36  C   UNL A   1      41.481  28.338  29.996  1.00  0.00     0.074 A 
ATOM     37  C   UNL A   1      39.493  29.279  28.863  1.00  0.00     0.049 A 
ATOM     38  N   UNL A   1      41.651  29.176  30.986  1.00  0.00    -0.248 NA
ATOM     39  C   UNL A   1      42.530  27.311  29.885  1.00  0.00     0.031 C 
ATOM     40  C   UNL A   1      38.407  29.339  27.885  1.00  0.00     0.029 A 
ATOM     41  N   UNL A   1      39.348  30.423  29.603  1.00  0.00    -0.354 N 
ATOM     42  C   UNL A   1      42.802  28.753  31.642  1.00  0.00     0.074 A 
ATOM     43  C   UNL A   1      43.290  27.588  30.935  1.00  0.00     0.031 C 
ATOM     44  C   UNL A   1      37.680  30.443  28.111  1.00  0.00     0.029 A 
ATOM     45  C   UNL A   1      38.212  31.126  29.284  1.00  0.00     0.049 A 
ATOM     46  H   UNL A   1      39.990  30.711  30.292  1.00  0.00     0.167 HD
ATOM     47  C   UNL A   1      43.381  29.284  32.745  1.00  0.00     0.031 A 
ATOM     48  C   UNL A   1      37.629  32.164  29.909  1.00  0.00     0.031 A 
ATOM     49  C   UNL A   1      42.872  30.442  33.436  1.00  0.00     0.049 A 
ATOM     50  C   UNL A   1      38.254  32.704  31.162  1.00  0.00     0.074 A 
ATOM     51  C   UNL A   1      43.381  31.075  34.556  1.00  0.00     0.029 A 
ATOM     52  N   UNL A   1      41.734  31.140  33.063  1.00  0.00    -0.354 N 
ATOM     53  N   UNL A   1      39.323  32.287  31.796  1.00  0.00    -0.248 NA
ATOM     54  C   UNL A   1      37.589  33.856  31.786  1.00  0.00     0.031 C 
ATOM     55  C   UNL A   1      42.527  32.134  34.884  1.00  0.00     0.029 A 
ATOM     56  C   UNL A   1      41.515  32.189  33.940  1.00  0.00     0.049 A 
ATOM     57  H   UNL A   1      41.165  30.922  32.290  1.00  0.00     0.167 HD
ATOM     58  C   UNL A   1      39.475  33.137  32.882  1.00  0.00     0.074 A 
ATOM     59  C   UNL A   1      38.392  34.099  32.814  1.00  0.00     0.031 C 
ATOM     60  C   UNL A   1      40.426  33.128  33.848  1.00  0.00     0.031 A 
BRANCH  47  61
ATOM     61  C   UNL A   1      44.595  28.594  33.298  1.00  0.00    -0.014 A 
ATOM     62  C   UNL A   1      44.483  27.476  34.140  1.00  0.00     0.009 A 
ATOM     63  C   UNL A   1      45.875  29.049  32.945  1.00  0.00     0.009 A 
ATOM     64  C   UNL A   1      45.628  26.847  34.638  1.00  0.00     0.001 A 
ATOM     65  C   UNL A   1      47.018  28.405  33.425  1.00  0.00     0.001 A 
ATOM     66  C   UNL A   1      46.893  27.311  34.278  1.00  0.00     0.000 A 
ENDBRANCH  47  61
BRANCH  48  67
ATOM     67  C   UNL A   1      36.364  32.723  29.371  1.00  0.00    -0.014 A 
ATOM     68  C   UNL A   1      35.129  32.260  29.843  1.00  0.00     0.009 A 
ATOM     69  C   UNL A   1      36.388  33.756  28.420  1.00  0.00     0.009 A 
ATOM     70  C   UNL A   1      33.939  32.815  29.367  1.00  0.00     0.001 A 
ATOM     71  C   UNL A   1      35.197  34.326  27.964  1.00  0.00     0.001 A 
ATOM     72  C   UNL A   1      33.974  33.851  28.435  1.00  0.00     0.000 A 
ENDBRANCH  48  67
BRANCH  60  73
ATOM     73  C   UNL A   1      40.354  34.217  34.876  1.00  0.00    -0.014 A 
ATOM     74  C   UNL A   1      39.606  34.059  36.051  1.00  0.00     0.009 A 
ATOM     75  C   UNL A   1      41.068  35.408  34.672  1.00  0.00     0.009 A 
ATOM     76  C   UNL A   1      39.548  35.089  36.990  1.00  0.00     0.001 A 
ATOM     77  C   UNL A   1      41.027  36.426  35.624  1.00  0.00     0.001 A 
ATOM     78  C   UNL A   1      40.260  36.270  36.779  1.00  0.00     0.000 A 
ENDBRANCH  60  73
ENDBRANCH  34  35
ENDBRANCH  27  29
ENDBRANCH  26  27
ENDBRANCH  25  26
ENDBRANCH  24  25
ENDBRANCH  23  24
ENDBRANCH  22  23
ENDBRANCH   1  22
TORSDOF 20
ENDMDL
