MODEL 1
REMARK VINA RESULT:     -10.8      0.000      0.000
REMARK SMILES Cc1ccc([C@H](C)Nc2ccc(C(=O)OCCOCCOCCOC(=O)c3ccc(-c4c5nc(c(-c6ccccc6)c6ccc([nH]6)c(-c6ccccc6)c6nc(c(-c7ccccc7)c7ccc4[nH]7)C=C6)C=C5)cc3)cc2Cl)cc1F
REMARK SMILES IDX 19 1 18 2 17 3 16 4 15 5 13 6 14 7 12 8 9 9 10 10 76 11
REMARK SMILES IDX 11 12 75 13 77 14 8 15 6 17 7 18 5 19 1 20 2 21 3 22 79 23
REMARK SMILES IDX 4 24 78 25 80 26 20 27 21 28 22 29 23 30 24 31 25 32 26 33
REMARK SMILES IDX 27 34 28 35 74 36 29 37 73 38 30 39 31 40 32 41 67 42 33 43
REMARK SMILES IDX 72 44 66 45 68 46 34 47 71 48 65 49 64 50 35 52 57 53 42 54
REMARK SMILES IDX 56 55 43 56 46 57 55 58 69 59 44 60 45 61 54 63 70 64 47 65
REMARK SMILES IDX 36 66 37 67 41 68 38 69 40 70 39 71 58 72 59 73 63 74 60 75
REMARK SMILES IDX 62 76 61 77 48 78 49 79 53 80 50 81 52 82 51 83
REMARK H PARENT 8 16 68 51 46 62
REMARK Flexibility Score: inf
ROOT
ATOM      1  C   UNL A   1      39.998  21.499  26.217  1.00  0.00     0.188 C 
ENDROOT
BRANCH   1   2
ATOM      2  O   UNL A   1      38.593  21.700  26.229  1.00  0.00    -0.376 OA
BRANCH   2   3
ATOM      3  C   UNL A   1      37.822  21.473  25.060  1.00  0.00     0.202 C 
BRANCH   3   4
ATOM      4  C   UNL A   1      36.722  20.398  25.010  1.00  0.00     0.261 C 
BRANCH   4   5
ATOM      5  O   UNL A   1      35.465  20.754  25.598  1.00  0.00    -0.460 OA
BRANCH   5   6
ATOM      6  C   UNL A   1      34.366  20.294  24.954  1.00  0.00     0.338 C 
ATOM      7  O   UNL A   1      34.002  19.133  24.843  1.00  0.00    -0.246 OA
BRANCH   6   8
ATOM      8  C   UNL A   1      33.531  21.439  24.537  1.00  0.00     0.061 A 
ATOM      9  C   UNL A   1      31.906  23.593  23.695  1.00  0.00     0.053 A 
ATOM     10  C   UNL A   1      31.925  22.375  22.993  1.00  0.00     0.028 A 
ATOM     11  C   UNL A   1      32.722  23.693  24.847  1.00  0.00     0.065 A 
ATOM     12  C   UNL A   1      32.740  21.314  23.394  1.00  0.00     0.018 A 
ATOM     13  C   UNL A   1      33.507  22.617  25.276  1.00  0.00     0.038 A 
ATOM     14  Cl  UNL A   1      32.767  25.090  25.867  1.00  0.00    -0.082 Cl
BRANCH   9  15
ATOM     15  N   UNL A   1      31.125  24.612  23.164  1.00  0.00    -0.377 N 
ATOM     16  H   UNL A   1      30.159  24.450  23.055  1.00  0.00     0.161 HD
BRANCH  15  17
ATOM     17  C   UNL A   1      31.661  25.913  22.755  1.00  0.00     0.106 C 
ATOM     18  C   UNL A   1      32.218  25.751  21.330  1.00  0.00     0.036 C 
BRANCH  17  19
ATOM     19  C   UNL A   1      30.593  26.984  22.967  1.00  0.00    -0.023 A 
ATOM     20  C   UNL A   1      27.432  29.958  22.868  1.00  0.00     0.047 C 
ATOM     21  C   UNL A   1      28.526  28.943  22.959  1.00  0.00    -0.015 A 
ATOM     22  C   UNL A   1      28.340  27.710  23.591  1.00  0.00     0.007 A 
ATOM     23  C   UNL A   1      29.756  29.197  22.362  1.00  0.00     0.126 A 
ATOM     24  C   UNL A   1      29.358  26.742  23.591  1.00  0.00     0.006 A 
ATOM     25  C   UNL A   1      30.772  28.249  22.376  1.00  0.00     0.045 A 
ATOM     26  F   UNL A   1      29.965  30.362  21.732  1.00  0.00    -0.207 F 
ENDBRANCH  17  19
ENDBRANCH  15  17
ENDBRANCH   9  15
ENDBRANCH   6   8
ENDBRANCH   5   6
ENDBRANCH   4   5
ENDBRANCH   3   4
ENDBRANCH   2   3
ENDBRANCH   1   2
BRANCH   1  27
ATOM     27  C   UNL A   1      40.778  21.336  27.539  1.00  0.00     0.188 C 
BRANCH  27  28
ATOM     28  O   UNL A   1      42.048  20.750  27.402  1.00  0.00    -0.376 OA
BRANCH  28  29
ATOM     29  C   UNL A   1      42.627  20.606  26.117  1.00  0.00     0.202 C 
BRANCH  29  30
ATOM     30  C   UNL A   1      43.553  21.631  25.427  1.00  0.00     0.261 C 
BRANCH  30  31
ATOM     31  O   UNL A   1      42.991  22.861  24.959  1.00  0.00    -0.460 OA
BRANCH  31  32
ATOM     32  C   UNL A   1      43.777  23.958  25.045  1.00  0.00     0.338 C 
ATOM     33  O   UNL A   1      44.767  24.218  24.378  1.00  0.00    -0.246 OA
BRANCH  32  34
ATOM     34  C   UNL A   1      43.151  24.908  25.985  1.00  0.00     0.060 A 
ATOM     35  C   UNL A   1      43.662  26.211  26.073  1.00  0.00     0.016 A 
ATOM     36  C   UNL A   1      42.082  24.510  26.788  1.00  0.00     0.016 A 
ATOM     37  C   UNL A   1      43.113  27.116  26.982  1.00  0.00     0.010 A 
ATOM     38  C   UNL A   1      41.547  25.412  27.714  1.00  0.00     0.010 A 
ATOM     39  C   UNL A   1      42.078  26.711  27.834  1.00  0.00    -0.014 A 
BRANCH  39  40
ATOM     40  C   UNL A   1      41.656  27.582  28.959  1.00  0.00     0.031 A 
ATOM     41  C   UNL A   1      42.416  27.505  30.256  1.00  0.00     0.074 A 
ATOM     42  C   UNL A   1      40.621  28.431  28.837  1.00  0.00     0.049 A 
ATOM     43  N   UNL A   1      42.193  28.122  31.388  1.00  0.00    -0.248 NA
ATOM     44  C   UNL A   1      43.584  26.609  30.275  1.00  0.00     0.031 C 
ATOM     45  C   UNL A   1      39.831  28.639  27.626  1.00  0.00     0.029 A 
ATOM     46  N   UNL A   1      40.052  29.275  29.760  1.00  0.00    -0.354 N 
ATOM     47  C   UNL A   1      43.182  27.679  32.257  1.00  0.00     0.074 A 
ATOM     48  C   UNL A   1      43.988  26.722  31.531  1.00  0.00     0.031 C 
ATOM     49  C   UNL A   1      38.871  29.545  27.883  1.00  0.00     0.029 A 
ATOM     50  C   UNL A   1      38.955  29.951  29.285  1.00  0.00     0.049 A 
ATOM     51  H   UNL A   1      40.398  29.386  30.675  1.00  0.00     0.167 HD
ATOM     52  C   UNL A   1      43.402  28.038  33.545  1.00  0.00     0.031 A 
ATOM     53  C   UNL A   1      38.099  30.779  29.917  1.00  0.00     0.031 A 
ATOM     54  C   UNL A   1      42.588  28.972  34.276  1.00  0.00     0.049 A 
ATOM     55  C   UNL A   1      38.310  31.091  31.376  1.00  0.00     0.074 A 
ATOM     56  C   UNL A   1      42.741  29.409  35.580  1.00  0.00     0.029 A 
ATOM     57  N   UNL A   1      41.462  29.603  33.770  1.00  0.00    -0.354 N 
ATOM     58  N   UNL A   1      39.265  30.691  32.181  1.00  0.00    -0.248 NA
ATOM     59  C   UNL A   1      37.325  31.979  32.013  1.00  0.00     0.031 C 
ATOM     60  C   UNL A   1      41.667  30.254  35.885  1.00  0.00     0.029 A 
ATOM     61  C   UNL A   1      40.890  30.400  34.747  1.00  0.00     0.049 A 
ATOM     62  H   UNL A   1      41.119  29.498  32.854  1.00  0.00     0.167 HD
ATOM     63  C   UNL A   1      39.016  31.303  33.404  1.00  0.00     0.074 A 
ATOM     64  C   UNL A   1      37.828  32.114  33.232  1.00  0.00     0.031 C 
ATOM     65  C   UNL A   1      39.709  31.205  34.565  1.00  0.00     0.031 A 
BRANCH  52  66
ATOM     66  C   UNL A   1      44.550  27.379  34.260  1.00  0.00    -0.014 A 
ATOM     67  C   UNL A   1      45.835  27.943  34.261  1.00  0.00     0.009 A 
ATOM     68  C   UNL A   1      44.333  26.188  34.971  1.00  0.00     0.009 A 
ATOM     69  C   UNL A   1      46.887  27.309  34.928  1.00  0.00     0.001 A 
ATOM     70  C   UNL A   1      45.376  25.573  35.664  1.00  0.00     0.001 A 
ATOM     71  C   UNL A   1      46.654  26.129  35.633  1.00  0.00     0.000 A 
ENDBRANCH  52  66
BRANCH  53  72
ATOM     72  C   UNL A   1      36.941  31.360  29.184  1.00  0.00    -0.014 A 
ATOM     73  C   UNL A   1      35.793  30.592  28.934  1.00  0.00     0.009 A 
ATOM     74  C   UNL A   1      36.991  32.678  28.703  1.00  0.00     0.009 A 
ATOM     75  C   UNL A   1      34.732  31.124  28.196  1.00  0.00     0.001 A 
ATOM     76  C   UNL A   1      35.916  33.217  27.994  1.00  0.00     0.001 A 
ATOM     77  C   UNL A   1      34.793  32.436  27.731  1.00  0.00     0.000 A 
ENDBRANCH  53  72
BRANCH  65  78
ATOM     78  C   UNL A   1      39.236  32.031  35.731  1.00  0.00    -0.014 A 
ATOM     79  C   UNL A   1      38.259  31.557  36.621  1.00  0.00     0.009 A 
ATOM     80  C   UNL A   1      39.813  33.290  35.966  1.00  0.00     0.009 A 
ATOM     81  C   UNL A   1      37.845  32.343  37.699  1.00  0.00     0.001 A 
ATOM     82  C   UNL A   1      39.423  34.057  37.065  1.00  0.00     0.001 A 
ATOM     83  C   UNL A   1      38.431  33.588  37.924  1.00  0.00     0.000 A 
ENDBRANCH  65  78
ENDBRANCH  39  40
ENDBRANCH  32  34
ENDBRANCH  31  32
ENDBRANCH  30  31
ENDBRANCH  29  30
ENDBRANCH  28  29
ENDBRANCH  27  28
ENDBRANCH   1  27
TORSDOF 20
ENDMDL
MODEL 2
REMARK VINA RESULT:     -10.5      5.387     10.545
REMARK SMILES Cc1ccc([C@H](C)Nc2ccc(C(=O)OCCOCCOCCOC(=O)c3ccc(-c4c5nc(c(-c6ccccc6)c6ccc([nH]6)c(-c6ccccc6)c6nc(c(-c7ccccc7)c7ccc4[nH]7)C=C6)C=C5)cc3)cc2Cl)cc1F
REMARK SMILES IDX 19 1 18 2 17 3 16 4 15 5 13 6 14 7 12 8 9 9 10 10 76 11
REMARK SMILES IDX 11 12 75 13 77 14 8 15 6 17 7 18 5 19 1 20 2 21 3 22 79 23
REMARK SMILES IDX 4 24 78 25 80 26 20 27 21 28 22 29 23 30 24 31 25 32 26 33
REMARK SMILES IDX 27 34 28 35 74 36 29 37 73 38 30 39 31 40 32 41 67 42 33 43
REMARK SMILES IDX 72 44 66 45 68 46 34 47 71 48 65 49 64 50 35 52 57 53 42 54
REMARK SMILES IDX 56 55 43 56 46 57 55 58 69 59 44 60 45 61 54 63 70 64 47 65
REMARK SMILES IDX 36 66 37 67 41 68 38 69 40 70 39 71 58 72 59 73 63 74 60 75
REMARK SMILES IDX 62 76 61 77 48 78 49 79 53 80 50 81 52 82 51 83
REMARK H PARENT 8 16 68 51 46 62
REMARK Flexibility Score: inf
ROOT
ATOM      1  C   UNL A   1      33.384  36.487  30.450  1.00  0.00     0.188 C 
ENDROOT
BRANCH   1   2
ATOM      2  O   UNL A   1      32.509  35.966  29.462  1.00  0.00    -0.376 OA
BRANCH   2   3
ATOM      3  C   UNL A   1      33.012  35.168  28.401  1.00  0.00     0.202 C 
BRANCH   3   4
ATOM      4  C   UNL A   1      34.482  34.716  28.354  1.00  0.00     0.261 C 
BRANCH   4   5
ATOM      5  O   UNL A   1      34.729  33.433  27.767  1.00  0.00    -0.460 OA
BRANCH   5   6
ATOM      6  C   UNL A   1      34.451  32.365  28.552  1.00  0.00     0.338 C 
ATOM      7  O   UNL A   1      34.311  32.353  29.766  1.00  0.00    -0.246 OA
BRANCH   6   8
ATOM      8  C   UNL A   1      34.151  31.198  27.699  1.00  0.00     0.061 A 
ATOM      9  C   UNL A   1      33.625  28.934  26.090  1.00  0.00     0.053 A 
ATOM     10  C   UNL A   1      34.789  29.018  26.875  1.00  0.00     0.028 A 
ATOM     11  C   UNL A   1      32.722  30.021  26.148  1.00  0.00     0.065 A 
ATOM     12  C   UNL A   1      35.062  30.142  27.658  1.00  0.00     0.018 A 
ATOM     13  C   UNL A   1      32.971  31.131  26.964  1.00  0.00     0.038 A 
ATOM     14  Cl  UNL A   1      31.212  30.054  25.305  1.00  0.00    -0.082 Cl
BRANCH   9  15
ATOM     15  N   UNL A   1      33.491  27.810  25.285  1.00  0.00    -0.377 N 
ATOM     16  H   UNL A   1      34.030  27.759  24.462  1.00  0.00     0.161 HD
BRANCH  15  17
ATOM     17  C   UNL A   1      32.589  26.697  25.595  1.00  0.00     0.106 C 
ATOM     18  C   UNL A   1      31.360  26.834  24.680  1.00  0.00     0.036 C 
BRANCH  17  19
ATOM     19  C   UNL A   1      33.369  25.384  25.520  1.00  0.00    -0.023 A 
ATOM     20  C   UNL A   1      35.419  21.668  24.610  1.00  0.00     0.047 C 
ATOM     21  C   UNL A   1      34.730  22.943  24.979  1.00  0.00    -0.015 A 
ATOM     22  C   UNL A   1      35.442  24.101  25.305  1.00  0.00     0.007 A 
ATOM     23  C   UNL A   1      33.341  23.009  24.955  1.00  0.00     0.126 A 
ATOM     24  C   UNL A   1      34.770  25.306  25.568  1.00  0.00     0.006 A 
ATOM     25  C   UNL A   1      32.672  24.195  25.232  1.00  0.00     0.045 A 
ATOM     26  F   UNL A   1      32.625  21.923  24.629  1.00  0.00    -0.207 F 
ENDBRANCH  17  19
ENDBRANCH  15  17
ENDBRANCH   9  15
ENDBRANCH   6   8
ENDBRANCH   5   6
ENDBRANCH   4   5
ENDBRANCH   3   4
ENDBRANCH   2   3
ENDBRANCH   1   2
BRANCH   1  27
ATOM     27  C   UNL A   1      32.930  36.591  31.922  1.00  0.00     0.188 C 
BRANCH  27  28
ATOM     28  O   UNL A   1      33.653  35.785  32.818  1.00  0.00    -0.376 OA
BRANCH  28  29
ATOM     29  C   UNL A   1      33.248  34.447  33.050  1.00  0.00     0.202 C 
BRANCH  29  30
ATOM     30  C   UNL A   1      34.195  33.241  33.238  1.00  0.00     0.261 C 
BRANCH  30  31
ATOM     31  O   UNL A   1      35.537  33.336  32.752  1.00  0.00    -0.460 OA
BRANCH  31  32
ATOM     32  C   UNL A   1      36.503  32.793  33.528  1.00  0.00     0.338 C 
ATOM     33  O   UNL A   1      36.560  32.787  34.748  1.00  0.00    -0.246 OA
BRANCH  32  34
ATOM     34  C   UNL A   1      37.430  32.040  32.662  1.00  0.00     0.060 A 
ATOM     35  C   UNL A   1      38.349  31.162  33.254  1.00  0.00     0.016 A 
ATOM     36  C   UNL A   1      37.406  32.214  31.278  1.00  0.00     0.016 A 
ATOM     37  C   UNL A   1      39.263  30.469  32.459  1.00  0.00     0.010 A 
ATOM     38  C   UNL A   1      38.337  31.534  30.485  1.00  0.00     0.010 A 
ATOM     39  C   UNL A   1      39.287  30.679  31.075  1.00  0.00    -0.014 A 
BRANCH  39  40
ATOM     40  C   UNL A   1      40.402  30.136  30.259  1.00  0.00     0.031 A 
ATOM     41  C   UNL A   1      41.613  30.999  30.026  1.00  0.00     0.074 A 
ATOM     42  C   UNL A   1      40.350  28.899  29.735  1.00  0.00     0.049 A 
ATOM     43  N   UNL A   1      42.676  30.763  29.301  1.00  0.00    -0.248 NA
ATOM     44  C   UNL A   1      41.622  32.307  30.704  1.00  0.00     0.031 C 
ATOM     45  C   UNL A   1      39.260  27.944  29.922  1.00  0.00     0.029 A 
ATOM     46  N   UNL A   1      41.242  28.239  28.925  1.00  0.00    -0.354 N 
ATOM     47  C   UNL A   1      43.473  31.894  29.423  1.00  0.00     0.074 A 
ATOM     48  C   UNL A   1      42.759  32.827  30.268  1.00  0.00     0.031 C 
ATOM     49  C   UNL A   1      39.543  26.822  29.236  1.00  0.00     0.029 A 
ATOM     50  C   UNL A   1      40.813  26.996  28.532  1.00  0.00     0.049 A 
ATOM     51  H   UNL A   1      42.108  28.621  28.653  1.00  0.00     0.167 HD
ATOM     52  C   UNL A   1      44.691  32.136  28.882  1.00  0.00     0.031 A 
ATOM     53  C   UNL A   1      41.367  26.111  27.679  1.00  0.00     0.031 A 
ATOM     54  C   UNL A   1      45.392  31.220  28.024  1.00  0.00     0.049 A 
ATOM     55  C   UNL A   1      42.679  26.442  27.016  1.00  0.00     0.074 A 
ATOM     56  C   UNL A   1      46.638  31.369  27.439  1.00  0.00     0.029 A 
ATOM     57  N   UNL A   1      44.904  29.987  27.618  1.00  0.00    -0.354 N 
ATOM     58  N   UNL A   1      43.439  27.501  27.161  1.00  0.00    -0.248 NA
ATOM     59  C   UNL A   1      43.215  25.446  26.075  1.00  0.00     0.031 C 
ATOM     60  C   UNL A   1      46.873  30.257  26.624  1.00  0.00     0.029 A 
ATOM     61  C   UNL A   1      45.809  29.381  26.762  1.00  0.00     0.049 A 
ATOM     62  H   UNL A   1      44.042  29.602  27.894  1.00  0.00     0.167 HD
ATOM     63  C   UNL A   1      44.554  27.285  26.359  1.00  0.00     0.074 A 
ATOM     64  C   UNL A   1      44.379  25.986  25.742  1.00  0.00     0.031 C 
ATOM     65  C   UNL A   1      45.627  28.087  26.154  1.00  0.00     0.031 A 
BRANCH  52  66
ATOM     66  C   UNL A   1      45.324  33.470  29.171  1.00  0.00    -0.014 A 
ATOM     67  C   UNL A   1      46.245  33.633  30.217  1.00  0.00     0.009 A 
ATOM     68  C   UNL A   1      45.014  34.575  28.362  1.00  0.00     0.009 A 
ATOM     69  C   UNL A   1      46.816  34.884  30.469  1.00  0.00     0.001 A 
ATOM     70  C   UNL A   1      45.609  35.815  28.595  1.00  0.00     0.001 A 
ATOM     71  C   UNL A   1      46.501  35.971  29.655  1.00  0.00     0.000 A 
ENDBRANCH  52  66
BRANCH  53  72
ATOM     72  C   UNL A   1      40.674  24.829  27.376  1.00  0.00    -0.014 A 
ATOM     73  C   UNL A   1      41.162  23.614  27.880  1.00  0.00     0.009 A 
ATOM     74  C   UNL A   1      39.537  24.811  26.553  1.00  0.00     0.009 A 
ATOM     75  C   UNL A   1      40.542  22.407  27.545  1.00  0.00     0.001 A 
ATOM     76  C   UNL A   1      38.900  23.607  26.246  1.00  0.00     0.001 A 
ATOM     77  C   UNL A   1      39.409  22.406  26.733  1.00  0.00     0.000 A 
ENDBRANCH  53  72
BRANCH  65  78
ATOM     78  C   UNL A   1      46.725  27.569  25.265  1.00  0.00    -0.014 A 
ATOM     79  C   UNL A   1      47.670  26.639  25.726  1.00  0.00     0.009 A 
ATOM     80  C   UNL A   1      46.784  27.987  23.925  1.00  0.00     0.009 A 
ATOM     81  C   UNL A   1      48.673  26.170  24.874  1.00  0.00     0.001 A 
ATOM     82  C   UNL A   1      47.765  27.489  23.067  1.00  0.00     0.001 A 
ATOM     83  C   UNL A   1      48.716  26.590  23.545  1.00  0.00     0.000 A 
ENDBRANCH  65  78
ENDBRANCH  39  40
ENDBRANCH  32  34
ENDBRANCH  31  32
ENDBRANCH  30  31
ENDBRANCH  29  30
ENDBRANCH  28  29
ENDBRANCH  27  28
ENDBRANCH   1  27
TORSDOF 20
ENDMDL
MODEL 3
REMARK VINA RESULT:     -10.5      4.011      8.515
REMARK SMILES Cc1ccc([C@H](C)Nc2ccc(C(=O)OCCOCCOCCOC(=O)c3ccc(-c4c5nc(c(-c6ccccc6)c6ccc([nH]6)c(-c6ccccc6)c6nc(c(-c7ccccc7)c7ccc4[nH]7)C=C6)C=C5)cc3)cc2Cl)cc1F
REMARK SMILES IDX 19 1 18 2 17 3 16 4 15 5 13 6 14 7 12 8 9 9 10 10 76 11
REMARK SMILES IDX 11 12 75 13 77 14 8 15 6 17 7 18 5 19 1 20 2 21 3 22 79 23
REMARK SMILES IDX 4 24 78 25 80 26 20 27 21 28 22 29 23 30 24 31 25 32 26 33
REMARK SMILES IDX 27 34 28 35 74 36 29 37 73 38 30 39 31 40 32 41 67 42 33 43
REMARK SMILES IDX 72 44 66 45 68 46 34 47 71 48 65 49 64 50 35 52 57 53 42 54
REMARK SMILES IDX 56 55 43 56 46 57 55 58 69 59 44 60 45 61 54 63 70 64 47 65
REMARK SMILES IDX 36 66 37 67 41 68 38 69 40 70 39 71 58 72 59 73 63 74 60 75
REMARK SMILES IDX 62 76 61 77 48 78 49 79 53 80 50 81 52 82 51 83
REMARK H PARENT 8 16 68 51 46 62
REMARK Flexibility Score: inf
ROOT
ATOM      1  C   UNL A   1      33.396  22.807  27.260  1.00  0.00     0.188 C 
ENDROOT
BRANCH   1   2
ATOM      2  O   UNL A   1      32.239  23.628  27.226  1.00  0.00    -0.376 OA
BRANCH   2   3
ATOM      3  C   UNL A   1      31.962  24.437  26.092  1.00  0.00     0.202 C 
BRANCH   3   4
ATOM      4  C   UNL A   1      31.223  25.780  26.217  1.00  0.00     0.261 C 
BRANCH   4   5
ATOM      5  O   UNL A   1      31.454  26.726  25.166  1.00  0.00    -0.460 OA
BRANCH   5   6
ATOM      6  C   UNL A   1      32.749  27.062  24.953  1.00  0.00     0.338 C 
ATOM      7  O   UNL A   1      33.481  26.666  24.059  1.00  0.00    -0.246 OA
BRANCH   6   8
ATOM      8  C   UNL A   1      33.126  28.153  25.874  1.00  0.00     0.061 A 
ATOM      9  C   UNL A   1      33.789  30.255  27.645  1.00  0.00     0.053 A 
ATOM     10  C   UNL A   1      32.464  30.048  27.220  1.00  0.00     0.028 A 
ATOM     11  C   UNL A   1      34.773  29.362  27.161  1.00  0.00     0.065 A 
ATOM     12  C   UNL A   1      32.134  29.022  26.331  1.00  0.00     0.018 A 
ATOM     13  C   UNL A   1      34.441  28.307  26.304  1.00  0.00     0.038 A 
ATOM     14  Cl  UNL A   1      36.436  29.427  27.635  1.00  0.00    -0.082 Cl
BRANCH   9  15
ATOM     15  N   UNL A   1      34.020  31.354  28.463  1.00  0.00    -0.377 N 
ATOM     16  H   UNL A   1      33.929  31.237  29.437  1.00  0.00     0.161 HD
BRANCH  15  17
ATOM     17  C   UNL A   1      34.392  32.676  27.953  1.00  0.00     0.106 C 
ATOM     18  C   UNL A   1      33.103  33.510  27.858  1.00  0.00     0.036 C 
BRANCH  17  19
ATOM     19  C   UNL A   1      35.526  33.242  28.808  1.00  0.00    -0.023 A 
ATOM     20  C   UNL A   1      38.611  34.296  31.674  1.00  0.00     0.047 C 
ATOM     21  C   UNL A   1      37.564  33.979  30.655  1.00  0.00    -0.015 A 
ATOM     22  C   UNL A   1      37.891  33.501  29.383  1.00  0.00     0.007 A 
ATOM     23  C   UNL A   1      36.219  34.113  30.982  1.00  0.00     0.126 A 
ATOM     24  C   UNL A   1      36.885  33.134  28.473  1.00  0.00     0.006 A 
ATOM     25  C   UNL A   1      35.221  33.767  30.079  1.00  0.00     0.045 A 
ATOM     26  F   UNL A   1      35.867  34.552  32.200  1.00  0.00    -0.207 F 
ENDBRANCH  17  19
ENDBRANCH  15  17
ENDBRANCH   9  15
ENDBRANCH   6   8
ENDBRANCH   5   6
ENDBRANCH   4   5
ENDBRANCH   3   4
ENDBRANCH   2   3
ENDBRANCH   1   2
BRANCH   1  27
ATOM     27  C   UNL A   1      34.023  22.281  25.951  1.00  0.00     0.188 C 
BRANCH  27  28
ATOM     28  O   UNL A   1      34.294  20.901  25.943  1.00  0.00    -0.376 OA
BRANCH  28  29
ATOM     29  C   UNL A   1      35.099  20.345  24.919  1.00  0.00     0.202 C 
BRANCH  29  30
ATOM     30  C   UNL A   1      36.630  20.506  24.792  1.00  0.00     0.261 C 
BRANCH  30  31
ATOM     31  O   UNL A   1      37.309  21.380  25.699  1.00  0.00    -0.460 OA
BRANCH  31  32
ATOM     32  C   UNL A   1      38.624  21.138  25.905  1.00  0.00     0.338 C 
ATOM     33  O   UNL A   1      39.257  20.145  25.579  1.00  0.00    -0.246 OA
BRANCH  32  34
ATOM     34  C   UNL A   1      39.243  22.359  26.455  1.00  0.00     0.060 A 
ATOM     35  C   UNL A   1      38.705  23.607  26.110  1.00  0.00     0.016 A 
ATOM     36  C   UNL A   1      40.359  22.274  27.288  1.00  0.00     0.016 A 
ATOM     37  C   UNL A   1      39.298  24.778  26.584  1.00  0.00     0.010 A 
ATOM     38  C   UNL A   1      40.964  23.450  27.746  1.00  0.00     0.010 A 
ATOM     39  C   UNL A   1      40.452  24.707  27.374  1.00  0.00    -0.014 A 
BRANCH  39  40
ATOM     40  C   UNL A   1      41.222  25.939  27.680  1.00  0.00     0.031 A 
ATOM     41  C   UNL A   1      40.602  26.973  28.581  1.00  0.00     0.074 A 
ATOM     42  C   UNL A   1      42.450  26.141  27.173  1.00  0.00     0.049 A 
ATOM     43  N   UNL A   1      41.058  28.147  28.937  1.00  0.00    -0.248 NA
ATOM     44  C   UNL A   1      39.290  26.634  29.157  1.00  0.00     0.031 C 
ATOM     45  C   UNL A   1      43.185  25.203  26.327  1.00  0.00     0.029 A 
ATOM     46  N   UNL A   1      43.295  27.218  27.294  1.00  0.00    -0.354 N 
ATOM     47  C   UNL A   1      40.085  28.692  29.764  1.00  0.00     0.074 A 
ATOM     48  C   UNL A   1      39.003  27.734  29.836  1.00  0.00     0.031 C 
ATOM     49  C   UNL A   1      44.367  25.749  25.996  1.00  0.00     0.029 A 
ATOM     50  C   UNL A   1      44.457  27.090  26.573  1.00  0.00     0.049 A 
ATOM     51  H   UNL A   1      43.088  28.006  27.846  1.00  0.00     0.167 HD
ATOM     52  C   UNL A   1      40.091  29.883  30.410  1.00  0.00     0.031 A 
ATOM     53  C   UNL A   1      45.463  27.965  26.378  1.00  0.00     0.031 A 
ATOM     54  C   UNL A   1      41.155  30.847  30.323  1.00  0.00     0.049 A 
ATOM     55  C   UNL A   1      45.404  29.322  27.032  1.00  0.00     0.074 A 
ATOM     56  C   UNL A   1      41.258  32.075  30.952  1.00  0.00     0.029 A 
ATOM     57  N   UNL A   1      42.295  30.695  29.549  1.00  0.00    -0.354 N 
ATOM     58  N   UNL A   1      44.494  29.816  27.837  1.00  0.00    -0.248 NA
ATOM     59  C   UNL A   1      46.520  30.240  26.756  1.00  0.00     0.031 C 
ATOM     60  C   UNL A   1      42.429  32.696  30.506  1.00  0.00     0.029 A 
ATOM     61  C   UNL A   1      43.092  31.823  29.658  1.00  0.00     0.049 A 
ATOM     62  H   UNL A   1      42.507  29.905  29.002  1.00  0.00     0.167 HD
ATOM     63  C   UNL A   1      44.942  31.085  28.188  1.00  0.00     0.074 A 
ATOM     64  C   UNL A   1      46.214  31.278  27.522  1.00  0.00     0.031 C 
ATOM     65  C   UNL A   1      44.357  32.005  28.992  1.00  0.00     0.031 A 
BRANCH  52  66
ATOM     66  C   UNL A   1      38.882  30.228  31.236  1.00  0.00    -0.014 A 
ATOM     67  C   UNL A   1      38.993  30.561  32.595  1.00  0.00     0.009 A 
ATOM     68  C   UNL A   1      37.613  30.250  30.635  1.00  0.00     0.009 A 
ATOM     69  C   UNL A   1      37.854  30.873  33.343  1.00  0.00     0.001 A 
ATOM     70  C   UNL A   1      36.482  30.593  31.375  1.00  0.00     0.001 A 
ATOM     71  C   UNL A   1      36.602  30.893  32.731  1.00  0.00     0.000 A 
ENDBRANCH  52  66
BRANCH  53  72
ATOM     72  C   UNL A   1      46.611  27.603  25.502  1.00  0.00    -0.014 A 
ATOM     73  C   UNL A   1      46.636  27.995  24.154  1.00  0.00     0.009 A 
ATOM     74  C   UNL A   1      47.675  26.837  26.003  1.00  0.00     0.009 A 
ATOM     75  C   UNL A   1      47.688  27.603  23.322  1.00  0.00     0.001 A 
ATOM     76  C   UNL A   1      48.741  26.474  25.177  1.00  0.00     0.001 A 
ATOM     77  C   UNL A   1      48.741  26.848  23.835  1.00  0.00     0.000 A 
ENDBRANCH  53  72
BRANCH  65  78
ATOM     78  C   UNL A   1      45.103  33.288  29.241  1.00  0.00    -0.014 A 
ATOM     79  C   UNL A   1      46.218  33.339  30.092  1.00  0.00     0.009 A 
ATOM     80  C   UNL A   1      44.706  34.459  28.574  1.00  0.00     0.009 A 
ATOM     81  C   UNL A   1      46.896  34.544  30.297  1.00  0.00     0.001 A 
ATOM     82  C   UNL A   1      45.407  35.652  28.753  1.00  0.00     0.001 A 
ATOM     83  C   UNL A   1      46.494  35.696  29.623  1.00  0.00     0.000 A 
ENDBRANCH  65  78
ENDBRANCH  39  40
ENDBRANCH  32  34
ENDBRANCH  31  32
ENDBRANCH  30  31
ENDBRANCH  29  30
ENDBRANCH  28  29
ENDBRANCH  27  28
ENDBRANCH   1  27
TORSDOF 20
ENDMDL
