MODEL 1
REMARK VINA RESULT:     -10.2      0.000      0.000
REMARK SMILES O=C(/C=C/c1ccc(Br)cc1-n1ccnc1)OCCOCCOCCOC(=O)c1ccc(-c2c3nc(c(-c4ccccc4)c4ccc([nH]4)c(-c4ccccc4)c4nc(c(-c5ccccc5)c5ccc2[nH]5)C=C4)C=C3)cc1
REMARK SMILES IDX 21 1 20 2 19 3 18 4 17 5 2 6 1 7 3 8 4 9 5 10 6 11 11 12
REMARK SMILES IDX 7 13 10 14 8 15 9 16 12 17 13 18 16 19 14 20 15 21 22 22
REMARK SMILES IDX 23 23 24 24 25 25 26 26 27 27 28 28 29 29 30 30 76 31 31 32
REMARK SMILES IDX 75 33 32 34 33 35 34 36 69 37 35 38 74 39 68 40 70 41 36 42
REMARK SMILES IDX 73 43 67 44 66 45 37 47 59 48 44 49 58 50 45 51 48 52 57 53
REMARK SMILES IDX 71 54 46 55 47 56 56 58 72 59 49 60 38 61 39 62 43 63 40 64
REMARK SMILES IDX 42 65 41 66 60 67 61 68 65 69 62 70 64 71 63 72 50 73 51 74
REMARK SMILES IDX 55 75 52 76 54 77 53 78
REMARK H PARENT 70 46 48 57
REMARK Flexibility Score: inf
ROOT
ATOM      1  C   UNL A   1      34.522  32.075  28.231  1.00  0.00     0.188 C 
ENDROOT
BRANCH   1   2
ATOM      2  O   UNL A   1      33.379  31.589  27.553  1.00  0.00    -0.376 OA
BRANCH   2   3
ATOM      3  C   UNL A   1      33.448  30.340  26.875  1.00  0.00     0.202 C 
BRANCH   3   4
ATOM      4  C   UNL A   1      32.312  29.880  25.968  1.00  0.00     0.261 C 
BRANCH   4   5
ATOM      5  O   UNL A   1      31.944  28.475  25.879  1.00  0.00    -0.460 OA
BRANCH   5   6
ATOM      6  C   UNL A   1      31.602  27.531  26.767  1.00  0.00     0.330 C 
ATOM      7  O   UNL A   1      31.139  27.844  27.860  1.00  0.00    -0.247 OA
BRANCH   6   8
ATOM      8  C   UNL A   1      31.766  26.102  26.486  1.00  0.00     0.094 C 
ATOM      9  C   UNL A   1      32.890  25.532  26.030  1.00  0.00     0.018 C 
BRANCH   9  10
ATOM     10  C   UNL A   1      32.901  24.137  25.564  1.00  0.00    -0.001 A 
ATOM     11  C   UNL A   1      32.990  23.133  26.545  1.00  0.00     0.011 A 
ATOM     12  C   UNL A   1      32.752  23.732  24.226  1.00  0.00     0.055 A 
ATOM     13  C   UNL A   1      32.923  21.779  26.201  1.00  0.00     0.016 A 
ATOM     14  C   UNL A   1      32.666  22.377  23.876  1.00  0.00     0.043 A 
ATOM     15  C   UNL A   1      32.752  21.409  24.870  1.00  0.00     0.020 A 
ATOM     16  Br  UNL A   1      32.651  19.581  24.409  1.00  0.00    -0.051 Br
BRANCH  12  17
ATOM     17  N   UNL A   1      32.773  24.649  23.164  1.00  0.00    -0.306 N 
ATOM     18  C   UNL A   1      31.671  25.271  22.626  1.00  0.00     0.113 A 
ATOM     19  C   UNL A   1      33.873  25.307  22.673  1.00  0.00     0.204 A 
ATOM     20  C   UNL A   1      32.172  26.233  21.779  1.00  0.00     0.131 A 
ATOM     21  N   UNL A   1      33.542  26.243  21.809  1.00  0.00    -0.245 NA
ENDBRANCH  12  17
ENDBRANCH   9  10
ENDBRANCH   6   8
ENDBRANCH   5   6
ENDBRANCH   4   5
ENDBRANCH   3   4
ENDBRANCH   2   3
ENDBRANCH   1   2
BRANCH   1  22
ATOM     22  C   UNL A   1      34.430  33.579  28.495  1.00  0.00     0.188 C 
BRANCH  22  23
ATOM     23  O   UNL A   1      33.289  34.262  27.981  1.00  0.00    -0.376 OA
BRANCH  23  24
ATOM     24  C   UNL A   1      32.760  35.372  28.703  1.00  0.00     0.202 C 
BRANCH  24  25
ATOM     25  C   UNL A   1      33.330  35.684  30.088  1.00  0.00     0.261 C 
BRANCH  25  26
ATOM     26  O   UNL A   1      32.591  35.135  31.181  1.00  0.00    -0.460 OA
BRANCH  26  27
ATOM     27  C   UNL A   1      32.902  35.669  32.387  1.00  0.00     0.338 C 
ATOM     28  O   UNL A   1      32.431  36.674  32.886  1.00  0.00    -0.246 OA
BRANCH  27  29
ATOM     29  C   UNL A   1      33.992  34.905  33.020  1.00  0.00     0.060 A 
ATOM     30  C   UNL A   1      35.139  35.616  33.383  1.00  0.00     0.016 A 
ATOM     31  C   UNL A   1      33.981  33.505  33.013  1.00  0.00     0.016 A 
ATOM     32  C   UNL A   1      36.330  34.931  33.547  1.00  0.00     0.010 A 
ATOM     33  C   UNL A   1      35.167  32.816  33.194  1.00  0.00     0.010 A 
ATOM     34  C   UNL A   1      36.346  33.546  33.353  1.00  0.00    -0.014 A 
BRANCH  34  35
ATOM     35  C   UNL A   1      37.638  32.922  33.106  1.00  0.00     0.031 A 
ATOM     36  C   UNL A   1      38.637  32.918  34.192  1.00  0.00     0.074 A 
ATOM     37  C   UNL A   1      37.895  32.291  31.943  1.00  0.00     0.049 A 
ATOM     38  N   UNL A   1      39.822  33.434  34.177  1.00  0.00    -0.248 NA
ATOM     39  C   UNL A   1      38.272  32.255  35.448  1.00  0.00     0.031 C 
ATOM     40  C   UNL A   1      36.936  31.931  30.893  1.00  0.00     0.029 A 
ATOM     41  N   UNL A   1      39.063  31.735  31.510  1.00  0.00    -0.354 N 
ATOM     42  C   UNL A   1      40.424  33.031  35.362  1.00  0.00     0.074 A 
ATOM     43  C   UNL A   1      39.399  32.388  36.149  1.00  0.00     0.031 C 
ATOM     44  C   UNL A   1      37.509  31.035  30.063  1.00  0.00     0.029 A 
ATOM     45  C   UNL A   1      38.901  30.864  30.445  1.00  0.00     0.049 A 
ATOM     46  H   UNL A   1      39.937  31.933  31.916  1.00  0.00     0.167 HD
ATOM     47  C   UNL A   1      41.770  33.075  35.547  1.00  0.00     0.031 A 
ATOM     48  C   UNL A   1      39.823  30.015  29.940  1.00  0.00     0.031 A 
ATOM     49  C   UNL A   1      42.445  33.909  34.593  1.00  0.00     0.049 A 
ATOM     50  C   UNL A   1      41.163  30.464  30.371  1.00  0.00     0.074 A 
ATOM     51  C   UNL A   1      42.391  35.243  34.243  1.00  0.00     0.029 A 
ATOM     52  N   UNL A   1      43.162  33.289  33.601  1.00  0.00    -0.354 N 
ATOM     53  N   UNL A   1      41.757  31.530  29.918  1.00  0.00    -0.248 NA
ATOM     54  C   UNL A   1      41.749  29.892  31.574  1.00  0.00     0.031 C 
ATOM     55  C   UNL A   1      42.700  35.283  32.853  1.00  0.00     0.029 A 
ATOM     56  C   UNL A   1      42.923  33.969  32.435  1.00  0.00     0.049 A 
ATOM     57  H   UNL A   1      43.743  32.500  33.706  1.00  0.00     0.167 HD
ATOM     58  C   UNL A   1      42.507  31.999  30.984  1.00  0.00     0.074 A 
ATOM     59  C   UNL A   1      42.586  30.876  31.910  1.00  0.00     0.031 C 
ATOM     60  C   UNL A   1      42.745  33.334  31.146  1.00  0.00     0.031 A 
BRANCH  47  61
ATOM     61  C   UNL A   1      42.510  32.085  36.403  1.00  0.00    -0.014 A 
ATOM     62  C   UNL A   1      43.305  32.548  37.465  1.00  0.00     0.009 A 
ATOM     63  C   UNL A   1      42.655  30.732  36.037  1.00  0.00     0.009 A 
ATOM     64  C   UNL A   1      44.215  31.703  38.111  1.00  0.00     0.001 A 
ATOM     65  C   UNL A   1      43.530  29.876  36.709  1.00  0.00     0.001 A 
ATOM     66  C   UNL A   1      44.325  30.367  37.735  1.00  0.00     0.000 A 
ENDBRANCH  47  61
BRANCH  48  67
ATOM     67  C   UNL A   1      39.596  28.727  29.255  1.00  0.00    -0.014 A 
ATOM     68  C   UNL A   1      40.066  28.510  27.952  1.00  0.00     0.009 A 
ATOM     69  C   UNL A   1      39.105  27.618  29.969  1.00  0.00     0.009 A 
ATOM     70  C   UNL A   1      40.063  27.225  27.394  1.00  0.00     0.001 A 
ATOM     71  C   UNL A   1      39.091  26.338  29.409  1.00  0.00     0.001 A 
ATOM     72  C   UNL A   1      39.582  26.140  28.124  1.00  0.00     0.000 A 
ENDBRANCH  48  67
BRANCH  60  73
ATOM     73  C   UNL A   1      42.471  34.244  29.974  1.00  0.00    -0.014 A 
ATOM     74  C   UNL A   1      41.181  34.712  29.666  1.00  0.00     0.009 A 
ATOM     75  C   UNL A   1      43.555  34.752  29.242  1.00  0.00     0.009 A 
ATOM     76  C   UNL A   1      40.977  35.624  28.628  1.00  0.00     0.001 A 
ATOM     77  C   UNL A   1      43.353  35.682  28.219  1.00  0.00     0.001 A 
ATOM     78  C   UNL A   1      42.065  36.112  27.907  1.00  0.00     0.000 A 
ENDBRANCH  60  73
ENDBRANCH  34  35
ENDBRANCH  27  29
ENDBRANCH  26  27
ENDBRANCH  25  26
ENDBRANCH  24  25
ENDBRANCH  23  24
ENDBRANCH  22  23
ENDBRANCH   1  22
TORSDOF 19
ENDMDL
MODEL 2
REMARK VINA RESULT:     -10.1      6.178     11.005
REMARK SMILES O=C(/C=C/c1ccc(Br)cc1-n1ccnc1)OCCOCCOCCOC(=O)c1ccc(-c2c3nc(c(-c4ccccc4)c4ccc([nH]4)c(-c4ccccc4)c4nc(c(-c5ccccc5)c5ccc2[nH]5)C=C4)C=C3)cc1
REMARK SMILES IDX 21 1 20 2 19 3 18 4 17 5 2 6 1 7 3 8 4 9 5 10 6 11 11 12
REMARK SMILES IDX 7 13 10 14 8 15 9 16 12 17 13 18 16 19 14 20 15 21 22 22
REMARK SMILES IDX 23 23 24 24 25 25 26 26 27 27 28 28 29 29 30 30 76 31 31 32
REMARK SMILES IDX 75 33 32 34 33 35 34 36 69 37 35 38 74 39 68 40 70 41 36 42
REMARK SMILES IDX 73 43 67 44 66 45 37 47 59 48 44 49 58 50 45 51 48 52 57 53
REMARK SMILES IDX 71 54 46 55 47 56 56 58 72 59 49 60 38 61 39 62 43 63 40 64
REMARK SMILES IDX 42 65 41 66 60 67 61 68 65 69 62 70 64 71 63 72 50 73 51 74
REMARK SMILES IDX 55 75 52 76 54 77 53 78
REMARK H PARENT 70 46 48 57
REMARK Flexibility Score: inf
ROOT
ATOM      1  C   UNL A   1      40.466  21.432  26.426  1.00  0.00     0.188 C 
ENDROOT
BRANCH   1   2
ATOM      2  O   UNL A   1      39.256  22.074  26.070  1.00  0.00    -0.376 OA
BRANCH   2   3
ATOM      3  C   UNL A   1      38.314  21.386  25.257  1.00  0.00     0.202 C 
BRANCH   3   4
ATOM      4  C   UNL A   1      37.056  22.086  24.756  1.00  0.00     0.261 C 
BRANCH   4   5
ATOM      5  O   UNL A   1      36.545  23.278  25.418  1.00  0.00    -0.460 OA
BRANCH   5   6
ATOM      6  C   UNL A   1      35.342  23.670  25.859  1.00  0.00     0.330 C 
ATOM      7  O   UNL A   1      34.878  23.206  26.897  1.00  0.00    -0.247 OA
BRANCH   6   8
ATOM      8  C   UNL A   1      34.529  24.650  25.134  1.00  0.00     0.094 C 
ATOM      9  C   UNL A   1      34.138  25.836  25.623  1.00  0.00     0.018 C 
BRANCH   9  10
ATOM     10  C   UNL A   1      33.144  26.658  24.918  1.00  0.00    -0.001 A 
ATOM     11  C   UNL A   1      33.596  27.857  24.338  1.00  0.00     0.011 A 
ATOM     12  C   UNL A   1      31.799  26.301  24.716  1.00  0.00     0.055 A 
ATOM     13  C   UNL A   1      32.739  28.660  23.579  1.00  0.00     0.016 A 
ATOM     14  C   UNL A   1      30.939  27.093  23.940  1.00  0.00     0.043 A 
ATOM     15  C   UNL A   1      31.419  28.269  23.376  1.00  0.00     0.020 A 
ATOM     16  Br  UNL A   1      30.267  29.349  22.340  1.00  0.00    -0.051 Br
BRANCH  12  17
ATOM     17  N   UNL A   1      31.220  25.190  25.348  1.00  0.00    -0.306 N 
ATOM     18  C   UNL A   1      30.946  23.984  24.747  1.00  0.00     0.113 A 
ATOM     19  C   UNL A   1      31.098  24.990  26.701  1.00  0.00     0.204 A 
ATOM     20  C   UNL A   1      30.602  23.135  25.773  1.00  0.00     0.131 A 
ATOM     21  N   UNL A   1      30.692  23.771  26.983  1.00  0.00    -0.245 NA
ENDBRANCH  12  17
ENDBRANCH   9  10
ENDBRANCH   6   8
ENDBRANCH   5   6
ENDBRANCH   4   5
ENDBRANCH   3   4
ENDBRANCH   2   3
ENDBRANCH   1   2
BRANCH   1  22
ATOM     22  C   UNL A   1      40.404  19.924  26.180  1.00  0.00     0.188 C 
BRANCH  22  23
ATOM     23  O   UNL A   1      41.530  19.320  25.545  1.00  0.00    -0.376 OA
BRANCH  23  24
ATOM     24  C   UNL A   1      42.741  19.164  26.281  1.00  0.00     0.202 C 
BRANCH  24  25
ATOM     25  C   UNL A   1      43.948  18.538  25.580  1.00  0.00     0.261 C 
BRANCH  25  26
ATOM     26  O   UNL A   1      45.001  19.451  25.262  1.00  0.00    -0.460 OA
BRANCH  26  27
ATOM     27  C   UNL A   1      44.813  20.136  24.108  1.00  0.00     0.338 C 
ATOM     28  O   UNL A   1      44.543  19.672  23.016  1.00  0.00    -0.246 OA
BRANCH  27  29
ATOM     29  C   UNL A   1      45.069  21.572  24.318  1.00  0.00     0.060 A 
ATOM     30  C   UNL A   1      46.154  21.912  25.133  1.00  0.00     0.016 A 
ATOM     31  C   UNL A   1      44.121  22.531  23.940  1.00  0.00     0.016 A 
ATOM     32  C   UNL A   1      46.181  23.161  25.728  1.00  0.00     0.010 A 
ATOM     33  C   UNL A   1      44.155  23.786  24.522  1.00  0.00     0.010 A 
ATOM     34  C   UNL A   1      45.126  24.047  25.490  1.00  0.00    -0.014 A 
BRANCH  34  35
ATOM     35  C   UNL A   1      44.951  25.144  26.431  1.00  0.00     0.031 A 
ATOM     36  C   UNL A   1      46.054  26.110  26.598  1.00  0.00     0.074 A 
ATOM     37  C   UNL A   1      43.783  25.326  27.079  1.00  0.00     0.049 A 
ATOM     38  N   UNL A   1      46.701  26.390  27.681  1.00  0.00    -0.248 NA
ATOM     39  C   UNL A   1      46.487  26.860  25.414  1.00  0.00     0.031 C 
ATOM     40  C   UNL A   1      42.502  24.665  26.809  1.00  0.00     0.029 A 
ATOM     41  N   UNL A   1      43.474  26.235  28.049  1.00  0.00    -0.354 N 
ATOM     42  C   UNL A   1      47.522  27.465  27.364  1.00  0.00     0.074 A 
ATOM     43  C   UNL A   1      47.421  27.654  25.936  1.00  0.00     0.031 C 
ATOM     44  C   UNL A   1      41.518  25.344  27.434  1.00  0.00     0.029 A 
ATOM     45  C   UNL A   1      42.112  26.394  28.244  1.00  0.00     0.049 A 
ATOM     46  H   UNL A   1      44.154  26.730  28.560  1.00  0.00     0.167 HD
ATOM     47  C   UNL A   1      48.085  28.258  28.314  1.00  0.00     0.031 A 
ATOM     48  C   UNL A   1      41.501  27.354  28.972  1.00  0.00     0.031 A 
ATOM     49  C   UNL A   1      48.071  27.668  29.623  1.00  0.00     0.049 A 
ATOM     50  C   UNL A   1      42.487  27.935  29.907  1.00  0.00     0.074 A 
ATOM     51  C   UNL A   1      48.591  26.522  30.189  1.00  0.00     0.029 A 
ATOM     52  N   UNL A   1      47.173  28.164  30.535  1.00  0.00    -0.354 N 
ATOM     53  N   UNL A   1      42.961  27.313  30.947  1.00  0.00    -0.248 NA
ATOM     54  C   UNL A   1      43.215  29.132  29.514  1.00  0.00     0.031 C 
ATOM     55  C   UNL A   1      47.670  26.152  31.211  1.00  0.00     0.029 A 
ATOM     56  C   UNL A   1      46.639  27.095  31.208  1.00  0.00     0.049 A 
ATOM     57  H   UNL A   1      46.953  29.112  30.680  1.00  0.00     0.167 HD
ATOM     58  C   UNL A   1      44.259  27.783  31.081  1.00  0.00     0.074 A 
ATOM     59  C   UNL A   1      44.301  28.999  30.280  1.00  0.00     0.031 C 
ATOM     60  C   UNL A   1      45.247  26.989  31.588  1.00  0.00     0.031 A 
BRANCH  47  61
ATOM     61  C   UNL A   1      48.350  29.722  28.103  1.00  0.00    -0.014 A 
ATOM     62  C   UNL A   1      47.269  30.619  28.047  1.00  0.00     0.009 A 
ATOM     63  C   UNL A   1      49.608  30.210  27.701  1.00  0.00     0.009 A 
ATOM     64  C   UNL A   1      47.440  31.931  27.589  1.00  0.00     0.001 A 
ATOM     65  C   UNL A   1      49.789  31.531  27.285  1.00  0.00     0.001 A 
ATOM     66  C   UNL A   1      48.699  32.387  27.211  1.00  0.00     0.000 A 
ENDBRANCH  47  61
BRANCH  48  67
ATOM     67  C   UNL A   1      40.153  27.926  28.778  1.00  0.00    -0.014 A 
ATOM     68  C   UNL A   1      39.199  27.889  29.804  1.00  0.00     0.009 A 
ATOM     69  C   UNL A   1      39.872  28.715  27.647  1.00  0.00     0.009 A 
ATOM     70  C   UNL A   1      38.015  28.633  29.709  1.00  0.00     0.001 A 
ATOM     71  C   UNL A   1      38.687  29.449  27.546  1.00  0.00     0.001 A 
ATOM     72  C   UNL A   1      37.764  29.416  28.584  1.00  0.00     0.000 A 
ENDBRANCH  48  67
BRANCH  60  73
ATOM     73  C   UNL A   1      44.836  25.728  32.309  1.00  0.00    -0.014 A 
ATOM     74  C   UNL A   1      44.552  24.529  31.632  1.00  0.00     0.009 A 
ATOM     75  C   UNL A   1      44.864  25.709  33.712  1.00  0.00     0.009 A 
ATOM     76  C   UNL A   1      44.262  23.358  32.337  1.00  0.00     0.001 A 
ATOM     77  C   UNL A   1      44.597  24.533  34.417  1.00  0.00     0.001 A 
ATOM     78  C   UNL A   1      44.289  23.360  33.730  1.00  0.00     0.000 A 
ENDBRANCH  60  73
ENDBRANCH  34  35
ENDBRANCH  27  29
ENDBRANCH  26  27
ENDBRANCH  25  26
ENDBRANCH  24  25
ENDBRANCH  23  24
ENDBRANCH  22  23
ENDBRANCH   1  22
TORSDOF 19
ENDMDL
MODEL 3
REMARK VINA RESULT:      -9.8      4.432      8.879
REMARK SMILES O=C(/C=C/c1ccc(Br)cc1-n1ccnc1)OCCOCCOCCOC(=O)c1ccc(-c2c3nc(c(-c4ccccc4)c4ccc([nH]4)c(-c4ccccc4)c4nc(c(-c5ccccc5)c5ccc2[nH]5)C=C4)C=C3)cc1
REMARK SMILES IDX 21 1 20 2 19 3 18 4 17 5 2 6 1 7 3 8 4 9 5 10 6 11 11 12
REMARK SMILES IDX 7 13 10 14 8 15 9 16 12 17 13 18 16 19 14 20 15 21 22 22
REMARK SMILES IDX 23 23 24 24 25 25 26 26 27 27 28 28 29 29 30 30 76 31 31 32
REMARK SMILES IDX 75 33 32 34 33 35 34 36 69 37 35 38 74 39 68 40 70 41 36 42
REMARK SMILES IDX 73 43 67 44 66 45 37 47 59 48 44 49 58 50 45 51 48 52 57 53
REMARK SMILES IDX 71 54 46 55 47 56 56 58 72 59 49 60 38 61 39 62 43 63 40 64
REMARK SMILES IDX 42 65 41 66 60 67 61 68 65 69 62 70 64 71 63 72 50 73 51 74
REMARK SMILES IDX 55 75 52 76 54 77 53 78
REMARK H PARENT 70 46 48 57
REMARK Flexibility Score: inf
ROOT
ATOM      1  C   UNL A   1      42.382  19.611  26.369  1.00  0.00     0.188 C 
ENDROOT
BRANCH   1   2
ATOM      2  O   UNL A   1      41.247  19.111  25.687  1.00  0.00    -0.376 OA
BRANCH   2   3
ATOM      3  C   UNL A   1      39.981  19.726  25.893  1.00  0.00     0.202 C 
BRANCH   3   4
ATOM      4  C   UNL A   1      39.882  21.196  26.283  1.00  0.00     0.261 C 
BRANCH   4   5
ATOM      5  O   UNL A   1      38.758  22.013  25.851  1.00  0.00    -0.460 OA
BRANCH   5   6
ATOM      6  C   UNL A   1      38.329  23.251  26.132  1.00  0.00     0.330 C 
ATOM      7  O   UNL A   1      39.132  24.160  26.322  1.00  0.00    -0.247 OA
BRANCH   6   8
ATOM      8  C   UNL A   1      36.904  23.578  26.231  1.00  0.00     0.094 C 
ATOM      9  C   UNL A   1      36.032  23.533  25.213  1.00  0.00     0.018 C 
BRANCH   9  10
ATOM     10  C   UNL A   1      34.677  24.088  25.347  1.00  0.00    -0.001 A 
ATOM     11  C   UNL A   1      34.567  25.479  25.521  1.00  0.00     0.011 A 
ATOM     12  C   UNL A   1      33.487  23.347  25.238  1.00  0.00     0.055 A 
ATOM     13  C   UNL A   1      33.317  26.105  25.575  1.00  0.00     0.016 A 
ATOM     14  C   UNL A   1      32.230  23.971  25.271  1.00  0.00     0.043 A 
ATOM     15  C   UNL A   1      32.157  25.348  25.440  1.00  0.00     0.020 A 
ATOM     16  Br  UNL A   1      30.470  26.195  25.500  1.00  0.00    -0.051 Br
BRANCH  12  17
ATOM     17  N   UNL A   1      33.485  21.945  25.180  1.00  0.00    -0.306 N 
ATOM     18  C   UNL A   1      33.099  21.106  26.198  1.00  0.00     0.113 A 
ATOM     19  C   UNL A   1      33.575  21.174  24.049  1.00  0.00     0.204 A 
ATOM     20  C   UNL A   1      33.044  19.851  25.636  1.00  0.00     0.131 A 
ATOM     21  N   UNL A   1      33.350  19.902  24.302  1.00  0.00    -0.245 NA
ENDBRANCH  12  17
ENDBRANCH   9  10
ENDBRANCH   6   8
ENDBRANCH   5   6
ENDBRANCH   4   5
ENDBRANCH   3   4
ENDBRANCH   2   3
ENDBRANCH   1   2
BRANCH   1  22
ATOM     22  C   UNL A   1      43.522  19.948  25.407  1.00  0.00     0.188 C 
BRANCH  22  23
ATOM     23  O   UNL A   1      43.708  21.321  25.071  1.00  0.00    -0.376 OA
BRANCH  23  24
ATOM     24  C   UNL A   1      44.430  22.164  25.967  1.00  0.00     0.202 C 
BRANCH  24  25
ATOM     25  C   UNL A   1      43.646  23.131  26.856  1.00  0.00     0.261 C 
BRANCH  25  26
ATOM     26  O   UNL A   1      44.449  23.966  27.693  1.00  0.00    -0.460 OA
BRANCH  26  27
ATOM     27  C   UNL A   1      43.833  24.371  28.830  1.00  0.00     0.338 C 
ATOM     28  O   UNL A   1      43.258  23.669  29.642  1.00  0.00    -0.246 OA
BRANCH  27  29
ATOM     29  C   UNL A   1      43.865  25.841  28.935  1.00  0.00     0.060 A 
ATOM     30  C   UNL A   1      43.666  26.392  30.204  1.00  0.00     0.016 A 
ATOM     31  C   UNL A   1      43.830  26.640  27.786  1.00  0.00     0.016 A 
ATOM     32  C   UNL A   1      43.238  27.703  30.307  1.00  0.00     0.010 A 
ATOM     33  C   UNL A   1      43.418  27.957  27.887  1.00  0.00     0.010 A 
ATOM     34  C   UNL A   1      43.025  28.440  29.137  1.00  0.00    -0.014 A 
BRANCH  34  35
ATOM     35  C   UNL A   1      42.187  29.626  29.238  1.00  0.00     0.031 A 
ATOM     36  C   UNL A   1      42.828  30.951  29.134  1.00  0.00     0.074 A 
ATOM     37  C   UNL A   1      40.847  29.525  29.345  1.00  0.00     0.049 A 
ATOM     38  N   UNL A   1      42.829  31.899  30.012  1.00  0.00    -0.248 NA
ATOM     39  C   UNL A   1      43.555  31.259  27.897  1.00  0.00     0.031 C 
ATOM     40  C   UNL A   1      40.026  28.325  29.153  1.00  0.00     0.029 A 
ATOM     41  N   UNL A   1      39.926  30.513  29.536  1.00  0.00    -0.354 N 
ATOM     42  C   UNL A   1      43.420  32.991  29.389  1.00  0.00     0.074 A 
ATOM     43  C   UNL A   1      43.933  32.517  28.125  1.00  0.00     0.031 C 
ATOM     44  C   UNL A   1      38.735  28.694  29.018  1.00  0.00     0.029 A 
ATOM     45  C   UNL A   1      38.629  30.125  29.244  1.00  0.00     0.049 A 
ATOM     46  H   UNL A   1      40.161  31.415  29.851  1.00  0.00     0.167 HD
ATOM     47  C   UNL A   1      43.285  34.259  29.858  1.00  0.00     0.031 A 
ATOM     48  C   UNL A   1      37.545  30.925  29.135  1.00  0.00     0.031 A 
ATOM     49  C   UNL A   1      42.824  34.313  31.217  1.00  0.00     0.049 A 
ATOM     50  C   UNL A   1      37.832  32.202  29.821  1.00  0.00     0.074 A 
ATOM     51  C   UNL A   1      43.291  33.852  32.432  1.00  0.00     0.029 A 
ATOM     52  N   UNL A   1      41.522  34.690  31.433  1.00  0.00    -0.354 N 
ATOM     53  N   UNL A   1      37.919  32.334  31.112  1.00  0.00    -0.248 NA
ATOM     54  C   UNL A   1      38.348  33.321  29.047  1.00  0.00     0.031 C 
ATOM     55  C   UNL A   1      42.126  33.569  33.202  1.00  0.00     0.029 A 
ATOM     56  C   UNL A   1      41.016  33.873  32.411  1.00  0.00     0.049 A 
ATOM     57  H   UNL A   1      41.040  35.413  30.971  1.00  0.00     0.167 HD
ATOM     58  C   UNL A   1      38.862  33.332  31.305  1.00  0.00     0.074 A 
ATOM     59  C   UNL A   1      38.969  34.000  30.014  1.00  0.00     0.031 C 
ATOM     60  C   UNL A   1      39.672  33.334  32.403  1.00  0.00     0.031 A 
BRANCH  47  61
ATOM     61  C   UNL A   1      43.258  35.464  28.960  1.00  0.00    -0.014 A 
ATOM     62  C   UNL A   1      42.087  35.764  28.243  1.00  0.00     0.009 A 
ATOM     63  C   UNL A   1      44.426  36.163  28.600  1.00  0.00     0.009 A 
ATOM     64  C   UNL A   1      42.095  36.701  27.202  1.00  0.00     0.001 A 
ATOM     65  C   UNL A   1      44.427  37.129  27.591  1.00  0.00     0.001 A 
ATOM     66  C   UNL A   1      43.264  37.384  26.879  1.00  0.00     0.000 A 
ENDBRANCH  47  61
BRANCH  48  67
ATOM     67  C   UNL A   1      36.337  30.715  28.312  1.00  0.00    -0.014 A 
ATOM     68  C   UNL A   1      36.026  29.449  27.797  1.00  0.00     0.009 A 
ATOM     69  C   UNL A   1      35.360  31.723  28.214  1.00  0.00     0.009 A 
ATOM     70  C   UNL A   1      34.772  29.197  27.224  1.00  0.00     0.001 A 
ATOM     71  C   UNL A   1      34.113  31.476  27.632  1.00  0.00     0.001 A 
ATOM     72  C   UNL A   1      33.816  30.208  27.148  1.00  0.00     0.000 A 
ENDBRANCH  48  67
BRANCH  60  73
ATOM     73  C   UNL A   1      39.296  32.437  33.557  1.00  0.00    -0.014 A 
ATOM     74  C   UNL A   1      38.381  32.827  34.550  1.00  0.00     0.009 A 
ATOM     75  C   UNL A   1      39.772  31.117  33.573  1.00  0.00     0.009 A 
ATOM     76  C   UNL A   1      37.988  31.938  35.554  1.00  0.00     0.001 A 
ATOM     77  C   UNL A   1      39.361  30.221  34.563  1.00  0.00     0.001 A 
ATOM     78  C   UNL A   1      38.476  30.633  35.558  1.00  0.00     0.000 A 
ENDBRANCH  60  73
ENDBRANCH  34  35
ENDBRANCH  27  29
ENDBRANCH  26  27
ENDBRANCH  25  26
ENDBRANCH  24  25
ENDBRANCH  23  24
ENDBRANCH  22  23
ENDBRANCH   1  22
TORSDOF 19
ENDMDL
