MODEL 1
REMARK VINA RESULT:     -10.0      0.000      0.000
REMARK SMILES CN1CC(=O)N(CC(=O)N2CCCC[C@H]2C(=O)OCCOCCOCCOC(=O)c2ccc(-c3c4nc(c(-c5ccccc5)c5ccc([nH]5)c(-c5ccccc5)c5nc(c(-c6ccccc6)c6ccc3[nH]6)C=C5)C=C4)cc2)C1=O
REMARK SMILES IDX 22 1 21 2 20 3 19 4 18 5 16 6 17 7 15 8 10 9 11 10 12 11
REMARK SMILES IDX 14 12 13 13 8 14 9 15 7 16 6 17 1 18 2 19 3 20 78 21 4 22
REMARK SMILES IDX 79 23 5 24 23 25 24 26 25 27 26 28 27 29 28 30 29 31 30 32
REMARK SMILES IDX 31 33 77 34 32 35 76 36 33 37 34 38 35 39 70 40 36 41 75 42
REMARK SMILES IDX 69 43 71 44 37 45 74 46 68 47 67 48 38 50 60 51 45 52 59 53
REMARK SMILES IDX 46 54 49 55 58 56 72 57 47 58 48 59 57 61 73 62 50 63 39 64
REMARK SMILES IDX 40 65 44 66 41 67 43 68 42 69 61 70 62 71 66 72 63 73 65 74
REMARK SMILES IDX 64 75 51 76 52 77 56 78 53 79 55 80 54 81
REMARK H PARENT 71 49 49 60
REMARK Flexibility Score: inf
ROOT
ATOM      1  C   UNL A   1      35.096  32.892  28.187  1.00  0.00     0.188 C 
ENDROOT
BRANCH   1   2
ATOM      2  O   UNL A   1      33.950  32.264  27.650  1.00  0.00    -0.376 OA
BRANCH   2   3
ATOM      3  C   UNL A   1      33.776  30.855  27.759  1.00  0.00     0.202 C 
BRANCH   3   4
ATOM      4  C   UNL A   1      33.647  29.850  26.586  1.00  0.00     0.261 C 
BRANCH   4   5
ATOM      5  O   UNL A   1      32.334  29.455  26.189  1.00  0.00    -0.462 OA
BRANCH   5   6
ATOM      6  C   UNL A   1      32.177  28.204  25.689  1.00  0.00     0.328 C 
ATOM      7  O   UNL A   1      31.885  27.225  26.363  1.00  0.00    -0.250 OA
BRANCH   6   8
ATOM      8  C   UNL A   1      32.368  28.224  24.147  1.00  0.00     0.195 C 
ATOM      9  N   UNL A   1      32.279  26.911  23.520  1.00  0.00    -0.327 N 
ATOM     10  C   UNL A   1      30.988  26.241  23.710  1.00  0.00     0.120 C 
ATOM     11  C   UNL A   1      29.797  27.117  23.297  1.00  0.00     0.022 C 
ATOM     12  C   UNL A   1      31.342  29.130  23.449  1.00  0.00     0.037 C 
ATOM     13  C   UNL A   1      29.919  28.605  23.635  1.00  0.00     0.005 C 
BRANCH   9  14
ATOM     14  C   UNL A   1      33.269  26.317  22.746  1.00  0.00     0.243 C 
ATOM     15  O   UNL A   1      33.382  26.620  21.551  1.00  0.00    -0.273 OA
BRANCH  14  16
ATOM     16  C   UNL A   1      34.114  25.124  23.266  1.00  0.00     0.230 C 
BRANCH  16  17
ATOM     17  N   UNL A   1      33.567  23.779  23.346  1.00  0.00    -0.253 N 
ATOM     18  C   UNL A   1      31.968  21.050  25.125  1.00  0.00     0.149 C 
ATOM     19  N   UNL A   1      32.504  22.004  24.178  1.00  0.00    -0.318 N 
ATOM     20  C   UNL A   1      32.478  21.777  22.756  1.00  0.00     0.221 C 
ATOM     21  C   UNL A   1      33.046  23.235  24.488  1.00  0.00     0.327 C 
ATOM     22  C   UNL A   1      33.222  23.014  22.270  1.00  0.00     0.250 C 
ATOM     23  O   UNL A   1      33.053  23.750  25.598  1.00  0.00    -0.248 OA
ATOM     24  O   UNL A   1      33.448  23.267  21.096  1.00  0.00    -0.272 OA
ENDBRANCH  16  17
ENDBRANCH  14  16
ENDBRANCH   9  14
ENDBRANCH   6   8
ENDBRANCH   5   6
ENDBRANCH   4   5
ENDBRANCH   3   4
ENDBRANCH   2   3
ENDBRANCH   1   2
BRANCH   1  25
ATOM     25  C   UNL A   1      34.847  34.068  29.142  1.00  0.00     0.188 C 
BRANCH  25  26
ATOM     26  O   UNL A   1      34.096  33.689  30.268  1.00  0.00    -0.376 OA
BRANCH  26  27
ATOM     27  C   UNL A   1      34.147  34.508  31.420  1.00  0.00     0.202 C 
BRANCH  27  28
ATOM     28  C   UNL A   1      34.612  34.001  32.806  1.00  0.00     0.261 C 
BRANCH  28  29
ATOM     29  O   UNL A   1      35.082  32.650  32.932  1.00  0.00    -0.460 OA
BRANCH  29  30
ATOM     30  C   UNL A   1      36.274  32.455  33.542  1.00  0.00     0.338 C 
ATOM     31  O   UNL A   1      36.560  32.708  34.696  1.00  0.00    -0.246 OA
BRANCH  30  32
ATOM     32  C   UNL A   1      37.131  31.650  32.637  1.00  0.00     0.060 A 
ATOM     33  C   UNL A   1      38.061  30.761  33.200  1.00  0.00     0.016 A 
ATOM     34  C   UNL A   1      37.044  31.787  31.251  1.00  0.00     0.016 A 
ATOM     35  C   UNL A   1      38.939  30.047  32.384  1.00  0.00     0.010 A 
ATOM     36  C   UNL A   1      37.941  31.087  30.434  1.00  0.00     0.010 A 
ATOM     37  C   UNL A   1      38.919  30.248  30.999  1.00  0.00    -0.014 A 
BRANCH  37  38
ATOM     38  C   UNL A   1      40.056  29.768  30.172  1.00  0.00     0.031 A 
ATOM     39  C   UNL A   1      41.208  30.709  29.932  1.00  0.00     0.074 A 
ATOM     40  C   UNL A   1      40.096  28.521  29.670  1.00  0.00     0.049 A 
ATOM     41  N   UNL A   1      42.284  30.542  29.208  1.00  0.00    -0.248 NA
ATOM     42  C   UNL A   1      41.129  32.018  30.600  1.00  0.00     0.031 C 
ATOM     43  C   UNL A   1      39.084  27.487  29.881  1.00  0.00     0.029 A 
ATOM     44  N   UNL A   1      41.035  27.918  28.870  1.00  0.00    -0.354 N 
ATOM     45  C   UNL A   1      43.000  31.727  29.321  1.00  0.00     0.074 A 
ATOM     46  C   UNL A   1      42.223  32.615  30.156  1.00  0.00     0.031 C 
ATOM     47  C   UNL A   1      39.454  26.377  29.216  1.00  0.00     0.029 A 
ATOM     48  C   UNL A   1      40.707  26.636  28.505  1.00  0.00     0.049 A 
ATOM     49  H   UNL A   1      41.866  28.364  28.584  1.00  0.00     0.167 HD
ATOM     50  C   UNL A   1      44.201  32.052  28.782  1.00  0.00     0.031 A 
ATOM     51  C   UNL A   1      41.332  25.779  27.674  1.00  0.00     0.031 A 
ATOM     52  C   UNL A   1      44.967  31.181  27.933  1.00  0.00     0.049 A 
ATOM     53  C   UNL A   1      42.618  26.197  27.005  1.00  0.00     0.074 A 
ATOM     54  C   UNL A   1      46.195  31.416  27.340  1.00  0.00     0.029 A 
ATOM     55  N   UNL A   1      44.573  29.908  27.548  1.00  0.00    -0.354 N 
ATOM     56  N   UNL A   1      43.291  27.316  27.127  1.00  0.00    -0.248 NA
ATOM     57  C   UNL A   1      43.233  25.225  26.088  1.00  0.00     0.031 C 
ATOM     58  C   UNL A   1      46.513  30.311  26.543  1.00  0.00     0.029 A 
ATOM     59  C   UNL A   1      45.522  29.357  26.703  1.00  0.00     0.049 A 
ATOM     60  H   UNL A   1      43.744  29.463  27.834  1.00  0.00     0.167 HD
ATOM     61  C   UNL A   1      44.427  27.165  26.337  1.00  0.00     0.074 A 
ATOM     62  C   UNL A   1      44.354  25.844  25.749  1.00  0.00     0.031 C 
ATOM     63  C   UNL A   1      45.441  28.039  26.125  1.00  0.00     0.031 A 
BRANCH  50  64
ATOM     64  C   UNL A   1      44.730  33.432  29.062  1.00  0.00    -0.014 A 
ATOM     65  C   UNL A   1      45.575  33.688  30.154  1.00  0.00     0.009 A 
ATOM     66  C   UNL A   1      44.383  34.493  28.211  1.00  0.00     0.009 A 
ATOM     67  C   UNL A   1      46.025  34.985  30.413  1.00  0.00     0.001 A 
ATOM     68  C   UNL A   1      44.862  35.782  28.451  1.00  0.00     0.001 A 
ATOM     69  C   UNL A   1      45.673  36.029  29.559  1.00  0.00     0.000 A 
ENDBRANCH  50  64
BRANCH  51  70
ATOM     70  C   UNL A   1      40.748  24.436  27.404  1.00  0.00    -0.014 A 
ATOM     71  C   UNL A   1      41.320  23.283  27.961  1.00  0.00     0.009 A 
ATOM     72  C   UNL A   1      39.634  24.299  26.562  1.00  0.00     0.009 A 
ATOM     73  C   UNL A   1      40.805  22.019  27.659  1.00  0.00     0.001 A 
ATOM     74  C   UNL A   1      39.101  23.037  26.289  1.00  0.00     0.001 A 
ATOM     75  C   UNL A   1      39.693  21.899  26.829  1.00  0.00     0.000 A 
ENDBRANCH  51  70
BRANCH  63  76
ATOM     76  C   UNL A   1      46.589  27.578  25.265  1.00  0.00    -0.014 A 
ATOM     77  C   UNL A   1      46.748  28.024  23.944  1.00  0.00     0.009 A 
ATOM     78  C   UNL A   1      47.551  26.711  25.807  1.00  0.00     0.009 A 
ATOM     79  C   UNL A   1      47.824  27.576  23.172  1.00  0.00     0.001 A 
ATOM     80  C   UNL A   1      48.644  26.293  25.047  1.00  0.00     0.001 A 
ATOM     81  C   UNL A   1      48.773  26.717  23.726  1.00  0.00     0.000 A 
ENDBRANCH  63  76
ENDBRANCH  37  38
ENDBRANCH  30  32
ENDBRANCH  29  30
ENDBRANCH  28  29
ENDBRANCH  27  28
ENDBRANCH  26  27
ENDBRANCH  25  26
ENDBRANCH   1  25
TORSDOF 20
ENDMDL
MODEL 2
REMARK VINA RESULT:      -9.8      4.069      9.639
REMARK SMILES CN1CC(=O)N(CC(=O)N2CCCC[C@H]2C(=O)OCCOCCOCCOC(=O)c2ccc(-c3c4nc(c(-c5ccccc5)c5ccc([nH]5)c(-c5ccccc5)c5nc(c(-c6ccccc6)c6ccc3[nH]6)C=C5)C=C4)cc2)C1=O
REMARK SMILES IDX 22 1 21 2 20 3 19 4 18 5 16 6 17 7 15 8 10 9 11 10 12 11
REMARK SMILES IDX 14 12 13 13 8 14 9 15 7 16 6 17 1 18 2 19 3 20 78 21 4 22
REMARK SMILES IDX 79 23 5 24 23 25 24 26 25 27 26 28 27 29 28 30 29 31 30 32
REMARK SMILES IDX 31 33 77 34 32 35 76 36 33 37 34 38 35 39 70 40 36 41 75 42
REMARK SMILES IDX 69 43 71 44 37 45 74 46 68 47 67 48 38 50 60 51 45 52 59 53
REMARK SMILES IDX 46 54 49 55 58 56 72 57 47 58 48 59 57 61 73 62 50 63 39 64
REMARK SMILES IDX 40 65 44 66 41 67 43 68 42 69 61 70 62 71 66 72 63 73 65 74
REMARK SMILES IDX 64 75 51 76 52 77 56 78 53 79 55 80 54 81
REMARK H PARENT 71 49 49 60
REMARK Flexibility Score: inf
ROOT
ATOM      1  C   UNL A   1      40.421  21.829  27.212  1.00  0.00     0.188 C 
ENDROOT
BRANCH   1   2
ATOM      2  O   UNL A   1      39.250  22.220  26.525  1.00  0.00    -0.376 OA
BRANCH   2   3
ATOM      3  C   UNL A   1      38.839  23.584  26.509  1.00  0.00     0.202 C 
BRANCH   3   4
ATOM      4  C   UNL A   1      37.464  24.125  26.041  1.00  0.00     0.261 C 
BRANCH   4   5
ATOM      5  O   UNL A   1      36.401  23.186  25.874  1.00  0.00    -0.462 OA
BRANCH   5   6
ATOM      6  C   UNL A   1      35.190  23.667  25.496  1.00  0.00     0.328 C 
ATOM      7  O   UNL A   1      35.019  24.449  24.571  1.00  0.00    -0.250 OA
BRANCH   6   8
ATOM      8  C   UNL A   1      34.074  23.035  26.373  1.00  0.00     0.195 C 
ATOM      9  N   UNL A   1      32.724  23.264  25.872  1.00  0.00    -0.327 N 
ATOM     10  C   UNL A   1      32.479  22.716  24.534  1.00  0.00     0.120 C 
ATOM     11  C   UNL A   1      32.850  21.231  24.422  1.00  0.00     0.022 C 
ATOM     12  C   UNL A   1      34.249  21.516  26.525  1.00  0.00     0.037 C 
ATOM     13  C   UNL A   1      34.109  20.802  25.182  1.00  0.00     0.005 C 
BRANCH   9  14
ATOM     14  C   UNL A   1      31.697  23.883  26.573  1.00  0.00     0.243 C 
ATOM     15  O   UNL A   1      31.211  23.333  27.571  1.00  0.00    -0.273 OA
BRANCH  14  16
ATOM     16  C   UNL A   1      30.982  25.151  26.036  1.00  0.00     0.230 C 
BRANCH  16  17
ATOM     17  N   UNL A   1      31.703  26.394  25.806  1.00  0.00    -0.253 N 
ATOM     18  C   UNL A   1      33.414  28.781  23.674  1.00  0.00     0.149 C 
ATOM     19  N   UNL A   1      32.696  28.057  24.702  1.00  0.00    -0.318 N 
ATOM     20  C   UNL A   1      32.384  28.640  25.981  1.00  0.00     0.221 C 
ATOM     21  C   UNL A   1      32.186  26.779  24.586  1.00  0.00     0.327 C 
ATOM     22  C   UNL A   1      31.725  27.452  26.668  1.00  0.00     0.250 C 
ATOM     23  O   UNL A   1      32.168  26.111  23.562  1.00  0.00    -0.248 OA
ATOM     24  O   UNL A   1      31.280  27.471  27.806  1.00  0.00    -0.272 OA
ENDBRANCH  16  17
ENDBRANCH  14  16
ENDBRANCH   9  14
ENDBRANCH   6   8
ENDBRANCH   5   6
ENDBRANCH   4   5
ENDBRANCH   3   4
ENDBRANCH   2   3
ENDBRANCH   1   2
BRANCH   1  25
ATOM     25  C   UNL A   1      40.853  20.365  27.048  1.00  0.00     0.188 C 
BRANCH  25  26
ATOM     26  O   UNL A   1      41.560  20.149  25.853  1.00  0.00    -0.376 OA
BRANCH  26  27
ATOM     27  C   UNL A   1      42.974  20.195  25.887  1.00  0.00     0.202 C 
BRANCH  27  28
ATOM     28  C   UNL A   1      43.801  21.390  25.360  1.00  0.00     0.261 C 
BRANCH  28  29
ATOM     29  O   UNL A   1      43.205  22.697  25.341  1.00  0.00    -0.460 OA
BRANCH  29  30
ATOM     30  C   UNL A   1      44.034  23.764  25.277  1.00  0.00     0.338 C 
ATOM     31  O   UNL A   1      44.723  24.105  24.335  1.00  0.00    -0.246 OA
BRANCH  30  32
ATOM     32  C   UNL A   1      43.792  24.610  26.472  1.00  0.00     0.060 A 
ATOM     33  C   UNL A   1      43.045  24.081  27.535  1.00  0.00     0.016 A 
ATOM     34  C   UNL A   1      44.269  25.920  26.536  1.00  0.00     0.016 A 
ATOM     35  C   UNL A   1      42.729  24.872  28.640  1.00  0.00     0.010 A 
ATOM     36  C   UNL A   1      43.932  26.721  27.634  1.00  0.00     0.010 A 
ATOM     37  C   UNL A   1      43.125  26.214  28.669  1.00  0.00    -0.014 A 
BRANCH  37  38
ATOM     38  C   UNL A   1      42.509  27.139  29.655  1.00  0.00     0.031 A 
ATOM     39  C   UNL A   1      43.192  27.319  30.985  1.00  0.00     0.074 A 
ATOM     40  C   UNL A   1      41.393  27.835  29.377  1.00  0.00     0.049 A 
ATOM     41  N   UNL A   1      42.826  28.027  32.022  1.00  0.00    -0.248 NA
ATOM     42  C   UNL A   1      44.462  26.596  31.168  1.00  0.00     0.031 C 
ATOM     43  C   UNL A   1      40.667  27.809  28.108  1.00  0.00     0.029 A 
ATOM     44  N   UNL A   1      40.671  28.702  30.162  1.00  0.00    -0.354 N 
ATOM     45  C   UNL A   1      43.809  27.823  32.982  1.00  0.00     0.074 A 
ATOM     46  C   UNL A   1      44.770  26.902  32.418  1.00  0.00     0.031 C 
ATOM     47  C   UNL A   1      39.596  28.618  28.205  1.00  0.00     0.029 A 
ATOM     48  C   UNL A   1      39.541  29.187  29.552  1.00  0.00     0.049 A 
ATOM     49  H   UNL A   1      40.940  28.952  31.075  1.00  0.00     0.167 HD
ATOM     50  C   UNL A   1      43.910  28.356  34.224  1.00  0.00     0.031 A 
ATOM     51  C   UNL A   1      38.562  29.979  30.032  1.00  0.00     0.031 A 
ATOM     52  C   UNL A   1      42.946  29.255  34.798  1.00  0.00     0.049 A 
ATOM     53  C   UNL A   1      38.643  30.481  31.452  1.00  0.00     0.074 A 
ATOM     54  C   UNL A   1      42.960  29.851  36.047  1.00  0.00     0.029 A 
ATOM     55  N   UNL A   1      41.790  29.681  34.163  1.00  0.00    -0.354 N 
ATOM     56  N   UNL A   1      39.582  30.291  32.348  1.00  0.00    -0.248 NA
ATOM     57  C   UNL A   1      37.528  31.317  31.922  1.00  0.00     0.031 C 
ATOM     58  C   UNL A   1      41.778  30.586  36.193  1.00  0.00     0.029 A 
ATOM     59  C   UNL A   1      41.068  30.511  35.006  1.00  0.00     0.049 A 
ATOM     60  H   UNL A   1      41.521  29.432  33.250  1.00  0.00     0.167 HD
ATOM     61  C   UNL A   1      39.191  31.015  33.469  1.00  0.00     0.074 A 
ATOM     62  C   UNL A   1      37.936  31.655  33.137  1.00  0.00     0.031 C 
ATOM     63  C   UNL A   1      39.819  31.145  34.664  1.00  0.00     0.031 A 
BRANCH  50  64
ATOM     64  C   UNL A   1      45.087  27.933  35.061  1.00  0.00    -0.014 A 
ATOM     65  C   UNL A   1      46.288  28.663  35.061  1.00  0.00     0.009 A 
ATOM     66  C   UNL A   1      44.989  26.790  35.869  1.00  0.00     0.009 A 
ATOM     67  C   UNL A   1      47.378  28.230  35.820  1.00  0.00     0.001 A 
ATOM     68  C   UNL A   1      46.068  26.380  36.653  1.00  0.00     0.001 A 
ATOM     69  C   UNL A   1      47.266  27.093  36.618  1.00  0.00     0.000 A 
ENDBRANCH  50  64
BRANCH  51  70
ATOM     70  C   UNL A   1      37.401  30.340  29.174  1.00  0.00    -0.014 A 
ATOM     71  C   UNL A   1      37.230  31.656  28.718  1.00  0.00     0.009 A 
ATOM     72  C   UNL A   1      36.440  29.376  28.831  1.00  0.00     0.009 A 
ATOM     73  C   UNL A   1      36.108  32.004  27.961  1.00  0.00     0.001 A 
ATOM     74  C   UNL A   1      35.337  29.720  28.047  1.00  0.00     0.001 A 
ATOM     75  C   UNL A   1      35.167  31.035  27.622  1.00  0.00     0.000 A 
ENDBRANCH  51  70
BRANCH  63  76
ATOM     76  C   UNL A   1      39.193  32.058  35.685  1.00  0.00    -0.014 A 
ATOM     77  C   UNL A   1      39.470  33.433  35.715  1.00  0.00     0.009 A 
ATOM     78  C   UNL A   1      38.276  31.532  36.609  1.00  0.00     0.009 A 
ATOM     79  C   UNL A   1      38.872  34.253  36.676  1.00  0.00     0.001 A 
ATOM     80  C   UNL A   1      37.653  32.359  37.545  1.00  0.00     0.001 A 
ATOM     81  C   UNL A   1      37.961  33.717  37.585  1.00  0.00     0.000 A 
ENDBRANCH  63  76
ENDBRANCH  37  38
ENDBRANCH  30  32
ENDBRANCH  29  30
ENDBRANCH  28  29
ENDBRANCH  27  28
ENDBRANCH  26  27
ENDBRANCH  25  26
ENDBRANCH   1  25
TORSDOF 20
ENDMDL
MODEL 3
REMARK VINA RESULT:      -9.8      1.696      6.571
REMARK SMILES CN1CC(=O)N(CC(=O)N2CCCC[C@H]2C(=O)OCCOCCOCCOC(=O)c2ccc(-c3c4nc(c(-c5ccccc5)c5ccc([nH]5)c(-c5ccccc5)c5nc(c(-c6ccccc6)c6ccc3[nH]6)C=C5)C=C4)cc2)C1=O
REMARK SMILES IDX 22 1 21 2 20 3 19 4 18 5 16 6 17 7 15 8 10 9 11 10 12 11
REMARK SMILES IDX 14 12 13 13 8 14 9 15 7 16 6 17 1 18 2 19 3 20 78 21 4 22
REMARK SMILES IDX 79 23 5 24 23 25 24 26 25 27 26 28 27 29 28 30 29 31 30 32
REMARK SMILES IDX 31 33 77 34 32 35 76 36 33 37 34 38 35 39 70 40 36 41 75 42
REMARK SMILES IDX 69 43 71 44 37 45 74 46 68 47 67 48 38 50 60 51 45 52 59 53
REMARK SMILES IDX 46 54 49 55 58 56 72 57 47 58 48 59 57 61 73 62 50 63 39 64
REMARK SMILES IDX 40 65 44 66 41 67 43 68 42 69 61 70 62 71 66 72 63 73 65 74
REMARK SMILES IDX 64 75 51 76 52 77 56 78 53 79 55 80 54 81
REMARK H PARENT 71 49 49 60
REMARK Flexibility Score: inf
ROOT
ATOM      1  C   UNL A   1      35.281  32.999  27.972  1.00  0.00     0.188 C 
ENDROOT
BRANCH   1   2
ATOM      2  O   UNL A   1      34.633  31.887  27.392  1.00  0.00    -0.376 OA
BRANCH   2   3
ATOM      3  C   UNL A   1      35.195  30.583  27.497  1.00  0.00     0.202 C 
BRANCH   3   4
ATOM      4  C   UNL A   1      34.420  29.265  27.747  1.00  0.00     0.261 C 
BRANCH   4   5
ATOM      5  O   UNL A   1      34.339  28.325  26.674  1.00  0.00    -0.462 OA
BRANCH   5   6
ATOM      6  C   UNL A   1      33.345  28.491  25.766  1.00  0.00     0.328 C 
ATOM      7  O   UNL A   1      33.208  29.489  25.071  1.00  0.00    -0.250 OA
BRANCH   6   8
ATOM      8  C   UNL A   1      32.462  27.213  25.711  1.00  0.00     0.195 C 
ATOM      9  N   UNL A   1      31.760  27.031  24.446  1.00  0.00    -0.327 N 
ATOM     10  C   UNL A   1      32.644  26.904  23.282  1.00  0.00     0.120 C 
ATOM     11  C   UNL A   1      33.716  25.820  23.464  1.00  0.00     0.022 C 
ATOM     12  C   UNL A   1      33.277  25.936  25.965  1.00  0.00     0.037 C 
ATOM     13  C   UNL A   1      34.316  25.711  24.869  1.00  0.00     0.005 C 
BRANCH   9  14
ATOM     14  C   UNL A   1      30.384  26.917  24.295  1.00  0.00     0.243 C 
ATOM     15  O   UNL A   1      29.725  26.266  25.117  1.00  0.00    -0.273 OA
BRANCH  14  16
ATOM     16  C   UNL A   1      29.654  27.400  23.014  1.00  0.00     0.230 C 
BRANCH  16  17
ATOM     17  N   UNL A   1      29.018  28.706  22.945  1.00  0.00    -0.253 N 
ATOM     18  C   UNL A   1      28.924  32.198  21.963  1.00  0.00     0.149 C 
ATOM     19  N   UNL A   1      28.671  30.831  22.366  1.00  0.00    -0.318 N 
ATOM     20  C   UNL A   1      27.366  30.374  22.766  1.00  0.00     0.221 C 
ATOM     21  C   UNL A   1      29.595  29.805  22.372  1.00  0.00     0.327 C 
ATOM     22  C   UNL A   1      27.688  28.936  23.151  1.00  0.00     0.250 C 
ATOM     23  O   UNL A   1      30.735  29.872  21.934  1.00  0.00    -0.248 OA
ATOM     24  O   UNL A   1      26.866  28.130  23.561  1.00  0.00    -0.272 OA
ENDBRANCH  16  17
ENDBRANCH  14  16
ENDBRANCH   9  14
ENDBRANCH   6   8
ENDBRANCH   5   6
ENDBRANCH   4   5
ENDBRANCH   3   4
ENDBRANCH   2   3
ENDBRANCH   1   2
BRANCH   1  25
ATOM     25  C   UNL A   1      34.450  33.841  28.952  1.00  0.00     0.188 C 
BRANCH  25  26
ATOM     26  O   UNL A   1      35.068  33.960  30.209  1.00  0.00    -0.376 OA
BRANCH  26  27
ATOM     27  C   UNL A   1      34.258  33.906  31.367  1.00  0.00     0.202 C 
BRANCH  27  28
ATOM     28  C   UNL A   1      34.802  33.555  32.772  1.00  0.00     0.261 C 
BRANCH  28  29
ATOM     29  O   UNL A   1      35.369  32.254  32.994  1.00  0.00    -0.460 OA
BRANCH  29  30
ATOM     30  C   UNL A   1      36.607  32.193  33.537  1.00  0.00     0.338 C 
ATOM     31  O   UNL A   1      36.924  32.466  34.678  1.00  0.00    -0.246 OA
BRANCH  30  32
ATOM     32  C   UNL A   1      37.501  31.504  32.574  1.00  0.00     0.060 A 
ATOM     33  C   UNL A   1      38.522  30.679  33.072  1.00  0.00     0.016 A 
ATOM     34  C   UNL A   1      37.359  31.688  31.198  1.00  0.00     0.016 A 
ATOM     35  C   UNL A   1      39.432  30.078  32.202  1.00  0.00     0.010 A 
ATOM     36  C   UNL A   1      38.286  31.102  30.327  1.00  0.00     0.010 A 
ATOM     37  C   UNL A   1      39.351  30.331  30.828  1.00  0.00    -0.014 A 
BRANCH  37  38
ATOM     38  C   UNL A   1      40.498  29.987  29.949  1.00  0.00     0.031 A 
ATOM     39  C   UNL A   1      40.479  28.657  29.243  1.00  0.00     0.074 A 
ATOM     40  C   UNL A   1      41.520  30.837  29.745  1.00  0.00     0.049 A 
ATOM     41  N   UNL A   1      41.381  28.110  28.468  1.00  0.00    -0.248 NA
ATOM     42  C   UNL A   1      39.277  27.831  29.443  1.00  0.00     0.031 C 
ATOM     43  C   UNL A   1      41.634  32.181  30.310  1.00  0.00     0.029 A 
ATOM     44  N   UNL A   1      42.665  30.684  29.003  1.00  0.00    -0.354 N 
ATOM     45  C   UNL A   1      40.863  26.874  28.103  1.00  0.00     0.074 A 
ATOM     46  C   UNL A   1      39.584  26.737  28.765  1.00  0.00     0.031 C 
ATOM     47  C   UNL A   1      42.794  32.727  29.899  1.00  0.00     0.029 A 
ATOM     48  C   UNL A   1      43.518  31.758  29.076  1.00  0.00     0.049 A 
ATOM     49  H   UNL A   1      42.857  29.879  28.468  1.00  0.00     0.167 HD
ATOM     50  C   UNL A   1      41.398  25.934  27.287  1.00  0.00     0.031 A 
ATOM     51  C   UNL A   1      44.750  31.930  28.559  1.00  0.00     0.031 A 
ATOM     52  C   UNL A   1      42.677  26.056  26.644  1.00  0.00     0.049 A 
ATOM     53  C   UNL A   1      45.370  30.829  27.735  1.00  0.00     0.074 A 
ATOM     54  C   UNL A   1      43.306  25.160  25.798  1.00  0.00     0.029 A 
ATOM     55  N   UNL A   1      43.531  27.140  26.786  1.00  0.00    -0.354 N 
ATOM     56  N   UNL A   1      44.867  29.669  27.387  1.00  0.00    -0.248 NA
ATOM     57  C   UNL A   1      46.728  31.070  27.224  1.00  0.00     0.031 C 
ATOM     58  C   UNL A   1      44.568  25.672  25.479  1.00  0.00     0.029 A 
ATOM     59  C   UNL A   1      44.693  26.923  26.064  1.00  0.00     0.049 A 
ATOM     60  H   UNL A   1      43.339  27.944  27.320  1.00  0.00     0.167 HD
ATOM     61  C   UNL A   1      45.828  29.061  26.585  1.00  0.00     0.074 A 
ATOM     62  C   UNL A   1      46.939  29.986  26.491  1.00  0.00     0.031 C 
ATOM     63  C   UNL A   1      45.792  27.851  25.975  1.00  0.00     0.031 A 
BRANCH  50  64
ATOM     64  C   UNL A   1      40.610  24.667  27.088  1.00  0.00    -0.014 A 
ATOM     65  C   UNL A   1      41.005  23.456  27.679  1.00  0.00     0.009 A 
ATOM     66  C   UNL A   1      39.447  24.690  26.302  1.00  0.00     0.009 A 
ATOM     67  C   UNL A   1      40.276  22.286  27.450  1.00  0.00     0.001 A 
ATOM     68  C   UNL A   1      38.701  23.527  26.104  1.00  0.00     0.001 A 
ATOM     69  C   UNL A   1      39.123  22.324  26.668  1.00  0.00     0.000 A 
ENDBRANCH  50  64
BRANCH  51  70
ATOM     70  C   UNL A   1      45.502  33.189  28.814  1.00  0.00    -0.014 A 
ATOM     71  C   UNL A   1      45.394  34.277  27.935  1.00  0.00     0.009 A 
ATOM     72  C   UNL A   1      46.354  33.298  29.924  1.00  0.00     0.009 A 
ATOM     73  C   UNL A   1      46.145  35.436  28.147  1.00  0.00     0.001 A 
ATOM     74  C   UNL A   1      47.079  34.470  30.151  1.00  0.00     0.001 A 
ATOM     75  C   UNL A   1      46.982  35.533  29.257  1.00  0.00     0.000 A 
ENDBRANCH  51  70
BRANCH  63  76
ATOM     76  C   UNL A   1      46.960  27.474  25.103  1.00  0.00    -0.014 A 
ATOM     77  C   UNL A   1      47.027  27.854  23.754  1.00  0.00     0.009 A 
ATOM     78  C   UNL A   1      48.033  26.759  25.659  1.00  0.00     0.009 A 
ATOM     79  C   UNL A   1      48.126  27.487  22.971  1.00  0.00     0.001 A 
ATOM     80  C   UNL A   1      49.145  26.425  24.885  1.00  0.00     0.001 A 
ATOM     81  C   UNL A   1      49.185  26.780  23.538  1.00  0.00     0.000 A 
ENDBRANCH  63  76
ENDBRANCH  37  38
ENDBRANCH  30  32
ENDBRANCH  29  30
ENDBRANCH  28  29
ENDBRANCH  27  28
ENDBRANCH  26  27
ENDBRANCH  25  26
ENDBRANCH   1  25
TORSDOF 20
ENDMDL
