MODEL 1
REMARK VINA RESULT:     -11.4      0.000      0.000
REMARK SMILES Cc1ccc2c(CC(=O)N3CCC(C(=O)OCCOCCOCCOC(=O)c4ccc(-c5c6nc(c(-c7ccccc7)c7ccc([nH]7)c(-c7ccccc7)c7nc(c(-c8ccccc8)c8ccc5[nH]8)C=C7)C=C6)cc4)CC3)coc2c1
REMARK SMILES IDX 20 1 19 2 18 3 17 4 16 5 14 6 15 7 13 8 8 9 9 10 10 11 11 12
REMARK SMILES IDX 77 13 12 14 76 15 7 16 6 17 1 18 2 19 3 20 81 21 4 22 80 23
REMARK SMILES IDX 5 24 79 25 78 26 21 27 22 28 23 29 24 30 25 31 26 32 27 33
REMARK SMILES IDX 28 34 29 35 75 36 30 37 74 38 31 39 32 40 33 41 68 42 34 43
REMARK SMILES IDX 73 44 67 45 69 46 35 47 72 48 66 49 65 50 36 52 58 53 43 54
REMARK SMILES IDX 57 55 44 56 47 57 56 58 70 59 45 60 46 61 55 63 71 64 48 65
REMARK SMILES IDX 37 66 38 67 42 68 39 69 41 70 40 71 59 72 60 73 64 74 61 75
REMARK SMILES IDX 63 76 62 77 49 78 50 79 54 80 51 81 53 82 52 83
REMARK H PARENT 69 51 47 62
REMARK Flexibility Score: inf
ROOT
ATOM      1  C   UNL A   1      41.455  20.654  26.897  1.00  0.00     0.188 C 
ENDROOT
BRANCH   1   2
ATOM      2  O   UNL A   1      40.076  20.880  26.662  1.00  0.00    -0.376 OA
BRANCH   2   3
ATOM      3  C   UNL A   1      39.691  22.036  25.929  1.00  0.00     0.202 C 
BRANCH   3   4
ATOM      4  C   UNL A   1      38.185  22.276  25.771  1.00  0.00     0.261 C 
BRANCH   4   5
ATOM      5  O   UNL A   1      37.646  21.642  24.584  1.00  0.00    -0.463 OA
BRANCH   5   6
ATOM      6  C   UNL A   1      36.581  22.261  24.027  1.00  0.00     0.309 C 
ATOM      7  O   UNL A   1      36.684  23.104  23.138  1.00  0.00    -0.252 OA
BRANCH   6   8
ATOM      8  C   UNL A   1      35.204  21.820  24.529  1.00  0.00     0.103 C 
ATOM      9  C   UNL A   1      31.979  23.002  26.601  1.00  0.00     0.227 C 
ATOM     10  O   UNL A   1      32.147  22.850  27.817  1.00  0.00    -0.275 OA
ATOM     11  N   UNL A   1      32.587  22.146  25.695  1.00  0.00    -0.342 N 
ATOM     12  C   UNL A   1      33.417  21.044  26.167  1.00  0.00     0.120 C 
ATOM     13  C   UNL A   1      32.792  22.429  24.289  1.00  0.00     0.120 C 
ATOM     14  C   UNL A   1      34.917  21.349  25.968  1.00  0.00     0.037 C 
ATOM     15  C   UNL A   1      34.223  22.938  24.150  1.00  0.00     0.037 C 
BRANCH   9  16
ATOM     16  C   UNL A   1      30.979  24.055  26.121  1.00  0.00     0.139 C 
BRANCH  16  17
ATOM     17  C   UNL A   1      31.520  25.398  25.749  1.00  0.00     0.008 A 
ATOM     18  C   UNL A   1      30.103  29.567  22.124  1.00  0.00     0.044 C 
ATOM     19  C   UNL A   1      30.362  28.500  23.149  1.00  0.00    -0.047 A 
ATOM     20  C   UNL A   1      29.380  27.537  23.414  1.00  0.00     0.004 A 
ATOM     21  C   UNL A   1      31.611  28.423  23.787  1.00  0.00     0.051 A 
ATOM     22  C   UNL A   1      29.621  26.457  24.274  1.00  0.00     0.012 A 
ATOM     23  C   UNL A   1      31.809  27.358  24.667  1.00  0.00     0.134 A 
ATOM     24  C   UNL A   1      30.871  26.364  24.910  1.00  0.00     0.024 A 
ATOM     25  O   UNL A   1      32.938  27.117  25.386  1.00  0.00    -0.464 OA
ATOM     26  C   UNL A   1      32.741  25.957  26.067  1.00  0.00     0.200 A 
ENDBRANCH  16  17
ENDBRANCH   9  16
ENDBRANCH   6   8
ENDBRANCH   5   6
ENDBRANCH   4   5
ENDBRANCH   3   4
ENDBRANCH   2   3
ENDBRANCH   1   2
BRANCH   1  27
ATOM     27  C   UNL A   1      42.085  19.357  26.372  1.00  0.00     0.188 C 
BRANCH  27  28
ATOM     28  O   UNL A   1      42.691  19.278  25.099  1.00  0.00    -0.376 OA
BRANCH  28  29
ATOM     29  C   UNL A   1      44.033  18.831  25.037  1.00  0.00     0.202 C 
BRANCH  29  30
ATOM     30  C   UNL A   1      44.886  19.355  23.870  1.00  0.00     0.261 C 
BRANCH  30  31
ATOM     31  O   UNL A   1      45.541  20.599  24.187  1.00  0.00    -0.460 OA
BRANCH  31  32
ATOM     32  C   UNL A   1      44.889  21.731  23.807  1.00  0.00     0.338 C 
ATOM     33  O   UNL A   1      44.375  21.949  22.722  1.00  0.00    -0.246 OA
BRANCH  32  34
ATOM     34  C   UNL A   1      44.597  22.528  25.030  1.00  0.00     0.060 A 
ATOM     35  C   UNL A   1      45.259  22.324  26.246  1.00  0.00     0.016 A 
ATOM     36  C   UNL A   1      43.470  23.362  24.986  1.00  0.00     0.016 A 
ATOM     37  C   UNL A   1      44.778  22.934  27.416  1.00  0.00     0.010 A 
ATOM     38  C   UNL A   1      42.978  23.943  26.158  1.00  0.00     0.010 A 
ATOM     39  C   UNL A   1      43.624  23.737  27.386  1.00  0.00    -0.014 A 
BRANCH  39  40
ATOM     40  C   UNL A   1      43.281  24.652  28.491  1.00  0.00     0.031 A 
ATOM     41  C   UNL A   1      41.993  25.331  28.335  1.00  0.00     0.074 A 
ATOM     42  C   UNL A   1      43.994  25.064  29.562  1.00  0.00     0.049 A 
ATOM     43  N   UNL A   1      41.912  26.586  28.031  1.00  0.00    -0.248 NA
ATOM     44  C   UNL A   1      40.728  24.611  28.366  1.00  0.00     0.031 C 
ATOM     45  C   UNL A   1      45.434  25.171  29.645  1.00  0.00     0.029 A 
ATOM     46  N   UNL A   1      43.570  25.569  30.780  1.00  0.00    -0.354 N 
ATOM     47  C   UNL A   1      40.572  26.884  28.016  1.00  0.00     0.074 A 
ATOM     48  C   UNL A   1      39.880  25.616  28.123  1.00  0.00     0.031 C 
ATOM     49  C   UNL A   1      45.791  25.611  30.870  1.00  0.00     0.029 A 
ATOM     50  C   UNL A   1      44.602  25.768  31.697  1.00  0.00     0.049 A 
ATOM     51  H   UNL A   1      42.627  25.767  30.981  1.00  0.00     0.167 HD
ATOM     52  C   UNL A   1      40.149  28.171  28.110  1.00  0.00     0.031 A 
ATOM     53  C   UNL A   1      44.653  26.558  32.800  1.00  0.00     0.031 A 
ATOM     54  C   UNL A   1      41.176  29.133  27.779  1.00  0.00     0.049 A 
ATOM     55  C   UNL A   1      44.160  27.881  32.335  1.00  0.00     0.074 A 
ATOM     56  C   UNL A   1      41.969  29.365  26.669  1.00  0.00     0.029 A 
ATOM     57  N   UNL A   1      41.746  29.869  28.790  1.00  0.00    -0.354 N 
ATOM     58  N   UNL A   1      44.828  28.707  31.586  1.00  0.00    -0.248 NA
ATOM     59  C   UNL A   1      42.743  28.182  32.488  1.00  0.00     0.031 C 
ATOM     60  C   UNL A   1      43.206  29.868  27.171  1.00  0.00     0.029 A 
ATOM     61  C   UNL A   1      43.101  29.925  28.560  1.00  0.00     0.049 A 
ATOM     62  H   UNL A   1      41.269  30.282  29.545  1.00  0.00     0.167 HD
ATOM     63  C   UNL A   1      43.859  29.362  30.842  1.00  0.00     0.074 A 
ATOM     64  C   UNL A   1      42.603  29.092  31.528  1.00  0.00     0.031 C 
ATOM     65  C   UNL A   1      44.114  29.850  29.594  1.00  0.00     0.031 A 
BRANCH  52  66
ATOM     66  C   UNL A   1      38.872  28.522  28.806  1.00  0.00    -0.014 A 
ATOM     67  C   UNL A   1      38.706  28.379  30.199  1.00  0.00     0.009 A 
ATOM     68  C   UNL A   1      37.868  29.213  28.112  1.00  0.00     0.009 A 
ATOM     69  C   UNL A   1      37.576  28.853  30.863  1.00  0.00     0.001 A 
ATOM     70  C   UNL A   1      36.754  29.731  28.783  1.00  0.00     0.001 A 
ATOM     71  C   UNL A   1      36.604  29.542  30.155  1.00  0.00     0.000 A 
ENDBRANCH  52  66
BRANCH  53  72
ATOM     72  C   UNL A   1      44.260  26.064  34.149  1.00  0.00    -0.014 A 
ATOM     73  C   UNL A   1      44.540  26.768  35.332  1.00  0.00     0.009 A 
ATOM     74  C   UNL A   1      43.550  24.854  34.261  1.00  0.00     0.009 A 
ATOM     75  C   UNL A   1      44.160  26.261  36.582  1.00  0.00     0.001 A 
ATOM     76  C   UNL A   1      43.171  24.347  35.509  1.00  0.00     0.001 A 
ATOM     77  C   UNL A   1      43.482  25.047  36.670  1.00  0.00     0.000 A 
ENDBRANCH  53  72
BRANCH  65  78
ATOM     78  C   UNL A   1      45.556  30.013  29.168  1.00  0.00    -0.014 A 
ATOM     79  C   UNL A   1      46.226  28.910  28.620  1.00  0.00     0.009 A 
ATOM     80  C   UNL A   1      46.302  31.178  29.411  1.00  0.00     0.009 A 
ATOM     81  C   UNL A   1      47.593  28.970  28.325  1.00  0.00     0.001 A 
ATOM     82  C   UNL A   1      47.664  31.251  29.098  1.00  0.00     0.001 A 
ATOM     83  C   UNL A   1      48.311  30.141  28.561  1.00  0.00     0.000 A 
ENDBRANCH  65  78
ENDBRANCH  39  40
ENDBRANCH  32  34
ENDBRANCH  31  32
ENDBRANCH  30  31
ENDBRANCH  29  30
ENDBRANCH  28  29
ENDBRANCH  27  28
ENDBRANCH   1  27
TORSDOF 19
ENDMDL
MODEL 2
REMARK VINA RESULT:     -11.2      0.954      1.364
REMARK SMILES Cc1ccc2c(CC(=O)N3CCC(C(=O)OCCOCCOCCOC(=O)c4ccc(-c5c6nc(c(-c7ccccc7)c7ccc([nH]7)c(-c7ccccc7)c7nc(c(-c8ccccc8)c8ccc5[nH]8)C=C7)C=C6)cc4)CC3)coc2c1
REMARK SMILES IDX 20 1 19 2 18 3 17 4 16 5 14 6 15 7 13 8 8 9 9 10 10 11 11 12
REMARK SMILES IDX 77 13 12 14 76 15 7 16 6 17 1 18 2 19 3 20 81 21 4 22 80 23
REMARK SMILES IDX 5 24 79 25 78 26 21 27 22 28 23 29 24 30 25 31 26 32 27 33
REMARK SMILES IDX 28 34 29 35 75 36 30 37 74 38 31 39 32 40 33 41 68 42 34 43
REMARK SMILES IDX 73 44 67 45 69 46 35 47 72 48 66 49 65 50 36 52 58 53 43 54
REMARK SMILES IDX 57 55 44 56 47 57 56 58 70 59 45 60 46 61 55 63 71 64 48 65
REMARK SMILES IDX 37 66 38 67 42 68 39 69 41 70 40 71 59 72 60 73 64 74 61 75
REMARK SMILES IDX 63 76 62 77 49 78 50 79 54 80 51 81 53 82 52 83
REMARK H PARENT 69 51 47 62
REMARK Flexibility Score: inf
ROOT
ATOM      1  C   UNL A   1      41.526  20.849  26.779  1.00  0.00     0.188 C 
ENDROOT
BRANCH   1   2
ATOM      2  O   UNL A   1      40.132  20.950  27.016  1.00  0.00    -0.376 OA
BRANCH   2   3
ATOM      3  C   UNL A   1      39.257  21.045  25.899  1.00  0.00     0.202 C 
BRANCH   3   4
ATOM      4  C   UNL A   1      38.273  22.221  25.897  1.00  0.00     0.261 C 
BRANCH   4   5
ATOM      5  O   UNL A   1      36.913  21.803  25.622  1.00  0.00    -0.463 OA
BRANCH   5   6
ATOM      6  C   UNL A   1      36.377  22.287  24.479  1.00  0.00     0.309 C 
ATOM      7  O   UNL A   1      37.012  22.968  23.676  1.00  0.00    -0.252 OA
BRANCH   6   8
ATOM      8  C   UNL A   1      34.924  21.899  24.197  1.00  0.00     0.103 C 
ATOM      9  C   UNL A   1      31.132  23.196  24.371  1.00  0.00     0.227 C 
ATOM     10  O   UNL A   1      30.652  23.026  25.498  1.00  0.00    -0.275 OA
ATOM     11  N   UNL A   1      32.090  22.323  23.876  1.00  0.00    -0.342 N 
ATOM     12  C   UNL A   1      32.528  21.184  24.673  1.00  0.00     0.120 C 
ATOM     13  C   UNL A   1      32.992  22.611  22.780  1.00  0.00     0.120 C 
ATOM     14  C   UNL A   1      33.928  21.428  25.275  1.00  0.00     0.037 C 
ATOM     15  C   UNL A   1      34.309  23.061  23.403  1.00  0.00     0.037 C 
BRANCH   9  16
ATOM     16  C   UNL A   1      30.550  24.294  23.479  1.00  0.00     0.139 C 
BRANCH  16  17
ATOM     17  C   UNL A   1      31.270  25.604  23.442  1.00  0.00     0.008 A 
ATOM     18  C   UNL A   1      32.087  29.975  27.014  1.00  0.00     0.044 C 
ATOM     19  C   UNL A   1      31.949  28.748  26.158  1.00  0.00    -0.047 A 
ATOM     20  C   UNL A   1      31.473  27.557  26.721  1.00  0.00     0.004 A 
ATOM     21  C   UNL A   1      32.226  28.813  24.783  1.00  0.00     0.051 A 
ATOM     22  C   UNL A   1      31.218  26.423  25.938  1.00  0.00     0.012 A 
ATOM     23  C   UNL A   1      31.998  27.657  24.035  1.00  0.00     0.134 A 
ATOM     24  C   UNL A   1      31.482  26.479  24.559  1.00  0.00     0.024 A 
ATOM     25  O   UNL A   1      32.215  27.515  22.699  1.00  0.00    -0.464 OA
ATOM     26  C   UNL A   1      31.812  26.262  22.357  1.00  0.00     0.200 A 
ENDBRANCH  16  17
ENDBRANCH   9  16
ENDBRANCH   6   8
ENDBRANCH   5   6
ENDBRANCH   4   5
ENDBRANCH   3   4
ENDBRANCH   2   3
ENDBRANCH   1   2
BRANCH   1  27
ATOM     27  C   UNL A   1      42.096  19.497  26.330  1.00  0.00     0.188 C 
BRANCH  27  28
ATOM     28  O   UNL A   1      42.693  19.319  25.062  1.00  0.00    -0.376 OA
BRANCH  28  29
ATOM     29  C   UNL A   1      44.035  18.868  25.026  1.00  0.00     0.202 C 
BRANCH  29  30
ATOM     30  C   UNL A   1      44.907  19.374  23.864  1.00  0.00     0.261 C 
BRANCH  30  31
ATOM     31  O   UNL A   1      45.554  20.624  24.170  1.00  0.00    -0.460 OA
BRANCH  31  32
ATOM     32  C   UNL A   1      44.890  21.750  23.795  1.00  0.00     0.338 C 
ATOM     33  O   UNL A   1      44.373  21.965  22.710  1.00  0.00    -0.246 OA
BRANCH  32  34
ATOM     34  C   UNL A   1      44.588  22.539  25.020  1.00  0.00     0.060 A 
ATOM     35  C   UNL A   1      45.154  22.251  26.267  1.00  0.00     0.016 A 
ATOM     36  C   UNL A   1      43.538  23.465  24.933  1.00  0.00     0.016 A 
ATOM     37  C   UNL A   1      44.653  22.872  27.423  1.00  0.00     0.010 A 
ATOM     38  C   UNL A   1      43.024  24.058  26.089  1.00  0.00     0.010 A 
ATOM     39  C   UNL A   1      43.574  23.768  27.347  1.00  0.00    -0.014 A 
BRANCH  39  40
ATOM     40  C   UNL A   1      43.239  24.683  28.456  1.00  0.00     0.031 A 
ATOM     41  C   UNL A   1      41.950  25.364  28.309  1.00  0.00     0.074 A 
ATOM     42  C   UNL A   1      43.959  25.092  29.523  1.00  0.00     0.049 A 
ATOM     43  N   UNL A   1      41.870  26.619  28.007  1.00  0.00    -0.248 NA
ATOM     44  C   UNL A   1      40.684  24.646  28.347  1.00  0.00     0.031 C 
ATOM     45  C   UNL A   1      45.400  25.197  29.597  1.00  0.00     0.029 A 
ATOM     46  N   UNL A   1      43.544  25.595  30.745  1.00  0.00    -0.354 N 
ATOM     47  C   UNL A   1      40.530  26.919  28.001  1.00  0.00     0.074 A 
ATOM     48  C   UNL A   1      39.837  25.652  28.111  1.00  0.00     0.031 C 
ATOM     49  C   UNL A   1      45.765  25.635  30.820  1.00  0.00     0.029 A 
ATOM     50  C   UNL A   1      44.582  25.793  31.655  1.00  0.00     0.049 A 
ATOM     51  H   UNL A   1      42.603  25.795  30.952  1.00  0.00     0.167 HD
ATOM     52  C   UNL A   1      40.109  28.206  28.100  1.00  0.00     0.031 A 
ATOM     53  C   UNL A   1      44.641  26.581  32.758  1.00  0.00     0.031 A 
ATOM     54  C   UNL A   1      41.135  29.167  27.763  1.00  0.00     0.049 A 
ATOM     55  C   UNL A   1      44.147  27.905  32.298  1.00  0.00     0.074 A 
ATOM     56  C   UNL A   1      41.922  29.399  26.649  1.00  0.00     0.029 A 
ATOM     57  N   UNL A   1      41.713  29.901  28.772  1.00  0.00    -0.354 N 
ATOM     58  N   UNL A   1      44.811  28.731  31.547  1.00  0.00    -0.248 NA
ATOM     59  C   UNL A   1      42.731  28.207  32.461  1.00  0.00     0.031 C 
ATOM     60  C   UNL A   1      43.162  29.901  27.144  1.00  0.00     0.029 A 
ATOM     61  C   UNL A   1      43.067  29.956  28.533  1.00  0.00     0.049 A 
ATOM     62  H   UNL A   1      41.241  30.314  29.531  1.00  0.00     0.167 HD
ATOM     63  C   UNL A   1      43.838  29.388  30.810  1.00  0.00     0.074 A 
ATOM     64  C   UNL A   1      42.586  29.119  31.503  1.00  0.00     0.031 C 
ATOM     65  C   UNL A   1      44.086  29.878  29.561  1.00  0.00     0.031 A 
BRANCH  52  66
ATOM     66  C   UNL A   1      38.837  28.558  28.804  1.00  0.00    -0.014 A 
ATOM     67  C   UNL A   1      38.683  28.423  30.200  1.00  0.00     0.009 A 
ATOM     68  C   UNL A   1      37.826  29.243  28.115  1.00  0.00     0.009 A 
ATOM     69  C   UNL A   1      37.557  28.898  30.871  1.00  0.00     0.001 A 
ATOM     70  C   UNL A   1      36.716  29.761  28.793  1.00  0.00     0.001 A 
ATOM     71  C   UNL A   1      36.578  29.580  30.166  1.00  0.00     0.000 A 
ENDBRANCH  52  66
BRANCH  53  72
ATOM     72  C   UNL A   1      44.256  26.085  34.110  1.00  0.00    -0.014 A 
ATOM     73  C   UNL A   1      44.464  26.828  35.284  1.00  0.00     0.009 A 
ATOM     74  C   UNL A   1      43.627  24.832  34.232  1.00  0.00     0.009 A 
ATOM     75  C   UNL A   1      44.095  26.319  36.536  1.00  0.00     0.001 A 
ATOM     76  C   UNL A   1      43.259  24.322  35.482  1.00  0.00     0.001 A 
ATOM     77  C   UNL A   1      43.499  25.063  36.635  1.00  0.00     0.000 A 
ENDBRANCH  53  72
BRANCH  65  78
ATOM     78  C   UNL A   1      45.526  30.040  29.126  1.00  0.00    -0.014 A 
ATOM     79  C   UNL A   1      46.133  31.297  29.258  1.00  0.00     0.009 A 
ATOM     80  C   UNL A   1      46.249  29.028  28.474  1.00  0.00     0.009 A 
ATOM     81  C   UNL A   1      47.418  31.533  28.756  1.00  0.00     0.001 A 
ATOM     82  C   UNL A   1      47.542  29.252  27.990  1.00  0.00     0.001 A 
ATOM     83  C   UNL A   1      48.124  30.509  28.125  1.00  0.00     0.000 A 
ENDBRANCH  65  78
ENDBRANCH  39  40
ENDBRANCH  32  34
ENDBRANCH  31  32
ENDBRANCH  30  31
ENDBRANCH  29  30
ENDBRANCH  28  29
ENDBRANCH  27  28
ENDBRANCH   1  27
TORSDOF 19
ENDMDL
MODEL 3
REMARK VINA RESULT:     -10.9      1.782      5.404
REMARK SMILES Cc1ccc2c(CC(=O)N3CCC(C(=O)OCCOCCOCCOC(=O)c4ccc(-c5c6nc(c(-c7ccccc7)c7ccc([nH]7)c(-c7ccccc7)c7nc(c(-c8ccccc8)c8ccc5[nH]8)C=C7)C=C6)cc4)CC3)coc2c1
REMARK SMILES IDX 20 1 19 2 18 3 17 4 16 5 14 6 15 7 13 8 8 9 9 10 10 11 11 12
REMARK SMILES IDX 77 13 12 14 76 15 7 16 6 17 1 18 2 19 3 20 81 21 4 22 80 23
REMARK SMILES IDX 5 24 79 25 78 26 21 27 22 28 23 29 24 30 25 31 26 32 27 33
REMARK SMILES IDX 28 34 29 35 75 36 30 37 74 38 31 39 32 40 33 41 68 42 34 43
REMARK SMILES IDX 73 44 67 45 69 46 35 47 72 48 66 49 65 50 36 52 58 53 43 54
REMARK SMILES IDX 57 55 44 56 47 57 56 58 70 59 45 60 46 61 55 63 71 64 48 65
REMARK SMILES IDX 37 66 38 67 42 68 39 69 41 70 40 71 59 72 60 73 64 74 61 75
REMARK SMILES IDX 63 76 62 77 49 78 50 79 54 80 51 81 53 82 52 83
REMARK H PARENT 69 51 47 62
REMARK Flexibility Score: inf
ROOT
ATOM      1  C   UNL A   1      40.402  20.716  26.772  1.00  0.00     0.188 C 
ENDROOT
BRANCH   1   2
ATOM      2  O   UNL A   1      40.162  21.937  26.093  1.00  0.00    -0.376 OA
BRANCH   2   3
ATOM      3  C   UNL A   1      39.161  22.811  26.599  1.00  0.00     0.202 C 
BRANCH   3   4
ATOM      4  C   UNL A   1      38.028  23.185  25.635  1.00  0.00     0.261 C 
BRANCH   4   5
ATOM      5  O   UNL A   1      36.812  22.440  25.897  1.00  0.00    -0.463 OA
BRANCH   5   6
ATOM      6  C   UNL A   1      36.600  21.375  25.092  1.00  0.00     0.309 C 
ATOM      7  O   UNL A   1      37.481  20.570  24.796  1.00  0.00    -0.252 OA
BRANCH   6   8
ATOM      8  C   UNL A   1      35.166  21.181  24.592  1.00  0.00     0.103 C 
ATOM      9  C   UNL A   1      31.431  22.624  24.826  1.00  0.00     0.227 C 
ATOM     10  O   UNL A   1      30.837  22.172  25.812  1.00  0.00    -0.275 OA
ATOM     11  N   UNL A   1      32.396  21.867  24.178  1.00  0.00    -0.342 N 
ATOM     12  C   UNL A   1      32.708  20.522  24.644  1.00  0.00     0.120 C 
ATOM     13  C   UNL A   1      33.411  22.395  23.290  1.00  0.00     0.120 C 
ATOM     14  C   UNL A   1      34.052  20.490  25.402  1.00  0.00     0.037 C 
ATOM     15  C   UNL A   1      34.678  22.559  24.122  1.00  0.00     0.037 C 
BRANCH   9  16
ATOM     16  C   UNL A   1      30.983  23.968  24.247  1.00  0.00     0.139 C 
BRANCH  16  17
ATOM     17  C   UNL A   1      30.927  25.135  25.180  1.00  0.00     0.008 A 
ATOM     18  C   UNL A   1      34.608  29.002  27.187  1.00  0.00     0.044 C 
ATOM     19  C   UNL A   1      33.653  28.043  26.535  1.00  0.00    -0.047 A 
ATOM     20  C   UNL A   1      34.059  27.313  25.410  1.00  0.00     0.004 A 
ATOM     21  C   UNL A   1      32.383  27.824  27.093  1.00  0.00     0.051 A 
ATOM     22  C   UNL A   1      33.245  26.324  24.841  1.00  0.00     0.012 A 
ATOM     23  C   UNL A   1      31.580  26.859  26.482  1.00  0.00     0.134 A 
ATOM     24  C   UNL A   1      31.977  26.088  25.398  1.00  0.00     0.024 A 
ATOM     25  O   UNL A   1      30.320  26.511  26.864  1.00  0.00    -0.464 OA
ATOM     26  C   UNL A   1      29.919  25.500  26.048  1.00  0.00     0.200 A 
ENDBRANCH  16  17
ENDBRANCH   9  16
ENDBRANCH   6   8
ENDBRANCH   5   6
ENDBRANCH   4   5
ENDBRANCH   3   4
ENDBRANCH   2   3
ENDBRANCH   1   2
BRANCH   1  27
ATOM     27  C   UNL A   1      41.727  20.545  27.526  1.00  0.00     0.188 C 
BRANCH  27  28
ATOM     28  O   UNL A   1      42.641  19.514  27.214  1.00  0.00    -0.376 OA
BRANCH  28  29
ATOM     29  C   UNL A   1      42.551  18.924  25.930  1.00  0.00     0.202 C 
BRANCH  29  30
ATOM     30  C   UNL A   1      43.873  18.513  25.260  1.00  0.00     0.261 C 
BRANCH  30  31
ATOM     31  O   UNL A   1      44.247  19.409  24.195  1.00  0.00    -0.460 OA
BRANCH  31  32
ATOM     32  C   UNL A   1      45.361  20.161  24.410  1.00  0.00     0.338 C 
ATOM     33  O   UNL A   1      46.476  19.961  23.954  1.00  0.00    -0.246 OA
BRANCH  32  34
ATOM     34  C   UNL A   1      44.936  21.458  25.003  1.00  0.00     0.060 A 
ATOM     35  C   UNL A   1      43.854  22.199  24.513  1.00  0.00     0.016 A 
ATOM     36  C   UNL A   1      45.797  22.032  25.950  1.00  0.00     0.016 A 
ATOM     37  C   UNL A   1      43.652  23.517  24.954  1.00  0.00     0.010 A 
ATOM     38  C   UNL A   1      45.608  23.353  26.364  1.00  0.00     0.010 A 
ATOM     39  C   UNL A   1      44.535  24.111  25.871  1.00  0.00    -0.014 A 
BRANCH  39  40
ATOM     40  C   UNL A   1      44.185  25.341  26.607  1.00  0.00     0.031 A 
ATOM     41  C   UNL A   1      45.173  26.417  26.492  1.00  0.00     0.074 A 
ATOM     42  C   UNL A   1      43.174  25.613  27.462  1.00  0.00     0.049 A 
ATOM     43  N   UNL A   1      45.954  26.737  27.471  1.00  0.00    -0.248 NA
ATOM     44  C   UNL A   1      45.440  27.093  25.230  1.00  0.00     0.031 C 
ATOM     45  C   UNL A   1      42.490  24.662  28.311  1.00  0.00     0.029 A 
ATOM     46  N   UNL A   1      42.606  26.823  27.823  1.00  0.00    -0.354 N 
ATOM     47  C   UNL A   1      46.702  27.799  27.025  1.00  0.00     0.074 A 
ATOM     48  C   UNL A   1      46.425  27.914  25.608  1.00  0.00     0.031 C 
ATOM     49  C   UNL A   1      41.533  25.291  29.024  1.00  0.00     0.029 A 
ATOM     50  C   UNL A   1      41.486  26.697  28.644  1.00  0.00     0.049 A 
ATOM     51  H   UNL A   1      42.960  27.692  27.526  1.00  0.00     0.167 HD
ATOM     52  C   UNL A   1      47.338  28.614  27.904  1.00  0.00     0.031 A 
ATOM     53  C   UNL A   1      40.906  27.597  29.478  1.00  0.00     0.031 A 
ATOM     54  C   UNL A   1      47.515  28.016  29.209  1.00  0.00     0.049 A 
ATOM     55  C   UNL A   1      42.032  28.142  30.281  1.00  0.00     0.074 A 
ATOM     56  C   UNL A   1      48.123  26.864  29.676  1.00  0.00     0.029 A 
ATOM     57  N   UNL A   1      46.748  28.469  30.255  1.00  0.00    -0.354 N 
ATOM     58  N   UNL A   1      42.650  27.506  31.230  1.00  0.00    -0.248 NA
ATOM     59  C   UNL A   1      42.682  29.362  29.818  1.00  0.00     0.031 C 
ATOM     60  C   UNL A   1      47.360  26.451  30.807  1.00  0.00     0.029 A 
ATOM     61  C   UNL A   1      46.331  27.375  30.978  1.00  0.00     0.049 A 
ATOM     62  H   UNL A   1      46.535  29.409  30.453  1.00  0.00     0.167 HD
ATOM     63  C   UNL A   1      43.948  27.993  31.186  1.00  0.00     0.074 A 
ATOM     64  C   UNL A   1      43.873  29.211  30.392  1.00  0.00     0.031 C 
ATOM     65  C   UNL A   1      45.016  27.236  31.572  1.00  0.00     0.031 A 
BRANCH  52  66
ATOM     66  C   UNL A   1      47.514  30.074  27.626  1.00  0.00    -0.014 A 
ATOM     67  C   UNL A   1      48.774  30.642  27.342  1.00  0.00     0.009 A 
ATOM     68  C   UNL A   1      46.389  30.886  27.427  1.00  0.00     0.009 A 
ATOM     69  C   UNL A   1      48.914  31.966  26.930  1.00  0.00     0.001 A 
ATOM     70  C   UNL A   1      46.523  32.202  26.969  1.00  0.00     0.001 A 
ATOM     71  C   UNL A   1      47.784  32.744  26.730  1.00  0.00     0.000 A 
ENDBRANCH  52  66
BRANCH  53  72
ATOM     72  C   UNL A   1      39.819  28.511  29.028  1.00  0.00    -0.014 A 
ATOM     73  C   UNL A   1      39.551  28.769  27.673  1.00  0.00     0.009 A 
ATOM     74  C   UNL A   1      38.994  29.129  29.987  1.00  0.00     0.009 A 
ATOM     75  C   UNL A   1      38.525  29.645  27.294  1.00  0.00     0.001 A 
ATOM     76  C   UNL A   1      37.969  30.003  29.609  1.00  0.00     0.001 A 
ATOM     77  C   UNL A   1      37.739  30.266  28.262  1.00  0.00     0.000 A 
ENDBRANCH  53  72
BRANCH  65  78
ATOM     78  C   UNL A   1      44.757  26.000  32.405  1.00  0.00    -0.014 A 
ATOM     79  C   UNL A   1      44.861  26.094  33.801  1.00  0.00     0.009 A 
ATOM     80  C   UNL A   1      44.544  24.729  31.847  1.00  0.00     0.009 A 
ATOM     81  C   UNL A   1      44.755  24.955  34.609  1.00  0.00     0.001 A 
ATOM     82  C   UNL A   1      44.416  23.592  32.652  1.00  0.00     0.001 A 
ATOM     83  C   UNL A   1      44.529  23.706  34.035  1.00  0.00     0.000 A 
ENDBRANCH  65  78
ENDBRANCH  39  40
ENDBRANCH  32  34
ENDBRANCH  31  32
ENDBRANCH  30  31
ENDBRANCH  29  30
ENDBRANCH  28  29
ENDBRANCH  27  28
ENDBRANCH   1  27
TORSDOF 19
ENDMDL
