MODEL 1
REMARK VINA RESULT:      -9.7      0.000      0.000
REMARK SMILES N#Cc1cc([N+](=O)[O-])cnc1Oc1csc(C(=O)OCCOCCOCCOC(=O)c2ccc(-c3c4nc(c(-c5ccccc5)c5ccc([nH]5)c(-c5ccccc5)c5nc(c(-c6ccccc6)c6ccc3[nH]6)C=C5)C=C4)cc2)c1
REMARK SMILES IDX 23 1 22 2 21 3 20 4 19 5 17 6 18 7 16 8 13 9 14 10 79 11
REMARK SMILES IDX 15 12 12 13 11 14 3 15 4 16 5 17 10 18 9 19 2 20 1 21 6 22
REMARK SMILES IDX 7 23 8 24 24 25 25 26 26 27 27 28 28 29 29 30 30 31 31 32
REMARK SMILES IDX 32 33 78 34 33 35 77 36 34 37 35 38 36 39 71 40 37 41 76 42
REMARK SMILES IDX 70 43 72 44 38 45 75 46 69 47 68 48 39 50 61 51 46 52 60 53
REMARK SMILES IDX 47 54 50 55 59 56 73 57 48 58 49 59 58 61 74 62 51 63 40 64
REMARK SMILES IDX 41 65 45 66 42 67 44 68 43 69 62 70 63 71 67 72 64 73 66 74
REMARK SMILES IDX 65 75 52 76 53 77 57 78 54 79 56 80 55 81
REMARK H PARENT 72 49 50 60
REMARK Flexibility Score: inf
ROOT
ATOM      1  C   UNL A   1      34.706  32.696  28.206  1.00  0.00     0.188 C 
ENDROOT
BRANCH   1   2
ATOM      2  O   UNL A   1      34.274  31.354  28.344  1.00  0.00    -0.376 OA
BRANCH   2   3
ATOM      3  C   UNL A   1      34.195  30.496  27.217  1.00  0.00     0.202 C 
BRANCH   3   4
ATOM      4  C   UNL A   1      34.157  28.956  27.312  1.00  0.00     0.261 C 
BRANCH   4   5
ATOM      5  O   UNL A   1      32.971  28.297  26.848  1.00  0.00    -0.459 OA
BRANCH   5   6
ATOM      6  C   UNL A   1      33.155  27.252  25.985  1.00  0.00     0.348 C 
ATOM      7  O   UNL A   1      34.180  26.588  25.916  1.00  0.00    -0.245 OA
BRANCH   6   8
ATOM      8  C   UNL A   1      31.914  26.985  25.273  1.00  0.00     0.116 A 
ATOM      9  C   UNL A   1      30.109  27.097  23.785  1.00  0.00     0.141 A 
ATOM     10  C   UNL A   1      29.646  26.164  24.685  1.00  0.00     0.112 A 
ATOM     11  C   UNL A   1      31.425  27.544  24.108  1.00  0.00     0.074 A 
ATOM     12  S   UNL A   1      30.784  25.876  25.938  1.00  0.00    -0.133 S 
BRANCH   9  13
ATOM     13  O   UNL A   1      29.486  27.523  22.664  1.00  0.00    -0.437 OA
BRANCH  13  14
ATOM     14  C   UNL A   1      29.017  28.787  22.410  1.00  0.00     0.237 A 
ATOM     15  C   UNL A   1      27.800  29.301  22.857  1.00  0.00     0.121 A 
ATOM     16  C   UNL A   1      27.569  30.682  22.740  1.00  0.00     0.112 A 
ATOM     17  C   UNL A   1      28.568  31.502  22.210  1.00  0.00     0.289 A 
ATOM     18  N   UNL A   1      29.980  29.588  21.875  1.00  0.00    -0.213 NA
ATOM     19  C   UNL A   1      29.746  30.921  21.784  1.00  0.00     0.200 A 
BRANCH  15  20
ATOM     20  C   UNL A   1      26.794  28.500  23.482  1.00  0.00     0.105 C 
ATOM     21  N   UNL A   1      25.994  27.818  23.964  1.00  0.00    -0.192 NA
ENDBRANCH  15  20
BRANCH  17  22
ATOM     22  N   UNL A   1      28.400  32.948  22.138  1.00  0.00     0.064 N 
ATOM     23  O   UNL A   1      29.010  33.640  22.963  1.00  0.00    -0.258 OA
ATOM     24  O   UNL A   1      27.650  33.390  21.259  1.00  0.00    -0.258 OA
ENDBRANCH  17  22
ENDBRANCH  13  14
ENDBRANCH   9  13
ENDBRANCH   6   8
ENDBRANCH   5   6
ENDBRANCH   4   5
ENDBRANCH   3   4
ENDBRANCH   2   3
ENDBRANCH   1   2
BRANCH   1  25
ATOM     25  C   UNL A   1      34.083  33.799  29.086  1.00  0.00     0.188 C 
BRANCH  25  26
ATOM     26  O   UNL A   1      34.968  34.391  30.008  1.00  0.00    -0.376 OA
BRANCH  26  27
ATOM     27  C   UNL A   1      34.537  34.619  31.340  1.00  0.00     0.202 C 
BRANCH  27  28
ATOM     28  C   UNL A   1      35.452  34.891  32.557  1.00  0.00     0.261 C 
BRANCH  28  29
ATOM     29  O   UNL A   1      36.650  34.122  32.710  1.00  0.00    -0.460 OA
BRANCH  29  30
ATOM     30  C   UNL A   1      36.484  32.847  33.137  1.00  0.00     0.338 C 
ATOM     31  O   UNL A   1      35.663  32.442  33.941  1.00  0.00    -0.246 OA
BRANCH  30  32
ATOM     32  C   UNL A   1      37.349  31.952  32.346  1.00  0.00     0.060 A 
ATOM     33  C   UNL A   1      38.461  31.377  32.972  1.00  0.00     0.016 A 
ATOM     34  C   UNL A   1      37.126  31.754  30.985  1.00  0.00     0.016 A 
ATOM     35  C   UNL A   1      39.384  30.643  32.234  1.00  0.00     0.010 A 
ATOM     36  C   UNL A   1      38.064  31.032  30.237  1.00  0.00     0.010 A 
ATOM     37  C   UNL A   1      39.224  30.517  30.850  1.00  0.00    -0.014 A 
BRANCH  37  38
ATOM     38  C   UNL A   1      40.369  30.044  30.034  1.00  0.00     0.031 A 
ATOM     39  C   UNL A   1      41.510  30.994  29.777  1.00  0.00     0.074 A 
ATOM     40  C   UNL A   1      40.439  28.777  29.589  1.00  0.00     0.049 A 
ATOM     41  N   UNL A   1      42.611  30.808  29.092  1.00  0.00    -0.248 NA
ATOM     42  C   UNL A   1      41.392  32.337  30.370  1.00  0.00     0.031 C 
ATOM     43  C   UNL A   1      39.430  27.743  29.814  1.00  0.00     0.029 A 
ATOM     44  N   UNL A   1      41.410  28.147  28.851  1.00  0.00    -0.354 N 
ATOM     45  C   UNL A   1      43.310  32.008  29.170  1.00  0.00     0.074 A 
ATOM     46  C   UNL A   1      42.488  32.930  29.922  1.00  0.00     0.031 C 
ATOM     47  C   UNL A   1      39.834  26.606  29.219  1.00  0.00     0.029 A 
ATOM     48  C   UNL A   1      41.109  26.843  28.545  1.00  0.00     0.049 A 
ATOM     49  H   UNL A   1      42.245  28.588  28.570  1.00  0.00     0.167 HD
ATOM     50  C   UNL A   1      44.534  32.313  28.676  1.00  0.00     0.031 A 
ATOM     51  C   UNL A   1      41.775  25.950  27.787  1.00  0.00     0.031 A 
ATOM     52  C   UNL A   1      45.345  31.405  27.909  1.00  0.00     0.049 A 
ATOM     53  C   UNL A   1      43.094  26.343  27.172  1.00  0.00     0.074 A 
ATOM     54  C   UNL A   1      46.595  31.622  27.356  1.00  0.00     0.029 A 
ATOM     55  N   UNL A   1      44.984  30.107  27.584  1.00  0.00    -0.354 N 
ATOM     56  N   UNL A   1      43.750  27.476  27.262  1.00  0.00    -0.248 NA
ATOM     57  C   UNL A   1      43.776  25.320  26.367  1.00  0.00     0.031 C 
ATOM     58  C   UNL A   1      46.962  30.478  26.641  1.00  0.00     0.029 A 
ATOM     59  C   UNL A   1      45.980  29.517  26.822  1.00  0.00     0.049 A 
ATOM     60  H   UNL A   1      44.145  29.669  27.853  1.00  0.00     0.167 HD
ATOM     61  C   UNL A   1      44.936  27.286  26.560  1.00  0.00     0.074 A 
ATOM     62  C   UNL A   1      44.917  25.923  26.074  1.00  0.00     0.031 C 
ATOM     63  C   UNL A   1      45.951  28.159  26.340  1.00  0.00     0.031 A 
BRANCH  50  64
ATOM     64  C   UNL A   1      45.055  33.702  28.931  1.00  0.00    -0.014 A 
ATOM     65  C   UNL A   1      45.690  34.034  30.139  1.00  0.00     0.009 A 
ATOM     66  C   UNL A   1      44.940  34.686  27.937  1.00  0.00     0.009 A 
ATOM     67  C   UNL A   1      46.164  35.329  30.359  1.00  0.00     0.001 A 
ATOM     68  C   UNL A   1      45.446  35.970  28.145  1.00  0.00     0.001 A 
ATOM     69  C   UNL A   1      46.048  36.294  29.359  1.00  0.00     0.000 A 
ENDBRANCH  50  64
BRANCH  51  70
ATOM     70  C   UNL A   1      41.200  24.599  27.535  1.00  0.00    -0.014 A 
ATOM     71  C   UNL A   1      40.154  24.415  26.617  1.00  0.00     0.009 A 
ATOM     72  C   UNL A   1      41.666  23.489  28.257  1.00  0.00     0.009 A 
ATOM     73  C   UNL A   1      39.559  23.160  26.463  1.00  0.00     0.001 A 
ATOM     74  C   UNL A   1      41.098  22.228  28.072  1.00  0.00     0.001 A 
ATOM     75  C   UNL A   1      40.034  22.068  27.187  1.00  0.00     0.000 A 
ENDBRANCH  51  70
BRANCH  63  76
ATOM     76  C   UNL A   1      47.155  27.641  25.595  1.00  0.00    -0.014 A 
ATOM     77  C   UNL A   1      47.226  27.658  24.193  1.00  0.00     0.009 A 
ATOM     78  C   UNL A   1      48.242  27.125  26.319  1.00  0.00     0.009 A 
ATOM     79  C   UNL A   1      48.328  27.106  23.533  1.00  0.00     0.001 A 
ATOM     80  C   UNL A   1      49.360  26.614  25.658  1.00  0.00     0.001 A 
ATOM     81  C   UNL A   1      49.393  26.587  24.266  1.00  0.00     0.000 A 
ENDBRANCH  63  76
ENDBRANCH  37  38
ENDBRANCH  30  32
ENDBRANCH  29  30
ENDBRANCH  28  29
ENDBRANCH  27  28
ENDBRANCH  26  27
ENDBRANCH  25  26
ENDBRANCH   1  25
TORSDOF 21
ENDMDL
MODEL 2
REMARK VINA RESULT:      -9.7      0.605      5.788
REMARK SMILES N#Cc1cc([N+](=O)[O-])cnc1Oc1csc(C(=O)OCCOCCOCCOC(=O)c2ccc(-c3c4nc(c(-c5ccccc5)c5ccc([nH]5)c(-c5ccccc5)c5nc(c(-c6ccccc6)c6ccc3[nH]6)C=C5)C=C4)cc2)c1
REMARK SMILES IDX 23 1 22 2 21 3 20 4 19 5 17 6 18 7 16 8 13 9 14 10 79 11
REMARK SMILES IDX 15 12 12 13 11 14 3 15 4 16 5 17 10 18 9 19 2 20 1 21 6 22
REMARK SMILES IDX 7 23 8 24 24 25 25 26 26 27 27 28 28 29 29 30 30 31 31 32
REMARK SMILES IDX 32 33 78 34 33 35 77 36 34 37 35 38 36 39 71 40 37 41 76 42
REMARK SMILES IDX 70 43 72 44 38 45 75 46 69 47 68 48 39 50 61 51 46 52 60 53
REMARK SMILES IDX 47 54 50 55 59 56 73 57 48 58 49 59 58 61 74 62 51 63 40 64
REMARK SMILES IDX 41 65 45 66 42 67 44 68 43 69 62 70 63 71 67 72 64 73 66 74
REMARK SMILES IDX 65 75 52 76 53 77 57 78 54 79 56 80 55 81
REMARK H PARENT 72 49 50 60
REMARK Flexibility Score: inf
ROOT
ATOM      1  C   UNL A   1      34.760  32.663  28.220  1.00  0.00     0.188 C 
ENDROOT
BRANCH   1   2
ATOM      2  O   UNL A   1      34.249  31.352  28.373  1.00  0.00    -0.376 OA
BRANCH   2   3
ATOM      3  C   UNL A   1      34.163  30.471  27.265  1.00  0.00     0.202 C 
BRANCH   3   4
ATOM      4  C   UNL A   1      33.991  28.942  27.395  1.00  0.00     0.261 C 
BRANCH   4   5
ATOM      5  O   UNL A   1      32.821  28.358  26.808  1.00  0.00    -0.459 OA
BRANCH   5   6
ATOM      6  C   UNL A   1      33.029  27.317  25.946  1.00  0.00     0.348 C 
ATOM      7  O   UNL A   1      34.052  26.646  25.910  1.00  0.00    -0.245 OA
BRANCH   6   8
ATOM      8  C   UNL A   1      31.812  27.060  25.191  1.00  0.00     0.116 A 
ATOM      9  C   UNL A   1      30.062  27.188  23.639  1.00  0.00     0.141 A 
ATOM     10  C   UNL A   1      29.559  26.259  24.522  1.00  0.00     0.112 A 
ATOM     11  C   UNL A   1      31.369  27.624  24.010  1.00  0.00     0.074 A 
ATOM     12  S   UNL A   1      30.649  25.961  25.815  1.00  0.00    -0.133 S 
BRANCH   9  13
ATOM     13  O   UNL A   1      29.482  27.619  22.498  1.00  0.00    -0.437 OA
BRANCH  13  14
ATOM     14  C   UNL A   1      28.958  28.865  22.257  1.00  0.00     0.237 A 
ATOM     15  C   UNL A   1      27.739  29.334  22.744  1.00  0.00     0.121 A 
ATOM     16  C   UNL A   1      27.453  30.706  22.632  1.00  0.00     0.112 A 
ATOM     17  C   UNL A   1      28.402  31.561  22.067  1.00  0.00     0.289 A 
ATOM     18  N   UNL A   1      29.872  29.698  21.688  1.00  0.00    -0.213 NA
ATOM     19  C   UNL A   1      29.586  31.022  21.603  1.00  0.00     0.200 A 
BRANCH  15  20
ATOM     20  C   UNL A   1      26.785  28.499  23.404  1.00  0.00     0.105 C 
ATOM     21  N   UNL A   1      25.995  27.860  23.958  1.00  0.00    -0.192 NA
ENDBRANCH  15  20
BRANCH  17  22
ATOM     22  N   UNL A   1      28.179  32.999  21.998  1.00  0.00     0.064 N 
ATOM     23  O   UNL A   1      27.546  33.437  21.028  1.00  0.00    -0.258 OA
ATOM     24  O   UNL A   1      28.643  33.691  22.912  1.00  0.00    -0.258 OA
ENDBRANCH  17  22
ENDBRANCH  13  14
ENDBRANCH   9  13
ENDBRANCH   6   8
ENDBRANCH   5   6
ENDBRANCH   4   5
ENDBRANCH   3   4
ENDBRANCH   2   3
ENDBRANCH   1   2
BRANCH   1  25
ATOM     25  C   UNL A   1      34.190  33.817  29.071  1.00  0.00     0.188 C 
BRANCH  25  26
ATOM     26  O   UNL A   1      35.095  34.377  29.992  1.00  0.00    -0.376 OA
BRANCH  26  27
ATOM     27  C   UNL A   1      34.680  34.598  31.330  1.00  0.00     0.202 C 
BRANCH  27  28
ATOM     28  C   UNL A   1      35.612  34.789  32.550  1.00  0.00     0.261 C 
BRANCH  28  29
ATOM     29  O   UNL A   1      36.786  33.977  32.661  1.00  0.00    -0.460 OA
BRANCH  29  30
ATOM     30  C   UNL A   1      36.578  32.679  32.989  1.00  0.00     0.338 C 
ATOM     31  O   UNL A   1      35.708  32.234  33.716  1.00  0.00    -0.246 OA
BRANCH  30  32
ATOM     32  C   UNL A   1      37.474  31.824  32.187  1.00  0.00     0.060 A 
ATOM     33  C   UNL A   1      38.613  31.293  32.802  1.00  0.00     0.016 A 
ATOM     34  C   UNL A   1      37.250  31.625  30.827  1.00  0.00     0.016 A 
ATOM     35  C   UNL A   1      39.561  30.602  32.054  1.00  0.00     0.010 A 
ATOM     36  C   UNL A   1      38.212  30.946  30.068  1.00  0.00     0.010 A 
ATOM     37  C   UNL A   1      39.396  30.476  30.670  1.00  0.00    -0.014 A 
BRANCH  37  38
ATOM     38  C   UNL A   1      40.554  30.056  29.845  1.00  0.00     0.031 A 
ATOM     39  C   UNL A   1      40.513  28.702  29.183  1.00  0.00     0.074 A 
ATOM     40  C   UNL A   1      41.594  30.880  29.621  1.00  0.00     0.049 A 
ATOM     41  N   UNL A   1      41.406  28.120  28.422  1.00  0.00    -0.248 NA
ATOM     42  C   UNL A   1      39.302  27.896  29.412  1.00  0.00     0.031 C 
ATOM     43  C   UNL A   1      41.733  32.233  30.157  1.00  0.00     0.029 A 
ATOM     44  N   UNL A   1      42.732  30.692  28.879  1.00  0.00    -0.354 N 
ATOM     45  C   UNL A   1      40.866  26.883  28.088  1.00  0.00     0.074 A 
ATOM     46  C   UNL A   1      39.594  26.776  28.769  1.00  0.00     0.031 C 
ATOM     47  C   UNL A   1      42.898  32.752  29.729  1.00  0.00     0.029 A 
ATOM     48  C   UNL A   1      43.599  31.756  28.920  1.00  0.00     0.049 A 
ATOM     49  H   UNL A   1      42.910  29.871  28.363  1.00  0.00     0.167 HD
ATOM     50  C   UNL A   1      41.371  25.925  27.274  1.00  0.00     0.031 A 
ATOM     51  C   UNL A   1      44.827  31.901  28.387  1.00  0.00     0.031 A 
ATOM     52  C   UNL A   1      42.646  26.019  26.611  1.00  0.00     0.049 A 
ATOM     53  C   UNL A   1      45.408  30.784  27.558  1.00  0.00     0.074 A 
ATOM     54  C   UNL A   1      43.251  25.099  25.773  1.00  0.00     0.029 A 
ATOM     55  N   UNL A   1      43.511  27.096  26.715  1.00  0.00    -0.354 N 
ATOM     56  N   UNL A   1      44.884  29.623  27.239  1.00  0.00    -0.248 NA
ATOM     57  C   UNL A   1      46.746  31.009  26.994  1.00  0.00     0.031 C 
ATOM     58  C   UNL A   1      44.512  25.590  25.422  1.00  0.00     0.029 A 
ATOM     59  C   UNL A   1      44.655  26.855  25.970  1.00  0.00     0.049 A 
ATOM     60  H   UNL A   1      43.340  27.911  27.239  1.00  0.00     0.167 HD
ATOM     61  C   UNL A   1      45.809  29.002  26.409  1.00  0.00     0.074 A 
ATOM     62  C   UNL A   1      46.914  29.924  26.254  1.00  0.00     0.031 C 
ATOM     63  C   UNL A   1      45.751  27.779  25.824  1.00  0.00     0.031 A 
BRANCH  50  64
ATOM     64  C   UNL A   1      40.550  24.679  27.079  1.00  0.00    -0.014 A 
ATOM     65  C   UNL A   1      39.350  24.701  26.348  1.00  0.00     0.009 A 
ATOM     66  C   UNL A   1      40.996  23.458  27.606  1.00  0.00     0.009 A 
ATOM     67  C   UNL A   1      38.600  23.536  26.181  1.00  0.00     0.001 A 
ATOM     68  C   UNL A   1      40.263  22.287  27.407  1.00  0.00     0.001 A 
ATOM     69  C   UNL A   1      39.060  22.328  26.704  1.00  0.00     0.000 A 
ENDBRANCH  50  64
BRANCH  51  70
ATOM     70  C   UNL A   1      45.616  33.139  28.638  1.00  0.00    -0.014 A 
ATOM     71  C   UNL A   1      45.396  34.306  27.888  1.00  0.00     0.009 A 
ATOM     72  C   UNL A   1      46.635  33.141  29.603  1.00  0.00     0.009 A 
ATOM     73  C   UNL A   1      46.209  35.428  28.067  1.00  0.00     0.001 A 
ATOM     74  C   UNL A   1      47.420  34.277  29.810  1.00  0.00     0.001 A 
ATOM     75  C   UNL A   1      47.217  35.414  29.030  1.00  0.00     0.000 A 
ENDBRANCH  51  70
BRANCH  63  76
ATOM     76  C   UNL A   1      46.887  27.399  24.907  1.00  0.00    -0.014 A 
ATOM     77  C   UNL A   1      47.884  26.491  25.295  1.00  0.00     0.009 A 
ATOM     78  C   UNL A   1      46.955  27.969  23.625  1.00  0.00     0.009 A 
ATOM     79  C   UNL A   1      48.959  26.215  24.447  1.00  0.00     0.001 A 
ATOM     80  C   UNL A   1      48.007  27.658  22.763  1.00  0.00     0.001 A 
ATOM     81  C   UNL A   1      49.019  26.798  23.182  1.00  0.00     0.000 A 
ENDBRANCH  63  76
ENDBRANCH  37  38
ENDBRANCH  30  32
ENDBRANCH  29  30
ENDBRANCH  28  29
ENDBRANCH  27  28
ENDBRANCH  26  27
ENDBRANCH  25  26
ENDBRANCH   1  25
TORSDOF 21
ENDMDL
MODEL 3
REMARK VINA RESULT:      -9.3      4.297      9.529
REMARK SMILES N#Cc1cc([N+](=O)[O-])cnc1Oc1csc(C(=O)OCCOCCOCCOC(=O)c2ccc(-c3c4nc(c(-c5ccccc5)c5ccc([nH]5)c(-c5ccccc5)c5nc(c(-c6ccccc6)c6ccc3[nH]6)C=C5)C=C4)cc2)c1
REMARK SMILES IDX 23 1 22 2 21 3 20 4 19 5 17 6 18 7 16 8 13 9 14 10 79 11
REMARK SMILES IDX 15 12 12 13 11 14 3 15 4 16 5 17 10 18 9 19 2 20 1 21 6 22
REMARK SMILES IDX 7 23 8 24 24 25 25 26 26 27 27 28 28 29 29 30 30 31 31 32
REMARK SMILES IDX 32 33 78 34 33 35 77 36 34 37 35 38 36 39 71 40 37 41 76 42
REMARK SMILES IDX 70 43 72 44 38 45 75 46 69 47 68 48 39 50 61 51 46 52 60 53
REMARK SMILES IDX 47 54 50 55 59 56 73 57 48 58 49 59 58 61 74 62 51 63 40 64
REMARK SMILES IDX 41 65 45 66 42 67 44 68 43 69 62 70 63 71 67 72 64 73 66 74
REMARK SMILES IDX 65 75 52 76 53 77 57 78 54 79 56 80 55 81
REMARK H PARENT 72 49 50 60
REMARK Flexibility Score: inf
ROOT
ATOM      1  C   UNL A   1      39.006  22.686  26.316  1.00  0.00     0.188 C 
ENDROOT
BRANCH   1   2
ATOM      2  O   UNL A   1      38.155  22.138  25.327  1.00  0.00    -0.376 OA
BRANCH   2   3
ATOM      3  C   UNL A   1      36.922  21.533  25.682  1.00  0.00     0.202 C 
BRANCH   3   4
ATOM      4  C   UNL A   1      35.702  21.452  24.739  1.00  0.00     0.261 C 
BRANCH   4   5
ATOM      5  O   UNL A   1      34.429  21.161  25.333  1.00  0.00    -0.459 OA
BRANCH   5   6
ATOM      6  C   UNL A   1      33.333  21.337  24.535  1.00  0.00     0.348 C 
ATOM      7  O   UNL A   1      32.810  20.448  23.876  1.00  0.00    -0.245 OA
BRANCH   6   8
ATOM      8  C   UNL A   1      32.825  22.691  24.698  1.00  0.00     0.116 A 
ATOM      9  C   UNL A   1      32.483  25.000  24.507  1.00  0.00     0.141 A 
ATOM     10  C   UNL A   1      31.718  24.715  25.615  1.00  0.00     0.112 A 
ATOM     11  C   UNL A   1      33.093  23.831  23.964  1.00  0.00     0.074 A 
ATOM     12  S   UNL A   1      31.786  23.047  26.018  1.00  0.00    -0.133 S 
BRANCH   9  13
ATOM     13  O   UNL A   1      32.619  26.201  23.901  1.00  0.00    -0.437 OA
BRANCH  13  14
ATOM     14  C   UNL A   1      31.680  27.199  23.827  1.00  0.00     0.237 A 
ATOM     15  C   UNL A   1      31.649  28.337  24.632  1.00  0.00     0.121 A 
ATOM     16  C   UNL A   1      30.788  29.390  24.276  1.00  0.00     0.112 A 
ATOM     17  C   UNL A   1      30.015  29.282  23.117  1.00  0.00     0.289 A 
ATOM     18  N   UNL A   1      30.909  27.090  22.710  1.00  0.00    -0.213 NA
ATOM     19  C   UNL A   1      30.097  28.122  22.372  1.00  0.00     0.200 A 
BRANCH  15  20
ATOM     20  C   UNL A   1      32.490  28.513  25.775  1.00  0.00     0.105 C 
ATOM     21  N   UNL A   1      33.135  28.649  26.725  1.00  0.00    -0.192 NA
ENDBRANCH  15  20
BRANCH  17  22
ATOM     22  N   UNL A   1      29.166  30.378  22.670  1.00  0.00     0.064 N 
ATOM     23  O   UNL A   1      28.961  31.307  23.462  1.00  0.00    -0.258 OA
ATOM     24  O   UNL A   1      28.697  30.305  21.528  1.00  0.00    -0.258 OA
ENDBRANCH  17  22
ENDBRANCH  13  14
ENDBRANCH   9  13
ENDBRANCH   6   8
ENDBRANCH   5   6
ENDBRANCH   4   5
ENDBRANCH   3   4
ENDBRANCH   2   3
ENDBRANCH   1   2
BRANCH   1  25
ATOM     25  C   UNL A   1      40.112  21.816  26.949  1.00  0.00     0.188 C 
BRANCH  25  26
ATOM     26  O   UNL A   1      40.915  21.117  26.028  1.00  0.00    -0.376 OA
BRANCH  26  27
ATOM     27  C   UNL A   1      42.327  21.199  26.132  1.00  0.00     0.202 C 
BRANCH  27  28
ATOM     28  C   UNL A   1      43.220  22.310  25.529  1.00  0.00     0.261 C 
BRANCH  28  29
ATOM     29  O   UNL A   1      42.627  23.570  25.194  1.00  0.00    -0.460 OA
BRANCH  29  30
ATOM     30  C   UNL A   1      43.398  24.662  25.411  1.00  0.00     0.338 C 
ATOM     31  O   UNL A   1      44.447  24.945  24.859  1.00  0.00    -0.246 OA
BRANCH  30  32
ATOM     32  C   UNL A   1      42.689  25.585  26.318  1.00  0.00     0.060 A 
ATOM     33  C   UNL A   1      43.179  26.889  26.458  1.00  0.00     0.016 A 
ATOM     34  C   UNL A   1      41.615  25.149  27.092  1.00  0.00     0.016 A 
ATOM     35  C   UNL A   1      42.634  27.749  27.405  1.00  0.00     0.010 A 
ATOM     36  C   UNL A   1      41.079  26.008  28.059  1.00  0.00     0.010 A 
ATOM     37  C   UNL A   1      41.620  27.294  28.254  1.00  0.00    -0.014 A 
BRANCH  37  38
ATOM     38  C   UNL A   1      41.293  28.081  29.468  1.00  0.00     0.031 A 
ATOM     39  C   UNL A   1      40.122  29.029  29.417  1.00  0.00     0.074 A 
ATOM     40  C   UNL A   1      41.969  27.912  30.618  1.00  0.00     0.049 A 
ATOM     41  N   UNL A   1      39.651  29.821  30.348  1.00  0.00    -0.248 NA
ATOM     42  C   UNL A   1      39.384  29.093  28.144  1.00  0.00     0.031 C 
ATOM     43  C   UNL A   1      43.086  26.991  30.817  1.00  0.00     0.029 A 
ATOM     44  N   UNL A   1      41.808  28.517  31.840  1.00  0.00    -0.354 N 
ATOM     45  C   UNL A   1      38.569  30.477  29.771  1.00  0.00     0.074 A 
ATOM     46  C   UNL A   1      38.484  30.030  28.398  1.00  0.00     0.031 C 
ATOM     47  C   UNL A   1      43.516  27.096  32.087  1.00  0.00     0.029 A 
ATOM     48  C   UNL A   1      42.726  28.115  32.778  1.00  0.00     0.049 A 
ATOM     49  H   UNL A   1      41.100  29.175  32.026  1.00  0.00     0.167 HD
ATOM     50  C   UNL A   1      37.709  31.359  30.335  1.00  0.00     0.031 A 
ATOM     51  C   UNL A   1      42.923  28.538  34.042  1.00  0.00     0.031 A 
ATOM     52  C   UNL A   1      37.803  31.822  31.694  1.00  0.00     0.049 A 
ATOM     53  C   UNL A   1      42.009  29.588  34.619  1.00  0.00     0.074 A 
ATOM     54  C   UNL A   1      36.986  32.721  32.357  1.00  0.00     0.029 A 
ATOM     55  N   UNL A   1      38.775  31.422  32.599  1.00  0.00    -0.354 N 
ATOM     56  N   UNL A   1      40.982  30.192  34.068  1.00  0.00    -0.248 NA
ATOM     57  C   UNL A   1      42.269  29.997  36.006  1.00  0.00     0.031 C 
ATOM     58  C   UNL A   1      37.503  32.916  33.642  1.00  0.00     0.029 A 
ATOM     59  C   UNL A   1      38.589  32.072  33.809  1.00  0.00     0.049 A 
ATOM     60  H   UNL A   1      39.491  30.774  32.410  1.00  0.00     0.167 HD
ATOM     61  C   UNL A   1      40.453  31.020  35.053  1.00  0.00     0.074 A 
ATOM     62  C   UNL A   1      41.258  30.819  36.240  1.00  0.00     0.031 C 
ATOM     63  C   UNL A   1      39.397  31.867  34.984  1.00  0.00     0.031 A 
BRANCH  50  64
ATOM     64  C   UNL A   1      36.606  31.901  29.466  1.00  0.00    -0.014 A 
ATOM     65  C   UNL A   1      36.746  33.121  28.783  1.00  0.00     0.009 A 
ATOM     66  C   UNL A   1      35.422  31.167  29.300  1.00  0.00     0.009 A 
ATOM     67  C   UNL A   1      35.711  33.610  27.984  1.00  0.00     0.001 A 
ATOM     68  C   UNL A   1      34.403  31.640  28.472  1.00  0.00     0.001 A 
ATOM     69  C   UNL A   1      34.543  32.866  27.823  1.00  0.00     0.000 A 
ENDBRANCH  50  64
BRANCH  51  70
ATOM     70  C   UNL A   1      44.052  27.996  34.850  1.00  0.00    -0.014 A 
ATOM     71  C   UNL A   1      45.303  28.631  34.868  1.00  0.00     0.009 A 
ATOM     72  C   UNL A   1      43.891  26.802  35.572  1.00  0.00     0.009 A 
ATOM     73  C   UNL A   1      46.380  28.058  35.551  1.00  0.00     0.001 A 
ATOM     74  C   UNL A   1      44.956  26.253  36.287  1.00  0.00     0.001 A 
ATOM     75  C   UNL A   1      46.204  26.873  36.263  1.00  0.00     0.000 A 
ENDBRANCH  51  70
BRANCH  63  76
ATOM     76  C   UNL A   1      39.010  32.590  36.250  1.00  0.00    -0.014 A 
ATOM     77  C   UNL A   1      39.553  33.839  36.589  1.00  0.00     0.009 A 
ATOM     78  C   UNL A   1      38.078  32.001  37.121  1.00  0.00     0.009 A 
ATOM     79  C   UNL A   1      39.225  34.448  37.803  1.00  0.00     0.001 A 
ATOM     80  C   UNL A   1      37.719  32.632  38.313  1.00  0.00     0.001 A 
ATOM     81  C   UNL A   1      38.308  33.845  38.662  1.00  0.00     0.000 A 
ENDBRANCH  63  76
ENDBRANCH  37  38
ENDBRANCH  30  32
ENDBRANCH  29  30
ENDBRANCH  28  29
ENDBRANCH  27  28
ENDBRANCH  26  27
ENDBRANCH  25  26
ENDBRANCH   1  25
TORSDOF 21
ENDMDL
