MODEL 1
REMARK VINA RESULT:     -10.6      0.000      0.000
REMARK SMILES C[C@@H](C(=O)OCCOCCOCCOC(=O)c1ccc(-c2c3nc(c(-c4ccccc4)c4ccc([nH]4)c(-c4ccccc4)c4nc(c(-c5ccccc5)c5ccc2[nH]5)C=C4)C=C3)cc1)N1C(=O)/C(=C/c2nc3ccccc3[nH]2)SC1=S
REMARK SMILES IDX 9 1 8 2 7 3 6 4 5 5 3 6 4 7 2 8 1 9 65 10 66 11 80 12 67 13
REMARK SMILES IDX 68 14 79 15 81 16 69 17 70 18 71 19 78 20 72 21 77 22 73 24
REMARK SMILES IDX 76 25 74 26 75 27 10 28 11 29 12 30 13 31 14 32 15 33 16 34
REMARK SMILES IDX 17 35 18 36 64 37 19 38 63 39 20 40 21 41 22 42 57 43 23 44
REMARK SMILES IDX 62 45 56 46 58 47 24 48 61 49 55 50 54 51 25 53 47 54 32 55
REMARK SMILES IDX 46 56 33 57 36 58 45 59 59 60 34 61 35 62 44 64 60 65 37 66
REMARK SMILES IDX 26 67 27 68 31 69 28 70 30 71 29 72 48 73 49 74 53 75 50 76
REMARK SMILES IDX 52 77 51 78 38 79 39 80 43 81 40 82 42 83 41 84
REMARK H PARENT 78 23 58 52 36 63
REMARK Flexibility Score: inf
ROOT
ATOM      1  C   UNL A   1      40.123  20.467  26.119  1.00  0.00     0.188 C 
ENDROOT
BRANCH   1   2
ATOM      2  O   UNL A   1      40.168  21.889  26.135  1.00  0.00    -0.376 OA
BRANCH   2   3
ATOM      3  C   UNL A   1      38.946  22.617  26.167  1.00  0.00     0.202 C 
BRANCH   3   4
ATOM      4  C   UNL A   1      37.706  21.930  25.588  1.00  0.00     0.261 C 
BRANCH   4   5
ATOM      5  O   UNL A   1      36.700  22.885  25.214  1.00  0.00    -0.462 OA
BRANCH   5   6
ATOM      6  C   UNL A   1      35.419  22.434  25.263  1.00  0.00     0.329 C 
ATOM      7  O   UNL A   1      34.961  21.560  24.536  1.00  0.00    -0.250 OA
BRANCH   6   8
ATOM      8  C   UNL A   1      34.612  23.121  26.377  1.00  0.00     0.199 C 
ATOM      9  C   UNL A   1      34.265  22.044  27.434  1.00  0.00     0.044 C 
BRANCH   8  10
ATOM     10  N   UNL A   1      33.422  23.950  26.009  1.00  0.00    -0.279 N 
ATOM     11  C   UNL A   1      33.667  25.268  25.627  1.00  0.00     0.267 C 
ATOM     12  C   UNL A   1      32.148  23.507  25.696  1.00  0.00     0.149 C 
ATOM     13  O   UNL A   1      34.764  25.806  25.551  1.00  0.00    -0.268 OA
ATOM     14  C   UNL A   1      32.422  25.956  25.203  1.00  0.00     0.084 C 
ATOM     15  S   UNL A   1      31.103  24.878  25.333  1.00  0.00    -0.054 SA
ATOM     16  S   UNL A   1      31.515  21.970  25.609  1.00  0.00    -0.052 S 
ATOM     17  C   UNL A   1      32.439  27.203  24.712  1.00  0.00     0.068 C 
BRANCH  17  18
ATOM     18  C   UNL A   1      31.265  27.857  24.277  1.00  0.00     0.132 A 
ATOM     19  N   UNL A   1      30.215  27.392  23.636  1.00  0.00    -0.229 NA
ATOM     20  N   UNL A   1      31.139  29.208  24.502  1.00  0.00    -0.338 N 
ATOM     21  C   UNL A   1      29.424  28.485  23.373  1.00  0.00     0.089 A 
ATOM     22  C   UNL A   1      29.995  29.645  23.882  1.00  0.00     0.066 A 
ATOM     23  H   UNL A   1      31.762  29.767  25.019  1.00  0.00     0.168 HD
ATOM     24  C   UNL A   1      28.201  28.570  22.696  1.00  0.00     0.030 A 
ATOM     25  C   UNL A   1      29.426  30.912  23.726  1.00  0.00     0.028 A 
ATOM     26  C   UNL A   1      27.613  29.827  22.514  1.00  0.00     0.002 A 
ATOM     27  C   UNL A   1      28.222  30.979  23.015  1.00  0.00     0.002 A 
ENDBRANCH  17  18
ENDBRANCH   8  10
ENDBRANCH   6   8
ENDBRANCH   5   6
ENDBRANCH   4   5
ENDBRANCH   3   4
ENDBRANCH   2   3
ENDBRANCH   1   2
BRANCH   1  28
ATOM     28  C   UNL A   1      41.426  19.667  26.292  1.00  0.00     0.188 C 
BRANCH  28  29
ATOM     29  O   UNL A   1      42.518  19.991  25.472  1.00  0.00    -0.376 OA
BRANCH  29  30
ATOM     30  C   UNL A   1      43.389  21.070  25.738  1.00  0.00     0.202 C 
BRANCH  30  31
ATOM     31  C   UNL A   1      43.882  22.125  24.733  1.00  0.00     0.261 C 
BRANCH  31  32
ATOM     32  O   UNL A   1      43.285  23.416  24.758  1.00  0.00    -0.460 OA
BRANCH  32  33
ATOM     33  C   UNL A   1      44.105  24.450  25.057  1.00  0.00     0.338 C 
ATOM     34  O   UNL A   1      45.174  24.722  24.548  1.00  0.00    -0.246 OA
BRANCH  33  35
ATOM     35  C   UNL A   1      43.382  25.312  26.014  1.00  0.00     0.060 A 
ATOM     36  C   UNL A   1      43.786  26.644  26.171  1.00  0.00     0.016 A 
ATOM     37  C   UNL A   1      42.308  24.799  26.743  1.00  0.00     0.016 A 
ATOM     38  C   UNL A   1      43.126  27.464  27.088  1.00  0.00     0.010 A 
ATOM     39  C   UNL A   1      41.664  25.611  27.675  1.00  0.00     0.010 A 
ATOM     40  C   UNL A   1      42.091  26.935  27.871  1.00  0.00    -0.014 A 
BRANCH  40  41
ATOM     41  C   UNL A   1      41.570  27.689  29.031  1.00  0.00     0.031 A 
ATOM     42  C   UNL A   1      42.321  27.603  30.330  1.00  0.00     0.074 A 
ATOM     43  C   UNL A   1      40.443  28.414  28.939  1.00  0.00     0.049 A 
ATOM     44  N   UNL A   1      42.079  28.195  31.471  1.00  0.00    -0.248 NA
ATOM     45  C   UNL A   1      43.508  26.731  30.341  1.00  0.00     0.031 C 
ATOM     46  C   UNL A   1      39.685  28.642  27.712  1.00  0.00     0.029 A 
ATOM     47  N   UNL A   1      39.760  29.117  29.899  1.00  0.00    -0.354 N 
ATOM     48  C   UNL A   1      43.071  27.753  32.338  1.00  0.00     0.074 A 
ATOM     49  C   UNL A   1      43.913  26.840  31.597  1.00  0.00     0.031 C 
ATOM     50  C   UNL A   1      38.672  29.486  27.981  1.00  0.00     0.029 A 
ATOM     51  C   UNL A   1      38.694  29.826  29.402  1.00  0.00     0.049 A 
ATOM     52  H   UNL A   1      40.012  29.116  30.851  1.00  0.00     0.167 HD
ATOM     53  C   UNL A   1      43.258  28.071  33.640  1.00  0.00     0.031 A 
ATOM     54  C   UNL A   1      37.862  30.685  30.023  1.00  0.00     0.031 A 
ATOM     55  C   UNL A   1      42.415  28.969  34.378  1.00  0.00     0.049 A 
ATOM     56  C   UNL A   1      38.065  30.980  31.486  1.00  0.00     0.074 A 
ATOM     57  C   UNL A   1      42.522  29.359  35.701  1.00  0.00     0.029 A 
ATOM     58  N   UNL A   1      41.302  29.609  33.857  1.00  0.00    -0.354 N 
ATOM     59  N   UNL A   1      39.036  30.605  32.284  1.00  0.00    -0.248 NA
ATOM     60  C   UNL A   1      37.062  31.845  32.128  1.00  0.00     0.031 C 
ATOM     61  C   UNL A   1      41.438  30.192  35.997  1.00  0.00     0.029 A 
ATOM     62  C   UNL A   1      40.690  30.364  34.842  1.00  0.00     0.049 A 
ATOM     63  H   UNL A   1      40.992  29.537  32.925  1.00  0.00     0.167 HD
ATOM     64  C   UNL A   1      38.788  31.223  33.504  1.00  0.00     0.074 A 
ATOM     65  C   UNL A   1      37.580  32.004  33.338  1.00  0.00     0.031 C 
ATOM     66  C   UNL A   1      39.501  31.155  34.655  1.00  0.00     0.031 A 
BRANCH  53  67
ATOM     67  C   UNL A   1      44.381  27.384  34.361  1.00  0.00    -0.014 A 
ATOM     68  C   UNL A   1      44.250  26.076  34.851  1.00  0.00     0.009 A 
ATOM     69  C   UNL A   1      45.598  28.061  34.540  1.00  0.00     0.009 A 
ATOM     70  C   UNL A   1      45.308  25.471  35.533  1.00  0.00     0.001 A 
ATOM     71  C   UNL A   1      46.661  27.446  35.202  1.00  0.00     0.001 A 
ATOM     72  C   UNL A   1      46.513  26.154  35.705  1.00  0.00     0.000 A 
ENDBRANCH  53  67
BRANCH  54  73
ATOM     73  C   UNL A   1      36.819  31.408  29.248  1.00  0.00    -0.014 A 
ATOM     74  C   UNL A   1      35.598  30.775  28.962  1.00  0.00     0.009 A 
ATOM     75  C   UNL A   1      37.026  32.716  28.787  1.00  0.00     0.009 A 
ATOM     76  C   UNL A   1      34.618  31.427  28.210  1.00  0.00     0.001 A 
ATOM     77  C   UNL A   1      36.032  33.377  28.061  1.00  0.00     0.001 A 
ATOM     78  C   UNL A   1      34.834  32.728  27.765  1.00  0.00     0.000 A 
ENDBRANCH  54  73
BRANCH  66  79
ATOM     79  C   UNL A   1      39.029  31.981  35.819  1.00  0.00    -0.014 A 
ATOM     80  C   UNL A   1      39.340  33.346  35.922  1.00  0.00     0.009 A 
ATOM     81  C   UNL A   1      38.198  31.399  36.790  1.00  0.00     0.009 A 
ATOM     82  C   UNL A   1      38.856  34.102  36.992  1.00  0.00     0.001 A 
ATOM     83  C   UNL A   1      37.690  32.164  37.841  1.00  0.00     0.001 A 
ATOM     84  C   UNL A   1      38.027  33.513  37.946  1.00  0.00     0.000 A 
ENDBRANCH  66  79
ENDBRANCH  40  41
ENDBRANCH  33  35
ENDBRANCH  32  33
ENDBRANCH  31  32
ENDBRANCH  30  31
ENDBRANCH  29  30
ENDBRANCH  28  29
ENDBRANCH   1  28
TORSDOF 19
ENDMDL
MODEL 2
REMARK VINA RESULT:     -10.2      2.731      8.869
REMARK SMILES C[C@@H](C(=O)OCCOCCOCCOC(=O)c1ccc(-c2c3nc(c(-c4ccccc4)c4ccc([nH]4)c(-c4ccccc4)c4nc(c(-c5ccccc5)c5ccc2[nH]5)C=C4)C=C3)cc1)N1C(=O)/C(=C/c2nc3ccccc3[nH]2)SC1=S
REMARK SMILES IDX 9 1 8 2 7 3 6 4 5 5 3 6 4 7 2 8 1 9 65 10 66 11 80 12 67 13
REMARK SMILES IDX 68 14 79 15 81 16 69 17 70 18 71 19 78 20 72 21 77 22 73 24
REMARK SMILES IDX 76 25 74 26 75 27 10 28 11 29 12 30 13 31 14 32 15 33 16 34
REMARK SMILES IDX 17 35 18 36 64 37 19 38 63 39 20 40 21 41 22 42 57 43 23 44
REMARK SMILES IDX 62 45 56 46 58 47 24 48 61 49 55 50 54 51 25 53 47 54 32 55
REMARK SMILES IDX 46 56 33 57 36 58 45 59 59 60 34 61 35 62 44 64 60 65 37 66
REMARK SMILES IDX 26 67 27 68 31 69 28 70 30 71 29 72 48 73 49 74 53 75 50 76
REMARK SMILES IDX 52 77 51 78 38 79 39 80 43 81 40 82 42 83 41 84
REMARK H PARENT 78 23 58 52 36 63
REMARK Flexibility Score: inf
ROOT
ATOM      1  C   UNL A   1      31.043  28.964  22.452  1.00  0.00     0.188 C 
ENDROOT
BRANCH   1   2
ATOM      2  O   UNL A   1      30.123  27.886  22.329  1.00  0.00    -0.376 OA
BRANCH   2   3
ATOM      3  C   UNL A   1      30.322  26.717  23.116  1.00  0.00     0.202 C 
BRANCH   3   4
ATOM      4  C   UNL A   1      29.983  26.810  24.606  1.00  0.00     0.261 C 
BRANCH   4   5
ATOM      5  O   UNL A   1      30.106  25.535  25.255  1.00  0.00    -0.462 OA
BRANCH   5   6
ATOM      6  C   UNL A   1      31.329  25.260  25.777  1.00  0.00     0.329 C 
ATOM      7  O   UNL A   1      31.765  25.736  26.820  1.00  0.00    -0.250 OA
BRANCH   6   8
ATOM      8  C   UNL A   1      32.100  24.239  24.925  1.00  0.00     0.199 C 
ATOM      9  C   UNL A   1      31.096  23.144  24.487  1.00  0.00     0.044 C 
BRANCH   8  10
ATOM     10  N   UNL A   1      33.370  23.654  25.458  1.00  0.00    -0.279 N 
ATOM     11  C   UNL A   1      34.562  24.174  24.955  1.00  0.00     0.267 C 
ATOM     12  C   UNL A   1      33.534  22.891  26.602  1.00  0.00     0.149 C 
ATOM     13  O   UNL A   1      34.667  25.072  24.129  1.00  0.00    -0.268 OA
ATOM     14  C   UNL A   1      35.745  23.578  25.624  1.00  0.00     0.084 C 
ATOM     15  S   UNL A   1      35.228  22.446  26.794  1.00  0.00    -0.054 SA
ATOM     16  S   UNL A   1      32.436  22.384  27.745  1.00  0.00    -0.052 S 
ATOM     17  C   UNL A   1      36.990  23.997  25.358  1.00  0.00     0.068 C 
BRANCH  17  18
ATOM     18  C   UNL A   1      38.122  23.459  26.010  1.00  0.00     0.132 A 
ATOM     19  N   UNL A   1      38.962  24.010  26.858  1.00  0.00    -0.229 NA
ATOM     20  N   UNL A   1      38.482  22.158  25.743  1.00  0.00    -0.338 N 
ATOM     21  C   UNL A   1      39.934  23.066  27.088  1.00  0.00     0.089 A 
ATOM     22  C   UNL A   1      39.671  21.900  26.378  1.00  0.00     0.066 A 
ATOM     23  H   UNL A   1      37.973  21.521  25.193  1.00  0.00     0.168 HD
ATOM     24  C   UNL A   1      41.081  23.129  27.890  1.00  0.00     0.030 A 
ATOM     25  C   UNL A   1      40.515  20.786  26.393  1.00  0.00     0.028 A 
ATOM     26  C   UNL A   1      41.950  22.032  27.916  1.00  0.00     0.002 A 
ATOM     27  C   UNL A   1      41.674  20.884  27.172  1.00  0.00     0.002 A 
ENDBRANCH  17  18
ENDBRANCH   8  10
ENDBRANCH   6   8
ENDBRANCH   5   6
ENDBRANCH   4   5
ENDBRANCH   3   4
ENDBRANCH   2   3
ENDBRANCH   1   2
BRANCH   1  28
ATOM     28  C   UNL A   1      32.550  28.665  22.550  1.00  0.00     0.188 C 
BRANCH  28  29
ATOM     29  O   UNL A   1      33.110  28.488  23.825  1.00  0.00    -0.376 OA
BRANCH  29  30
ATOM     30  C   UNL A   1      33.057  29.473  24.835  1.00  0.00     0.202 C 
BRANCH  30  31
ATOM     31  C   UNL A   1      32.126  29.488  26.059  1.00  0.00     0.261 C 
BRANCH  31  32
ATOM     32  O   UNL A   1      32.663  29.885  27.314  1.00  0.00    -0.460 OA
BRANCH  32  33
ATOM     33  C   UNL A   1      33.281  31.089  27.348  1.00  0.00     0.338 C 
ATOM     34  O   UNL A   1      32.779  32.187  27.203  1.00  0.00    -0.246 OA
BRANCH  33  35
ATOM     35  C   UNL A   1      34.675  30.848  27.770  1.00  0.00     0.060 A 
ATOM     36  C   UNL A   1      35.104  29.533  27.990  1.00  0.00     0.016 A 
ATOM     37  C   UNL A   1      35.549  31.925  27.939  1.00  0.00     0.016 A 
ATOM     38  C   UNL A   1      36.413  29.293  28.411  1.00  0.00     0.010 A 
ATOM     39  C   UNL A   1      36.849  31.685  28.380  1.00  0.00     0.010 A 
ATOM     40  C   UNL A   1      37.274  30.373  28.646  1.00  0.00    -0.014 A 
BRANCH  40  41
ATOM     41  C   UNL A   1      38.557  30.166  29.352  1.00  0.00     0.031 A 
ATOM     42  C   UNL A   1      38.659  30.606  30.785  1.00  0.00     0.074 A 
ATOM     43  C   UNL A   1      39.614  29.623  28.726  1.00  0.00     0.049 A 
ATOM     44  N   UNL A   1      39.664  30.504  31.617  1.00  0.00    -0.248 NA
ATOM     45  C   UNL A   1      37.463  31.248  31.357  1.00  0.00     0.031 C 
ATOM     46  C   UNL A   1      39.604  29.079  27.371  1.00  0.00     0.029 A 
ATOM     47  N   UNL A   1      40.896  29.414  29.169  1.00  0.00    -0.354 N 
ATOM     48  C   UNL A   1      39.226  31.083  32.802  1.00  0.00     0.074 A 
ATOM     49  C   UNL A   1      37.872  31.541  32.582  1.00  0.00     0.031 C 
ATOM     50  C   UNL A   1      40.809  28.539  27.113  1.00  0.00     0.029 A 
ATOM     51  C   UNL A   1      41.679  28.732  28.271  1.00  0.00     0.049 A 
ATOM     52  H   UNL A   1      41.221  29.722  30.046  1.00  0.00     0.167 HD
ATOM     53  C   UNL A   1      39.898  31.231  33.968  1.00  0.00     0.031 A 
ATOM     54  C   UNL A   1      42.942  28.279  28.395  1.00  0.00     0.031 A 
ATOM     55  C   UNL A   1      41.246  30.785  34.182  1.00  0.00     0.049 A 
ATOM     56  C   UNL A   1      43.682  28.502  29.688  1.00  0.00     0.074 A 
ATOM     57  C   UNL A   1      42.015  30.885  35.328  1.00  0.00     0.029 A 
ATOM     58  N   UNL A   1      42.030  30.164  33.223  1.00  0.00    -0.354 N 
ATOM     59  N   UNL A   1      43.245  28.999  30.821  1.00  0.00    -0.248 NA
ATOM     60  C   UNL A   1      45.089  28.076  29.724  1.00  0.00     0.031 C 
ATOM     61  C   UNL A   1      43.285  30.374  35.044  1.00  0.00     0.029 A 
ATOM     62  C   UNL A   1      43.288  29.906  33.739  1.00  0.00     0.049 A 
ATOM     63  H   UNL A   1      41.736  29.939  32.310  1.00  0.00     0.167 HD
ATOM     64  C   UNL A   1      44.306  28.901  31.715  1.00  0.00     0.074 A 
ATOM     65  C   UNL A   1      45.404  28.290  30.994  1.00  0.00     0.031 C 
ATOM     66  C   UNL A   1      44.362  29.276  33.016  1.00  0.00     0.031 A 
BRANCH  53  67
ATOM     67  C   UNL A   1      39.199  31.965  35.075  1.00  0.00    -0.014 A 
ATOM     68  C   UNL A   1      39.158  33.367  35.116  1.00  0.00     0.009 A 
ATOM     69  C   UNL A   1      38.562  31.234  36.089  1.00  0.00     0.009 A 
ATOM     70  C   UNL A   1      38.515  34.021  36.170  1.00  0.00     0.001 A 
ATOM     71  C   UNL A   1      37.901  31.890  37.128  1.00  0.00     0.001 A 
ATOM     72  C   UNL A   1      37.885  33.283  37.172  1.00  0.00     0.000 A 
ENDBRANCH  53  67
BRANCH  54  73
ATOM     73  C   UNL A   1      43.562  27.480  27.305  1.00  0.00    -0.014 A 
ATOM     74  C   UNL A   1      43.346  26.093  27.246  1.00  0.00     0.009 A 
ATOM     75  C   UNL A   1      44.369  28.080  26.327  1.00  0.00     0.009 A 
ATOM     76  C   UNL A   1      43.944  25.322  26.248  1.00  0.00     0.001 A 
ATOM     77  C   UNL A   1      44.942  27.310  25.312  1.00  0.00     0.001 A 
ATOM     78  C   UNL A   1      44.737  25.931  25.279  1.00  0.00     0.000 A 
ENDBRANCH  54  73
BRANCH  66  79
ATOM     79  C   UNL A   1      45.634  28.998  33.769  1.00  0.00    -0.014 A 
ATOM     80  C   UNL A   1      46.702  29.909  33.762  1.00  0.00     0.009 A 
ATOM     81  C   UNL A   1      45.734  27.841  34.558  1.00  0.00     0.009 A 
ATOM     82  C   UNL A   1      47.857  29.649  34.502  1.00  0.00     0.001 A 
ATOM     83  C   UNL A   1      46.877  27.599  35.321  1.00  0.00     0.001 A 
ATOM     84  C   UNL A   1      47.941  28.498  35.286  1.00  0.00     0.000 A 
ENDBRANCH  66  79
ENDBRANCH  40  41
ENDBRANCH  33  35
ENDBRANCH  32  33
ENDBRANCH  31  32
ENDBRANCH  30  31
ENDBRANCH  29  30
ENDBRANCH  28  29
ENDBRANCH   1  28
TORSDOF 19
ENDMDL
MODEL 3
REMARK VINA RESULT:     -10.2      2.620      7.233
REMARK SMILES C[C@@H](C(=O)OCCOCCOCCOC(=O)c1ccc(-c2c3nc(c(-c4ccccc4)c4ccc([nH]4)c(-c4ccccc4)c4nc(c(-c5ccccc5)c5ccc2[nH]5)C=C4)C=C3)cc1)N1C(=O)/C(=C/c2nc3ccccc3[nH]2)SC1=S
REMARK SMILES IDX 9 1 8 2 7 3 6 4 5 5 3 6 4 7 2 8 1 9 65 10 66 11 80 12 67 13
REMARK SMILES IDX 68 14 79 15 81 16 69 17 70 18 71 19 78 20 72 21 77 22 73 24
REMARK SMILES IDX 76 25 74 26 75 27 10 28 11 29 12 30 13 31 14 32 15 33 16 34
REMARK SMILES IDX 17 35 18 36 64 37 19 38 63 39 20 40 21 41 22 42 57 43 23 44
REMARK SMILES IDX 62 45 56 46 58 47 24 48 61 49 55 50 54 51 25 53 47 54 32 55
REMARK SMILES IDX 46 56 33 57 36 58 45 59 59 60 34 61 35 62 44 64 60 65 37 66
REMARK SMILES IDX 26 67 27 68 31 69 28 70 30 71 29 72 48 73 49 74 53 75 50 76
REMARK SMILES IDX 52 77 51 78 38 79 39 80 43 81 40 82 42 83 41 84
REMARK H PARENT 78 23 58 52 36 63
REMARK Flexibility Score: inf
ROOT
ATOM      1  C   UNL A   1      36.115  21.284  24.952  1.00  0.00     0.188 C 
ENDROOT
BRANCH   1   2
ATOM      2  O   UNL A   1      35.437  22.434  24.462  1.00  0.00    -0.376 OA
BRANCH   2   3
ATOM      3  C   UNL A   1      34.100  22.298  23.993  1.00  0.00     0.202 C 
BRANCH   3   4
ATOM      4  C   UNL A   1      33.743  23.002  22.681  1.00  0.00     0.261 C 
BRANCH   4   5
ATOM      5  O   UNL A   1      34.273  24.336  22.637  1.00  0.00    -0.462 OA
BRANCH   5   6
ATOM      6  C   UNL A   1      33.373  25.313  22.351  1.00  0.00     0.329 C 
ATOM      7  O   UNL A   1      33.285  25.883  21.270  1.00  0.00    -0.250 OA
BRANCH   6   8
ATOM      8  C   UNL A   1      32.439  25.597  23.538  1.00  0.00     0.199 C 
ATOM      9  C   UNL A   1      30.990  25.316  23.069  1.00  0.00     0.044 C 
BRANCH   8  10
ATOM     10  N   UNL A   1      32.551  26.903  24.260  1.00  0.00    -0.279 N 
ATOM     11  C   UNL A   1      33.455  26.960  25.320  1.00  0.00     0.267 C 
ATOM     12  C   UNL A   1      32.117  28.145  23.830  1.00  0.00     0.149 C 
ATOM     13  O   UNL A   1      34.174  26.048  25.707  1.00  0.00    -0.268 OA
ATOM     14  C   UNL A   1      33.541  28.326  25.893  1.00  0.00     0.084 C 
ATOM     15  S   UNL A   1      32.486  29.368  25.044  1.00  0.00    -0.054 SA
ATOM     16  S   UNL A   1      31.362  28.614  22.423  1.00  0.00    -0.052 S 
ATOM     17  C   UNL A   1      34.413  28.629  26.865  1.00  0.00     0.068 C 
BRANCH  17  18
ATOM     18  C   UNL A   1      34.525  29.933  27.398  1.00  0.00     0.132 A 
ATOM     19  N   UNL A   1      33.599  30.827  27.670  1.00  0.00    -0.229 NA
ATOM     20  N   UNL A   1      35.777  30.427  27.679  1.00  0.00    -0.338 N 
ATOM     21  C   UNL A   1      34.276  31.956  28.066  1.00  0.00     0.089 A 
ATOM     22  C   UNL A   1      35.650  31.741  28.055  1.00  0.00     0.066 A 
ATOM     23  H   UNL A   1      36.621  29.924  27.622  1.00  0.00     0.168 HD
ATOM     24  C   UNL A   1      33.788  33.212  28.448  1.00  0.00     0.030 A 
ATOM     25  C   UNL A   1      36.584  32.730  28.375  1.00  0.00     0.028 A 
ATOM     26  C   UNL A   1      34.701  34.226  28.764  1.00  0.00     0.002 A 
ATOM     27  C   UNL A   1      36.075  33.988  28.719  1.00  0.00     0.002 A 
ENDBRANCH  17  18
ENDBRANCH   8  10
ENDBRANCH   6   8
ENDBRANCH   5   6
ENDBRANCH   4   5
ENDBRANCH   3   4
ENDBRANCH   2   3
ENDBRANCH   1   2
BRANCH   1  28
ATOM     28  C   UNL A   1      37.610  21.096  24.637  1.00  0.00     0.188 C 
BRANCH  28  29
ATOM     29  O   UNL A   1      38.548  21.756  25.447  1.00  0.00    -0.376 OA
BRANCH  29  30
ATOM     30  C   UNL A   1      38.213  22.841  26.287  1.00  0.00     0.202 C 
BRANCH  30  31
ATOM     31  C   UNL A   1      38.696  24.294  26.150  1.00  0.00     0.261 C 
BRANCH  31  32
ATOM     32  O   UNL A   1      39.587  24.808  27.133  1.00  0.00    -0.460 OA
BRANCH  32  33
ATOM     33  C   UNL A   1      40.224  25.960  26.821  1.00  0.00     0.338 C 
ATOM     34  O   UNL A   1      40.664  26.298  25.740  1.00  0.00    -0.246 OA
BRANCH  33  35
ATOM     35  C   UNL A   1      40.142  26.835  28.008  1.00  0.00     0.060 A 
ATOM     36  C   UNL A   1      40.726  28.107  27.959  1.00  0.00     0.016 A 
ATOM     37  C   UNL A   1      39.482  26.393  29.157  1.00  0.00     0.016 A 
ATOM     38  C   UNL A   1      40.674  28.936  29.082  1.00  0.00     0.010 A 
ATOM     39  C   UNL A   1      39.451  27.212  30.284  1.00  0.00     0.010 A 
ATOM     40  C   UNL A   1      40.072  28.471  30.260  1.00  0.00    -0.014 A 
BRANCH  40  41
ATOM     41  C   UNL A   1      40.249  29.206  31.530  1.00  0.00     0.031 A 
ATOM     42  C   UNL A   1      39.215  30.229  31.910  1.00  0.00     0.074 A 
ATOM     43  C   UNL A   1      41.317  28.988  32.316  1.00  0.00     0.049 A 
ATOM     44  N   UNL A   1      39.138  30.974  32.982  1.00  0.00    -0.248 NA
ATOM     45  C   UNL A   1      38.119  30.436  30.948  1.00  0.00     0.031 C 
ATOM     46  C   UNL A   1      42.331  27.962  32.094  1.00  0.00     0.029 A 
ATOM     47  N   UNL A   1      41.702  29.605  33.479  1.00  0.00    -0.354 N 
ATOM     48  C   UNL A   1      37.996  31.749  32.815  1.00  0.00     0.074 A 
ATOM     49  C   UNL A   1      37.417  31.391  31.539  1.00  0.00     0.031 C 
ATOM     50  C   UNL A   1      43.194  27.977  33.126  1.00  0.00     0.029 A 
ATOM     51  C   UNL A   1      42.809  29.034  34.059  1.00  0.00     0.049 A 
ATOM     52  H   UNL A   1      41.230  30.379  33.862  1.00  0.00     0.167 HD
ATOM     53  C   UNL A   1      37.482  32.685  33.646  1.00  0.00     0.031 A 
ATOM     54  C   UNL A   1      43.410  29.312  35.232  1.00  0.00     0.031 A 
ATOM     55  C   UNL A   1      38.063  33.047  34.908  1.00  0.00     0.049 A 
ATOM     56  C   UNL A   1      42.843  30.394  36.113  1.00  0.00     0.074 A 
ATOM     57  C   UNL A   1      37.617  33.981  35.826  1.00  0.00     0.029 A 
ATOM     58  N   UNL A   1      39.226  32.497  35.425  1.00  0.00    -0.354 N 
ATOM     59  N   UNL A   1      41.735  31.083  35.977  1.00  0.00    -0.248 NA
ATOM     60  C   UNL A   1      43.604  30.718  37.330  1.00  0.00     0.031 C 
ATOM     61  C   UNL A   1      38.542  34.037  36.873  1.00  0.00     0.029 A 
ATOM     62  C   UNL A   1      39.533  33.097  36.633  1.00  0.00     0.049 A 
ATOM     63  H   UNL A   1      39.754  31.785  34.996  1.00  0.00     0.167 HD
ATOM     64  C   UNL A   1      41.642  31.885  37.109  1.00  0.00     0.074 A 
ATOM     65  C   UNL A   1      42.802  31.591  37.925  1.00  0.00     0.031 C 
ATOM     66  C   UNL A   1      40.679  32.777  37.445  1.00  0.00     0.031 A 
BRANCH  53  67
ATOM     67  C   UNL A   1      36.265  33.427  33.176  1.00  0.00    -0.014 A 
ATOM     68  C   UNL A   1      36.314  34.792  32.856  1.00  0.00     0.009 A 
ATOM     69  C   UNL A   1      35.050  32.738  33.043  1.00  0.00     0.009 A 
ATOM     70  C   UNL A   1      35.159  35.458  32.439  1.00  0.00     0.001 A 
ATOM     71  C   UNL A   1      33.903  33.401  32.604  1.00  0.00     0.001 A 
ATOM     72  C   UNL A   1      33.957  34.762  32.309  1.00  0.00     0.000 A 
ENDBRANCH  53  67
BRANCH  54  73
ATOM     73  C   UNL A   1      44.561  28.492  35.696  1.00  0.00    -0.014 A 
ATOM     74  C   UNL A   1      45.873  28.948  35.488  1.00  0.00     0.009 A 
ATOM     75  C   UNL A   1      44.368  27.259  36.337  1.00  0.00     0.009 A 
ATOM     76  C   UNL A   1      46.966  28.178  35.889  1.00  0.00     0.001 A 
ATOM     77  C   UNL A   1      45.463  26.505  36.765  1.00  0.00     0.001 A 
ATOM     78  C   UNL A   1      46.760  26.960  36.531  1.00  0.00     0.000 A 
ENDBRANCH  54  73
BRANCH  66  79
ATOM     79  C   UNL A   1      40.803  33.473  38.771  1.00  0.00    -0.014 A 
ATOM     80  C   UNL A   1      41.386  34.746  38.878  1.00  0.00     0.009 A 
ATOM     81  C   UNL A   1      40.261  32.877  39.921  1.00  0.00     0.009 A 
ATOM     82  C   UNL A   1      41.454  35.391  40.115  1.00  0.00     0.001 A 
ATOM     83  C   UNL A   1      40.302  33.537  41.150  1.00  0.00     0.001 A 
ATOM     84  C   UNL A   1      40.906  34.789  41.248  1.00  0.00     0.000 A 
ENDBRANCH  66  79
ENDBRANCH  40  41
ENDBRANCH  33  35
ENDBRANCH  32  33
ENDBRANCH  31  32
ENDBRANCH  30  31
ENDBRANCH  29  30
ENDBRANCH  28  29
ENDBRANCH   1  28
TORSDOF 19
ENDMDL
