MODEL 1
REMARK VINA RESULT:     -10.2      0.000      0.000
REMARK SMILES Cc1cc(C(=O)OCCOCCOCCOC(=O)c2ccc(-c3c4nc(c(-c5ccccc5)c5ccc([nH]5)c(-c5ccccc5)c5nc(c(-c6ccccc6)c6ccc3[nH]6)C=C5)C=C4)cc2)c(C#Cc2ccccc2)s1
REMARK SMILES IDX 11 1 10 2 9 3 8 4 7 5 5 6 6 7 4 8 1 9 2 10 3 11 76 12 67 13
REMARK SMILES IDX 68 14 69 15 70 16 71 17 75 18 72 19 74 20 73 21 12 22 13 23
REMARK SMILES IDX 14 24 15 25 16 26 17 27 18 28 19 29 20 30 66 31 21 32 65 33
REMARK SMILES IDX 22 34 23 35 24 36 59 37 25 38 64 39 58 40 60 41 26 42 63 43
REMARK SMILES IDX 57 44 56 45 27 47 49 48 34 49 48 50 35 51 38 52 47 53 61 54
REMARK SMILES IDX 36 55 37 56 46 58 62 59 39 60 28 61 29 62 33 63 30 64 32 65
REMARK SMILES IDX 31 66 50 67 51 68 55 69 52 70 54 71 53 72 40 73 41 74 45 75
REMARK SMILES IDX 42 76 44 77 43 78
REMARK H PARENT 60 46 38 57
REMARK Flexibility Score: inf
ROOT
ATOM      1  C   UNL A   1      35.337  23.358  26.356  1.00  0.00     0.188 C 
ENDROOT
BRANCH   1   2
ATOM      2  O   UNL A   1      34.728  22.183  26.844  1.00  0.00    -0.376 OA
BRANCH   2   3
ATOM      3  C   UNL A   1      33.781  22.291  27.900  1.00  0.00     0.202 C 
BRANCH   3   4
ATOM      4  C   UNL A   1      32.290  22.572  27.616  1.00  0.00     0.261 C 
BRANCH   4   5
ATOM      5  O   UNL A   1      32.035  23.962  27.419  1.00  0.00    -0.460 OA
BRANCH   5   6
ATOM      6  C   UNL A   1      31.083  24.271  26.491  1.00  0.00     0.340 C 
ATOM      7  O   UNL A   1      29.875  24.260  26.667  1.00  0.00    -0.246 OA
BRANCH   6   8
ATOM      8  C   UNL A   1      31.735  24.807  25.323  1.00  0.00     0.086 A 
ATOM      9  C   UNL A   1      33.272  27.505  23.122  1.00  0.00     0.056 C 
ATOM     10  C   UNL A   1      32.560  26.370  23.782  1.00  0.00     0.004 A 
ATOM     11  C   UNL A   1      32.113  26.182  25.074  1.00  0.00     0.032 A 
ATOM     12  S   UNL A   1      32.121  25.012  22.861  1.00  0.00    -0.131 S 
ATOM     13  C   UNL A   1      32.029  23.983  24.244  1.00  0.00     0.092 A 
BRANCH  13  14
ATOM     14  C   UNL A   1      32.227  22.521  24.259  1.00  0.00    -0.050 C 
ATOM     15  C   UNL A   1      32.487  21.331  24.197  1.00  0.00    -0.061 C 
BRANCH  15  16
ATOM     16  C   UNL A   1      32.726  19.909  23.970  1.00  0.00     0.025 A 
ATOM     17  C   UNL A   1      32.194  19.228  22.875  1.00  0.00     0.017 A 
ATOM     18  C   UNL A   1      33.629  19.202  24.775  1.00  0.00     0.017 A 
ATOM     19  C   UNL A   1      32.630  17.926  22.553  1.00  0.00     0.001 A 
ATOM     20  C   UNL A   1      34.141  17.949  24.407  1.00  0.00     0.001 A 
ATOM     21  C   UNL A   1      33.638  17.305  23.289  1.00  0.00     0.000 A 
ENDBRANCH  15  16
ENDBRANCH  13  14
ENDBRANCH   6   8
ENDBRANCH   5   6
ENDBRANCH   4   5
ENDBRANCH   3   4
ENDBRANCH   2   3
ENDBRANCH   1   2
BRANCH   1  22
ATOM     22  C   UNL A   1      35.666  23.521  24.853  1.00  0.00     0.188 C 
BRANCH  22  23
ATOM     23  O   UNL A   1      36.889  23.063  24.312  1.00  0.00    -0.376 OA
BRANCH  23  24
ATOM     24  C   UNL A   1      37.104  21.670  24.337  1.00  0.00     0.202 C 
BRANCH  24  25
ATOM     25  C   UNL A   1      38.303  21.145  25.153  1.00  0.00     0.261 C 
BRANCH  25  26
ATOM     26  O   UNL A   1      38.552  21.837  26.402  1.00  0.00    -0.460 OA
BRANCH  26  27
ATOM     27  C   UNL A   1      39.849  22.111  26.719  1.00  0.00     0.338 C 
ATOM     28  O   UNL A   1      40.784  21.331  26.646  1.00  0.00    -0.246 OA
BRANCH  27  29
ATOM     29  C   UNL A   1      40.036  23.573  26.988  1.00  0.00     0.060 A 
ATOM     30  C   UNL A   1      41.262  24.147  27.293  1.00  0.00     0.016 A 
ATOM     31  C   UNL A   1      38.919  24.419  26.956  1.00  0.00     0.016 A 
ATOM     32  C   UNL A   1      41.320  25.504  27.696  1.00  0.00     0.010 A 
ATOM     33  C   UNL A   1      38.993  25.757  27.427  1.00  0.00     0.010 A 
ATOM     34  C   UNL A   1      40.181  26.292  27.946  1.00  0.00    -0.014 A 
BRANCH  34  35
ATOM     35  C   UNL A   1      40.214  27.675  28.578  1.00  0.00     0.031 A 
ATOM     36  C   UNL A   1      41.293  28.539  28.086  1.00  0.00     0.074 A 
ATOM     37  C   UNL A   1      39.622  28.269  29.669  1.00  0.00     0.049 A 
ATOM     38  N   UNL A   1      42.181  29.029  28.891  1.00  0.00    -0.248 NA
ATOM     39  C   UNL A   1      41.542  28.772  26.673  1.00  0.00     0.031 C 
ATOM     40  C   UNL A   1      39.045  27.673  30.844  1.00  0.00     0.029 A 
ATOM     41  N   UNL A   1      39.428  29.611  30.004  1.00  0.00    -0.354 N 
ATOM     42  C   UNL A   1      43.080  29.704  28.117  1.00  0.00     0.074 A 
ATOM     43  C   UNL A   1      42.664  29.498  26.745  1.00  0.00     0.031 C 
ATOM     44  C   UNL A   1      38.232  28.491  31.523  1.00  0.00     0.029 A 
ATOM     45  C   UNL A   1      38.419  29.817  30.962  1.00  0.00     0.049 A 
ATOM     46  H   UNL A   1      39.949  30.345  29.606  1.00  0.00     0.167 HD
ATOM     47  C   UNL A   1      44.011  30.500  28.692  1.00  0.00     0.031 A 
ATOM     48  C   UNL A   1      38.188  30.806  31.858  1.00  0.00     0.031 A 
ATOM     49  C   UNL A   1      44.284  30.227  30.087  1.00  0.00     0.049 A 
ATOM     50  C   UNL A   1      39.446  31.229  32.488  1.00  0.00     0.074 A 
ATOM     51  C   UNL A   1      45.275  29.594  30.808  1.00  0.00     0.029 A 
ATOM     52  N   UNL A   1      43.268  30.478  30.970  1.00  0.00    -0.354 N 
ATOM     53  N   UNL A   1      40.124  30.519  33.348  1.00  0.00    -0.248 NA
ATOM     54  C   UNL A   1      40.141  32.370  31.912  1.00  0.00     0.031 C 
ATOM     55  C   UNL A   1      44.790  29.423  32.142  1.00  0.00     0.029 A 
ATOM     56  C   UNL A   1      43.542  30.018  32.238  1.00  0.00     0.049 A 
ATOM     57  H   UNL A   1      42.432  30.936  30.724  1.00  0.00     0.167 HD
ATOM     58  C   UNL A   1      41.435  30.881  33.111  1.00  0.00     0.074 A 
ATOM     59  C   UNL A   1      41.379  32.110  32.329  1.00  0.00     0.031 C 
ATOM     60  C   UNL A   1      42.474  30.005  33.224  1.00  0.00     0.031 A 
BRANCH  47  61
ATOM     61  C   UNL A   1      44.424  31.769  28.027  1.00  0.00    -0.014 A 
ATOM     62  C   UNL A   1      43.730  32.973  28.268  1.00  0.00     0.009 A 
ATOM     63  C   UNL A   1      45.657  31.852  27.371  1.00  0.00     0.009 A 
ATOM     64  C   UNL A   1      44.223  34.204  27.844  1.00  0.00     0.001 A 
ATOM     65  C   UNL A   1      46.170  33.090  26.973  1.00  0.00     0.001 A 
ATOM     66  C   UNL A   1      45.452  34.262  27.207  1.00  0.00     0.000 A 
ENDBRANCH  47  61
BRANCH  48  67
ATOM     67  C   UNL A   1      36.864  31.448  31.998  1.00  0.00    -0.014 A 
ATOM     68  C   UNL A   1      36.029  31.608  30.874  1.00  0.00     0.009 A 
ATOM     69  C   UNL A   1      36.452  32.030  33.205  1.00  0.00     0.009 A 
ATOM     70  C   UNL A   1      34.889  32.412  30.922  1.00  0.00     0.001 A 
ATOM     71  C   UNL A   1      35.307  32.838  33.253  1.00  0.00     0.001 A 
ATOM     72  C   UNL A   1      34.545  33.052  32.106  1.00  0.00     0.000 A 
ENDBRANCH  48  67
BRANCH  60  73
ATOM     73  C   UNL A   1      42.430  28.920  34.261  1.00  0.00    -0.014 A 
ATOM     74  C   UNL A   1      41.829  27.697  33.909  1.00  0.00     0.009 A 
ATOM     75  C   UNL A   1      42.902  29.065  35.573  1.00  0.00     0.009 A 
ATOM     76  C   UNL A   1      41.678  26.666  34.839  1.00  0.00     0.001 A 
ATOM     77  C   UNL A   1      42.766  28.024  36.504  1.00  0.00     0.001 A 
ATOM     78  C   UNL A   1      42.145  26.831  36.139  1.00  0.00     0.000 A 
ENDBRANCH  60  73
ENDBRANCH  34  35
ENDBRANCH  27  29
ENDBRANCH  26  27
ENDBRANCH  25  26
ENDBRANCH  24  25
ENDBRANCH  23  24
ENDBRANCH  22  23
ENDBRANCH   1  22
TORSDOF 19
ENDMDL
MODEL 2
REMARK VINA RESULT:     -10.2      1.657      2.140
REMARK SMILES Cc1cc(C(=O)OCCOCCOCCOC(=O)c2ccc(-c3c4nc(c(-c5ccccc5)c5ccc([nH]5)c(-c5ccccc5)c5nc(c(-c6ccccc6)c6ccc3[nH]6)C=C5)C=C4)cc2)c(C#Cc2ccccc2)s1
REMARK SMILES IDX 11 1 10 2 9 3 8 4 7 5 5 6 6 7 4 8 1 9 2 10 3 11 76 12 67 13
REMARK SMILES IDX 68 14 69 15 70 16 71 17 75 18 72 19 74 20 73 21 12 22 13 23
REMARK SMILES IDX 14 24 15 25 16 26 17 27 18 28 19 29 20 30 66 31 21 32 65 33
REMARK SMILES IDX 22 34 23 35 24 36 59 37 25 38 64 39 58 40 60 41 26 42 63 43
REMARK SMILES IDX 57 44 56 45 27 47 49 48 34 49 48 50 35 51 38 52 47 53 61 54
REMARK SMILES IDX 36 55 37 56 46 58 62 59 39 60 28 61 29 62 33 63 30 64 32 65
REMARK SMILES IDX 31 66 50 67 51 68 55 69 52 70 54 71 53 72 40 73 41 74 45 75
REMARK SMILES IDX 42 76 44 77 43 78
REMARK H PARENT 60 46 38 57
REMARK Flexibility Score: inf
ROOT
ATOM      1  C   UNL A   1      35.495  21.084  25.400  1.00  0.00     0.188 C 
ENDROOT
BRANCH   1   2
ATOM      2  O   UNL A   1      34.809  22.073  26.134  1.00  0.00    -0.376 OA
BRANCH   2   3
ATOM      3  C   UNL A   1      34.389  21.774  27.460  1.00  0.00     0.202 C 
BRANCH   3   4
ATOM      4  C   UNL A   1      32.948  22.064  27.930  1.00  0.00     0.261 C 
BRANCH   4   5
ATOM      5  O   UNL A   1      32.548  23.403  27.639  1.00  0.00    -0.460 OA
BRANCH   5   6
ATOM      6  C   UNL A   1      31.461  23.540  26.825  1.00  0.00     0.340 C 
ATOM      7  O   UNL A   1      30.292  23.442  27.162  1.00  0.00    -0.246 OA
BRANCH   6   8
ATOM      8  C   UNL A   1      31.905  24.017  25.540  1.00  0.00     0.086 A 
ATOM      9  C   UNL A   1      33.178  26.574  23.024  1.00  0.00     0.056 C 
ATOM     10  C   UNL A   1      32.525  25.503  23.835  1.00  0.00     0.004 A 
ATOM     11  C   UNL A   1      32.334  25.356  25.194  1.00  0.00     0.032 A 
ATOM     12  S   UNL A   1      31.802  24.183  23.047  1.00  0.00    -0.131 S 
ATOM     13  C   UNL A   1      31.910  23.169  24.440  1.00  0.00     0.092 A 
BRANCH  13  14
ATOM     14  C   UNL A   1      31.988  21.696  24.443  1.00  0.00    -0.050 C 
ATOM     15  C   UNL A   1      32.173  20.491  24.472  1.00  0.00    -0.061 C 
BRANCH  15  16
ATOM     16  C   UNL A   1      32.463  19.065  24.352  1.00  0.00     0.025 A 
ATOM     17  C   UNL A   1      32.721  18.457  23.123  1.00  0.00     0.017 A 
ATOM     18  C   UNL A   1      32.636  18.276  25.495  1.00  0.00     0.017 A 
ATOM     19  C   UNL A   1      33.226  17.141  23.061  1.00  0.00     0.001 A 
ATOM     20  C   UNL A   1      33.230  17.006  25.449  1.00  0.00     0.001 A 
ATOM     21  C   UNL A   1      33.527  16.433  24.224  1.00  0.00     0.000 A 
ENDBRANCH  15  16
ENDBRANCH  13  14
ENDBRANCH   6   8
ENDBRANCH   5   6
ENDBRANCH   4   5
ENDBRANCH   3   4
ENDBRANCH   2   3
ENDBRANCH   1   2
BRANCH   1  22
ATOM     22  C   UNL A   1      36.731  21.442  24.540  1.00  0.00     0.188 C 
BRANCH  22  23
ATOM     23  O   UNL A   1      38.023  20.981  24.877  1.00  0.00    -0.376 OA
BRANCH  23  24
ATOM     24  C   UNL A   1      38.751  21.770  25.791  1.00  0.00     0.202 C 
BRANCH  24  25
ATOM     25  C   UNL A   1      40.023  21.156  26.414  1.00  0.00     0.261 C 
BRANCH  25  26
ATOM     26  O   UNL A   1      40.433  21.734  27.678  1.00  0.00    -0.460 OA
BRANCH  26  27
ATOM     27  C   UNL A   1      41.518  22.558  27.667  1.00  0.00     0.338 C 
ATOM     28  O   UNL A   1      42.629  22.273  27.251  1.00  0.00    -0.246 OA
BRANCH  27  29
ATOM     29  C   UNL A   1      41.134  23.954  28.053  1.00  0.00     0.060 A 
ATOM     30  C   UNL A   1      39.861  24.478  27.870  1.00  0.00     0.016 A 
ATOM     31  C   UNL A   1      42.104  24.798  28.609  1.00  0.00     0.016 A 
ATOM     32  C   UNL A   1      39.630  25.855  28.107  1.00  0.00     0.010 A 
ATOM     33  C   UNL A   1      41.864  26.188  28.776  1.00  0.00     0.010 A 
ATOM     34  C   UNL A   1      40.652  26.779  28.391  1.00  0.00    -0.014 A 
BRANCH  34  35
ATOM     35  C   UNL A   1      40.458  28.288  28.441  1.00  0.00     0.031 A 
ATOM     36  C   UNL A   1      41.576  29.059  27.885  1.00  0.00     0.074 A 
ATOM     37  C   UNL A   1      39.592  29.144  29.081  1.00  0.00     0.049 A 
ATOM     38  N   UNL A   1      42.218  29.923  28.604  1.00  0.00    -0.248 NA
ATOM     39  C   UNL A   1      42.142  28.802  26.571  1.00  0.00     0.031 C 
ATOM     40  C   UNL A   1      38.784  28.934  30.252  1.00  0.00     0.029 A 
ATOM     41  N   UNL A   1      39.252  30.476  28.834  1.00  0.00    -0.354 N 
ATOM     42  C   UNL A   1      43.238  30.394  27.829  1.00  0.00     0.074 A 
ATOM     43  C   UNL A   1      43.173  29.655  26.585  1.00  0.00     0.031 C 
ATOM     44  C   UNL A   1      37.790  29.819  30.391  1.00  0.00     0.029 A 
ATOM     45  C   UNL A   1      38.034  30.869  29.417  1.00  0.00     0.049 A 
ATOM     46  H   UNL A   1      39.812  31.083  28.300  1.00  0.00     0.167 HD
ATOM     47  C   UNL A   1      43.961  31.466  28.233  1.00  0.00     0.031 A 
ATOM     48  C   UNL A   1      37.543  32.070  29.803  1.00  0.00     0.031 A 
ATOM     49  C   UNL A   1      43.907  31.751  29.651  1.00  0.00     0.049 A 
ATOM     50  C   UNL A   1      38.590  32.862  30.464  1.00  0.00     0.074 A 
ATOM     51  C   UNL A   1      44.730  31.563  30.742  1.00  0.00     0.029 A 
ATOM     52  N   UNL A   1      42.698  32.157  30.148  1.00  0.00    -0.354 N 
ATOM     53  N   UNL A   1      39.080  32.609  31.646  1.00  0.00    -0.248 NA
ATOM     54  C   UNL A   1      39.340  33.806  29.649  1.00  0.00     0.031 C 
ATOM     55  C   UNL A   1      43.951  31.815  31.914  1.00  0.00     0.029 A 
ATOM     56  C   UNL A   1      42.686  32.225  31.523  1.00  0.00     0.049 A 
ATOM     57  H   UNL A   1      41.921  32.375  29.584  1.00  0.00     0.167 HD
ATOM     58  C   UNL A   1      40.389  33.040  31.559  1.00  0.00     0.074 A 
ATOM     59  C   UNL A   1      40.454  33.887  30.374  1.00  0.00     0.031 C 
ATOM     60  C   UNL A   1      41.416  32.418  32.202  1.00  0.00     0.031 A 
BRANCH  47  61
ATOM     61  C   UNL A   1      44.453  32.456  27.232  1.00  0.00    -0.014 A 
ATOM     62  C   UNL A   1      43.630  33.517  26.800  1.00  0.00     0.009 A 
ATOM     63  C   UNL A   1      45.812  32.515  26.909  1.00  0.00     0.009 A 
ATOM     64  C   UNL A   1      44.131  34.577  26.048  1.00  0.00     0.001 A 
ATOM     65  C   UNL A   1      46.324  33.594  26.181  1.00  0.00     0.001 A 
ATOM     66  C   UNL A   1      45.484  34.619  25.749  1.00  0.00     0.000 A 
ENDBRANCH  47  61
BRANCH  48  67
ATOM     67  C   UNL A   1      36.191  32.529  29.419  1.00  0.00    -0.014 A 
ATOM     68  C   UNL A   1      35.452  31.827  28.445  1.00  0.00     0.009 A 
ATOM     69  C   UNL A   1      35.657  33.731  29.903  1.00  0.00     0.009 A 
ATOM     70  C   UNL A   1      34.287  32.360  27.892  1.00  0.00     0.001 A 
ATOM     71  C   UNL A   1      34.486  34.266  29.348  1.00  0.00     0.001 A 
ATOM     72  C   UNL A   1      33.820  33.595  28.323  1.00  0.00     0.000 A 
ENDBRANCH  48  67
BRANCH  60  73
ATOM     73  C   UNL A   1      41.184  31.781  33.543  1.00  0.00    -0.014 A 
ATOM     74  C   UNL A   1      40.684  30.466  33.569  1.00  0.00     0.009 A 
ATOM     75  C   UNL A   1      41.385  32.430  34.768  1.00  0.00     0.009 A 
ATOM     76  C   UNL A   1      40.367  29.831  34.772  1.00  0.00     0.001 A 
ATOM     77  C   UNL A   1      41.083  31.789  35.979  1.00  0.00     0.001 A 
ATOM     78  C   UNL A   1      40.565  30.495  35.980  1.00  0.00     0.000 A 
ENDBRANCH  60  73
ENDBRANCH  34  35
ENDBRANCH  27  29
ENDBRANCH  26  27
ENDBRANCH  25  26
ENDBRANCH  24  25
ENDBRANCH  23  24
ENDBRANCH  22  23
ENDBRANCH   1  22
TORSDOF 19
ENDMDL
MODEL 3
REMARK VINA RESULT:     -10.1      4.008      9.112
REMARK SMILES Cc1cc(C(=O)OCCOCCOCCOC(=O)c2ccc(-c3c4nc(c(-c5ccccc5)c5ccc([nH]5)c(-c5ccccc5)c5nc(c(-c6ccccc6)c6ccc3[nH]6)C=C5)C=C4)cc2)c(C#Cc2ccccc2)s1
REMARK SMILES IDX 11 1 10 2 9 3 8 4 7 5 5 6 6 7 4 8 1 9 2 10 3 11 76 12 67 13
REMARK SMILES IDX 68 14 69 15 70 16 71 17 75 18 72 19 74 20 73 21 12 22 13 23
REMARK SMILES IDX 14 24 15 25 16 26 17 27 18 28 19 29 20 30 66 31 21 32 65 33
REMARK SMILES IDX 22 34 23 35 24 36 59 37 25 38 64 39 58 40 60 41 26 42 63 43
REMARK SMILES IDX 57 44 56 45 27 47 49 48 34 49 48 50 35 51 38 52 47 53 61 54
REMARK SMILES IDX 36 55 37 56 46 58 62 59 39 60 28 61 29 62 33 63 30 64 32 65
REMARK SMILES IDX 31 66 50 67 51 68 55 69 52 70 54 71 53 72 40 73 41 74 45 75
REMARK SMILES IDX 42 76 44 77 43 78
REMARK H PARENT 60 46 38 57
REMARK Flexibility Score: inf
ROOT
ATOM      1  C   UNL A   1      33.561  33.073  27.836  1.00  0.00     0.188 C 
ENDROOT
BRANCH   1   2
ATOM      2  O   UNL A   1      34.146  31.792  27.798  1.00  0.00    -0.376 OA
BRANCH   2   3
ATOM      3  C   UNL A   1      33.423  30.726  27.195  1.00  0.00     0.202 C 
BRANCH   3   4
ATOM      4  C   UNL A   1      33.725  29.253  27.544  1.00  0.00     0.261 C 
BRANCH   4   5
ATOM      5  O   UNL A   1      33.138  28.349  26.607  1.00  0.00    -0.460 OA
BRANCH   5   6
ATOM      6  C   UNL A   1      31.991  27.730  27.011  1.00  0.00     0.340 C 
ATOM      7  O   UNL A   1      31.240  28.108  27.895  1.00  0.00    -0.246 OA
BRANCH   6   8
ATOM      8  C   UNL A   1      31.697  26.660  26.091  1.00  0.00     0.086 A 
ATOM      9  C   UNL A   1      31.365  23.045  24.944  1.00  0.00     0.056 C 
ATOM     10  C   UNL A   1      31.602  24.501  25.179  1.00  0.00     0.004 A 
ATOM     11  C   UNL A   1      31.793  25.235  26.332  1.00  0.00     0.032 A 
ATOM     12  S   UNL A   1      31.725  25.552  23.850  1.00  0.00    -0.131 S 
ATOM     13  C   UNL A   1      31.312  26.941  24.787  1.00  0.00     0.092 A 
BRANCH  13  14
ATOM     14  C   UNL A   1      30.678  28.175  24.285  1.00  0.00    -0.050 C 
ATOM     15  C   UNL A   1      30.047  29.133  23.871  1.00  0.00    -0.061 C 
BRANCH  15  16
ATOM     16  C   UNL A   1      29.295  30.204  23.223  1.00  0.00     0.025 A 
ATOM     17  C   UNL A   1      29.086  31.442  23.831  1.00  0.00     0.017 A 
ATOM     18  C   UNL A   1      28.875  30.075  21.893  1.00  0.00     0.017 A 
ATOM     19  C   UNL A   1      28.567  32.529  23.096  1.00  0.00     0.001 A 
ATOM     20  C   UNL A   1      28.453  31.173  21.129  1.00  0.00     0.001 A 
ATOM     21  C   UNL A   1      28.296  32.409  21.733  1.00  0.00     0.000 A 
ENDBRANCH  15  16
ENDBRANCH  13  14
ENDBRANCH   6   8
ENDBRANCH   5   6
ENDBRANCH   4   5
ENDBRANCH   3   4
ENDBRANCH   2   3
ENDBRANCH   1   2
BRANCH   1  22
ATOM     22  C   UNL A   1      34.328  34.285  28.418  1.00  0.00     0.188 C 
BRANCH  22  23
ATOM     23  O   UNL A   1      34.124  34.717  29.748  1.00  0.00    -0.376 OA
BRANCH  23  24
ATOM     24  C   UNL A   1      34.579  33.853  30.765  1.00  0.00     0.202 C 
BRANCH  24  25
ATOM     25  C   UNL A   1      36.077  33.902  31.131  1.00  0.00     0.261 C 
BRANCH  25  26
ATOM     26  O   UNL A   1      36.972  34.201  30.031  1.00  0.00    -0.460 OA
BRANCH  26  27
ATOM     27  C   UNL A   1      38.311  34.144  30.280  1.00  0.00     0.338 C 
ATOM     28  O   UNL A   1      38.972  35.001  30.841  1.00  0.00    -0.246 OA
BRANCH  27  29
ATOM     29  C   UNL A   1      38.857  32.788  29.952  1.00  0.00     0.060 A 
ATOM     30  C   UNL A   1      38.135  31.809  29.283  1.00  0.00     0.016 A 
ATOM     31  C   UNL A   1      40.159  32.463  30.356  1.00  0.00     0.016 A 
ATOM     32  C   UNL A   1      38.668  30.503  29.164  1.00  0.00     0.010 A 
ATOM     33  C   UNL A   1      40.644  31.130  30.282  1.00  0.00     0.010 A 
ATOM     34  C   UNL A   1      39.845  30.080  29.808  1.00  0.00    -0.014 A 
BRANCH  34  35
ATOM     35  C   UNL A   1      40.323  28.636  29.867  1.00  0.00     0.031 A 
ATOM     36  C   UNL A   1      40.954  28.260  31.137  1.00  0.00     0.074 A 
ATOM     37  C   UNL A   1      40.520  27.631  28.948  1.00  0.00     0.049 A 
ATOM     38  N   UNL A   1      42.171  27.822  31.177  1.00  0.00    -0.248 NA
ATOM     39  C   UNL A   1      40.337  28.499  32.432  1.00  0.00     0.031 C 
ATOM     40  C   UNL A   1      40.712  27.706  27.525  1.00  0.00     0.029 A 
ATOM     41  N   UNL A   1      40.638  26.247  29.098  1.00  0.00    -0.354 N 
ATOM     42  C   UNL A   1      42.480  27.650  32.496  1.00  0.00     0.074 A 
ATOM     43  C   UNL A   1      41.325  28.105  33.243  1.00  0.00     0.031 C 
ATOM     44  C   UNL A   1      40.502  26.548  26.887  1.00  0.00     0.029 A 
ATOM     45  C   UNL A   1      40.399  25.526  27.914  1.00  0.00     0.049 A 
ATOM     46  H   UNL A   1      40.867  25.817  29.952  1.00  0.00     0.167 HD
ATOM     47  C   UNL A   1      43.615  27.003  32.851  1.00  0.00     0.031 A 
ATOM     48  C   UNL A   1      40.797  24.305  27.484  1.00  0.00     0.031 A 
ATOM     49  C   UNL A   1      44.640  26.946  31.830  1.00  0.00     0.049 A 
ATOM     50  C   UNL A   1      42.207  24.076  27.828  1.00  0.00     0.074 A 
ATOM     51  C   UNL A   1      45.827  27.596  31.565  1.00  0.00     0.029 A 
ATOM     52  N   UNL A   1      44.354  26.202  30.716  1.00  0.00    -0.354 N 
ATOM     53  N   UNL A   1      43.218  24.676  27.264  1.00  0.00    -0.248 NA
ATOM     54  C   UNL A   1      42.494  23.364  29.064  1.00  0.00     0.031 C 
ATOM     55  C   UNL A   1      46.211  27.260  30.230  1.00  0.00     0.029 A 
ATOM     56  C   UNL A   1      45.294  26.352  29.722  1.00  0.00     0.049 A 
ATOM     57  H   UNL A   1      43.561  25.624  30.635  1.00  0.00     0.167 HD
ATOM     58  C   UNL A   1      44.158  24.756  28.273  1.00  0.00     0.074 A 
ATOM     59  C   UNL A   1      43.723  23.819  29.302  1.00  0.00     0.031 C 
ATOM     60  C   UNL A   1      45.012  25.810  28.404  1.00  0.00     0.031 A 
BRANCH  47  61
ATOM     61  C   UNL A   1      43.630  26.123  34.054  1.00  0.00    -0.014 A 
ATOM     62  C   UNL A   1      43.613  24.719  33.924  1.00  0.00     0.009 A 
ATOM     63  C   UNL A   1      43.933  26.655  35.312  1.00  0.00     0.009 A 
ATOM     64  C   UNL A   1      43.852  23.877  35.007  1.00  0.00     0.001 A 
ATOM     65  C   UNL A   1      44.206  25.812  36.394  1.00  0.00     0.001 A 
ATOM     66  C   UNL A   1      44.162  24.427  36.241  1.00  0.00     0.000 A 
ENDBRANCH  47  61
BRANCH  48  67
ATOM     67  C   UNL A   1      39.848  23.321  26.921  1.00  0.00    -0.014 A 
ATOM     68  C   UNL A   1      40.265  22.000  26.661  1.00  0.00     0.009 A 
ATOM     69  C   UNL A   1      38.560  23.691  26.512  1.00  0.00     0.009 A 
ATOM     70  C   UNL A   1      39.476  21.120  25.918  1.00  0.00     0.001 A 
ATOM     71  C   UNL A   1      37.767  22.807  25.766  1.00  0.00     0.001 A 
ATOM     72  C   UNL A   1      38.238  21.535  25.445  1.00  0.00     0.000 A 
ENDBRANCH  48  67
BRANCH  60  73
ATOM     73  C   UNL A   1      45.524  26.516  27.182  1.00  0.00    -0.014 A 
ATOM     74  C   UNL A   1      46.540  25.891  26.437  1.00  0.00     0.009 A 
ATOM     75  C   UNL A   1      45.089  27.782  26.765  1.00  0.00     0.009 A 
ATOM     76  C   UNL A   1      47.123  26.517  25.332  1.00  0.00     0.001 A 
ATOM     77  C   UNL A   1      45.662  28.405  25.647  1.00  0.00     0.001 A 
ATOM     78  C   UNL A   1      46.685  27.778  24.938  1.00  0.00     0.000 A 
ENDBRANCH  60  73
ENDBRANCH  34  35
ENDBRANCH  27  29
ENDBRANCH  26  27
ENDBRANCH  25  26
ENDBRANCH  24  25
ENDBRANCH  23  24
ENDBRANCH  22  23
ENDBRANCH   1  22
TORSDOF 19
ENDMDL
