MODEL 1
REMARK VINA RESULT:     -13.0      0.000      0.000
REMARK SMILES Cc1cccc(-c2cc(OCC(=O)OCCOCCOCCOC(=O)c3ccc(-c4c5nc(c(-c6ccccc6)c6ccc([nH]6)c(-c6ccccc6)c6nc(c(-c7ccccc7)c7ccc4[nH]7)C=C6)C=C5)cc3)nc(Nc3ccccc3C)n2)c1
REMARK SMILES IDX 18 1 17 2 16 3 15 4 14 5 12 6 13 7 11 8 10 9 9 10 7 11 8 12
REMARK SMILES IDX 84 13 75 14 74 15 6 16 1 17 2 18 3 19 85 20 4 21 5 22 76 23
REMARK SMILES IDX 77 25 78 26 82 27 79 28 81 29 83 30 80 31 19 32 20 33 21 34
REMARK SMILES IDX 22 35 23 36 24 37 25 38 26 39 27 40 73 41 28 42 72 43 29 44
REMARK SMILES IDX 30 45 31 46 66 47 32 48 71 49 65 50 67 51 33 52 70 53 64 54
REMARK SMILES IDX 63 55 34 57 56 58 41 59 55 60 42 61 45 62 54 63 68 64 43 65
REMARK SMILES IDX 44 66 53 68 69 69 46 70 35 71 36 72 40 73 37 74 39 75 38 76
REMARK SMILES IDX 57 77 58 78 62 79 59 80 61 81 60 82 47 83 48 84 52 85 49 86
REMARK SMILES IDX 51 87 50 88
REMARK H PARENT 76 24 67 56 45 67
REMARK Flexibility Score: inf
ROOT
ATOM      1  C   UNL A   1      31.784  26.490  25.848  1.00  0.00     0.188 C 
ENDROOT
BRANCH   1   2
ATOM      2  O   UNL A   1      30.711  25.638  25.536  1.00  0.00    -0.376 OA
BRANCH   2   3
ATOM      3  C   UNL A   1      31.142  24.345  25.254  1.00  0.00     0.202 C 
BRANCH   3   4
ATOM      4  C   UNL A   1      32.239  23.822  26.194  1.00  0.00     0.261 C 
BRANCH   4   5
ATOM      5  O   UNL A   1      33.065  22.214  25.936  1.00  0.00    -0.461 OA
BRANCH   5   6
ATOM      6  C   UNL A   1      34.678  21.612  25.606  1.00  0.00     0.344 C 
ATOM      7  O   UNL A   1      34.798  20.738  24.758  1.00  0.00    -0.248 OA
BRANCH   6   8
ATOM      8  C   UNL A   1      36.294  22.580  26.055  1.00  0.00     0.353 C 
BRANCH   8   9
ATOM      9  O   UNL A   1      37.928  21.972  25.703  1.00  0.00    -0.466 OA
BRANCH   9  10
ATOM     10  C   UNL A   1      39.323  22.345  26.676  1.00  0.00     0.219 A 
ATOM     11  C   UNL A   1      41.032  25.110  27.183  1.00  0.00     0.080 A 
ATOM     12  C   UNL A   1      39.522  24.166  27.559  1.00  0.00     0.097 A 
ATOM     13  N   UNL A   1      42.300  24.249  26.373  1.00  0.00    -0.212 NA
ATOM     14  C   UNL A   1      42.173  22.574  25.952  1.00  0.00     0.231 A 
ATOM     15  N   UNL A   1      40.725  21.637  25.970  1.00  0.00    -0.177 NA
BRANCH  11  16
ATOM     16  C   UNL A   1      41.211  26.594  27.332  1.00  0.00     0.001 A 
ATOM     17  C   UNL A   1      42.114  29.124  30.117  1.00  0.00     0.044 C 
ATOM     18  C   UNL A   1      41.761  28.566  28.764  1.00  0.00    -0.050 A 
ATOM     19  C   UNL A   1      41.474  29.421  27.716  1.00  0.00     0.003 A 
ATOM     20  C   UNL A   1      41.695  27.186  28.509  1.00  0.00     0.013 A 
ATOM     21  C   UNL A   1      41.137  28.887  26.472  1.00  0.00     0.001 A 
ATOM     22  C   UNL A   1      40.983  27.496  26.286  1.00  0.00     0.010 A 
ENDBRANCH  11  16
BRANCH  14  23
ATOM     23  N   UNL A   1      43.285  21.787  26.444  1.00  0.00    -0.324 N 
ATOM     24  H   UNL A   1      43.408  21.754  27.420  1.00  0.00     0.170 HD
BRANCH  23  25
ATOM     25  C   UNL A   1      44.214  21.059  25.656  1.00  0.00     0.044 A 
ATOM     26  C   UNL A   1      45.286  21.804  25.145  1.00  0.00     0.026 A 
ATOM     27  C   UNL A   1      44.227  19.656  25.418  1.00  0.00    -0.027 A 
ATOM     28  C   UNL A   1      46.397  21.199  24.554  1.00  0.00     0.002 A 
ATOM     29  C   UNL A   1      45.424  19.054  24.949  1.00  0.00     0.005 A 
ATOM     30  C   UNL A   1      43.122  18.658  25.679  1.00  0.00     0.046 C 
ATOM     31  C   UNL A   1      46.503  19.818  24.529  1.00  0.00     0.000 A 
ENDBRANCH  23  25
ENDBRANCH  14  23
ENDBRANCH   9  10
ENDBRANCH   8   9
ENDBRANCH   6   8
ENDBRANCH   5   6
ENDBRANCH   4   5
ENDBRANCH   3   4
ENDBRANCH   2   3
ENDBRANCH   1   2
BRANCH   1  32
ATOM     32  C   UNL A   1      31.920  27.815  25.085  1.00  0.00     0.188 C 
BRANCH  32  33
ATOM     33  O   UNL A   1      31.340  28.967  25.655  1.00  0.00    -0.376 OA
BRANCH  33  34
ATOM     34  C   UNL A   1      32.019  29.467  26.809  1.00  0.00     0.202 C 
BRANCH  34  35
ATOM     35  C   UNL A   1      32.565  30.860  26.573  1.00  0.00     0.261 C 
BRANCH  35  36
ATOM     36  O   UNL A   1      33.634  31.349  27.483  1.00  0.00    -0.460 OA
BRANCH  36  37
ATOM     37  C   UNL A   1      34.540  31.838  28.328  1.00  0.00     0.338 C 
ATOM     38  O   UNL A   1      34.018  32.582  29.147  1.00  0.00    -0.246 OA
BRANCH  37  39
ATOM     39  C   UNL A   1      36.250  31.630  28.042  1.00  0.00     0.060 A 
ATOM     40  C   UNL A   1      37.392  30.024  28.499  1.00  0.00     0.016 A 
ATOM     41  C   UNL A   1      36.719  33.228  28.516  1.00  0.00     0.016 A 
ATOM     42  C   UNL A   1      38.583  30.361  29.805  1.00  0.00     0.010 A 
ATOM     43  C   UNL A   1      37.945  33.486  29.575  1.00  0.00     0.010 A 
ATOM     44  C   UNL A   1      38.827  32.213  30.314  1.00  0.00    -0.014 A 
BRANCH  44  45
ATOM     45  C   UNL A   1      40.004  32.955  31.580  1.00  0.00     0.031 A 
ATOM     46  C   UNL A   1      39.255  33.433  32.771  1.00  0.00     0.074 A 
ATOM     47  C   UNL A   1      41.522  33.177  31.488  1.00  0.00     0.049 A 
ATOM     48  N   UNL A   1      39.635  34.491  33.396  1.00  0.00    -0.248 NA
ATOM     49  C   UNL A   1      37.899  33.033  33.192  1.00  0.00     0.031 C 
ATOM     50  C   UNL A   1      42.674  33.016  32.440  1.00  0.00     0.029 A 
ATOM     51  N   UNL A   1      42.385  33.004  30.335  1.00  0.00    -0.354 N 
ATOM     52  C   UNL A   1      38.955  34.437  34.584  1.00  0.00     0.074 A 
ATOM     53  C   UNL A   1      37.711  33.800  34.274  1.00  0.00     0.031 C 
ATOM     54  C   UNL A   1      43.899  33.037  31.803  1.00  0.00     0.029 A 
ATOM     55  C   UNL A   1      43.729  33.178  30.362  1.00  0.00     0.049 A 
ATOM     56  H   UNL A   1      41.969  32.744  29.481  1.00  0.00     0.167 HD
ATOM     57  C   UNL A   1      39.689  34.529  35.723  1.00  0.00     0.031 A 
ATOM     58  C   UNL A   1      44.166  34.079  29.422  1.00  0.00     0.031 A 
ATOM     59  C   UNL A   1      41.119  34.703  35.400  1.00  0.00     0.049 A 
ATOM     60  C   UNL A   1      44.003  35.370  30.172  1.00  0.00     0.074 A 
ATOM     61  C   UNL A   1      42.241  33.909  35.556  1.00  0.00     0.029 A 
ATOM     62  N   UNL A   1      41.490  35.679  34.476  1.00  0.00    -0.354 N 
ATOM     63  N   UNL A   1      43.222  35.493  31.214  1.00  0.00    -0.248 NA
ATOM     64  C   UNL A   1      44.751  36.571  29.883  1.00  0.00     0.031 C 
ATOM     65  C   UNL A   1      43.316  34.520  34.826  1.00  0.00     0.029 A 
ATOM     66  C   UNL A   1      42.816  35.598  34.103  1.00  0.00     0.049 A 
ATOM     67  H   UNL A   1      40.868  36.357  34.126  1.00  0.00     0.167 HD
ATOM     68  C   UNL A   1      43.616  36.559  31.930  1.00  0.00     0.074 A 
ATOM     69  C   UNL A   1      44.380  37.321  30.937  1.00  0.00     0.031 C 
ATOM     70  C   UNL A   1      43.382  36.675  33.277  1.00  0.00     0.031 A 
BRANCH  57  71
ATOM     71  C   UNL A   1      39.183  34.206  37.107  1.00  0.00    -0.014 A 
ATOM     72  C   UNL A   1      39.771  34.866  38.200  1.00  0.00     0.009 A 
ATOM     73  C   UNL A   1      38.119  33.335  37.416  1.00  0.00     0.009 A 
ATOM     74  C   UNL A   1      39.320  34.694  39.512  1.00  0.00     0.001 A 
ATOM     75  C   UNL A   1      37.663  33.152  38.732  1.00  0.00     0.001 A 
ATOM     76  C   UNL A   1      38.257  33.843  39.778  1.00  0.00     0.000 A 
ENDBRANCH  57  71
BRANCH  58  77
ATOM     77  C   UNL A   1      43.715  33.868  27.958  1.00  0.00    -0.014 A 
ATOM     78  C   UNL A   1      43.041  34.926  27.305  1.00  0.00     0.009 A 
ATOM     79  C   UNL A   1      44.178  32.833  27.120  1.00  0.00     0.009 A 
ATOM     80  C   UNL A   1      43.119  35.101  25.912  1.00  0.00     0.001 A 
ATOM     81  C   UNL A   1      44.246  33.010  25.709  1.00  0.00     0.001 A 
ATOM     82  C   UNL A   1      43.800  34.188  25.121  1.00  0.00     0.000 A 
ENDBRANCH  58  77
BRANCH  70  83
ATOM     83  C   UNL A   1      43.608  37.972  33.961  1.00  0.00    -0.014 A 
ATOM     84  C   UNL A   1      44.220  38.077  35.202  1.00  0.00     0.009 A 
ATOM     85  C   UNL A   1      43.264  39.164  33.298  1.00  0.00     0.009 A 
ATOM     86  C   UNL A   1      44.729  39.296  35.626  1.00  0.00     0.001 A 
ATOM     87  C   UNL A   1      43.697  40.395  33.752  1.00  0.00     0.001 A 
ATOM     88  C   UNL A   1      44.486  40.450  34.887  1.00  0.00     0.000 A 
ENDBRANCH  70  83
ENDBRANCH  44  45
ENDBRANCH  37  39
ENDBRANCH  36  37
ENDBRANCH  35  36
ENDBRANCH  34  35
ENDBRANCH  33  34
ENDBRANCH  32  33
ENDBRANCH   1  32
TORSDOF 22
ENDMDL
MODEL 2
REMARK VINA RESULT:     -12.3      3.355      5.791
REMARK SMILES Cc1cccc(-c2cc(OCC(=O)OCCOCCOCCOC(=O)c3ccc(-c4c5nc(c(-c6ccccc6)c6ccc([nH]6)c(-c6ccccc6)c6nc(c(-c7ccccc7)c7ccc4[nH]7)C=C6)C=C5)cc3)nc(Nc3ccccc3C)n2)c1
REMARK SMILES IDX 18 1 17 2 16 3 15 4 14 5 12 6 13 7 11 8 10 9 9 10 7 11 8 12
REMARK SMILES IDX 84 13 75 14 74 15 6 16 1 17 2 18 3 19 85 20 4 21 5 22 76 23
REMARK SMILES IDX 77 25 78 26 82 27 79 28 81 29 83 30 80 31 19 32 20 33 21 34
REMARK SMILES IDX 22 35 23 36 24 37 25 38 26 39 27 40 73 41 28 42 72 43 29 44
REMARK SMILES IDX 30 45 31 46 66 47 32 48 71 49 65 50 67 51 33 52 70 53 64 54
REMARK SMILES IDX 63 55 34 57 56 58 41 59 55 60 42 61 45 62 54 63 68 64 43 65
REMARK SMILES IDX 44 66 53 68 69 69 46 70 35 71 36 72 40 73 37 74 39 75 38 76
REMARK SMILES IDX 57 77 58 78 62 79 59 80 61 81 60 82 47 83 48 84 52 85 49 86
REMARK SMILES IDX 51 87 50 88
REMARK H PARENT 76 24 67 56 45 67
REMARK Flexibility Score: inf
ROOT
ATOM      1  C   UNL A   1      33.095  26.421  23.029  1.00  0.00     0.188 C 
ENDROOT
BRANCH   1   2
ATOM      2  O   UNL A   1      33.582  25.656  21.954  1.00  0.00    -0.376 OA
BRANCH   2   3
ATOM      3  C   UNL A   1      32.990  24.398  21.906  1.00  0.00     0.202 C 
BRANCH   3   4
ATOM      4  C   UNL A   1      32.856  23.704  23.270  1.00  0.00     0.261 C 
BRANCH   4   5
ATOM      5  O   UNL A   1      33.507  22.027  23.586  1.00  0.00    -0.461 OA
BRANCH   5   6
ATOM      6  C   UNL A   1      34.681  21.257  24.635  1.00  0.00     0.344 C 
ATOM      7  O   UNL A   1      34.355  20.216  25.189  1.00  0.00    -0.248 OA
BRANCH   6   8
ATOM      8  C   UNL A   1      36.584  21.607  24.551  1.00  0.00     0.353 C 
BRANCH   8   9
ATOM      9  O   UNL A   1      37.360  22.988  25.358  1.00  0.00    -0.466 OA
BRANCH   9  10
ATOM     10  C   UNL A   1      38.676  22.827  26.487  1.00  0.00     0.219 A 
ATOM     11  C   UNL A   1      40.996  24.907  27.544  1.00  0.00     0.080 A 
ATOM     12  C   UNL A   1      39.252  24.394  27.648  1.00  0.00     0.097 A 
ATOM     13  N   UNL A   1      42.071  23.826  26.720  1.00  0.00    -0.212 NA
ATOM     14  C   UNL A   1      41.548  22.322  26.042  1.00  0.00     0.231 A 
ATOM     15  N   UNL A   1      39.909  21.840  25.800  1.00  0.00    -0.177 NA
BRANCH  11  16
ATOM     16  C   UNL A   1      41.550  26.249  27.929  1.00  0.00     0.001 A 
ATOM     17  C   UNL A   1      42.331  29.640  26.236  1.00  0.00     0.044 C 
ATOM     18  C   UNL A   1      42.188  28.581  27.295  1.00  0.00    -0.050 A 
ATOM     19  C   UNL A   1      42.687  28.800  28.566  1.00  0.00     0.003 A 
ATOM     20  C   UNL A   1      41.569  27.343  27.049  1.00  0.00     0.013 A 
ATOM     21  C   UNL A   1      42.558  27.803  29.533  1.00  0.00     0.001 A 
ATOM     22  C   UNL A   1      42.019  26.537  29.215  1.00  0.00     0.010 A 
ENDBRANCH  11  16
BRANCH  14  23
ATOM     23  N   UNL A   1      42.338  21.197  26.500  1.00  0.00    -0.324 N 
ATOM     24  H   UNL A   1      42.120  20.833  27.388  1.00  0.00     0.170 HD
BRANCH  23  25
ATOM     25  C   UNL A   1      43.395  20.567  25.791  1.00  0.00     0.044 A 
ATOM     26  C   UNL A   1      44.312  21.435  25.182  1.00  0.00     0.026 A 
ATOM     27  C   UNL A   1      43.674  19.174  25.721  1.00  0.00    -0.027 A 
ATOM     28  C   UNL A   1      45.522  20.983  24.653  1.00  0.00     0.002 A 
ATOM     29  C   UNL A   1      44.966  18.756  25.311  1.00  0.00     0.005 A 
ATOM     30  C   UNL A   1      42.774  18.024  26.113  1.00  0.00     0.046 C 
ATOM     31  C   UNL A   1      45.887  19.654  24.790  1.00  0.00     0.000 A 
ENDBRANCH  23  25
ENDBRANCH  14  23
ENDBRANCH   9  10
ENDBRANCH   8   9
ENDBRANCH   6   8
ENDBRANCH   5   6
ENDBRANCH   4   5
ENDBRANCH   3   4
ENDBRANCH   2   3
ENDBRANCH   1   2
BRANCH   1  32
ATOM     32  C   UNL A   1      32.684  27.876  22.771  1.00  0.00     0.188 C 
BRANCH  32  33
ATOM     33  O   UNL A   1      31.534  28.363  23.427  1.00  0.00    -0.376 OA
BRANCH  33  34
ATOM     34  C   UNL A   1      31.766  28.854  24.750  1.00  0.00     0.202 C 
BRANCH  34  35
ATOM     35  C   UNL A   1      33.092  29.578  24.850  1.00  0.00     0.261 C 
BRANCH  35  36
ATOM     36  O   UNL A   1      33.955  29.284  26.024  1.00  0.00    -0.460 OA
BRANCH  36  37
ATOM     37  C   UNL A   1      34.681  28.960  27.093  1.00  0.00     0.338 C 
ATOM     38  O   UNL A   1      33.965  28.574  28.007  1.00  0.00    -0.246 OA
BRANCH  37  39
ATOM     39  C   UNL A   1      36.380  29.353  27.187  1.00  0.00     0.060 A 
ATOM     40  C   UNL A   1      37.907  28.119  27.670  1.00  0.00     0.016 A 
ATOM     41  C   UNL A   1      36.178  30.883  27.975  1.00  0.00     0.016 A 
ATOM     42  C   UNL A   1      38.664  28.527  29.252  1.00  0.00     0.010 A 
ATOM     43  C   UNL A   1      37.036  31.279  29.315  1.00  0.00     0.010 A 
ATOM     44  C   UNL A   1      38.161  30.215  30.055  1.00  0.00    -0.014 A 
BRANCH  44  45
ATOM     45  C   UNL A   1      38.772  31.003  31.651  1.00  0.00     0.031 A 
ATOM     46  C   UNL A   1      39.571  30.029  32.440  1.00  0.00     0.074 A 
ATOM     47  C   UNL A   1      38.489  32.402  32.218  1.00  0.00     0.049 A 
ATOM     48  N   UNL A   1      39.518  30.035  33.725  1.00  0.00    -0.248 NA
ATOM     49  C   UNL A   1      40.218  28.798  31.947  1.00  0.00     0.031 C 
ATOM     50  C   UNL A   1      39.313  33.446  32.918  1.00  0.00     0.029 A 
ATOM     51  N   UNL A   1      37.554  33.396  31.727  1.00  0.00    -0.354 N 
ATOM     52  C   UNL A   1      40.592  29.275  34.105  1.00  0.00     0.074 A 
ATOM     53  C   UNL A   1      40.740  28.294  33.073  1.00  0.00     0.031 C 
ATOM     54  C   UNL A   1      38.691  34.678  32.956  1.00  0.00     0.029 A 
ATOM     55  C   UNL A   1      37.407  34.631  32.268  1.00  0.00     0.049 A 
ATOM     56  H   UNL A   1      36.993  33.161  30.952  1.00  0.00     0.167 HD
ATOM     57  C   UNL A   1      41.465  29.830  34.985  1.00  0.00     0.031 A 
ATOM     58  C   UNL A   1      36.109  34.900  32.628  1.00  0.00     0.031 A 
ATOM     59  C   UNL A   1      41.016  31.184  35.369  1.00  0.00     0.049 A 
ATOM     60  C   UNL A   1      36.070  34.311  34.008  1.00  0.00     0.074 A 
ATOM     61  C   UNL A   1      41.504  32.457  35.136  1.00  0.00     0.029 A 
ATOM     62  N   UNL A   1      39.696  31.368  35.777  1.00  0.00    -0.354 N 
ATOM     63  N   UNL A   1      36.932  33.420  34.425  1.00  0.00    -0.248 NA
ATOM     64  C   UNL A   1      35.146  34.726  35.038  1.00  0.00     0.031 C 
ATOM     65  C   UNL A   1      40.500  33.394  35.556  1.00  0.00     0.029 A 
ATOM     66  C   UNL A   1      39.346  32.697  35.900  1.00  0.00     0.049 A 
ATOM     67  H   UNL A   1      39.077  30.624  35.959  1.00  0.00     0.167 HD
ATOM     68  C   UNL A   1      36.952  33.428  35.769  1.00  0.00     0.074 A 
ATOM     69  C   UNL A   1      35.663  34.054  36.083  1.00  0.00     0.031 C 
ATOM     70  C   UNL A   1      38.043  33.030  36.497  1.00  0.00     0.031 A 
BRANCH  57  71
ATOM     71  C   UNL A   1      42.837  29.288  35.302  1.00  0.00    -0.014 A 
ATOM     72  C   UNL A   1      42.965  28.396  36.380  1.00  0.00     0.009 A 
ATOM     73  C   UNL A   1      44.016  29.547  34.575  1.00  0.00     0.009 A 
ATOM     74  C   UNL A   1      44.178  27.781  36.704  1.00  0.00     0.001 A 
ATOM     75  C   UNL A   1      45.239  28.937  34.896  1.00  0.00     0.001 A 
ATOM     76  C   UNL A   1      45.316  28.043  35.955  1.00  0.00     0.000 A 
ENDBRANCH  57  71
BRANCH  58  77
ATOM     77  C   UNL A   1      35.007  34.682  31.564  1.00  0.00    -0.014 A 
ATOM     78  C   UNL A   1      33.768  35.339  31.739  1.00  0.00     0.009 A 
ATOM     79  C   UNL A   1      35.229  34.131  30.285  1.00  0.00     0.009 A 
ATOM     80  C   UNL A   1      32.967  35.706  30.643  1.00  0.00     0.001 A 
ATOM     81  C   UNL A   1      34.410  34.497  29.179  1.00  0.00     0.001 A 
ATOM     82  C   UNL A   1      33.336  35.361  29.351  1.00  0.00     0.000 A 
ENDBRANCH  58  77
BRANCH  70  83
ATOM     83  C   UNL A   1      37.923  32.817  37.961  1.00  0.00    -0.014 A 
ATOM     84  C   UNL A   1      37.080  31.869  38.522  1.00  0.00     0.009 A 
ATOM     85  C   UNL A   1      38.755  33.549  38.828  1.00  0.00     0.009 A 
ATOM     86  C   UNL A   1      37.266  31.464  39.835  1.00  0.00     0.001 A 
ATOM     87  C   UNL A   1      38.891  33.207  40.159  1.00  0.00     0.001 A 
ATOM     88  C   UNL A   1      38.188  32.118  40.645  1.00  0.00     0.000 A 
ENDBRANCH  70  83
ENDBRANCH  44  45
ENDBRANCH  37  39
ENDBRANCH  36  37
ENDBRANCH  35  36
ENDBRANCH  34  35
ENDBRANCH  33  34
ENDBRANCH  32  33
ENDBRANCH   1  32
TORSDOF 22
ENDMDL
MODEL 3
REMARK VINA RESULT:     -12.2      3.667      7.406
REMARK SMILES Cc1cccc(-c2cc(OCC(=O)OCCOCCOCCOC(=O)c3ccc(-c4c5nc(c(-c6ccccc6)c6ccc([nH]6)c(-c6ccccc6)c6nc(c(-c7ccccc7)c7ccc4[nH]7)C=C6)C=C5)cc3)nc(Nc3ccccc3C)n2)c1
REMARK SMILES IDX 18 1 17 2 16 3 15 4 14 5 12 6 13 7 11 8 10 9 9 10 7 11 8 12
REMARK SMILES IDX 84 13 75 14 74 15 6 16 1 17 2 18 3 19 85 20 4 21 5 22 76 23
REMARK SMILES IDX 77 25 78 26 82 27 79 28 81 29 83 30 80 31 19 32 20 33 21 34
REMARK SMILES IDX 22 35 23 36 24 37 25 38 26 39 27 40 73 41 28 42 72 43 29 44
REMARK SMILES IDX 30 45 31 46 66 47 32 48 71 49 65 50 67 51 33 52 70 53 64 54
REMARK SMILES IDX 63 55 34 57 56 58 41 59 55 60 42 61 45 62 54 63 68 64 43 65
REMARK SMILES IDX 44 66 53 68 69 69 46 70 35 71 36 72 40 73 37 74 39 75 38 76
REMARK SMILES IDX 57 77 58 78 62 79 59 80 61 81 60 82 47 83 48 84 52 85 49 86
REMARK SMILES IDX 51 87 50 88
REMARK H PARENT 76 24 67 56 45 67
REMARK Flexibility Score: inf
ROOT
ATOM      1  C   UNL A   1      32.416  23.911  24.802  1.00  0.00     0.188 C 
ENDROOT
BRANCH   1   2
ATOM      2  O   UNL A   1      33.733  24.398  24.877  1.00  0.00    -0.376 OA
BRANCH   2   3
ATOM      3  C   UNL A   1      34.638  23.390  25.196  1.00  0.00     0.202 C 
BRANCH   3   4
ATOM      4  C   UNL A   1      36.098  23.712  24.843  1.00  0.00     0.261 C 
BRANCH   4   5
ATOM      5  O   UNL A   1      37.438  23.674  26.084  1.00  0.00    -0.461 OA
BRANCH   5   6
ATOM      6  C   UNL A   1      38.878  22.734  26.424  1.00  0.00     0.344 C 
ATOM      7  O   UNL A   1      38.974  21.631  25.904  1.00  0.00    -0.248 OA
BRANCH   6   8
ATOM      8  C   UNL A   1      40.528  23.505  27.081  1.00  0.00     0.353 C 
BRANCH   8   9
ATOM      9  O   UNL A   1      42.117  23.176  26.356  1.00  0.00    -0.466 OA
BRANCH   9  10
ATOM     10  C   UNL A   1      43.588  23.043  27.280  1.00  0.00     0.219 A 
ATOM     11  C   UNL A   1      44.734  24.638  29.918  1.00  0.00     0.080 A 
ATOM     12  C   UNL A   1      43.592  23.370  29.287  1.00  0.00     0.097 A 
ATOM     13  N   UNL A   1      45.933  25.219  28.810  1.00  0.00    -0.212 NA
ATOM     14  C   UNL A   1      46.074  24.627  27.189  1.00  0.00     0.231 A 
ATOM     15  N   UNL A   1      44.905  23.665  26.362  1.00  0.00    -0.177 NA
BRANCH  11  16
ATOM     16  C   UNL A   1      44.620  25.360  31.231  1.00  0.00     0.001 A 
ATOM     17  C   UNL A   1      43.105  28.651  32.589  1.00  0.00     0.044 C 
ATOM     18  C   UNL A   1      43.805  27.320  32.549  1.00  0.00    -0.050 A 
ATOM     19  C   UNL A   1      44.447  26.842  33.677  1.00  0.00     0.003 A 
ATOM     20  C   UNL A   1      43.850  26.522  31.393  1.00  0.00     0.013 A 
ATOM     21  C   UNL A   1      45.102  25.611  33.620  1.00  0.00     0.001 A 
ATOM     22  C   UNL A   1      45.209  24.891  32.410  1.00  0.00     0.010 A 
ENDBRANCH  11  16
BRANCH  14  23
ATOM     23  N   UNL A   1      47.412  24.171  26.873  1.00  0.00    -0.324 N 
ATOM     24  H   UNL A   1      47.545  23.198  26.808  1.00  0.00     0.170 HD
BRANCH  23  25
ATOM     25  C   UNL A   1      48.549  24.991  26.649  1.00  0.00     0.044 A 
ATOM     26  C   UNL A   1      49.560  24.896  27.615  1.00  0.00     0.026 A 
ATOM     27  C   UNL A   1      48.810  25.808  25.513  1.00  0.00    -0.027 A 
ATOM     28  C   UNL A   1      50.826  25.453  27.422  1.00  0.00     0.002 A 
ATOM     29  C   UNL A   1      50.141  26.238  25.274  1.00  0.00     0.005 A 
ATOM     30  C   UNL A   1      47.843  26.238  24.434  1.00  0.00     0.046 C 
ATOM     31  C   UNL A   1      51.143  26.054  26.215  1.00  0.00     0.000 A 
ENDBRANCH  23  25
ENDBRANCH  14  23
ENDBRANCH   9  10
ENDBRANCH   8   9
ENDBRANCH   6   8
ENDBRANCH   5   6
ENDBRANCH   4   5
ENDBRANCH   3   4
ENDBRANCH   2   3
ENDBRANCH   1   2
BRANCH   1  32
ATOM     32  C   UNL A   1      31.371  24.728  24.030  1.00  0.00     0.188 C 
BRANCH  32  33
ATOM     33  O   UNL A   1      31.532  26.128  23.980  1.00  0.00    -0.376 OA
BRANCH  33  34
ATOM     34  C   UNL A   1      30.436  26.833  23.393  1.00  0.00     0.202 C 
BRANCH  34  35
ATOM     35  C   UNL A   1      30.364  28.262  23.887  1.00  0.00     0.261 C 
BRANCH  35  36
ATOM     36  O   UNL A   1      31.607  28.869  24.431  1.00  0.00    -0.460 OA
BRANCH  36  37
ATOM     37  C   UNL A   1      32.677  29.474  24.946  1.00  0.00     0.338 C 
ATOM     38  O   UNL A   1      33.659  29.304  24.237  1.00  0.00    -0.246 OA
BRANCH  37  39
ATOM     39  C   UNL A   1      32.653  30.137  26.561  1.00  0.00     0.060 A 
ATOM     40  C   UNL A   1      32.572  32.085  27.096  1.00  0.00     0.016 A 
ATOM     41  C   UNL A   1      33.850  29.074  27.221  1.00  0.00     0.016 A 
ATOM     42  C   UNL A   1      34.092  32.663  27.868  1.00  0.00     0.010 A 
ATOM     43  C   UNL A   1      35.124  29.644  28.084  1.00  0.00     0.010 A 
ATOM     44  C   UNL A   1      35.388  31.315  28.369  1.00  0.00    -0.014 A 
BRANCH  44  45
ATOM     45  C   UNL A   1      37.045  31.521  29.237  1.00  0.00     0.031 A 
ATOM     46  C   UNL A   1      37.914  30.342  28.987  1.00  0.00     0.074 A 
ATOM     47  C   UNL A   1      37.526  32.647  30.165  1.00  0.00     0.049 A 
ATOM     48  N   UNL A   1      38.709  29.915  29.904  1.00  0.00    -0.248 NA
ATOM     49  C   UNL A   1      37.784  29.351  27.901  1.00  0.00     0.031 C 
ATOM     50  C   UNL A   1      38.817  33.397  30.337  1.00  0.00     0.029 A 
ATOM     51  N   UNL A   1      36.756  33.745  30.717  1.00  0.00    -0.354 N 
ATOM     52  C   UNL A   1      39.561  29.074  29.239  1.00  0.00     0.074 A 
ATOM     53  C   UNL A   1      38.777  28.499  28.189  1.00  0.00     0.031 C 
ATOM     54  C   UNL A   1      38.671  34.542  31.095  1.00  0.00     0.029 A 
ATOM     55  C   UNL A   1      37.281  34.724  31.494  1.00  0.00     0.049 A 
ATOM     56  H   UNL A   1      35.793  33.781  30.514  1.00  0.00     0.167 HD
ATOM     57  C   UNL A   1      40.893  29.304  29.379  1.00  0.00     0.031 A 
ATOM     58  C   UNL A   1      36.631  34.852  32.697  1.00  0.00     0.031 A 
ATOM     59  C   UNL A   1      41.124  30.447  30.285  1.00  0.00     0.049 A 
ATOM     60  C   UNL A   1      37.361  33.832  33.522  1.00  0.00     0.074 A 
ATOM     61  C   UNL A   1      41.619  31.727  30.106  1.00  0.00     0.029 A 
ATOM     62  N   UNL A   1      40.471  30.479  31.515  1.00  0.00    -0.354 N 
ATOM     63  N   UNL A   1      38.055  32.856  32.995  1.00  0.00    -0.248 NA
ATOM     64  C   UNL A   1      37.451  33.873  34.963  1.00  0.00     0.031 C 
ATOM     65  C   UNL A   1      41.375  32.464  31.314  1.00  0.00     0.029 A 
ATOM     66  C   UNL A   1      40.599  31.687  32.168  1.00  0.00     0.049 A 
ATOM     67  H   UNL A   1      39.968  29.715  31.881  1.00  0.00     0.167 HD
ATOM     68  C   UNL A   1      38.940  32.411  33.903  1.00  0.00     0.074 A 
ATOM     69  C   UNL A   1      38.349  32.890  35.157  1.00  0.00     0.031 C 
ATOM     70  C   UNL A   1      40.114  31.795  33.553  1.00  0.00     0.031 A 
BRANCH  57  71
ATOM     71  C   UNL A   1      41.972  28.692  28.520  1.00  0.00    -0.014 A 
ATOM     72  C   UNL A   1      41.975  27.297  28.353  1.00  0.00     0.009 A 
ATOM     73  C   UNL A   1      42.962  29.399  27.809  1.00  0.00     0.009 A 
ATOM     74  C   UNL A   1      42.885  26.644  27.516  1.00  0.00     0.001 A 
ATOM     75  C   UNL A   1      43.883  28.750  26.969  1.00  0.00     0.001 A 
ATOM     76  C   UNL A   1      43.834  27.372  26.814  1.00  0.00     0.000 A 
ENDBRANCH  57  71
BRANCH  58  77
ATOM     77  C   UNL A   1      35.092  35.001  32.671  1.00  0.00    -0.014 A 
ATOM     78  C   UNL A   1      34.488  35.875  33.604  1.00  0.00     0.009 A 
ATOM     79  C   UNL A   1      34.265  34.578  31.610  1.00  0.00     0.009 A 
ATOM     80  C   UNL A   1      33.277  36.532  33.321  1.00  0.00     0.001 A 
ATOM     81  C   UNL A   1      33.036  35.240  31.332  1.00  0.00     0.001 A 
ATOM     82  C   UNL A   1      32.595  36.281  32.141  1.00  0.00     0.000 A 
ENDBRANCH  58  77
BRANCH  70  83
ATOM     83  C   UNL A   1      40.926  31.101  34.584  1.00  0.00    -0.014 A 
ATOM     84  C   UNL A   1      40.514  29.936  35.215  1.00  0.00     0.009 A 
ATOM     85  C   UNL A   1      42.208  31.593  34.889  1.00  0.00     0.009 A 
ATOM     86  C   UNL A   1      41.436  29.144  35.883  1.00  0.00     0.001 A 
ATOM     87  C   UNL A   1      43.112  30.849  35.622  1.00  0.00     0.001 A 
ATOM     88  C   UNL A   1      42.740  29.592  36.065  1.00  0.00     0.000 A 
ENDBRANCH  70  83
ENDBRANCH  44  45
ENDBRANCH  37  39
ENDBRANCH  36  37
ENDBRANCH  35  36
ENDBRANCH  34  35
ENDBRANCH  33  34
ENDBRANCH  32  33
ENDBRANCH   1  32
TORSDOF 22
ENDMDL
