MODEL 1
REMARK VINA RESULT:     -10.6      0.000      0.000
REMARK SMILES Cc1nn(-c2ccc(C(=O)OCCOCCOCCOC(=O)c3ccc(-c4c5nc(c(-c6ccccc6)c6ccc([nH]6)c(-c6ccccc6)c6nc(c(-c7ccccc7)c7ccc4[nH]7)C=C6)C=C5)cc3)cc2)c(=O)c2ccccc12
REMARK SMILES IDX 16 1 15 2 14 3 13 4 12 5 11 6 9 7 10 8 8 9 5 10 6 11 72 12
REMARK SMILES IDX 7 13 71 14 4 15 1 16 2 17 3 18 80 19 75 20 79 21 73 22 76 23
REMARK SMILES IDX 78 24 74 25 77 26 17 27 18 28 19 29 20 30 21 31 22 32 23 33
REMARK SMILES IDX 24 34 70 35 25 36 69 37 26 38 27 39 28 40 63 41 29 42 68 43
REMARK SMILES IDX 62 44 64 45 30 46 67 47 61 48 60 49 31 51 53 52 38 53 52 54
REMARK SMILES IDX 39 55 42 56 51 57 65 58 40 59 41 60 50 62 66 63 43 64 32 65
REMARK SMILES IDX 33 66 37 67 34 68 36 69 35 70 54 71 55 72 59 73 56 74 58 75
REMARK SMILES IDX 57 76 44 77 45 78 49 79 46 80 48 81 47 82
REMARK H PARENT 64 50 42 61
REMARK Flexibility Score: inf
ROOT
ATOM      1  C   UNL A   1      33.132  35.536  31.740  1.00  0.00     0.188 C 
ENDROOT
BRANCH   1   2
ATOM      2  C   UNL A   1      32.597  36.307  30.514  1.00  0.00     0.188 C 
BRANCH   2   3
ATOM      3  O   UNL A   1      32.932  35.913  29.195  1.00  0.00    -0.376 OA
BRANCH   3   4
ATOM      4  C   UNL A   1      34.268  35.546  28.879  1.00  0.00     0.202 C 
BRANCH   4   5
ATOM      5  C   UNL A   1      34.534  34.426  27.873  1.00  0.00     0.261 C 
BRANCH   5   6
ATOM      6  O   UNL A   1      33.641  33.315  28.032  1.00  0.00    -0.460 OA
BRANCH   6   7
ATOM      7  C   UNL A   1      34.182  32.226  28.631  1.00  0.00     0.338 C 
ATOM      8  O   UNL A   1      34.566  32.132  29.784  1.00  0.00    -0.246 OA
BRANCH   7   9
ATOM      9  C   UNL A   1      34.060  31.062  27.732  1.00  0.00     0.060 A 
ATOM     10  C   UNL A   1      33.692  28.833  26.080  1.00  0.00     0.069 A 
ATOM     11  C   UNL A   1      32.693  29.810  26.172  1.00  0.00     0.029 A 
ATOM     12  C   UNL A   1      34.903  29.026  26.764  1.00  0.00     0.029 A 
ATOM     13  C   UNL A   1      32.861  30.901  27.027  1.00  0.00     0.018 A 
ATOM     14  C   UNL A   1      35.102  30.148  27.571  1.00  0.00     0.018 A 
BRANCH  10  15
ATOM     15  N   UNL A   1      33.432  27.625  25.377  1.00  0.00    -0.196 N 
ATOM     16  C   UNL A   1      33.022  24.141  26.500  1.00  0.00     0.069 C 
ATOM     17  C   UNL A   1      33.174  25.346  25.600  1.00  0.00     0.066 A 
ATOM     18  N   UNL A   1      33.394  26.496  26.163  1.00  0.00    -0.169 NA
ATOM     19  C   UNL A   1      33.066  25.164  24.137  1.00  0.00     0.010 A 
ATOM     20  C   UNL A   1      33.163  26.304  23.350  1.00  0.00     0.051 A 
ATOM     21  C   UNL A   1      32.928  23.912  23.527  1.00  0.00     0.011 A 
ATOM     22  C   UNL A   1      33.281  27.624  23.988  1.00  0.00     0.279 A 
ATOM     23  C   UNL A   1      33.173  26.202  21.952  1.00  0.00     0.014 A 
ATOM     24  C   UNL A   1      32.929  23.811  22.132  1.00  0.00     0.001 A 
ATOM     25  O   UNL A   1      33.295  28.615  23.258  1.00  0.00    -0.267 OA
ATOM     26  C   UNL A   1      33.064  24.953  21.345  1.00  0.00     0.001 A 
ENDBRANCH  10  15
ENDBRANCH   7   9
ENDBRANCH   6   7
ENDBRANCH   5   6
ENDBRANCH   4   5
ENDBRANCH   3   4
ENDBRANCH   2   3
ENDBRANCH   1   2
BRANCH   1  27
ATOM     27  O   UNL A   1      33.866  36.194  32.754  1.00  0.00    -0.376 OA
BRANCH  27  28
ATOM     28  C   UNL A   1      34.821  35.468  33.514  1.00  0.00     0.202 C 
BRANCH  28  29
ATOM     29  C   UNL A   1      36.072  34.916  32.829  1.00  0.00     0.261 C 
BRANCH  29  30
ATOM     30  O   UNL A   1      35.949  33.533  32.467  1.00  0.00    -0.460 OA
BRANCH  30  31
ATOM     31  C   UNL A   1      36.651  32.667  33.235  1.00  0.00     0.338 C 
ATOM     32  O   UNL A   1      36.454  32.376  34.403  1.00  0.00    -0.246 OA
BRANCH  31  33
ATOM     33  C   UNL A   1      37.630  31.968  32.388  1.00  0.00     0.060 A 
ATOM     34  C   UNL A   1      37.595  32.103  30.999  1.00  0.00     0.016 A 
ATOM     35  C   UNL A   1      38.610  31.182  33.007  1.00  0.00     0.016 A 
ATOM     36  C   UNL A   1      38.566  31.461  30.226  1.00  0.00     0.010 A 
ATOM     37  C   UNL A   1      39.569  30.530  32.233  1.00  0.00     0.010 A 
ATOM     38  C   UNL A   1      39.563  30.681  30.838  1.00  0.00    -0.014 A 
BRANCH  38  39
ATOM     39  C   UNL A   1      40.676  30.138  30.027  1.00  0.00     0.031 A 
ATOM     40  C   UNL A   1      40.605  28.774  29.413  1.00  0.00     0.074 A 
ATOM     41  C   UNL A   1      41.768  30.904  29.852  1.00  0.00     0.049 A 
ATOM     42  N   UNL A   1      41.460  28.198  28.606  1.00  0.00    -0.248 NA
ATOM     43  C   UNL A   1      39.433  27.951  29.743  1.00  0.00     0.031 C 
ATOM     44  C   UNL A   1      41.950  32.243  30.415  1.00  0.00     0.029 A 
ATOM     45  N   UNL A   1      42.922  30.676  29.146  1.00  0.00    -0.354 N 
ATOM     46  C   UNL A   1      40.919  26.956  28.307  1.00  0.00     0.074 A 
ATOM     47  C   UNL A   1      39.686  26.842  29.057  1.00  0.00     0.031 C 
ATOM     48  C   UNL A   1      43.134  32.728  30.014  1.00  0.00     0.029 A 
ATOM     49  C   UNL A   1      43.805  31.727  29.187  1.00  0.00     0.049 A 
ATOM     50  H   UNL A   1      43.100  29.840  28.658  1.00  0.00     0.167 HD
ATOM     51  C   UNL A   1      41.404  26.010  27.468  1.00  0.00     0.031 A 
ATOM     52  C   UNL A   1      45.016  31.878  28.618  1.00  0.00     0.031 A 
ATOM     53  C   UNL A   1      42.648  26.122  26.748  1.00  0.00     0.049 A 
ATOM     54  C   UNL A   1      45.561  30.785  27.744  1.00  0.00     0.074 A 
ATOM     55  C   UNL A   1      43.198  25.227  25.846  1.00  0.00     0.029 A 
ATOM     56  N   UNL A   1      43.538  27.179  26.856  1.00  0.00    -0.354 N 
ATOM     57  N   UNL A   1      45.002  29.648  27.406  1.00  0.00    -0.248 NA
ATOM     58  C   UNL A   1      46.893  30.997  27.160  1.00  0.00     0.031 C 
ATOM     59  C   UNL A   1      44.452  25.707  25.464  1.00  0.00     0.029 A 
ATOM     60  C   UNL A   1      44.651  26.938  26.067  1.00  0.00     0.049 A 
ATOM     61  H   UNL A   1      43.400  27.981  27.409  1.00  0.00     0.167 HD
ATOM     62  C   UNL A   1      45.900  29.022  26.551  1.00  0.00     0.074 A 
ATOM     63  C   UNL A   1      47.037  29.908  26.414  1.00  0.00     0.031 C 
ATOM     64  C   UNL A   1      45.783  27.821  25.937  1.00  0.00     0.031 A 
BRANCH  51  65
ATOM     65  C   UNL A   1      40.596  24.760  27.263  1.00  0.00    -0.014 A 
ATOM     66  C   UNL A   1      41.060  23.533  27.763  1.00  0.00     0.009 A 
ATOM     67  C   UNL A   1      39.441  24.775  26.465  1.00  0.00     0.009 A 
ATOM     68  C   UNL A   1      40.396  22.344  27.455  1.00  0.00     0.001 A 
ATOM     69  C   UNL A   1      38.764  23.587  26.179  1.00  0.00     0.001 A 
ATOM     70  C   UNL A   1      39.248  22.372  26.665  1.00  0.00     0.000 A 
ENDBRANCH  51  65
BRANCH  52  71
ATOM     71  C   UNL A   1      45.766  33.141  28.837  1.00  0.00    -0.014 A 
ATOM     72  C   UNL A   1      46.701  33.244  29.881  1.00  0.00     0.009 A 
ATOM     73  C   UNL A   1      45.505  34.269  28.047  1.00  0.00     0.009 A 
ATOM     74  C   UNL A   1      47.339  34.458  30.144  1.00  0.00     0.001 A 
ATOM     75  C   UNL A   1      46.166  35.475  28.295  1.00  0.00     0.001 A 
ATOM     76  C   UNL A   1      47.074  35.570  29.349  1.00  0.00     0.000 A 
ENDBRANCH  52  71
BRANCH  64  77
ATOM     77  C   UNL A   1      46.903  27.373  25.038  1.00  0.00    -0.014 A 
ATOM     78  C   UNL A   1      47.947  26.594  25.564  1.00  0.00     0.009 A 
ATOM     79  C   UNL A   1      46.993  27.823  23.713  1.00  0.00     0.009 A 
ATOM     80  C   UNL A   1      49.068  26.294  24.789  1.00  0.00     0.001 A 
ATOM     81  C   UNL A   1      48.104  27.498  22.931  1.00  0.00     0.001 A 
ATOM     82  C   UNL A   1      49.146  26.745  23.473  1.00  0.00     0.000 A 
ENDBRANCH  64  77
ENDBRANCH  38  39
ENDBRANCH  31  33
ENDBRANCH  30  31
ENDBRANCH  29  30
ENDBRANCH  28  29
ENDBRANCH  27  28
ENDBRANCH   1  27
TORSDOF 18
ENDMDL
MODEL 2
REMARK VINA RESULT:     -10.5      4.613     10.429
REMARK SMILES Cc1nn(-c2ccc(C(=O)OCCOCCOCCOC(=O)c3ccc(-c4c5nc(c(-c6ccccc6)c6ccc([nH]6)c(-c6ccccc6)c6nc(c(-c7ccccc7)c7ccc4[nH]7)C=C6)C=C5)cc3)cc2)c(=O)c2ccccc12
REMARK SMILES IDX 16 1 15 2 14 3 13 4 12 5 11 6 9 7 10 8 8 9 5 10 6 11 72 12
REMARK SMILES IDX 7 13 71 14 4 15 1 16 2 17 3 18 80 19 75 20 79 21 73 22 76 23
REMARK SMILES IDX 78 24 74 25 77 26 17 27 18 28 19 29 20 30 21 31 22 32 23 33
REMARK SMILES IDX 24 34 70 35 25 36 69 37 26 38 27 39 28 40 63 41 29 42 68 43
REMARK SMILES IDX 62 44 64 45 30 46 67 47 61 48 60 49 31 51 53 52 38 53 52 54
REMARK SMILES IDX 39 55 42 56 51 57 65 58 40 59 41 60 50 62 66 63 43 64 32 65
REMARK SMILES IDX 33 66 37 67 34 68 36 69 35 70 54 71 55 72 59 73 56 74 58 75
REMARK SMILES IDX 57 76 44 77 45 78 49 79 46 80 48 81 47 82
REMARK H PARENT 64 50 42 61
REMARK Flexibility Score: inf
ROOT
ATOM      1  C   UNL A   1      41.225  21.129  26.157  1.00  0.00     0.188 C 
ENDROOT
BRANCH   1   2
ATOM      2  C   UNL A   1      39.809  21.661  26.465  1.00  0.00     0.188 C 
BRANCH   2   3
ATOM      3  O   UNL A   1      38.791  21.655  25.480  1.00  0.00    -0.376 OA
BRANCH   3   4
ATOM      4  C   UNL A   1      37.483  22.104  25.805  1.00  0.00     0.202 C 
BRANCH   4   5
ATOM      5  C   UNL A   1      36.974  23.436  25.253  1.00  0.00     0.261 C 
BRANCH   5   6
ATOM      6  O   UNL A   1      35.578  23.403  24.927  1.00  0.00    -0.460 OA
BRANCH   6   7
ATOM      7  C   UNL A   1      34.742  23.701  25.951  1.00  0.00     0.338 C 
ATOM      8  O   UNL A   1      34.809  23.296  27.099  1.00  0.00    -0.246 OA
BRANCH   7   9
ATOM      9  C   UNL A   1      33.820  24.775  25.535  1.00  0.00     0.060 A 
ATOM     10  C   UNL A   1      32.184  26.906  24.749  1.00  0.00     0.069 A 
ATOM     11  C   UNL A   1      33.421  26.703  24.124  1.00  0.00     0.029 A 
ATOM     12  C   UNL A   1      31.748  25.986  25.716  1.00  0.00     0.029 A 
ATOM     13  C   UNL A   1      34.253  25.664  24.544  1.00  0.00     0.018 A 
ATOM     14  C   UNL A   1      32.549  24.907  26.095  1.00  0.00     0.018 A 
BRANCH  10  15
ATOM     15  N   UNL A   1      31.438  28.083  24.468  1.00  0.00    -0.196 N 
ATOM     16  C   UNL A   1      31.397  31.425  26.016  1.00  0.00     0.069 C 
ATOM     17  C   UNL A   1      31.030  30.248  25.141  1.00  0.00     0.066 A 
ATOM     18  N   UNL A   1      31.679  29.137  25.319  1.00  0.00    -0.169 NA
ATOM     19  C   UNL A   1      29.961  30.413  24.134  1.00  0.00     0.010 A 
ATOM     20  C   UNL A   1      29.688  29.324  23.317  1.00  0.00     0.051 A 
ATOM     21  C   UNL A   1      29.196  31.579  24.010  1.00  0.00     0.011 A 
ATOM     22  C   UNL A   1      30.507  28.107  23.426  1.00  0.00     0.279 A 
ATOM     23  C   UNL A   1      28.622  29.367  22.409  1.00  0.00     0.014 A 
ATOM     24  C   UNL A   1      28.137  31.625  23.096  1.00  0.00     0.001 A 
ATOM     25  O   UNL A   1      30.279  27.189  22.638  1.00  0.00    -0.267 OA
ATOM     26  C   UNL A   1      27.843  30.517  22.305  1.00  0.00     0.001 A 
ENDBRANCH  10  15
ENDBRANCH   7   9
ENDBRANCH   6   7
ENDBRANCH   5   6
ENDBRANCH   4   5
ENDBRANCH   3   4
ENDBRANCH   2   3
ENDBRANCH   1   2
BRANCH   1  27
ATOM     27  O   UNL A   1      42.360  21.640  26.830  1.00  0.00    -0.376 OA
BRANCH  27  28
ATOM     28  C   UNL A   1      43.618  21.654  26.174  1.00  0.00     0.202 C 
BRANCH  28  29
ATOM     29  C   UNL A   1      43.806  22.500  24.913  1.00  0.00     0.261 C 
BRANCH  29  30
ATOM     30  O   UNL A   1      43.167  23.781  24.998  1.00  0.00    -0.460 OA
BRANCH  30  31
ATOM     31  C   UNL A   1      43.982  24.818  25.302  1.00  0.00     0.338 C 
ATOM     32  O   UNL A   1      45.011  25.150  24.737  1.00  0.00    -0.246 OA
BRANCH  31  33
ATOM     33  C   UNL A   1      43.346  25.628  26.353  1.00  0.00     0.060 A 
ATOM     34  C   UNL A   1      42.361  25.080  27.177  1.00  0.00     0.016 A 
ATOM     35  C   UNL A   1      43.765  26.954  26.521  1.00  0.00     0.016 A 
ATOM     36  C   UNL A   1      41.809  25.863  28.193  1.00  0.00     0.010 A 
ATOM     37  C   UNL A   1      43.202  27.739  27.527  1.00  0.00     0.010 A 
ATOM     38  C   UNL A   1      42.232  27.191  28.380  1.00  0.00    -0.014 A 
BRANCH  38  39
ATOM     39  C   UNL A   1      41.758  27.958  29.555  1.00  0.00     0.031 A 
ATOM     40  C   UNL A   1      42.474  27.900  30.869  1.00  0.00     0.074 A 
ATOM     41  C   UNL A   1      40.654  28.715  29.417  1.00  0.00     0.049 A 
ATOM     42  N   UNL A   1      42.231  28.583  31.960  1.00  0.00    -0.248 NA
ATOM     43  C   UNL A   1      43.602  26.965  30.977  1.00  0.00     0.031 C 
ATOM     44  C   UNL A   1      39.871  28.834  28.186  1.00  0.00     0.029 A 
ATOM     45  N   UNL A   1      40.008  29.532  30.308  1.00  0.00    -0.354 N 
ATOM     46  C   UNL A   1      43.191  28.181  32.877  1.00  0.00     0.074 A 
ATOM     47  C   UNL A   1      43.991  27.161  32.232  1.00  0.00     0.031 C 
ATOM     48  C   UNL A   1      38.862  29.694  28.393  1.00  0.00     0.029 A 
ATOM     49  C   UNL A   1      38.913  30.167  29.774  1.00  0.00     0.049 A 
ATOM     50  H   UNL A   1      40.300  29.652  31.240  1.00  0.00     0.167 HD
ATOM     51  C   UNL A   1      43.392  28.640  34.135  1.00  0.00     0.031 A 
ATOM     52  C   UNL A   1      38.049  31.039  30.328  1.00  0.00     0.031 A 
ATOM     53  C   UNL A   1      42.572  29.636  34.778  1.00  0.00     0.049 A 
ATOM     54  C   UNL A   1      38.256  31.482  31.747  1.00  0.00     0.074 A 
ATOM     55  C   UNL A   1      42.726  30.188  36.039  1.00  0.00     0.029 A 
ATOM     56  N   UNL A   1      41.442  30.217  34.224  1.00  0.00    -0.354 N 
ATOM     57  N   UNL A   1      39.216  31.154  32.578  1.00  0.00    -0.248 NA
ATOM     58  C   UNL A   1      37.275  32.425  32.304  1.00  0.00     0.031 C 
ATOM     59  C   UNL A   1      41.652  31.047  36.274  1.00  0.00     0.029 A 
ATOM     60  C   UNL A   1      40.868  31.091  35.133  1.00  0.00     0.049 A 
ATOM     61  H   UNL A   1      41.099  30.036  33.319  1.00  0.00     0.167 HD
ATOM     62  C   UNL A   1      38.970  31.868  33.744  1.00  0.00     0.074 A 
ATOM     63  C   UNL A   1      37.776  32.654  33.511  1.00  0.00     0.031 C 
ATOM     64  C   UNL A   1      39.678  31.868  34.899  1.00  0.00     0.031 A 
BRANCH  51  65
ATOM     65  C   UNL A   1      44.547  28.085  34.918  1.00  0.00    -0.014 A 
ATOM     66  C   UNL A   1      45.796  28.726  34.880  1.00  0.00     0.009 A 
ATOM     67  C   UNL A   1      44.436  26.857  35.590  1.00  0.00     0.009 A 
ATOM     68  C   UNL A   1      46.913  28.142  35.480  1.00  0.00     0.001 A 
ATOM     69  C   UNL A   1      45.549  26.288  36.213  1.00  0.00     0.001 A 
ATOM     70  C   UNL A   1      46.788  26.925  36.148  1.00  0.00     0.000 A 
ENDBRANCH  51  65
BRANCH  52  71
ATOM     71  C   UNL A   1      36.934  31.573  29.504  1.00  0.00    -0.014 A 
ATOM     72  C   UNL A   1      35.742  30.844  29.358  1.00  0.00     0.009 A 
ATOM     73  C   UNL A   1      37.080  32.781  28.808  1.00  0.00     0.009 A 
ATOM     74  C   UNL A   1      34.730  31.302  28.512  1.00  0.00     0.001 A 
ATOM     75  C   UNL A   1      36.054  33.251  27.984  1.00  0.00     0.001 A 
ATOM     76  C   UNL A   1      34.885  32.506  27.829  1.00  0.00     0.000 A 
ENDBRANCH  52  71
BRANCH  64  77
ATOM     77  C   UNL A   1      39.203  32.752  36.020  1.00  0.00    -0.014 A 
ATOM     78  C   UNL A   1      39.797  34.011  36.212  1.00  0.00     0.009 A 
ATOM     79  C   UNL A   1      38.265  32.294  36.956  1.00  0.00     0.009 A 
ATOM     80  C   UNL A   1      39.478  34.782  37.331  1.00  0.00     0.001 A 
ATOM     81  C   UNL A   1      37.928  33.080  38.061  1.00  0.00     0.001 A 
ATOM     82  C   UNL A   1      38.544  34.316  38.254  1.00  0.00     0.000 A 
ENDBRANCH  64  77
ENDBRANCH  38  39
ENDBRANCH  31  33
ENDBRANCH  30  31
ENDBRANCH  29  30
ENDBRANCH  28  29
ENDBRANCH  27  28
ENDBRANCH   1  27
TORSDOF 18
ENDMDL
MODEL 3
REMARK VINA RESULT:     -10.3      0.853      5.901
REMARK SMILES Cc1nn(-c2ccc(C(=O)OCCOCCOCCOC(=O)c3ccc(-c4c5nc(c(-c6ccccc6)c6ccc([nH]6)c(-c6ccccc6)c6nc(c(-c7ccccc7)c7ccc4[nH]7)C=C6)C=C5)cc3)cc2)c(=O)c2ccccc12
REMARK SMILES IDX 16 1 15 2 14 3 13 4 12 5 11 6 9 7 10 8 8 9 5 10 6 11 72 12
REMARK SMILES IDX 7 13 71 14 4 15 1 16 2 17 3 18 80 19 75 20 79 21 73 22 76 23
REMARK SMILES IDX 78 24 74 25 77 26 17 27 18 28 19 29 20 30 21 31 22 32 23 33
REMARK SMILES IDX 24 34 70 35 25 36 69 37 26 38 27 39 28 40 63 41 29 42 68 43
REMARK SMILES IDX 62 44 64 45 30 46 67 47 61 48 60 49 31 51 53 52 38 53 52 54
REMARK SMILES IDX 39 55 42 56 51 57 65 58 40 59 41 60 50 62 66 63 43 64 32 65
REMARK SMILES IDX 33 66 37 67 34 68 36 69 35 70 54 71 55 72 59 73 56 74 58 75
REMARK SMILES IDX 57 76 44 77 45 78 49 79 46 80 48 81 47 82
REMARK H PARENT 64 50 42 61
REMARK Flexibility Score: inf
ROOT
ATOM      1  C   UNL A   1      33.203  35.555  31.904  1.00  0.00     0.188 C 
ENDROOT
BRANCH   1   2
ATOM      2  C   UNL A   1      32.530  36.407  30.807  1.00  0.00     0.188 C 
BRANCH   2   3
ATOM      3  O   UNL A   1      32.614  36.046  29.440  1.00  0.00    -0.376 OA
BRANCH   3   4
ATOM      4  C   UNL A   1      33.852  35.614  28.893  1.00  0.00     0.202 C 
BRANCH   4   5
ATOM      5  C   UNL A   1      33.869  34.569  27.776  1.00  0.00     0.261 C 
BRANCH   5   6
ATOM      6  O   UNL A   1      33.535  33.255  28.241  1.00  0.00    -0.460 OA
BRANCH   6   7
ATOM      7  C   UNL A   1      34.549  32.357  28.201  1.00  0.00     0.338 C 
ATOM      8  O   UNL A   1      35.643  32.454  28.730  1.00  0.00    -0.246 OA
BRANCH   7   9
ATOM      9  C   UNL A   1      34.073  31.108  27.574  1.00  0.00     0.060 A 
ATOM     10  C   UNL A   1      33.300  28.732  26.314  1.00  0.00     0.069 A 
ATOM     11  C   UNL A   1      34.568  28.835  26.899  1.00  0.00     0.029 A 
ATOM     12  C   UNL A   1      32.402  29.805  26.435  1.00  0.00     0.029 A 
ATOM     13  C   UNL A   1      34.968  30.033  27.493  1.00  0.00     0.018 A 
ATOM     14  C   UNL A   1      32.774  30.984  27.084  1.00  0.00     0.018 A 
BRANCH  10  15
ATOM     15  N   UNL A   1      32.978  27.590  25.530  1.00  0.00    -0.196 N 
ATOM     16  C   UNL A   1      33.603  26.748  21.999  1.00  0.00     0.069 C 
ATOM     17  C   UNL A   1      33.081  26.678  23.417  1.00  0.00     0.066 A 
ATOM     18  N   UNL A   1      33.349  27.674  24.208  1.00  0.00    -0.169 NA
ATOM     19  C   UNL A   1      32.299  25.496  23.833  1.00  0.00     0.010 A 
ATOM     20  C   UNL A   1      31.881  25.449  25.156  1.00  0.00     0.051 A 
ATOM     21  C   UNL A   1      31.927  24.472  22.954  1.00  0.00     0.011 A 
ATOM     22  C   UNL A   1      32.292  26.509  26.090  1.00  0.00     0.279 A 
ATOM     23  C   UNL A   1      31.049  24.413  25.601  1.00  0.00     0.014 A 
ATOM     24  C   UNL A   1      31.105  23.432  23.401  1.00  0.00     0.001 A 
ATOM     25  O   UNL A   1      31.958  26.396  27.269  1.00  0.00    -0.267 OA
ATOM     26  C   UNL A   1      30.656  23.409  24.720  1.00  0.00     0.001 A 
ENDBRANCH  10  15
ENDBRANCH   7   9
ENDBRANCH   6   7
ENDBRANCH   5   6
ENDBRANCH   4   5
ENDBRANCH   3   4
ENDBRANCH   2   3
ENDBRANCH   1   2
BRANCH   1  27
ATOM     27  O   UNL A   1      34.055  36.144  32.868  1.00  0.00    -0.376 OA
BRANCH  27  28
ATOM     28  C   UNL A   1      34.831  35.315  33.719  1.00  0.00     0.202 C 
BRANCH  28  29
ATOM     29  C   UNL A   1      36.090  34.638  33.175  1.00  0.00     0.261 C 
BRANCH  29  30
ATOM     30  O   UNL A   1      35.936  33.222  33.002  1.00  0.00    -0.460 OA
BRANCH  30  31
ATOM     31  C   UNL A   1      36.819  32.454  33.681  1.00  0.00     0.338 C 
ATOM     32  O   UNL A   1      36.797  32.159  34.865  1.00  0.00    -0.246 OA
BRANCH  31  33
ATOM     33  C   UNL A   1      37.766  31.861  32.724  1.00  0.00     0.060 A 
ATOM     34  C   UNL A   1      37.604  32.051  31.350  1.00  0.00     0.016 A 
ATOM     35  C   UNL A   1      38.844  31.118  33.222  1.00  0.00     0.016 A 
ATOM     36  C   UNL A   1      38.544  31.511  30.471  1.00  0.00     0.010 A 
ATOM     37  C   UNL A   1      39.774  30.566  32.341  1.00  0.00     0.010 A 
ATOM     38  C   UNL A   1      39.638  30.776  30.960  1.00  0.00    -0.014 A 
BRANCH  38  39
ATOM     39  C   UNL A   1      40.711  30.345  30.035  1.00  0.00     0.031 A 
ATOM     40  C   UNL A   1      41.895  31.215  29.749  1.00  0.00     0.074 A 
ATOM     41  C   UNL A   1      40.596  29.140  29.446  1.00  0.00     0.049 A 
ATOM     42  N   UNL A   1      42.956  30.938  29.033  1.00  0.00    -0.248 NA
ATOM     43  C   UNL A   1      41.895  32.561  30.337  1.00  0.00     0.031 C 
ATOM     44  C   UNL A   1      39.478  28.216  29.642  1.00  0.00     0.029 A 
ATOM     45  N   UNL A   1      41.429  28.482  28.577  1.00  0.00    -0.354 N 
ATOM     46  C   UNL A   1      43.763  32.064  29.104  1.00  0.00     0.074 A 
ATOM     47  C   UNL A   1      43.050  33.046  29.893  1.00  0.00     0.031 C 
ATOM     48  C   UNL A   1      39.705  27.100  28.933  1.00  0.00     0.029 A 
ATOM     49  C   UNL A   1      40.969  27.240  28.214  1.00  0.00     0.049 A 
ATOM     50  H   UNL A   1      42.273  28.864  28.245  1.00  0.00     0.167 HD
ATOM     51  C   UNL A   1      44.995  32.247  28.572  1.00  0.00     0.031 A 
ATOM     52  C   UNL A   1      41.506  26.309  27.402  1.00  0.00     0.031 A 
ATOM     53  C   UNL A   1      45.685  31.273  27.763  1.00  0.00     0.049 A 
ATOM     54  C   UNL A   1      42.844  26.565  26.771  1.00  0.00     0.074 A 
ATOM     55  C   UNL A   1      46.953  31.360  27.214  1.00  0.00     0.029 A 
ATOM     56  N   UNL A   1      45.165  30.047  27.376  1.00  0.00    -0.354 N 
ATOM     57  N   UNL A   1      43.634  27.602  26.912  1.00  0.00    -0.248 NA
ATOM     58  C   UNL A   1      43.376  25.521  25.883  1.00  0.00     0.031 C 
ATOM     59  C   UNL A   1      47.172  30.222  26.437  1.00  0.00     0.029 A 
ATOM     60  C   UNL A   1      46.072  29.389  26.562  1.00  0.00     0.049 A 
ATOM     61  H   UNL A   1      44.284  29.698  27.640  1.00  0.00     0.167 HD
ATOM     62  C   UNL A   1      44.764  27.325  26.153  1.00  0.00     0.074 A 
ATOM     63  C   UNL A   1      44.563  26.019  25.561  1.00  0.00     0.031 C 
ATOM     64  C   UNL A   1      45.867  28.090  25.972  1.00  0.00     0.031 A 
BRANCH  51  65
ATOM     65  C   UNL A   1      45.700  33.546  28.842  1.00  0.00    -0.014 A 
ATOM     66  C   UNL A   1      45.592  34.608  27.929  1.00  0.00     0.009 A 
ATOM     67  C   UNL A   1      46.573  33.676  29.934  1.00  0.00     0.009 A 
ATOM     68  C   UNL A   1      46.356  35.764  28.092  1.00  0.00     0.001 A 
ATOM     69  C   UNL A   1      47.317  34.845  30.109  1.00  0.00     0.001 A 
ATOM     70  C   UNL A   1      47.217  35.883  29.183  1.00  0.00     0.000 A 
ENDBRANCH  51  65
BRANCH  52  71
ATOM     71  C   UNL A   1      40.777  25.034  27.182  1.00  0.00    -0.014 A 
ATOM     72  C   UNL A   1      39.687  24.977  26.298  1.00  0.00     0.009 A 
ATOM     73  C   UNL A   1      41.124  23.883  27.905  1.00  0.00     0.009 A 
ATOM     74  C   UNL A   1      38.946  23.802  26.160  1.00  0.00     0.001 A 
ATOM     75  C   UNL A   1      40.398  22.701  27.743  1.00  0.00     0.001 A 
ATOM     76  C   UNL A   1      39.304  22.665  26.879  1.00  0.00     0.000 A 
ENDBRANCH  52  71
BRANCH  64  77
ATOM     77  C   UNL A   1      46.970  27.548  25.104  1.00  0.00    -0.014 A 
ATOM     78  C   UNL A   1      48.016  26.812  25.686  1.00  0.00     0.009 A 
ATOM     79  C   UNL A   1      47.043  27.869  23.741  1.00  0.00     0.009 A 
ATOM     80  C   UNL A   1      49.122  26.430  24.927  1.00  0.00     0.001 A 
ATOM     81  C   UNL A   1      48.140  27.461  22.977  1.00  0.00     0.001 A 
ATOM     82  C   UNL A   1      49.183  26.753  23.573  1.00  0.00     0.000 A 
ENDBRANCH  64  77
ENDBRANCH  38  39
ENDBRANCH  31  33
ENDBRANCH  30  31
ENDBRANCH  29  30
ENDBRANCH  28  29
ENDBRANCH  27  28
ENDBRANCH   1  27
TORSDOF 18
ENDMDL
