MODEL 1
REMARK VINA RESULT:     -10.1      0.000      0.000
REMARK SMILES Cc1cc(C)cc(C[N@@H+]2CCO[C@@H](CC(=O)OCCOCCOCCOC(=O)c3ccc(-c4c5nc(c(-c6ccccc6)c6ccc([nH]6)c(-c6ccccc6)c6nc(c(-c7ccccc7)c7ccc4[nH]7)C=C6)C=C5)cc3)C2)c1
REMARK SMILES IDX 21 1 20 2 19 3 18 4 17 5 15 6 16 7 14 8 13 9 9 10 10 11
REMARK SMILES IDX 77 12 11 14 12 15 8 16 7 17 1 18 2 19 3 20 78 21 4 22 5 23
REMARK SMILES IDX 6 24 22 25 23 26 24 27 25 28 26 29 27 30 28 31 29 32 30 33
REMARK SMILES IDX 76 34 31 35 75 36 32 37 33 38 34 39 69 40 35 41 74 42 68 43
REMARK SMILES IDX 70 44 36 45 73 46 67 47 66 48 37 50 59 51 44 52 58 53 45 54
REMARK SMILES IDX 48 55 57 56 71 57 46 58 47 59 56 61 72 62 49 63 38 64 39 65
REMARK SMILES IDX 43 66 40 67 42 68 41 69 60 70 61 71 65 72 62 73 64 74 63 75
REMARK SMILES IDX 50 76 51 77 55 78 52 79 54 80 53 81
REMARK H PARENT 9 13 70 49 48 60
REMARK Flexibility Score: inf
ROOT
ATOM      1  C   UNL A   1      42.612  19.582  26.178  1.00  0.00     0.188 C 
ENDROOT
BRANCH   1   2
ATOM      2  O   UNL A   1      41.312  19.791  25.640  1.00  0.00    -0.376 OA
BRANCH   2   3
ATOM      3  C   UNL A   1      40.292  20.275  26.513  1.00  0.00     0.202 C 
BRANCH   3   4
ATOM      4  C   UNL A   1      39.621  21.591  26.115  1.00  0.00     0.261 C 
BRANCH   4   5
ATOM      5  O   UNL A   1      38.305  21.396  25.553  1.00  0.00    -0.463 OA
BRANCH   5   6
ATOM      6  C   UNL A   1      37.478  22.452  25.720  1.00  0.00     0.308 C 
ATOM      7  O   UNL A   1      37.863  23.619  25.712  1.00  0.00    -0.252 OA
BRANCH   6   8
ATOM      8  C   UNL A   1      36.005  22.127  25.714  1.00  0.00     0.160 C 
BRANCH   8   9
ATOM      9  C   UNL A   1      34.889  22.937  25.039  1.00  0.00     0.184 C 
ATOM     10  N   UNL A   1      33.818  25.087  24.278  1.00  0.00    -0.327 N 
ATOM     11  C   UNL A   1      33.779  24.533  22.927  1.00  0.00     0.291 C 
ATOM     12  C   UNL A   1      34.900  24.480  25.078  1.00  0.00     0.295 C 
ATOM     13  H   UNL A   1      34.103  26.062  24.180  1.00  0.00     0.348 HD
ATOM     14  C   UNL A   1      33.865  23.000  22.879  1.00  0.00     0.222 C 
ATOM     15  O   UNL A   1      34.959  22.509  23.650  1.00  0.00    -0.366 OA
BRANCH  10  16
ATOM     16  C   UNL A   1      32.546  25.442  24.921  1.00  0.00     0.299 C 
BRANCH  16  17
ATOM     17  C   UNL A   1      31.971  26.850  24.831  1.00  0.00     0.007 A 
ATOM     18  C   UNL A   1      32.001  30.100  26.867  1.00  0.00     0.044 C 
ATOM     19  C   UNL A   1      31.690  29.089  25.805  1.00  0.00    -0.050 A 
ATOM     20  C   UNL A   1      31.024  29.514  24.653  1.00  0.00     0.006 A 
ATOM     21  C   UNL A   1      32.126  27.754  25.899  1.00  0.00     0.013 A 
ATOM     22  C   UNL A   1      30.914  28.665  23.556  1.00  0.00    -0.050 A 
ATOM     23  C   UNL A   1      30.195  29.117  22.320  1.00  0.00     0.044 C 
ATOM     24  C   UNL A   1      31.448  27.371  23.639  1.00  0.00     0.013 A 
ENDBRANCH  16  17
ENDBRANCH  10  16
ENDBRANCH   8   9
ENDBRANCH   6   8
ENDBRANCH   5   6
ENDBRANCH   4   5
ENDBRANCH   3   4
ENDBRANCH   2   3
ENDBRANCH   1   2
BRANCH   1  25
ATOM     25  C   UNL A   1      43.655  18.852  25.311  1.00  0.00     0.188 C 
BRANCH  25  26
ATOM     26  O   UNL A   1      44.984  19.335  25.418  1.00  0.00    -0.376 OA
BRANCH  26  27
ATOM     27  C   UNL A   1      45.287  20.474  24.616  1.00  0.00     0.202 C 
BRANCH  27  28
ATOM     28  C   UNL A   1      45.571  21.755  25.405  1.00  0.00     0.261 C 
BRANCH  28  29
ATOM     29  O   UNL A   1      44.359  22.256  26.004  1.00  0.00    -0.460 OA
BRANCH  29  30
ATOM     30  C   UNL A   1      43.581  23.083  25.286  1.00  0.00     0.338 C 
ATOM     31  O   UNL A   1      43.307  22.995  24.097  1.00  0.00    -0.246 OA
BRANCH  30  32
ATOM     32  C   UNL A   1      43.092  24.173  26.163  1.00  0.00     0.060 A 
ATOM     33  C   UNL A   1      43.537  25.494  26.017  1.00  0.00     0.016 A 
ATOM     34  C   UNL A   1      42.244  23.848  27.221  1.00  0.00     0.016 A 
ATOM     35  C   UNL A   1      43.176  26.478  26.933  1.00  0.00     0.010 A 
ATOM     36  C   UNL A   1      41.850  24.839  28.121  1.00  0.00     0.010 A 
ATOM     37  C   UNL A   1      42.335  26.154  27.999  1.00  0.00    -0.014 A 
BRANCH  37  38
ATOM     38  C   UNL A   1      42.017  27.152  29.043  1.00  0.00     0.031 A 
ATOM     39  C   UNL A   1      42.798  27.146  30.324  1.00  0.00     0.074 A 
ATOM     40  C   UNL A   1      41.027  28.044  28.859  1.00  0.00     0.049 A 
ATOM     41  N   UNL A   1      42.523  27.724  31.462  1.00  0.00    -0.248 NA
ATOM     42  C   UNL A   1      44.058  26.385  30.319  1.00  0.00     0.031 C 
ATOM     43  C   UNL A   1      40.265  28.226  27.624  1.00  0.00     0.029 A 
ATOM     44  N   UNL A   1      40.480  28.951  29.731  1.00  0.00    -0.354 N 
ATOM     45  C   UNL A   1      43.546  27.356  32.326  1.00  0.00     0.074 A 
ATOM     46  C   UNL A   1      44.458  26.519  31.576  1.00  0.00     0.031 C 
ATOM     47  C   UNL A   1      39.335  29.174  27.823  1.00  0.00     0.029 A 
ATOM     48  C   UNL A   1      39.386  29.602  29.217  1.00  0.00     0.049 A 
ATOM     49  H   UNL A   1      40.836  29.118  30.633  1.00  0.00     0.167 HD
ATOM     50  C   UNL A   1      43.695  27.674  33.634  1.00  0.00     0.031 A 
ATOM     51  C   UNL A   1      38.484  30.396  29.821  1.00  0.00     0.031 A 
ATOM     52  C   UNL A   1      42.782  28.510  34.365  1.00  0.00     0.049 A 
ATOM     53  C   UNL A   1      38.608  30.657  31.295  1.00  0.00     0.074 A 
ATOM     54  C   UNL A   1      42.826  28.879  35.698  1.00  0.00     0.029 A 
ATOM     55  N   UNL A   1      41.662  29.115  33.817  1.00  0.00    -0.354 N 
ATOM     56  N   UNL A   1      39.527  30.237  32.131  1.00  0.00    -0.248 NA
ATOM     57  C   UNL A   1      37.559  31.480  31.911  1.00  0.00     0.031 C 
ATOM     58  C   UNL A   1      41.707  29.676  35.966  1.00  0.00     0.029 A 
ATOM     59  C   UNL A   1      40.995  29.841  34.788  1.00  0.00     0.049 A 
ATOM     60  H   UNL A   1      41.382  29.040  32.876  1.00  0.00     0.167 HD
ATOM     61  C   UNL A   1      39.174  30.754  33.370  1.00  0.00     0.074 A 
ATOM     62  C   UNL A   1      37.965  31.529  33.173  1.00  0.00     0.031 C 
ATOM     63  C   UNL A   1      39.792  30.599  34.566  1.00  0.00     0.031 A 
BRANCH  50  64
ATOM     64  C   UNL A   1      44.852  27.063  34.368  1.00  0.00    -0.014 A 
ATOM     65  C   UNL A   1      46.087  27.717  34.468  1.00  0.00     0.009 A 
ATOM     66  C   UNL A   1      44.685  25.820  35.002  1.00  0.00     0.009 A 
ATOM     67  C   UNL A   1      47.142  27.128  35.171  1.00  0.00     0.001 A 
ATOM     68  C   UNL A   1      45.732  25.245  35.721  1.00  0.00     0.001 A 
ATOM     69  C   UNL A   1      46.962  25.896  35.801  1.00  0.00     0.000 A 
ENDBRANCH  50  64
BRANCH  51  70
ATOM     70  C   UNL A   1      37.335  30.929  29.043  1.00  0.00    -0.014 A 
ATOM     71  C   UNL A   1      36.286  30.087  28.649  1.00  0.00     0.009 A 
ATOM     72  C   UNL A   1      37.277  32.292  28.711  1.00  0.00     0.009 A 
ATOM     73  C   UNL A   1      35.203  30.601  27.931  1.00  0.00     0.001 A 
ATOM     74  C   UNL A   1      36.181  32.807  28.017  1.00  0.00     0.001 A 
ATOM     75  C   UNL A   1      35.147  31.960  27.623  1.00  0.00     0.000 A 
ENDBRANCH  51  70
BRANCH  63  76
ATOM     76  C   UNL A   1      39.186  31.308  35.741  1.00  0.00    -0.014 A 
ATOM     77  C   UNL A   1      39.605  32.596  36.104  1.00  0.00     0.009 A 
ATOM     78  C   UNL A   1      38.159  30.689  36.470  1.00  0.00     0.009 A 
ATOM     79  C   UNL A   1      39.024  33.241  37.197  1.00  0.00     0.001 A 
ATOM     80  C   UNL A   1      37.565  31.347  37.547  1.00  0.00     0.001 A 
ATOM     81  C   UNL A   1      38.003  32.618  37.915  1.00  0.00     0.000 A 
ENDBRANCH  63  76
ENDBRANCH  37  38
ENDBRANCH  30  32
ENDBRANCH  29  30
ENDBRANCH  28  29
ENDBRANCH  27  28
ENDBRANCH  26  27
ENDBRANCH  25  26
ENDBRANCH   1  25
TORSDOF 20
ENDMDL
MODEL 2
REMARK VINA RESULT:      -9.4      4.846     10.418
REMARK SMILES Cc1cc(C)cc(C[N@@H+]2CCO[C@@H](CC(=O)OCCOCCOCCOC(=O)c3ccc(-c4c5nc(c(-c6ccccc6)c6ccc([nH]6)c(-c6ccccc6)c6nc(c(-c7ccccc7)c7ccc4[nH]7)C=C6)C=C5)cc3)C2)c1
REMARK SMILES IDX 21 1 20 2 19 3 18 4 17 5 15 6 16 7 14 8 13 9 9 10 10 11
REMARK SMILES IDX 77 12 11 14 12 15 8 16 7 17 1 18 2 19 3 20 78 21 4 22 5 23
REMARK SMILES IDX 6 24 22 25 23 26 24 27 25 28 26 29 27 30 28 31 29 32 30 33
REMARK SMILES IDX 76 34 31 35 75 36 32 37 33 38 34 39 69 40 35 41 74 42 68 43
REMARK SMILES IDX 70 44 36 45 73 46 67 47 66 48 37 50 59 51 44 52 58 53 45 54
REMARK SMILES IDX 48 55 57 56 71 57 46 58 47 59 56 61 72 62 49 63 38 64 39 65
REMARK SMILES IDX 43 66 40 67 42 68 41 69 60 70 61 71 65 72 62 73 64 74 63 75
REMARK SMILES IDX 50 76 51 77 55 78 52 79 54 80 53 81
REMARK H PARENT 9 13 70 49 48 60
REMARK Flexibility Score: inf
ROOT
ATOM      1  C   UNL A   1      33.963  34.232  28.333  1.00  0.00     0.188 C 
ENDROOT
BRANCH   1   2
ATOM      2  O   UNL A   1      34.695  33.020  28.471  1.00  0.00    -0.376 OA
BRANCH   2   3
ATOM      3  C   UNL A   1      33.975  31.789  28.414  1.00  0.00     0.202 C 
BRANCH   3   4
ATOM      4  C   UNL A   1      33.172  31.526  27.139  1.00  0.00     0.261 C 
BRANCH   4   5
ATOM      5  O   UNL A   1      32.318  30.366  27.250  1.00  0.00    -0.463 OA
BRANCH   5   6
ATOM      6  C   UNL A   1      32.339  29.566  26.161  1.00  0.00     0.308 C 
ATOM      7  O   UNL A   1      32.933  29.853  25.124  1.00  0.00    -0.252 OA
BRANCH   6   8
ATOM      8  C   UNL A   1      31.754  28.190  26.357  1.00  0.00     0.160 C 
BRANCH   8   9
ATOM      9  C   UNL A   1      32.341  26.863  25.855  1.00  0.00     0.184 C 
ATOM     10  N   UNL A   1      32.419  24.349  25.717  1.00  0.00    -0.327 N 
ATOM     11  C   UNL A   1      32.320  24.472  24.265  1.00  0.00     0.291 C 
ATOM     12  C   UNL A   1      31.825  25.515  26.400  1.00  0.00     0.295 C 
ATOM     13  H   UNL A   1      31.810  23.574  25.981  1.00  0.00     0.348 HD
ATOM     14  C   UNL A   1      32.741  25.848  23.727  1.00  0.00     0.222 C 
ATOM     15  O   UNL A   1      32.091  26.909  24.422  1.00  0.00    -0.366 OA
BRANCH  10  16
ATOM     16  C   UNL A   1      33.614  23.705  26.280  1.00  0.00     0.299 C 
BRANCH  16  17
ATOM     17  C   UNL A   1      34.068  22.325  25.819  1.00  0.00     0.007 A 
ATOM     18  C   UNL A   1      32.501  19.051  24.581  1.00  0.00     0.044 C 
ATOM     19  C   UNL A   1      33.509  20.065  25.032  1.00  0.00    -0.050 A 
ATOM     20  C   UNL A   1      34.865  19.787  24.846  1.00  0.00     0.006 A 
ATOM     21  C   UNL A   1      33.124  21.317  25.548  1.00  0.00     0.013 A 
ATOM     22  C   UNL A   1      35.817  20.784  25.041  1.00  0.00    -0.050 A 
ATOM     23  C   UNL A   1      37.274  20.486  24.848  1.00  0.00     0.044 C 
ATOM     24  C   UNL A   1      35.396  22.055  25.460  1.00  0.00     0.013 A 
ENDBRANCH  16  17
ENDBRANCH  10  16
ENDBRANCH   8   9
ENDBRANCH   6   8
ENDBRANCH   5   6
ENDBRANCH   4   5
ENDBRANCH   3   4
ENDBRANCH   2   3
ENDBRANCH   1   2
BRANCH   1  25
ATOM     25  C   UNL A   1      33.176  34.755  29.549  1.00  0.00     0.188 C 
BRANCH  25  26
ATOM     26  O   UNL A   1      33.884  35.643  30.399  1.00  0.00    -0.376 OA
BRANCH  26  27
ATOM     27  C   UNL A   1      34.051  35.200  31.744  1.00  0.00     0.202 C 
BRANCH  27  28
ATOM     28  C   UNL A   1      35.505  34.980  32.168  1.00  0.00     0.261 C 
BRANCH  28  29
ATOM     29  O   UNL A   1      35.661  33.681  32.775  1.00  0.00    -0.460 OA
BRANCH  29  30
ATOM     30  C   UNL A   1      35.500  32.589  32.008  1.00  0.00     0.338 C 
ATOM     31  O   UNL A   1      34.453  32.008  31.759  1.00  0.00    -0.246 OA
BRANCH  30  32
ATOM     32  C   UNL A   1      36.822  32.159  31.495  1.00  0.00     0.060 A 
ATOM     33  C   UNL A   1      37.205  32.380  30.165  1.00  0.00     0.016 A 
ATOM     34  C   UNL A   1      37.659  31.429  32.337  1.00  0.00     0.016 A 
ATOM     35  C   UNL A   1      38.390  31.849  29.662  1.00  0.00     0.010 A 
ATOM     36  C   UNL A   1      38.865  30.925  31.847  1.00  0.00     0.010 A 
ATOM     37  C   UNL A   1      39.226  31.109  30.500  1.00  0.00    -0.014 A 
BRANCH  37  38
ATOM     38  C   UNL A   1      40.437  30.448  29.969  1.00  0.00     0.031 A 
ATOM     39  C   UNL A   1      41.714  31.230  29.869  1.00  0.00     0.074 A 
ATOM     40  C   UNL A   1      40.396  29.167  29.563  1.00  0.00     0.049 A 
ATOM     41  N   UNL A   1      42.800  30.957  29.197  1.00  0.00    -0.248 NA
ATOM     42  C   UNL A   1      41.772  32.489  30.630  1.00  0.00     0.031 C 
ATOM     43  C   UNL A   1      39.252  28.266  29.704  1.00  0.00     0.029 A 
ATOM     44  N   UNL A   1      41.345  28.411  28.922  1.00  0.00    -0.354 N 
ATOM     45  C   UNL A   1      43.652  32.033  29.409  1.00  0.00     0.074 A 
ATOM     46  C   UNL A   1      42.965  32.956  30.286  1.00  0.00     0.031 C 
ATOM     47  C   UNL A   1      39.559  27.082  29.150  1.00  0.00     0.029 A 
ATOM     48  C   UNL A   1      40.885  27.173  28.546  1.00  0.00     0.049 A 
ATOM     49  H   UNL A   1      42.261  28.724  28.751  1.00  0.00     0.167 HD
ATOM     50  C   UNL A   1      44.888  32.237  28.896  1.00  0.00     0.031 A 
ATOM     51  C   UNL A   1      41.439  26.247  27.743  1.00  0.00     0.031 A 
ATOM     52  C   UNL A   1      45.560  31.309  28.027  1.00  0.00     0.049 A 
ATOM     53  C   UNL A   1      42.767  26.534  27.102  1.00  0.00     0.074 A 
ATOM     54  C   UNL A   1      46.804  31.425  27.433  1.00  0.00     0.029 A 
ATOM     55  N   UNL A   1      45.040  30.085  27.635  1.00  0.00    -0.354 N 
ATOM     56  N   UNL A   1      43.534  27.589  27.233  1.00  0.00    -0.248 NA
ATOM     57  C   UNL A   1      43.294  25.512  26.187  1.00  0.00     0.031 C 
ATOM     58  C   UNL A   1      47.020  30.286  26.648  1.00  0.00     0.029 A 
ATOM     59  C   UNL A   1      45.930  29.442  26.793  1.00  0.00     0.049 A 
ATOM     60  H   UNL A   1      44.167  29.726  27.914  1.00  0.00     0.167 HD
ATOM     61  C   UNL A   1      44.639  27.355  26.426  1.00  0.00     0.074 A 
ATOM     62  C   UNL A   1      44.448  26.051  25.821  1.00  0.00     0.031 C 
ATOM     63  C   UNL A   1      45.714  28.149  26.201  1.00  0.00     0.031 A 
BRANCH  50  64
ATOM     64  C   UNL A   1      45.563  33.539  29.211  1.00  0.00    -0.014 A 
ATOM     65  C   UNL A   1      46.719  33.595  30.003  1.00  0.00     0.009 A 
ATOM     66  C   UNL A   1      45.047  34.729  28.673  1.00  0.00     0.009 A 
ATOM     67  C   UNL A   1      47.332  34.822  30.269  1.00  0.00     0.001 A 
ATOM     68  C   UNL A   1      45.674  35.950  28.921  1.00  0.00     0.001 A 
ATOM     69  C   UNL A   1      46.813  35.997  29.724  1.00  0.00     0.000 A 
ENDBRANCH  50  64
BRANCH  51  70
ATOM     70  C   UNL A   1      40.693  24.999  27.435  1.00  0.00    -0.014 A 
ATOM     71  C   UNL A   1      39.559  25.029  26.612  1.00  0.00     0.009 A 
ATOM     72  C   UNL A   1      41.131  23.767  27.948  1.00  0.00     0.009 A 
ATOM     73  C   UNL A   1      38.873  23.848  26.315  1.00  0.00     0.001 A 
ATOM     74  C   UNL A   1      40.459  22.587  27.628  1.00  0.00     0.001 A 
ATOM     75  C   UNL A   1      39.328  22.629  26.815  1.00  0.00     0.000 A 
ENDBRANCH  51  70
BRANCH  63  76
ATOM     76  C   UNL A   1      46.776  27.611  25.289  1.00  0.00    -0.014 A 
ATOM     77  C   UNL A   1      46.866  28.032  23.954  1.00  0.00     0.009 A 
ATOM     78  C   UNL A   1      47.718  26.697  25.784  1.00  0.00     0.009 A 
ATOM     79  C   UNL A   1      47.866  27.524  23.123  1.00  0.00     0.001 A 
ATOM     80  C   UNL A   1      48.730  26.208  24.957  1.00  0.00     0.001 A 
ATOM     81  C   UNL A   1      48.798  26.616  23.626  1.00  0.00     0.000 A 
ENDBRANCH  63  76
ENDBRANCH  37  38
ENDBRANCH  30  32
ENDBRANCH  29  30
ENDBRANCH  28  29
ENDBRANCH  27  28
ENDBRANCH  26  27
ENDBRANCH  25  26
ENDBRANCH   1  25
TORSDOF 20
ENDMDL
MODEL 3
REMARK VINA RESULT:      -9.3      8.683     14.703
REMARK SMILES Cc1cc(C)cc(C[N@@H+]2CCO[C@@H](CC(=O)OCCOCCOCCOC(=O)c3ccc(-c4c5nc(c(-c6ccccc6)c6ccc([nH]6)c(-c6ccccc6)c6nc(c(-c7ccccc7)c7ccc4[nH]7)C=C6)C=C5)cc3)C2)c1
REMARK SMILES IDX 21 1 20 2 19 3 18 4 17 5 15 6 16 7 14 8 13 9 9 10 10 11
REMARK SMILES IDX 77 12 11 14 12 15 8 16 7 17 1 18 2 19 3 20 78 21 4 22 5 23
REMARK SMILES IDX 6 24 22 25 23 26 24 27 25 28 26 29 27 30 28 31 29 32 30 33
REMARK SMILES IDX 76 34 31 35 75 36 32 37 33 38 34 39 69 40 35 41 74 42 68 43
REMARK SMILES IDX 70 44 36 45 73 46 67 47 66 48 37 50 59 51 44 52 58 53 45 54
REMARK SMILES IDX 48 55 57 56 71 57 46 58 47 59 56 61 72 62 49 63 38 64 39 65
REMARK SMILES IDX 43 66 40 67 42 68 41 69 60 70 61 71 65 72 62 73 64 74 63 75
REMARK SMILES IDX 50 76 51 77 55 78 52 79 54 80 53 81
REMARK H PARENT 9 13 70 49 48 60
REMARK Flexibility Score: inf
ROOT
ATOM      1  C   UNL A   1      47.686  19.154  39.865  1.00  0.00     0.188 C 
ENDROOT
BRANCH   1   2
ATOM      2  O   UNL A   1      47.443  19.541  41.213  1.00  0.00    -0.376 OA
BRANCH   2   3
ATOM      3  C   UNL A   1      46.470  18.809  41.958  1.00  0.00     0.202 C 
BRANCH   3   4
ATOM      4  C   UNL A   1      46.340  17.320  41.633  1.00  0.00     0.261 C 
BRANCH   4   5
ATOM      5  O   UNL A   1      45.329  16.664  42.430  1.00  0.00    -0.463 OA
BRANCH   5   6
ATOM      6  C   UNL A   1      44.130  16.563  41.817  1.00  0.00     0.308 C 
ATOM      7  O   UNL A   1      43.934  16.913  40.655  1.00  0.00    -0.252 OA
BRANCH   6   8
ATOM      8  C   UNL A   1      43.076  15.799  42.578  1.00  0.00     0.160 C 
BRANCH   8   9
ATOM      9  C   UNL A   1      42.584  14.374  42.285  1.00  0.00     0.184 C 
ATOM     10  N   UNL A   1      41.160  12.348  42.747  1.00  0.00    -0.327 N 
ATOM     11  C   UNL A   1      40.661  12.445  41.378  1.00  0.00     0.291 C 
ATOM     12  C   UNL A   1      41.615  13.659  43.250  1.00  0.00     0.295 C 
ATOM     13  H   UNL A   1      40.352  12.129  43.331  1.00  0.00     0.348 HD
ATOM     14  C   UNL A   1      41.578  13.240  40.436  1.00  0.00     0.222 C 
ATOM     15  O   UNL A   1      41.936  14.504  40.989  1.00  0.00    -0.366 OA
BRANCH  10  16
ATOM     16  C   UNL A   1      41.875  11.127  43.142  1.00  0.00     0.299 C 
BRANCH  16  17
ATOM     17  C   UNL A   1      43.055  11.169  44.106  1.00  0.00     0.007 A 
ATOM     18  C   UNL A   1      46.781  10.261  44.125  1.00  0.00     0.044 C 
ATOM     19  C   UNL A   1      45.423  10.710  44.575  1.00  0.00    -0.050 A 
ATOM     20  C   UNL A   1      45.304  11.333  45.819  1.00  0.00     0.006 A 
ATOM     21  C   UNL A   1      44.292  10.603  43.745  1.00  0.00     0.013 A 
ATOM     22  C   UNL A   1      44.115  11.961  46.176  1.00  0.00    -0.050 A 
ATOM     23  C   UNL A   1      43.982  12.626  47.514  1.00  0.00     0.044 C 
ATOM     24  C   UNL A   1      43.032  11.926  45.286  1.00  0.00     0.013 A 
ENDBRANCH  16  17
ENDBRANCH  10  16
ENDBRANCH   8   9
ENDBRANCH   6   8
ENDBRANCH   5   6
ENDBRANCH   4   5
ENDBRANCH   3   4
ENDBRANCH   2   3
ENDBRANCH   1   2
BRANCH   1  25
ATOM     25  C   UNL A   1      47.799  20.257  38.796  1.00  0.00     0.188 C 
BRANCH  25  26
ATOM     26  O   UNL A   1      47.103  21.459  39.082  1.00  0.00    -0.376 OA
BRANCH  26  27
ATOM     27  C   UNL A   1      46.020  21.761  38.205  1.00  0.00     0.202 C 
BRANCH  27  28
ATOM     28  C   UNL A   1      46.341  22.801  37.128  1.00  0.00     0.261 C 
BRANCH  28  29
ATOM     29  O   UNL A   1      45.149  23.520  36.751  1.00  0.00    -0.460 OA
BRANCH  29  30
ATOM     30  C   UNL A   1      44.961  24.756  37.242  1.00  0.00     0.338 C 
ATOM     31  O   UNL A   1      45.273  25.166  38.351  1.00  0.00    -0.246 OA
BRANCH  30  32
ATOM     32  C   UNL A   1      44.282  25.586  36.220  1.00  0.00     0.060 A 
ATOM     33  C   UNL A   1      44.900  26.707  35.649  1.00  0.00     0.016 A 
ATOM     34  C   UNL A   1      42.958  25.294  35.896  1.00  0.00     0.016 A 
ATOM     35  C   UNL A   1      44.200  27.555  34.795  1.00  0.00     0.010 A 
ATOM     36  C   UNL A   1      42.263  26.122  35.012  1.00  0.00     0.010 A 
ATOM     37  C   UNL A   1      42.871  27.272  34.477  1.00  0.00    -0.014 A 
BRANCH  37  38
ATOM     38  C   UNL A   1      42.073  28.207  33.656  1.00  0.00     0.031 A 
ATOM     39  C   UNL A   1      41.258  29.267  34.336  1.00  0.00     0.074 A 
ATOM     40  C   UNL A   1      42.059  28.101  32.315  1.00  0.00     0.049 A 
ATOM     41  N   UNL A   1      40.289  30.000  33.856  1.00  0.00    -0.248 NA
ATOM     42  C   UNL A   1      41.580  29.535  35.748  1.00  0.00     0.031 C 
ATOM     43  C   UNL A   1      42.886  27.187  31.526  1.00  0.00     0.029 A 
ATOM     44  N   UNL A   1      41.298  28.759  31.383  1.00  0.00    -0.354 N 
ATOM     45  C   UNL A   1      39.849  30.780  34.918  1.00  0.00     0.074 A 
ATOM     46  C   UNL A   1      40.667  30.443  36.063  1.00  0.00     0.031 C 
ATOM     47  C   UNL A   1      42.573  27.330  30.228  1.00  0.00     0.029 A 
ATOM     48  C   UNL A   1      41.473  28.282  30.108  1.00  0.00     0.049 A 
ATOM     49  H   UNL A   1      40.689  29.499  31.606  1.00  0.00     0.167 HD
ATOM     50  C   UNL A   1      38.837  31.678  34.934  1.00  0.00     0.031 A 
ATOM     51  C   UNL A   1      40.776  28.528  28.984  1.00  0.00     0.031 A 
ATOM     52  C   UNL A   1      38.034  32.005  33.787  1.00  0.00     0.049 A 
ATOM     53  C   UNL A   1      39.594  29.452  29.043  1.00  0.00     0.074 A 
ATOM     54  C   UNL A   1      36.970  32.885  33.698  1.00  0.00     0.029 A 
ATOM     55  N   UNL A   1      38.217  31.465  32.523  1.00  0.00    -0.354 N 
ATOM     56  N   UNL A   1      39.122  30.122  30.067  1.00  0.00    -0.248 NA
ATOM     57  C   UNL A   1      38.834  29.634  27.799  1.00  0.00     0.031 C 
ATOM     58  C   UNL A   1      36.483  32.847  32.386  1.00  0.00     0.029 A 
ATOM     59  C   UNL A   1      37.275  31.980  31.650  1.00  0.00     0.049 A 
ATOM     60  H   UNL A   1      38.914  30.813  32.282  1.00  0.00     0.167 HD
ATOM     61  C   UNL A   1      38.019  30.814  29.589  1.00  0.00     0.074 A 
ATOM     62  C   UNL A   1      37.899  30.493  28.180  1.00  0.00     0.031 C 
ATOM     63  C   UNL A   1      37.175  31.639  30.255  1.00  0.00     0.031 A 
BRANCH  50  64
ATOM     64  C   UNL A   1      38.503  32.322  36.248  1.00  0.00    -0.014 A 
ATOM     65  C   UNL A   1      38.865  33.647  36.531  1.00  0.00     0.009 A 
ATOM     66  C   UNL A   1      37.779  31.594  37.207  1.00  0.00     0.009 A 
ATOM     67  C   UNL A   1      38.528  34.222  37.759  1.00  0.00     0.001 A 
ATOM     68  C   UNL A   1      37.424  32.178  38.422  1.00  0.00     0.001 A 
ATOM     69  C   UNL A   1      37.804  33.490  38.701  1.00  0.00     0.000 A 
ENDBRANCH  50  64
BRANCH  51  70
ATOM     70  C   UNL A   1      41.132  27.819  27.727  1.00  0.00    -0.014 A 
ATOM     71  C   UNL A   1      42.112  28.335  26.868  1.00  0.00     0.009 A 
ATOM     72  C   UNL A   1      40.506  26.606  27.396  1.00  0.00     0.009 A 
ATOM     73  C   UNL A   1      42.451  27.653  25.696  1.00  0.00     0.001 A 
ATOM     74  C   UNL A   1      40.865  25.914  26.239  1.00  0.00     0.001 A 
ATOM     75  C   UNL A   1      41.835  26.440  25.388  1.00  0.00     0.000 A 
ENDBRANCH  51  70
BRANCH  63  76
ATOM     76  C   UNL A   1      36.074  32.273  29.458  1.00  0.00    -0.014 A 
ATOM     77  C   UNL A   1      34.909  31.561  29.138  1.00  0.00     0.009 A 
ATOM     78  C   UNL A   1      36.193  33.612  29.053  1.00  0.00     0.009 A 
ATOM     79  C   UNL A   1      33.893  32.171  28.401  1.00  0.00     0.001 A 
ATOM     80  C   UNL A   1      35.165  34.225  28.336  1.00  0.00     0.001 A 
ATOM     81  C   UNL A   1      34.021  33.502  28.004  1.00  0.00     0.000 A 
ENDBRANCH  63  76
ENDBRANCH  37  38
ENDBRANCH  30  32
ENDBRANCH  29  30
ENDBRANCH  28  29
ENDBRANCH  27  28
ENDBRANCH  26  27
ENDBRANCH  25  26
ENDBRANCH   1  25
TORSDOF 20
ENDMDL
