MODEL 1
REMARK VINA RESULT:     -11.6      0.000      0.000
REMARK SMILES O=C(OCCOCCOCCOC(=O)[C@H]1CC2=c3ccccc3=N[C@H]2[C@@H](c2ccccc2)[NH2+]1)c1ccc(-c2c3nc(c(-c4ccccc4)c4ccc([nH]4)c(-c4ccccc4)c4nc(c(-c5ccccc5)c5ccc2[nH]5)C=C4)C=C3)cc1
REMARK SMILES IDX 7 1 6 2 5 3 4 4 3 5 2 6 1 7 34 8 35 9 81 10 36 11 80 12
REMARK SMILES IDX 37 13 38 14 39 15 74 16 40 17 79 18 73 19 75 20 41 21 78 22
REMARK SMILES IDX 72 23 71 24 42 26 64 27 49 28 63 29 50 30 53 31 62 32 76 33
REMARK SMILES IDX 51 34 52 35 61 37 77 38 54 39 43 40 44 41 48 42 45 43 47 44
REMARK SMILES IDX 46 45 65 46 66 47 70 48 67 49 69 50 68 51 55 52 56 53 60 54
REMARK SMILES IDX 57 55 59 56 58 57 8 58 9 59 10 60 11 61 12 62 13 63 14 64
REMARK SMILES IDX 15 65 16 66 33 67 17 68 26 69 18 72 25 73 19 74 23 75 24 76
REMARK SMILES IDX 20 77 22 78 21 79 27 80 28 81 32 82 29 83 31 84 30 85
REMARK H PARENT 75 25 53 36 33 70 33 71
REMARK Flexibility Score: inf
ROOT
ATOM      1  C   UNL A   1      32.349  30.831  26.458  1.00  0.00     0.188 C 
ENDROOT
BRANCH   1   2
ATOM      2  O   UNL A   1      31.668  32.013  26.858  1.00  0.00    -0.376 OA
BRANCH   2   3
ATOM      3  C   UNL A   1      32.390  33.063  27.496  1.00  0.00     0.202 C 
BRANCH   3   4
ATOM      4  C   UNL A   1      33.862  32.838  27.852  1.00  0.00     0.261 C 
BRANCH   4   5
ATOM      5  O   UNL A   1      34.373  33.572  28.978  1.00  0.00    -0.460 OA
BRANCH   5   6
ATOM      6  C   UNL A   1      34.786  33.189  30.194  1.00  0.00     0.338 C 
ATOM      7  O   UNL A   1      34.240  33.653  31.193  1.00  0.00    -0.246 OA
BRANCH   6   8
ATOM      8  C   UNL A   1      35.955  32.322  30.444  1.00  0.00     0.060 A 
ATOM      9  C   UNL A   1      37.109  32.286  29.057  1.00  0.00     0.016 A 
ATOM     10  C   UNL A   1      35.985  31.097  31.732  1.00  0.00     0.016 A 
ATOM     11  C   UNL A   1      38.361  31.025  28.847  1.00  0.00     0.010 A 
ATOM     12  C   UNL A   1      37.211  29.766  31.659  1.00  0.00     0.010 A 
ATOM     13  C   UNL A   1      38.542  29.718  30.124  1.00  0.00    -0.014 A 
BRANCH  13  14
ATOM     14  C   UNL A   1      39.975  29.095  29.806  1.00  0.00     0.031 A 
ATOM     15  C   UNL A   1      41.239  29.892  29.766  1.00  0.00     0.074 A 
ATOM     16  C   UNL A   1      40.078  27.797  29.444  1.00  0.00     0.049 A 
ATOM     17  N   UNL A   1      42.127  29.990  28.814  1.00  0.00    -0.248 NA
ATOM     18  C   UNL A   1      41.499  30.733  30.926  1.00  0.00     0.031 C 
ATOM     19  C   UNL A   1      39.045  26.764  29.553  1.00  0.00     0.029 A 
ATOM     20  N   UNL A   1      41.120  27.144  28.835  1.00  0.00    -0.354 N 
ATOM     21  C   UNL A   1      42.901  31.108  29.146  1.00  0.00     0.074 A 
ATOM     22  C   UNL A   1      42.455  31.526  30.449  1.00  0.00     0.031 C 
ATOM     23  C   UNL A   1      39.491  25.622  29.026  1.00  0.00     0.029 A 
ATOM     24  C   UNL A   1      40.800  25.865  28.452  1.00  0.00     0.049 A 
ATOM     25  H   UNL A   1      42.005  27.550  28.688  1.00  0.00     0.167 HD
ATOM     26  C   UNL A   1      43.858  31.684  28.372  1.00  0.00     0.031 A 
ATOM     27  C   UNL A   1      41.467  24.993  27.678  1.00  0.00     0.031 A 
ATOM     28  C   UNL A   1      44.597  30.835  27.461  1.00  0.00     0.049 A 
ATOM     29  C   UNL A   1      42.786  25.432  27.137  1.00  0.00     0.074 A 
ATOM     30  C   UNL A   1      45.813  31.083  26.849  1.00  0.00     0.029 A 
ATOM     31  N   UNL A   1      44.284  29.505  27.212  1.00  0.00    -0.354 N 
ATOM     32  N   UNL A   1      43.299  26.641  27.144  1.00  0.00    -0.248 NA
ATOM     33  C   UNL A   1      43.639  24.410  26.528  1.00  0.00     0.031 C 
ATOM     34  C   UNL A   1      46.254  29.895  26.279  1.00  0.00     0.029 A 
ATOM     35  C   UNL A   1      45.343  28.892  26.582  1.00  0.00     0.049 A 
ATOM     36  H   UNL A   1      43.435  29.068  27.451  1.00  0.00     0.167 HD
ATOM     37  C   UNL A   1      44.553  26.521  26.569  1.00  0.00     0.074 A 
ATOM     38  C   UNL A   1      44.725  25.119  26.239  1.00  0.00     0.031 C 
ATOM     39  C   UNL A   1      45.473  27.482  26.323  1.00  0.00     0.031 A 
BRANCH  26  40
ATOM     40  C   UNL A   1      44.335  33.129  28.508  1.00  0.00    -0.014 A 
ATOM     41  C   UNL A   1      45.285  33.426  29.519  1.00  0.00     0.009 A 
ATOM     42  C   UNL A   1      43.814  34.222  27.810  1.00  0.00     0.009 A 
ATOM     43  C   UNL A   1      45.624  34.741  29.865  1.00  0.00     0.001 A 
ATOM     44  C   UNL A   1      44.225  35.536  28.087  1.00  0.00     0.001 A 
ATOM     45  C   UNL A   1      45.102  35.798  29.135  1.00  0.00     0.000 A 
ENDBRANCH  26  40
BRANCH  27  46
ATOM     46  C   UNL A   1      40.908  23.621  27.566  1.00  0.00    -0.014 A 
ATOM     47  C   UNL A   1      41.543  22.523  28.176  1.00  0.00     0.009 A 
ATOM     48  C   UNL A   1      39.929  23.383  26.591  1.00  0.00     0.009 A 
ATOM     49  C   UNL A   1      41.259  21.220  27.753  1.00  0.00     0.001 A 
ATOM     50  C   UNL A   1      39.629  22.079  26.193  1.00  0.00     0.001 A 
ATOM     51  C   UNL A   1      40.311  21.002  26.754  1.00  0.00     0.000 A 
ENDBRANCH  27  46
BRANCH  39  52
ATOM     52  C   UNL A   1      46.761  27.084  25.675  1.00  0.00    -0.014 A 
ATOM     53  C   UNL A   1      47.866  26.750  26.477  1.00  0.00     0.009 A 
ATOM     54  C   UNL A   1      46.940  27.346  24.311  1.00  0.00     0.009 A 
ATOM     55  C   UNL A   1      49.147  26.763  25.931  1.00  0.00     0.001 A 
ATOM     56  C   UNL A   1      48.221  27.327  23.765  1.00  0.00     0.001 A 
ATOM     57  C   UNL A   1      49.323  27.061  24.579  1.00  0.00     0.000 A 
ENDBRANCH  39  52
ENDBRANCH  13  14
ENDBRANCH   6   8
ENDBRANCH   5   6
ENDBRANCH   4   5
ENDBRANCH   3   4
ENDBRANCH   2   3
ENDBRANCH   1   2
BRANCH   1  58
ATOM     58  C   UNL A   1      31.727  29.543  26.991  1.00  0.00     0.188 C 
BRANCH  58  59
ATOM     59  O   UNL A   1      31.720  28.386  26.181  1.00  0.00    -0.376 OA
BRANCH  59  60
ATOM     60  C   UNL A   1      32.723  27.392  26.302  1.00  0.00     0.202 C 
BRANCH  60  61
ATOM     61  C   UNL A   1      34.016  27.471  25.481  1.00  0.00     0.261 C 
BRANCH  61  62
ATOM     62  O   UNL A   1      34.018  26.883  24.178  1.00  0.00    -0.459 OA
BRANCH  62  63
ATOM     63  C   UNL A   1      33.971  27.772  23.148  1.00  0.00     0.365 C 
ATOM     64  O   UNL A   1      34.708  28.744  23.027  1.00  0.00    -0.245 OA
BRANCH  63  65
ATOM     65  C   UNL A   1      32.698  27.571  22.319  1.00  0.00     0.298 C 
ATOM     66  C   UNL A   1      32.300  26.090  22.037  1.00  0.00     0.111 C 
ATOM     67  N   UNL A   1      31.691  28.435  22.973  1.00  0.00    -0.326 N 
ATOM     68  C   UNL A   1      31.210  25.616  22.935  1.00  0.00    -0.024 C 
ATOM     69  C   UNL A   1      30.317  27.998  22.755  1.00  0.00     0.243 C 
ATOM     70  H   UNL A   1      31.791  29.382  22.607  1.00  0.00     0.347 HD
ATOM     71  H   UNL A   1      31.864  28.389  23.978  1.00  0.00     0.347 HD
ATOM     72  C   UNL A   1      31.104  24.508  23.649  1.00  0.00     0.002 A 
ATOM     73  C   UNL A   1      30.059  26.558  23.264  1.00  0.00     0.196 C 
ATOM     74  C   UNL A   1      32.034  22.965  23.989  1.00  0.00     0.010 A 
ATOM     75  C   UNL A   1      29.994  25.122  24.987  1.00  0.00     0.066 A 
ATOM     76  N   UNL A   1      29.623  26.342  24.710  1.00  0.00    -0.270 NA
ATOM     77  C   UNL A   1      31.754  22.067  25.600  1.00  0.00     0.001 A 
ATOM     78  C   UNL A   1      29.811  24.117  26.595  1.00  0.00     0.028 A 
ATOM     79  C   UNL A   1      30.564  22.819  26.880  1.00  0.00     0.002 A 
BRANCH  69  80
ATOM     80  C   UNL A   1      29.396  29.121  23.178  1.00  0.00     0.012 A 
ATOM     81  C   UNL A   1      29.860  30.321  23.723  1.00  0.00     0.010 A 
ATOM     82  C   UNL A   1      28.029  29.012  22.859  1.00  0.00     0.010 A 
ATOM     83  C   UNL A   1      28.989  31.391  23.929  1.00  0.00     0.001 A 
ATOM     84  C   UNL A   1      27.159  30.081  23.062  1.00  0.00     0.001 A 
ATOM     85  C   UNL A   1      27.644  31.274  23.587  1.00  0.00     0.000 A 
ENDBRANCH  69  80
ENDBRANCH  63  65
ENDBRANCH  62  63
ENDBRANCH  61  62
ENDBRANCH  60  61
ENDBRANCH  59  60
ENDBRANCH  58  59
ENDBRANCH   1  58
TORSDOF 18
ENDMDL
MODEL 2
REMARK VINA RESULT:     -11.2      1.821      4.432
REMARK SMILES O=C(OCCOCCOCCOC(=O)[C@H]1CC2=c3ccccc3=N[C@H]2[C@@H](c2ccccc2)[NH2+]1)c1ccc(-c2c3nc(c(-c4ccccc4)c4ccc([nH]4)c(-c4ccccc4)c4nc(c(-c5ccccc5)c5ccc2[nH]5)C=C4)C=C3)cc1
REMARK SMILES IDX 7 1 6 2 5 3 4 4 3 5 2 6 1 7 34 8 35 9 81 10 36 11 80 12
REMARK SMILES IDX 37 13 38 14 39 15 74 16 40 17 79 18 73 19 75 20 41 21 78 22
REMARK SMILES IDX 72 23 71 24 42 26 64 27 49 28 63 29 50 30 53 31 62 32 76 33
REMARK SMILES IDX 51 34 52 35 61 37 77 38 54 39 43 40 44 41 48 42 45 43 47 44
REMARK SMILES IDX 46 45 65 46 66 47 70 48 67 49 69 50 68 51 55 52 56 53 60 54
REMARK SMILES IDX 57 55 59 56 58 57 8 58 9 59 10 60 11 61 12 62 13 63 14 64
REMARK SMILES IDX 15 65 16 66 33 67 17 68 26 69 18 72 25 73 19 74 23 75 24 76
REMARK SMILES IDX 20 77 22 78 21 79 27 80 28 81 32 82 29 83 31 84 30 85
REMARK H PARENT 75 25 53 36 33 70 33 71
REMARK Flexibility Score: inf
ROOT
ATOM      1  C   UNL A   1      31.997  28.543  25.933  1.00  0.00     0.188 C 
ENDROOT
BRANCH   1   2
ATOM      2  O   UNL A   1      31.417  29.833  26.072  1.00  0.00    -0.376 OA
BRANCH   2   3
ATOM      3  C   UNL A   1      32.125  30.856  26.766  1.00  0.00     0.202 C 
BRANCH   3   4
ATOM      4  C   UNL A   1      33.558  30.579  27.229  1.00  0.00     0.261 C 
BRANCH   4   5
ATOM      5  O   UNL A   1      34.280  31.688  27.792  1.00  0.00    -0.460 OA
BRANCH   5   6
ATOM      6  C   UNL A   1      34.927  31.847  28.955  1.00  0.00     0.338 C 
ATOM      7  O   UNL A   1      34.547  32.708  29.747  1.00  0.00    -0.246 OA
BRANCH   6   8
ATOM      8  C   UNL A   1      36.167  31.135  29.325  1.00  0.00     0.060 A 
ATOM      9  C   UNL A   1      37.324  30.984  27.949  1.00  0.00     0.016 A 
ATOM     10  C   UNL A   1      36.300  30.134  30.788  1.00  0.00     0.016 A 
ATOM     11  C   UNL A   1      38.683  29.821  27.925  1.00  0.00     0.010 A 
ATOM     12  C   UNL A   1      37.638  28.920  30.911  1.00  0.00     0.010 A 
ATOM     13  C   UNL A   1      38.974  28.750  29.388  1.00  0.00    -0.014 A 
BRANCH  13  14
ATOM     14  C   UNL A   1      40.458  28.212  29.156  1.00  0.00     0.031 A 
ATOM     15  C   UNL A   1      41.673  29.080  29.196  1.00  0.00     0.074 A 
ATOM     16  C   UNL A   1      40.658  26.924  28.797  1.00  0.00     0.049 A 
ATOM     17  N   UNL A   1      42.610  29.236  28.300  1.00  0.00    -0.248 NA
ATOM     18  C   UNL A   1      41.813  29.928  30.372  1.00  0.00     0.031 C 
ATOM     19  C   UNL A   1      39.681  25.834  28.840  1.00  0.00     0.029 A 
ATOM     20  N   UNL A   1      41.770  26.337  28.251  1.00  0.00    -0.354 N 
ATOM     21  C   UNL A   1      43.297  30.394  28.683  1.00  0.00     0.074 A 
ATOM     22  C   UNL A   1      42.749  30.778  29.957  1.00  0.00     0.031 C 
ATOM     23  C   UNL A   1      40.223  24.723  28.338  1.00  0.00     0.029 A 
ATOM     24  C   UNL A   1      41.548  25.044  27.845  1.00  0.00     0.049 A 
ATOM     25  H   UNL A   1      42.638  26.794  28.160  1.00  0.00     0.167 HD
ATOM     26  C   UNL A   1      44.264  31.030  27.970  1.00  0.00     0.031 A 
ATOM     27  C   UNL A   1      42.311  24.217  27.111  1.00  0.00     0.031 A 
ATOM     28  C   UNL A   1      45.105  30.231  27.103  1.00  0.00     0.049 A 
ATOM     29  C   UNL A   1      43.633  24.735  26.653  1.00  0.00     0.074 A 
ATOM     30  C   UNL A   1      46.339  30.553  26.568  1.00  0.00     0.029 A 
ATOM     31  N   UNL A   1      44.885  28.887  26.832  1.00  0.00    -0.354 N 
ATOM     32  N   UNL A   1      44.073  25.971  26.694  1.00  0.00    -0.248 NA
ATOM     33  C   UNL A   1      44.578  23.768  26.094  1.00  0.00     0.031 C 
ATOM     34  C   UNL A   1      46.882  29.395  26.022  1.00  0.00     0.029 A 
ATOM     35  C   UNL A   1      46.014  28.340  26.266  1.00  0.00     0.049 A 
ATOM     36  H   UNL A   1      44.050  28.400  27.017  1.00  0.00     0.167 HD
ATOM     37  C   UNL A   1      45.365  25.928  26.197  1.00  0.00     0.074 A 
ATOM     38  C   UNL A   1      45.637  24.540  25.874  1.00  0.00     0.031 C 
ATOM     39  C   UNL A   1      46.241  26.941  26.011  1.00  0.00     0.031 A 
BRANCH  26  40
ATOM     40  C   UNL A   1      44.647  32.499  28.140  1.00  0.00    -0.014 A 
ATOM     41  C   UNL A   1      44.072  33.445  27.252  1.00  0.00     0.009 A 
ATOM     42  C   UNL A   1      45.628  32.984  29.009  1.00  0.00     0.009 A 
ATOM     43  C   UNL A   1      44.515  34.773  27.185  1.00  0.00     0.001 A 
ATOM     44  C   UNL A   1      46.005  34.337  29.012  1.00  0.00     0.001 A 
ATOM     45  C   UNL A   1      45.475  35.223  28.079  1.00  0.00     0.000 A 
ENDBRANCH  26  40
BRANCH  27  46
ATOM     46  C   UNL A   1      41.840  22.816  26.960  1.00  0.00    -0.014 A 
ATOM     47  C   UNL A   1      41.399  22.072  28.070  1.00  0.00     0.009 A 
ATOM     48  C   UNL A   1      42.136  22.143  25.767  1.00  0.00     0.009 A 
ATOM     49  C   UNL A   1      41.340  20.676  28.005  1.00  0.00     0.001 A 
ATOM     50  C   UNL A   1      42.049  20.751  25.699  1.00  0.00     0.001 A 
ATOM     51  C   UNL A   1      41.677  20.018  26.823  1.00  0.00     0.000 A 
ENDBRANCH  27  46
BRANCH  39  52
ATOM     52  C   UNL A   1      47.587  26.623  25.442  1.00  0.00    -0.014 A 
ATOM     53  C   UNL A   1      48.657  26.343  26.308  1.00  0.00     0.009 A 
ATOM     54  C   UNL A   1      47.835  26.908  24.093  1.00  0.00     0.009 A 
ATOM     55  C   UNL A   1      49.967  26.432  25.843  1.00  0.00     0.001 A 
ATOM     56  C   UNL A   1      49.145  26.966  23.628  1.00  0.00     0.001 A 
ATOM     57  C   UNL A   1      50.208  26.754  24.506  1.00  0.00     0.000 A 
ENDBRANCH  39  52
ENDBRANCH  13  14
ENDBRANCH   6   8
ENDBRANCH   5   6
ENDBRANCH   4   5
ENDBRANCH   3   4
ENDBRANCH   2   3
ENDBRANCH   1   2
BRANCH   1  58
ATOM     58  C   UNL A   1      31.451  27.505  26.910  1.00  0.00     0.188 C 
BRANCH  58  59
ATOM     59  O   UNL A   1      31.474  26.137  26.558  1.00  0.00    -0.376 OA
BRANCH  59  60
ATOM     60  C   UNL A   1      30.320  25.480  26.067  1.00  0.00     0.202 C 
BRANCH  60  61
ATOM     61  C   UNL A   1      29.770  24.226  26.762  1.00  0.00     0.261 C 
BRANCH  61  62
ATOM     62  O   UNL A   1      30.236  22.953  26.310  1.00  0.00    -0.459 OA
BRANCH  62  63
ATOM     63  C   UNL A   1      31.543  22.691  26.586  1.00  0.00     0.365 C 
ATOM     64  O   UNL A   1      32.135  23.060  27.593  1.00  0.00    -0.245 OA
BRANCH  63  65
ATOM     65  C   UNL A   1      32.254  22.130  25.349  1.00  0.00     0.298 C 
ATOM     66  C   UNL A   1      31.689  22.598  23.973  1.00  0.00     0.111 C 
ATOM     67  N   UNL A   1      33.691  22.362  25.611  1.00  0.00    -0.326 N 
ATOM     68  C   UNL A   1      32.514  23.677  23.360  1.00  0.00    -0.024 C 
ATOM     69  C   UNL A   1      34.497  22.456  24.400  1.00  0.00     0.243 C 
ATOM     70  H   UNL A   1      34.045  21.590  26.176  1.00  0.00     0.347 HD
ATOM     71  H   UNL A   1      33.766  23.260  26.091  1.00  0.00     0.347 HD
ATOM     72  C   UNL A   1      32.158  24.832  22.822  1.00  0.00     0.002 A 
ATOM     73  C   UNL A   1      34.032  23.595  23.458  1.00  0.00     0.196 C 
ATOM     74  C   UNL A   1      30.646  25.797  22.449  1.00  0.00     0.010 A 
ATOM     75  C   UNL A   1      33.704  25.789  23.128  1.00  0.00     0.066 A 
ATOM     76  N   UNL A   1      34.606  24.996  23.637  1.00  0.00    -0.270 NA
ATOM     77  C   UNL A   1      30.759  27.655  22.317  1.00  0.00     0.001 A 
ATOM     78  C   UNL A   1      33.679  27.689  22.979  1.00  0.00     0.028 A 
ATOM     79  C   UNL A   1      32.430  28.503  22.647  1.00  0.00     0.002 A 
BRANCH  69  80
ATOM     80  C   UNL A   1      35.953  22.359  24.798  1.00  0.00     0.012 A 
ATOM     81  C   UNL A   1      36.616  23.362  25.510  1.00  0.00     0.010 A 
ATOM     82  C   UNL A   1      36.619  21.138  24.582  1.00  0.00     0.010 A 
ATOM     83  C   UNL A   1      37.901  23.149  26.008  1.00  0.00     0.001 A 
ATOM     84  C   UNL A   1      37.901  20.923  25.082  1.00  0.00     0.001 A 
ATOM     85  C   UNL A   1      38.536  21.927  25.805  1.00  0.00     0.000 A 
ENDBRANCH  69  80
ENDBRANCH  63  65
ENDBRANCH  62  63
ENDBRANCH  61  62
ENDBRANCH  60  61
ENDBRANCH  59  60
ENDBRANCH  58  59
ENDBRANCH   1  58
TORSDOF 18
ENDMDL
MODEL 3
REMARK VINA RESULT:     -11.1      4.495     10.169
REMARK SMILES O=C(OCCOCCOCCOC(=O)[C@H]1CC2=c3ccccc3=N[C@H]2[C@@H](c2ccccc2)[NH2+]1)c1ccc(-c2c3nc(c(-c4ccccc4)c4ccc([nH]4)c(-c4ccccc4)c4nc(c(-c5ccccc5)c5ccc2[nH]5)C=C4)C=C3)cc1
REMARK SMILES IDX 7 1 6 2 5 3 4 4 3 5 2 6 1 7 34 8 35 9 81 10 36 11 80 12
REMARK SMILES IDX 37 13 38 14 39 15 74 16 40 17 79 18 73 19 75 20 41 21 78 22
REMARK SMILES IDX 72 23 71 24 42 26 64 27 49 28 63 29 50 30 53 31 62 32 76 33
REMARK SMILES IDX 51 34 52 35 61 37 77 38 54 39 43 40 44 41 48 42 45 43 47 44
REMARK SMILES IDX 46 45 65 46 66 47 70 48 67 49 69 50 68 51 55 52 56 53 60 54
REMARK SMILES IDX 57 55 59 56 58 57 8 58 9 59 10 60 11 61 12 62 13 63 14 64
REMARK SMILES IDX 15 65 16 66 33 67 17 68 26 69 18 72 25 73 19 74 23 75 24 76
REMARK SMILES IDX 20 77 22 78 21 79 27 80 28 81 32 82 29 83 31 84 30 85
REMARK H PARENT 75 25 53 36 33 70 33 71
REMARK Flexibility Score: inf
ROOT
ATOM      1  C   UNL A   1      41.919  19.673  25.763  1.00  0.00     0.188 C 
ENDROOT
BRANCH   1   2
ATOM      2  O   UNL A   1      42.853  18.605  25.675  1.00  0.00    -0.376 OA
BRANCH   2   3
ATOM      3  C   UNL A   1      44.249  18.886  25.644  1.00  0.00     0.202 C 
BRANCH   3   4
ATOM      4  C   UNL A   1      44.783  19.860  24.590  1.00  0.00     0.261 C 
BRANCH   4   5
ATOM      5  O   UNL A   1      45.021  21.211  25.020  1.00  0.00    -0.460 OA
BRANCH   5   6
ATOM      6  C   UNL A   1      44.431  22.374  24.710  1.00  0.00     0.338 C 
ATOM      7  O   UNL A   1      44.086  22.588  23.549  1.00  0.00    -0.246 OA
BRANCH   6   8
ATOM      8  C   UNL A   1      44.263  23.501  25.650  1.00  0.00     0.060 A 
ATOM      9  C   UNL A   1      43.192  23.097  27.044  1.00  0.00     0.016 A 
ATOM     10  C   UNL A   1      44.661  25.179  25.217  1.00  0.00     0.016 A 
ATOM     11  C   UNL A   1      42.433  24.329  28.096  1.00  0.00     0.010 A 
ATOM     12  C   UNL A   1      43.975  26.534  26.204  1.00  0.00     0.010 A 
ATOM     13  C   UNL A   1      42.790  26.106  27.799  1.00  0.00    -0.014 A 
BRANCH  13  14
ATOM     14  C   UNL A   1      42.307  26.804  29.149  1.00  0.00     0.031 A 
ATOM     15  C   UNL A   1      40.965  27.438  29.325  1.00  0.00     0.074 A 
ATOM     16  C   UNL A   1      43.171  26.944  30.180  1.00  0.00     0.049 A 
ATOM     17  N   UNL A   1      40.664  28.647  29.713  1.00  0.00    -0.248 NA
ATOM     18  C   UNL A   1      39.820  26.617  28.954  1.00  0.00     0.031 C 
ATOM     19  C   UNL A   1      44.471  26.289  30.337  1.00  0.00     0.029 A 
ATOM     20  N   UNL A   1      43.089  27.762  31.278  1.00  0.00    -0.354 N 
ATOM     21  C   UNL A   1      39.317  28.819  29.370  1.00  0.00     0.074 A 
ATOM     22  C   UNL A   1      38.862  27.539  28.896  1.00  0.00     0.031 C 
ATOM     23  C   UNL A   1      45.068  26.731  31.446  1.00  0.00     0.029 A 
ATOM     24  C   UNL A   1      44.241  27.772  32.025  1.00  0.00     0.049 A 
ATOM     25  H   UNL A   1      42.288  28.288  31.506  1.00  0.00     0.167 HD
ATOM     26  C   UNL A   1      38.607  29.975  29.451  1.00  0.00     0.031 A 
ATOM     27  C   UNL A   1      44.616  28.568  33.041  1.00  0.00     0.031 A 
ATOM     28  C   UNL A   1      38.971  30.927  30.480  1.00  0.00     0.049 A 
ATOM     29  C   UNL A   1      43.649  29.617  33.478  1.00  0.00     0.074 A 
ATOM     30  C   UNL A   1      38.220  31.969  30.992  1.00  0.00     0.029 A 
ATOM     31  N   UNL A   1      40.097  30.807  31.285  1.00  0.00    -0.354 N 
ATOM     32  N   UNL A   1      42.554  30.009  32.868  1.00  0.00    -0.248 NA
ATOM     33  C   UNL A   1      43.923  30.301  34.742  1.00  0.00     0.031 C 
ATOM     34  C   UNL A   1      38.865  32.440  32.130  1.00  0.00     0.029 A 
ATOM     35  C   UNL A   1      39.987  31.657  32.361  1.00  0.00     0.049 A 
ATOM     36  H   UNL A   1      40.856  30.204  31.112  1.00  0.00     0.167 HD
ATOM     37  C   UNL A   1      41.987  30.966  33.692  1.00  0.00     0.074 A 
ATOM     38  C   UNL A   1      42.854  31.083  34.849  1.00  0.00     0.031 C 
ATOM     39  C   UNL A   1      40.861  31.693  33.505  1.00  0.00     0.031 A 
BRANCH  26  40
ATOM     40  C   UNL A   1      37.342  30.278  28.649  1.00  0.00    -0.014 A 
ATOM     41  C   UNL A   1      36.967  31.636  28.482  1.00  0.00     0.009 A 
ATOM     42  C   UNL A   1      36.436  29.324  28.177  1.00  0.00     0.009 A 
ATOM     43  C   UNL A   1      35.725  32.009  27.953  1.00  0.00     0.001 A 
ATOM     44  C   UNL A   1      35.233  29.696  27.556  1.00  0.00     0.001 A 
ATOM     45  C   UNL A   1      34.861  31.035  27.475  1.00  0.00     0.000 A 
ENDBRANCH  26  40
BRANCH  27  46
ATOM     46  C   UNL A   1      45.883  28.227  33.736  1.00  0.00    -0.014 A 
ATOM     47  C   UNL A   1      45.894  27.366  34.850  1.00  0.00     0.009 A 
ATOM     48  C   UNL A   1      47.014  29.013  33.475  1.00  0.00     0.009 A 
ATOM     49  C   UNL A   1      46.985  27.362  35.727  1.00  0.00     0.001 A 
ATOM     50  C   UNL A   1      48.111  28.983  34.337  1.00  0.00     0.001 A 
ATOM     51  C   UNL A   1      48.086  28.179  35.474  1.00  0.00     0.000 A 
ENDBRANCH  27  46
BRANCH  39  52
ATOM     52  C   UNL A   1      40.469  32.680  34.557  1.00  0.00    -0.014 A 
ATOM     53  C   UNL A   1      39.408  32.379  35.429  1.00  0.00     0.009 A 
ATOM     54  C   UNL A   1      40.945  33.994  34.462  1.00  0.00     0.009 A 
ATOM     55  C   UNL A   1      38.779  33.403  36.133  1.00  0.00     0.001 A 
ATOM     56  C   UNL A   1      40.331  35.007  35.192  1.00  0.00     0.001 A 
ATOM     57  C   UNL A   1      39.235  34.716  36.005  1.00  0.00     0.000 A 
ENDBRANCH  39  52
ENDBRANCH  13  14
ENDBRANCH   6   8
ENDBRANCH   5   6
ENDBRANCH   4   5
ENDBRANCH   3   4
ENDBRANCH   2   3
ENDBRANCH   1   2
BRANCH   1  58
ATOM     58  C   UNL A   1      41.313  19.859  27.152  1.00  0.00     0.188 C 
BRANCH  58  59
ATOM     59  O   UNL A   1      40.352  20.872  27.362  1.00  0.00    -0.376 OA
BRANCH  59  60
ATOM     60  C   UNL A   1      39.954  21.743  26.318  1.00  0.00     0.202 C 
BRANCH  60  61
ATOM     61  C   UNL A   1      38.514  21.735  25.788  1.00  0.00     0.261 C 
BRANCH  61  62
ATOM     62  O   UNL A   1      37.852  22.992  25.630  1.00  0.00    -0.459 OA
BRANCH  62  63
ATOM     63  C   UNL A   1      36.619  22.922  25.056  1.00  0.00     0.365 C 
ATOM     64  O   UNL A   1      36.237  23.622  24.127  1.00  0.00    -0.245 OA
BRANCH  63  65
ATOM     65  C   UNL A   1      35.676  22.064  25.908  1.00  0.00     0.298 C 
ATOM     66  C   UNL A   1      34.663  22.848  26.796  1.00  0.00     0.111 C 
ATOM     67  N   UNL A   1      35.125  21.070  24.961  1.00  0.00    -0.326 N 
ATOM     68  C   UNL A   1      33.299  22.891  26.197  1.00  0.00    -0.024 C 
ATOM     69  C   UNL A   1      33.826  20.540  25.360  1.00  0.00     0.243 C 
ATOM     70  H   UNL A   1      35.783  20.293  24.890  1.00  0.00     0.347 HD
ATOM     71  H   UNL A   1      34.992  21.547  24.069  1.00  0.00     0.347 HD
ATOM     72  C   UNL A   1      32.468  23.905  26.021  1.00  0.00     0.002 A 
ATOM     73  C   UNL A   1      32.752  21.645  25.513  1.00  0.00     0.196 C 
ATOM     74  C   UNL A   1      32.360  25.703  26.357  1.00  0.00     0.010 A 
ATOM     75  C   UNL A   1      31.533  23.272  24.563  1.00  0.00     0.066 A 
ATOM     76  N   UNL A   1      31.921  22.055  24.301  1.00  0.00    -0.270 NA
ATOM     77  C   UNL A   1      31.267  26.768  25.283  1.00  0.00     0.001 A 
ATOM     78  C   UNL A   1      30.468  24.472  23.535  1.00  0.00     0.028 A 
ATOM     79  C   UNL A   1      30.353  25.968  23.819  1.00  0.00     0.002 A 
BRANCH  69  80
ATOM     80  C   UNL A   1      33.536  19.323  24.512  1.00  0.00     0.012 A 
ATOM     81  C   UNL A   1      32.553  19.303  23.518  1.00  0.00     0.010 A 
ATOM     82  C   UNL A   1      34.403  18.218  24.619  1.00  0.00     0.010 A 
ATOM     83  C   UNL A   1      32.447  18.220  22.646  1.00  0.00     0.001 A 
ATOM     84  C   UNL A   1      34.299  17.138  23.746  1.00  0.00     0.001 A 
ATOM     85  C   UNL A   1      33.327  17.147  22.751  1.00  0.00     0.000 A 
ENDBRANCH  69  80
ENDBRANCH  63  65
ENDBRANCH  62  63
ENDBRANCH  61  62
ENDBRANCH  60  61
ENDBRANCH  59  60
ENDBRANCH  58  59
ENDBRANCH   1  58
TORSDOF 18
ENDMDL
