MODEL 1
REMARK VINA RESULT:     -10.6      0.000      0.000
REMARK SMILES NS(=O)(=O)c1ccc(-n2nc(C(=O)OCCOCCOCCOC(=O)c3ccc(-c4c5nc(c(-c6ccccc6)c6ccc([nH]6)c(-c6ccccc6)c6nc(c(-c7ccccc7)c7ccc4[nH]7)C=C6)C=C5)cc3)cc2-c2ccc(Cl)s2)cc1
REMARK SMILES IDX 18 1 17 2 16 3 15 4 14 5 12 6 13 7 11 8 9 9 10 10 75 11
REMARK SMILES IDX 74 12 8 13 5 14 6 15 83 16 7 17 82 18 2 19 3 20 4 21 1 22
REMARK SMILES IDX 76 25 77 26 81 27 78 28 79 29 80 30 19 31 20 32 21 33 22 34
REMARK SMILES IDX 23 35 24 36 25 37 26 38 27 39 73 40 28 41 72 42 29 43 30 44
REMARK SMILES IDX 31 45 66 46 32 47 71 48 65 49 67 50 33 51 70 52 64 53 63 54
REMARK SMILES IDX 34 56 56 57 41 58 55 59 42 60 45 61 54 62 68 63 43 64 44 65
REMARK SMILES IDX 53 67 69 68 46 69 35 70 36 71 40 72 37 73 39 74 38 75 57 76
REMARK SMILES IDX 58 77 62 78 59 79 61 80 60 81 47 82 48 83 52 84 49 85 51 86
REMARK SMILES IDX 50 87
REMARK H PARENT 1 23 1 24 67 55 45 66
REMARK Flexibility Score: inf
ROOT
ATOM      1  C   UNL A   1      33.017  29.133  25.123  1.00  0.00     0.188 C 
ENDROOT
BRANCH   1   2
ATOM      2  O   UNL A   1      32.355  28.722  23.944  1.00  0.00    -0.376 OA
BRANCH   2   3
ATOM      3  C   UNL A   1      30.999  29.055  23.699  1.00  0.00     0.202 C 
BRANCH   3   4
ATOM      4  C   UNL A   1      29.862  28.041  23.447  1.00  0.00     0.261 C 
BRANCH   4   5
ATOM      5  O   UNL A   1      30.229  26.684  23.197  1.00  0.00    -0.458 OA
BRANCH   5   6
ATOM      6  C   UNL A   1      30.195  25.841  24.271  1.00  0.00     0.358 C 
ATOM      7  O   UNL A   1      29.306  25.829  25.112  1.00  0.00    -0.244 OA
BRANCH   6   8
ATOM      8  C   UNL A   1      31.299  24.869  24.228  1.00  0.00     0.171 A 
ATOM      9  N   UNL A   1      32.309  22.982  24.113  1.00  0.00    -0.231 N 
ATOM     10  N   UNL A   1      31.083  23.552  24.038  1.00  0.00    -0.160 NA
ATOM     11  C   UNL A   1      33.313  23.923  24.262  1.00  0.00     0.085 A 
ATOM     12  C   UNL A   1      32.685  25.149  24.268  1.00  0.00     0.068 A 
BRANCH   9  13
ATOM     13  C   UNL A   1      32.422  21.575  24.192  1.00  0.00     0.065 A 
ATOM     14  C   UNL A   1      32.793  18.828  24.344  1.00  0.00     0.082 A 
ATOM     15  C   UNL A   1      32.992  19.616  25.482  1.00  0.00     0.024 A 
ATOM     16  C   UNL A   1      32.398  19.405  23.131  1.00  0.00     0.024 A 
ATOM     17  C   UNL A   1      32.820  20.996  25.403  1.00  0.00     0.030 A 
ATOM     18  C   UNL A   1      32.179  20.786  23.060  1.00  0.00     0.030 A 
BRANCH  14  19
ATOM     19  S   UNL A   1      33.123  17.091  24.444  1.00  0.00     0.238 S 
ATOM     20  O   UNL A   1      33.425  16.585  23.132  1.00  0.00    -0.207 OA
ATOM     21  O   UNL A   1      32.134  16.474  25.306  1.00  0.00    -0.207 OA
BRANCH  19  22
ATOM     22  N   UNL A   1      34.571  17.051  25.292  1.00  0.00    -0.225 NA
ATOM     23  H   UNL A   1      34.707  16.122  25.689  1.00  0.00     0.137 HD
ATOM     24  H   UNL A   1      34.544  17.742  26.041  1.00  0.00     0.137 HD
ENDBRANCH  19  22
ENDBRANCH  14  19
ENDBRANCH   9  13
BRANCH  11  25
ATOM     25  C   UNL A   1      34.717  23.657  24.387  1.00  0.00     0.054 A 
ATOM     26  C   UNL A   1      35.569  23.339  23.345  1.00  0.00     0.024 A 
ATOM     27  S   UNL A   1      35.541  23.661  25.891  1.00  0.00    -0.122 S 
ATOM     28  C   UNL A   1      36.911  23.143  23.783  1.00  0.00     0.033 A 
ATOM     29  C   UNL A   1      37.013  23.296  25.140  1.00  0.00     0.094 A 
ATOM     30  Cl  UNL A   1      38.442  23.146  26.079  1.00  0.00    -0.072 Cl
ENDBRANCH  11  25
ENDBRANCH   6   8
ENDBRANCH   5   6
ENDBRANCH   4   5
ENDBRANCH   3   4
ENDBRANCH   2   3
ENDBRANCH   1   2
BRANCH   1  31
ATOM     31  C   UNL A   1      32.318  30.082  26.120  1.00  0.00     0.188 C 
BRANCH  31  32
ATOM     32  O   UNL A   1      33.006  30.415  27.305  1.00  0.00    -0.376 OA
BRANCH  32  33
ATOM     33  C   UNL A   1      33.593  31.684  27.548  1.00  0.00     0.202 C 
BRANCH  33  34
ATOM     34  C   UNL A   1      34.692  31.994  28.562  1.00  0.00     0.261 C 
BRANCH  34  35
ATOM     35  O   UNL A   1      35.352  30.880  29.111  1.00  0.00    -0.460 OA
BRANCH  35  36
ATOM     36  C   UNL A   1      36.466  31.202  29.796  1.00  0.00     0.338 C 
ATOM     37  O   UNL A   1      36.545  31.854  30.823  1.00  0.00    -0.246 OA
BRANCH  36  38
ATOM     38  C   UNL A   1      37.621  30.700  29.052  1.00  0.00     0.060 A 
ATOM     39  C   UNL A   1      37.466  29.433  28.492  1.00  0.00     0.016 A 
ATOM     40  C   UNL A   1      38.869  31.245  29.378  1.00  0.00     0.016 A 
ATOM     41  C   UNL A   1      38.527  28.572  28.594  1.00  0.00     0.010 A 
ATOM     42  C   UNL A   1      39.915  30.377  29.513  1.00  0.00     0.010 A 
ATOM     43  C   UNL A   1      39.684  29.034  29.229  1.00  0.00    -0.014 A 
BRANCH  43  44
ATOM     44  C   UNL A   1      40.720  28.079  29.529  1.00  0.00     0.031 A 
ATOM     45  C   UNL A   1      41.079  28.124  30.956  1.00  0.00     0.074 A 
ATOM     46  C   UNL A   1      41.178  27.215  28.604  1.00  0.00     0.049 A 
ATOM     47  N   UNL A   1      42.155  28.612  31.476  1.00  0.00    -0.248 NA
ATOM     48  C   UNL A   1      40.013  27.827  31.931  1.00  0.00     0.031 C 
ATOM     49  C   UNL A   1      40.657  26.965  27.256  1.00  0.00     0.029 A 
ATOM     50  N   UNL A   1      42.155  26.281  28.724  1.00  0.00    -0.354 N 
ATOM     51  C   UNL A   1      41.989  28.452  32.845  1.00  0.00     0.074 A 
ATOM     52  C   UNL A   1      40.585  28.233  33.063  1.00  0.00     0.031 C 
ATOM     53  C   UNL A   1      41.154  25.792  26.797  1.00  0.00     0.029 A 
ATOM     54  C   UNL A   1      42.117  25.283  27.759  1.00  0.00     0.049 A 
ATOM     55  H   UNL A   1      42.834  26.308  29.437  1.00  0.00     0.167 HD
ATOM     56  C   UNL A   1      43.050  28.128  33.632  1.00  0.00     0.031 A 
ATOM     57  C   UNL A   1      42.777  24.097  27.804  1.00  0.00     0.031 A 
ATOM     58  C   UNL A   1      44.297  28.410  32.965  1.00  0.00     0.049 A 
ATOM     59  C   UNL A   1      43.847  24.225  28.822  1.00  0.00     0.074 A 
ATOM     60  C   UNL A   1      44.909  29.542  32.467  1.00  0.00     0.029 A 
ATOM     61  N   UNL A   1      44.916  27.338  32.367  1.00  0.00    -0.354 N 
ATOM     62  N   UNL A   1      44.884  24.999  28.676  1.00  0.00    -0.248 NA
ATOM     63  C   UNL A   1      43.529  23.865  30.196  1.00  0.00     0.031 C 
ATOM     64  C   UNL A   1      45.588  29.112  31.288  1.00  0.00     0.029 A 
ATOM     65  C   UNL A   1      45.420  27.730  31.158  1.00  0.00     0.049 A 
ATOM     66  H   UNL A   1      44.984  26.432  32.748  1.00  0.00     0.167 HD
ATOM     67  C   UNL A   1      45.065  25.584  29.922  1.00  0.00     0.074 A 
ATOM     68  C   UNL A   1      44.276  24.765  30.842  1.00  0.00     0.031 C 
ATOM     69  C   UNL A   1      45.589  26.842  30.029  1.00  0.00     0.031 A 
BRANCH  56  70
ATOM     70  C   UNL A   1      42.947  27.091  34.729  1.00  0.00    -0.014 A 
ATOM     71  C   UNL A   1      42.243  25.908  34.453  1.00  0.00     0.009 A 
ATOM     72  C   UNL A   1      43.240  27.345  36.086  1.00  0.00     0.009 A 
ATOM     73  C   UNL A   1      41.775  25.083  35.483  1.00  0.00     0.001 A 
ATOM     74  C   UNL A   1      42.809  26.504  37.113  1.00  0.00     0.001 A 
ATOM     75  C   UNL A   1      42.048  25.388  36.811  1.00  0.00     0.000 A 
ENDBRANCH  56  70
BRANCH  57  76
ATOM     76  C   UNL A   1      42.354  22.779  27.279  1.00  0.00    -0.014 A 
ATOM     77  C   UNL A   1      43.104  22.114  26.295  1.00  0.00     0.009 A 
ATOM     78  C   UNL A   1      41.355  22.045  27.944  1.00  0.00     0.009 A 
ATOM     79  C   UNL A   1      42.878  20.758  26.008  1.00  0.00     0.001 A 
ATOM     80  C   UNL A   1      41.131  20.693  27.659  1.00  0.00     0.001 A 
ATOM     81  C   UNL A   1      41.902  20.045  26.699  1.00  0.00     0.000 A 
ENDBRANCH  57  76
BRANCH  69  82
ATOM     82  C   UNL A   1      46.210  27.446  28.792  1.00  0.00    -0.014 A 
ATOM     83  C   UNL A   1      45.468  28.073  27.776  1.00  0.00     0.009 A 
ATOM     84  C   UNL A   1      47.610  27.508  28.731  1.00  0.00     0.009 A 
ATOM     85  C   UNL A   1      46.115  28.722  26.717  1.00  0.00     0.001 A 
ATOM     86  C   UNL A   1      48.253  28.174  27.688  1.00  0.00     0.001 A 
ATOM     87  C   UNL A   1      47.507  28.777  26.679  1.00  0.00     0.000 A 
ENDBRANCH  69  82
ENDBRANCH  43  44
ENDBRANCH  36  38
ENDBRANCH  35  36
ENDBRANCH  34  35
ENDBRANCH  33  34
ENDBRANCH  32  33
ENDBRANCH  31  32
ENDBRANCH   1  31
TORSDOF 21
ENDMDL
MODEL 2
REMARK VINA RESULT:     -10.0      3.898      6.346
REMARK SMILES NS(=O)(=O)c1ccc(-n2nc(C(=O)OCCOCCOCCOC(=O)c3ccc(-c4c5nc(c(-c6ccccc6)c6ccc([nH]6)c(-c6ccccc6)c6nc(c(-c7ccccc7)c7ccc4[nH]7)C=C6)C=C5)cc3)cc2-c2ccc(Cl)s2)cc1
REMARK SMILES IDX 18 1 17 2 16 3 15 4 14 5 12 6 13 7 11 8 9 9 10 10 75 11
REMARK SMILES IDX 74 12 8 13 5 14 6 15 83 16 7 17 82 18 2 19 3 20 4 21 1 22
REMARK SMILES IDX 76 25 77 26 81 27 78 28 79 29 80 30 19 31 20 32 21 33 22 34
REMARK SMILES IDX 23 35 24 36 25 37 26 38 27 39 73 40 28 41 72 42 29 43 30 44
REMARK SMILES IDX 31 45 66 46 32 47 71 48 65 49 67 50 33 51 70 52 64 53 63 54
REMARK SMILES IDX 34 56 56 57 41 58 55 59 42 60 45 61 54 62 68 63 43 64 44 65
REMARK SMILES IDX 53 67 69 68 46 69 35 70 36 71 40 72 37 73 39 74 38 75 57 76
REMARK SMILES IDX 58 77 62 78 59 79 61 80 60 81 47 82 48 83 52 84 49 85 51 86
REMARK SMILES IDX 50 87
REMARK H PARENT 1 23 1 24 67 55 45 66
REMARK Flexibility Score: inf
ROOT
ATOM      1  C   UNL A   1      34.501  34.195  32.835  1.00  0.00     0.188 C 
ENDROOT
BRANCH   1   2
ATOM      2  O   UNL A   1      34.756  34.828  31.598  1.00  0.00    -0.376 OA
BRANCH   2   3
ATOM      3  C   UNL A   1      35.122  34.088  30.446  1.00  0.00     0.202 C 
BRANCH   3   4
ATOM      4  C   UNL A   1      34.707  32.629  30.152  1.00  0.00     0.261 C 
BRANCH   4   5
ATOM      5  O   UNL A   1      34.703  32.205  28.788  1.00  0.00    -0.458 OA
BRANCH   5   6
ATOM      6  C   UNL A   1      35.227  30.968  28.539  1.00  0.00     0.358 C 
ATOM      7  O   UNL A   1      36.219  30.514  29.095  1.00  0.00    -0.244 OA
BRANCH   6   8
ATOM      8  C   UNL A   1      34.385  30.203  27.606  1.00  0.00     0.171 A 
ATOM      9  N   UNL A   1      32.878  29.791  26.139  1.00  0.00    -0.231 N 
ATOM     10  N   UNL A   1      33.489  30.804  26.798  1.00  0.00    -0.160 NA
ATOM     11  C   UNL A   1      33.429  28.559  26.451  1.00  0.00     0.085 A 
ATOM     12  C   UNL A   1      34.448  28.815  27.342  1.00  0.00     0.068 A 
BRANCH   9  13
ATOM     13  C   UNL A   1      31.715  30.051  25.380  1.00  0.00     0.065 A 
ATOM     14  C   UNL A   1      29.517  30.600  23.774  1.00  0.00     0.082 A 
ATOM     15  C   UNL A   1      30.218  29.402  23.601  1.00  0.00     0.024 A 
ATOM     16  C   UNL A   1      29.903  31.522  24.755  1.00  0.00     0.024 A 
ATOM     17  C   UNL A   1      31.329  29.133  24.397  1.00  0.00     0.030 A 
ATOM     18  C   UNL A   1      30.990  31.233  25.588  1.00  0.00     0.030 A 
BRANCH  14  19
ATOM     19  S   UNL A   1      28.175  30.967  22.679  1.00  0.00     0.238 S 
ATOM     20  O   UNL A   1      27.248  31.848  23.337  1.00  0.00    -0.207 OA
ATOM     21  O   UNL A   1      27.754  29.743  22.025  1.00  0.00    -0.207 OA
BRANCH  19  22
ATOM     22  N   UNL A   1      28.923  31.893  21.496  1.00  0.00    -0.225 NA
ATOM     23  H   UNL A   1      28.265  32.585  21.139  1.00  0.00     0.137 HD
ATOM     24  H   UNL A   1      29.228  31.289  20.734  1.00  0.00     0.137 HD
ENDBRANCH  19  22
ENDBRANCH  14  19
ENDBRANCH   9  13
BRANCH  11  25
ATOM     25  C   UNL A   1      33.009  27.286  25.941  1.00  0.00     0.054 A 
ATOM     26  C   UNL A   1      32.034  26.481  26.498  1.00  0.00     0.024 A 
ATOM     27  S   UNL A   1      33.707  26.556  24.555  1.00  0.00    -0.122 S 
ATOM     28  C   UNL A   1      31.831  25.282  25.755  1.00  0.00     0.033 A 
ATOM     29  C   UNL A   1      32.679  25.219  24.682  1.00  0.00     0.094 A 
ATOM     30  Cl  UNL A   1      32.772  23.951  23.528  1.00  0.00    -0.072 Cl
ENDBRANCH  11  25
ENDBRANCH   6   8
ENDBRANCH   5   6
ENDBRANCH   4   5
ENDBRANCH   3   4
ENDBRANCH   2   3
ENDBRANCH   1   2
BRANCH   1  31
ATOM     31  C   UNL A   1      35.573  33.294  33.486  1.00  0.00     0.188 C 
BRANCH  31  32
ATOM     32  O   UNL A   1      36.650  33.923  34.144  1.00  0.00    -0.376 OA
BRANCH  32  33
ATOM     33  C   UNL A   1      37.685  34.625  33.472  1.00  0.00     0.202 C 
BRANCH  33  34
ATOM     34  C   UNL A   1      38.386  34.191  32.187  1.00  0.00     0.261 C 
BRANCH  34  35
ATOM     35  O   UNL A   1      38.993  32.923  32.217  1.00  0.00    -0.460 OA
BRANCH  35  36
ATOM     36  C   UNL A   1      40.310  32.952  31.934  1.00  0.00     0.338 C 
ATOM     37  O   UNL A   1      41.175  33.605  32.491  1.00  0.00    -0.246 OA
BRANCH  36  38
ATOM     38  C   UNL A   1      40.544  32.111  30.760  1.00  0.00     0.060 A 
ATOM     39  C   UNL A   1      39.557  31.163  30.498  1.00  0.00     0.016 A 
ATOM     40  C   UNL A   1      41.871  31.970  30.337  1.00  0.00     0.016 A 
ATOM     41  C   UNL A   1      39.976  29.911  30.131  1.00  0.00     0.010 A 
ATOM     42  C   UNL A   1      42.293  30.714  30.007  1.00  0.00     0.010 A 
ATOM     43  C   UNL A   1      41.352  29.688  30.027  1.00  0.00    -0.014 A 
BRANCH  43  44
ATOM     44  C   UNL A   1      41.809  28.333  29.852  1.00  0.00     0.031 A 
ATOM     45  C   UNL A   1      42.554  27.871  31.035  1.00  0.00     0.074 A 
ATOM     46  C   UNL A   1      41.471  27.605  28.771  1.00  0.00     0.049 A 
ATOM     47  N   UNL A   1      43.828  27.694  31.135  1.00  0.00    -0.248 NA
ATOM     48  C   UNL A   1      41.834  27.852  32.322  1.00  0.00     0.031 C 
ATOM     49  C   UNL A   1      40.515  27.942  27.710  1.00  0.00     0.029 A 
ATOM     50  N   UNL A   1      41.835  26.338  28.452  1.00  0.00    -0.354 N 
ATOM     51  C   UNL A   1      44.027  27.301  32.452  1.00  0.00     0.074 A 
ATOM     52  C   UNL A   1      42.843  27.679  33.173  1.00  0.00     0.031 C 
ATOM     53  C   UNL A   1      40.195  26.818  27.026  1.00  0.00     0.029 A 
ATOM     54  C   UNL A   1      41.015  25.722  27.515  1.00  0.00     0.049 A 
ATOM     55  H   UNL A   1      42.615  25.891  28.854  1.00  0.00     0.167 HD
ATOM     56  C   UNL A   1      44.965  26.364  32.754  1.00  0.00     0.031 A 
ATOM     57  C   UNL A   1      40.973  24.395  27.233  1.00  0.00     0.031 A 
ATOM     58  C   UNL A   1      45.918  26.216  31.682  1.00  0.00     0.049 A 
ATOM     59  C   UNL A   1      42.214  23.789  27.774  1.00  0.00     0.074 A 
ATOM     60  C   UNL A   1      46.828  27.044  31.058  1.00  0.00     0.029 A 
ATOM     61  N   UNL A   1      45.705  25.159  30.829  1.00  0.00    -0.354 N 
ATOM     62  N   UNL A   1      43.398  24.035  27.291  1.00  0.00    -0.248 NA
ATOM     63  C   UNL A   1      42.190  23.289  29.141  1.00  0.00     0.031 C 
ATOM     64  C   UNL A   1      46.810  26.654  29.686  1.00  0.00     0.029 A 
ATOM     65  C   UNL A   1      45.946  25.565  29.545  1.00  0.00     0.049 A 
ATOM     66  H   UNL A   1      45.424  24.255  31.099  1.00  0.00     0.167 HD
ATOM     67  C   UNL A   1      44.213  24.163  28.408  1.00  0.00     0.074 A 
ATOM     68  C   UNL A   1      43.442  23.583  29.507  1.00  0.00     0.031 C 
ATOM     69  C   UNL A   1      45.298  24.993  28.384  1.00  0.00     0.031 A 
BRANCH  56  70
ATOM     70  C   UNL A   1      44.696  25.250  33.742  1.00  0.00    -0.014 A 
ATOM     71  C   UNL A   1      45.526  25.156  34.871  1.00  0.00     0.009 A 
ATOM     72  C   UNL A   1      43.880  24.132  33.469  1.00  0.00     0.009 A 
ATOM     73  C   UNL A   1      45.604  23.975  35.620  1.00  0.00     0.001 A 
ATOM     74  C   UNL A   1      43.925  22.968  34.236  1.00  0.00     0.001 A 
ATOM     75  C   UNL A   1      44.813  22.879  35.295  1.00  0.00     0.000 A 
ENDBRANCH  56  70
BRANCH  57  76
ATOM     76  C   UNL A   1      39.814  23.568  26.829  1.00  0.00    -0.014 A 
ATOM     77  C   UNL A   1      38.565  24.149  26.558  1.00  0.00     0.009 A 
ATOM     78  C   UNL A   1      40.006  22.229  26.442  1.00  0.00     0.009 A 
ATOM     79  C   UNL A   1      37.557  23.425  25.901  1.00  0.00     0.001 A 
ATOM     80  C   UNL A   1      39.002  21.506  25.787  1.00  0.00     0.001 A 
ATOM     81  C   UNL A   1      37.781  22.109  25.504  1.00  0.00     0.000 A 
ENDBRANCH  57  76
BRANCH  69  82
ATOM     82  C   UNL A   1      45.731  25.537  27.044  1.00  0.00    -0.014 A 
ATOM     83  C   UNL A   1      45.104  26.621  26.405  1.00  0.00     0.009 A 
ATOM     84  C   UNL A   1      46.908  25.022  26.482  1.00  0.00     0.009 A 
ATOM     85  C   UNL A   1      45.631  27.155  25.223  1.00  0.00     0.001 A 
ATOM     86  C   UNL A   1      47.445  25.570  25.317  1.00  0.00     0.001 A 
ATOM     87  C   UNL A   1      46.805  26.632  24.685  1.00  0.00     0.000 A 
ENDBRANCH  69  82
ENDBRANCH  43  44
ENDBRANCH  36  38
ENDBRANCH  35  36
ENDBRANCH  34  35
ENDBRANCH  33  34
ENDBRANCH  32  33
ENDBRANCH  31  32
ENDBRANCH   1  31
TORSDOF 21
ENDMDL
MODEL 3
REMARK VINA RESULT:     -10.0      7.680     13.657
REMARK SMILES NS(=O)(=O)c1ccc(-n2nc(C(=O)OCCOCCOCCOC(=O)c3ccc(-c4c5nc(c(-c6ccccc6)c6ccc([nH]6)c(-c6ccccc6)c6nc(c(-c7ccccc7)c7ccc4[nH]7)C=C6)C=C5)cc3)cc2-c2ccc(Cl)s2)cc1
REMARK SMILES IDX 18 1 17 2 16 3 15 4 14 5 12 6 13 7 11 8 9 9 10 10 75 11
REMARK SMILES IDX 74 12 8 13 5 14 6 15 83 16 7 17 82 18 2 19 3 20 4 21 1 22
REMARK SMILES IDX 76 25 77 26 81 27 78 28 79 29 80 30 19 31 20 32 21 33 22 34
REMARK SMILES IDX 23 35 24 36 25 37 26 38 27 39 73 40 28 41 72 42 29 43 30 44
REMARK SMILES IDX 31 45 66 46 32 47 71 48 65 49 67 50 33 51 70 52 64 53 63 54
REMARK SMILES IDX 34 56 56 57 41 58 55 59 42 60 45 61 54 62 68 63 43 64 44 65
REMARK SMILES IDX 53 67 69 68 46 69 35 70 36 71 40 72 37 73 39 74 38 75 57 76
REMARK SMILES IDX 58 77 62 78 59 79 61 80 60 81 47 82 48 83 52 84 49 85 51 86
REMARK SMILES IDX 50 87
REMARK H PARENT 1 23 1 24 67 55 45 66
REMARK Flexibility Score: inf
ROOT
ATOM      1  C   UNL A   1      34.778  35.145  33.429  1.00  0.00     0.188 C 
ENDROOT
BRANCH   1   2
ATOM      2  O   UNL A   1      36.173  35.195  33.205  1.00  0.00    -0.376 OA
BRANCH   2   3
ATOM      3  C   UNL A   1      37.063  34.309  33.863  1.00  0.00     0.202 C 
BRANCH   3   4
ATOM      4  C   UNL A   1      36.676  33.332  34.995  1.00  0.00     0.261 C 
BRANCH   4   5
ATOM      5  O   UNL A   1      37.374  33.447  36.236  1.00  0.00    -0.458 OA
BRANCH   5   6
ATOM      6  C   UNL A   1      37.701  32.275  36.856  1.00  0.00     0.358 C 
ATOM      7  O   UNL A   1      37.807  31.197  36.286  1.00  0.00    -0.244 OA
BRANCH   6   8
ATOM      8  C   UNL A   1      38.024  32.489  38.276  1.00  0.00     0.171 A 
ATOM      9  N   UNL A   1      38.058  32.176  40.396  1.00  0.00    -0.231 N 
ATOM     10  N   UNL A   1      37.630  31.626  39.235  1.00  0.00    -0.160 NA
ATOM     11  C   UNL A   1      38.792  33.331  40.188  1.00  0.00     0.085 A 
ATOM     12  C   UNL A   1      38.839  33.507  38.822  1.00  0.00     0.068 A 
BRANCH   9  13
ATOM     13  C   UNL A   1      37.606  31.648  41.627  1.00  0.00     0.065 A 
ATOM     14  C   UNL A   1      36.782  30.729  44.114  1.00  0.00     0.082 A 
ATOM     15  C   UNL A   1      36.093  31.781  43.503  1.00  0.00     0.024 A 
ATOM     16  C   UNL A   1      37.876  30.124  43.482  1.00  0.00     0.024 A 
ATOM     17  C   UNL A   1      36.514  32.252  42.262  1.00  0.00     0.030 A 
ATOM     18  C   UNL A   1      38.273  30.565  42.214  1.00  0.00     0.030 A 
BRANCH  14  19
ATOM     19  S   UNL A   1      36.293  30.221  45.738  1.00  0.00     0.238 S 
ATOM     20  O   UNL A   1      37.464  29.935  46.522  1.00  0.00    -0.207 OA
ATOM     21  O   UNL A   1      35.186  29.291  45.626  1.00  0.00    -0.207 OA
BRANCH  19  22
ATOM     22  N   UNL A   1      35.652  31.634  46.376  1.00  0.00    -0.225 NA
ATOM     23  H   UNL A   1      36.402  32.307  46.533  1.00  0.00     0.137 HD
ATOM     24  H   UNL A   1      35.189  31.428  47.261  1.00  0.00     0.137 HD
ENDBRANCH  19  22
ENDBRANCH  14  19
ENDBRANCH   9  13
BRANCH  11  25
ATOM     25  C   UNL A   1      39.376  34.162  41.200  1.00  0.00     0.054 A 
ATOM     26  C   UNL A   1      38.819  35.321  41.706  1.00  0.00     0.024 A 
ATOM     27  S   UNL A   1      40.904  33.839  41.910  1.00  0.00    -0.122 S 
ATOM     28  C   UNL A   1      39.632  35.918  42.713  1.00  0.00     0.033 A 
ATOM     29  C   UNL A   1      40.782  35.201  42.907  1.00  0.00     0.094 A 
ATOM     30  Cl  UNL A   1      42.036  35.566  44.020  1.00  0.00    -0.072 Cl
ENDBRANCH  11  25
ENDBRANCH   6   8
ENDBRANCH   5   6
ENDBRANCH   4   5
ENDBRANCH   3   4
ENDBRANCH   2   3
ENDBRANCH   1   2
BRANCH   1  31
ATOM     31  C   UNL A   1      34.035  36.371  34.000  1.00  0.00     0.188 C 
BRANCH  31  32
ATOM     32  O   UNL A   1      33.068  36.994  33.183  1.00  0.00    -0.376 OA
BRANCH  32  33
ATOM     33  C   UNL A   1      33.362  37.606  31.937  1.00  0.00     0.202 C 
BRANCH  33  34
ATOM     34  C   UNL A   1      33.207  36.969  30.557  1.00  0.00     0.261 C 
BRANCH  34  35
ATOM     35  O   UNL A   1      33.617  35.628  30.451  1.00  0.00    -0.460 OA
BRANCH  35  36
ATOM     36  C   UNL A   1      33.305  35.065  29.268  1.00  0.00     0.338 C 
ATOM     37  O   UNL A   1      32.537  35.490  28.423  1.00  0.00    -0.246 OA
BRANCH  36  38
ATOM     38  C   UNL A   1      33.992  33.776  29.179  1.00  0.00     0.060 A 
ATOM     39  C   UNL A   1      34.310  33.184  30.400  1.00  0.00     0.016 A 
ATOM     40  C   UNL A   1      34.692  33.512  27.996  1.00  0.00     0.016 A 
ATOM     41  C   UNL A   1      35.549  32.609  30.511  1.00  0.00     0.010 A 
ATOM     42  C   UNL A   1      35.941  32.973  28.115  1.00  0.00     0.010 A 
ATOM     43  C   UNL A   1      36.386  32.643  29.391  1.00  0.00    -0.014 A 
BRANCH  43  44
ATOM     44  C   UNL A   1      37.758  32.235  29.558  1.00  0.00     0.031 A 
ATOM     45  C   UNL A   1      37.916  30.796  29.289  1.00  0.00     0.074 A 
ATOM     46  C   UNL A   1      38.735  33.123  29.820  1.00  0.00     0.049 A 
ATOM     47  N   UNL A   1      38.118  29.858  30.152  1.00  0.00    -0.248 NA
ATOM     48  C   UNL A   1      37.552  30.317  27.943  1.00  0.00     0.031 C 
ATOM     49  C   UNL A   1      38.654  34.588  29.828  1.00  0.00     0.029 A 
ATOM     50  N   UNL A   1      40.057  32.897  30.024  1.00  0.00    -0.354 N 
ATOM     51  C   UNL A   1      38.149  28.690  29.402  1.00  0.00     0.074 A 
ATOM     52  C   UNL A   1      37.534  29.000  28.140  1.00  0.00     0.031 C 
ATOM     53  C   UNL A   1      39.906  35.103  29.773  1.00  0.00     0.029 A 
ATOM     54  C   UNL A   1      40.864  34.014  29.856  1.00  0.00     0.049 A 
ATOM     55  H   UNL A   1      40.414  32.013  30.270  1.00  0.00     0.167 HD
ATOM     56  C   UNL A   1      39.011  27.689  29.724  1.00  0.00     0.031 A 
ATOM     57  C   UNL A   1      42.215  34.015  29.719  1.00  0.00     0.031 A 
ATOM     58  C   UNL A   1      39.488  27.829  31.077  1.00  0.00     0.049 A 
ATOM     59  C   UNL A   1      42.709  32.700  30.192  1.00  0.00     0.074 A 
ATOM     60  C   UNL A   1      38.904  27.838  32.327  1.00  0.00     0.029 A 
ATOM     61  N   UNL A   1      40.726  28.410  31.222  1.00  0.00    -0.354 N 
ATOM     62  N   UNL A   1      42.658  32.324  31.438  1.00  0.00    -0.248 NA
ATOM     63  C   UNL A   1      42.818  31.621  29.220  1.00  0.00     0.031 C 
ATOM     64  C   UNL A   1      39.649  28.791  33.082  1.00  0.00     0.029 A 
ATOM     65  C   UNL A   1      40.694  29.268  32.287  1.00  0.00     0.049 A 
ATOM     66  H   UNL A   1      41.509  28.236  30.651  1.00  0.00     0.167 HD
ATOM     67  C   UNL A   1      42.271  30.991  31.388  1.00  0.00     0.074 A 
ATOM     68  C   UNL A   1      42.494  30.585  30.000  1.00  0.00     0.031 C 
ATOM     69  C   UNL A   1      41.529  30.445  32.397  1.00  0.00     0.031 A 
BRANCH  56  70
ATOM     70  C   UNL A   1      39.801  26.942  28.672  1.00  0.00    -0.014 A 
ATOM     71  C   UNL A   1      40.621  27.690  27.810  1.00  0.00     0.009 A 
ATOM     72  C   UNL A   1      39.551  25.606  28.296  1.00  0.00     0.009 A 
ATOM     73  C   UNL A   1      41.078  27.158  26.599  1.00  0.00     0.001 A 
ATOM     74  C   UNL A   1      40.038  25.059  27.108  1.00  0.00     0.001 A 
ATOM     75  C   UNL A   1      40.776  25.848  26.243  1.00  0.00     0.000 A 
ENDBRANCH  56  70
BRANCH  57  76
ATOM     76  C   UNL A   1      43.066  34.926  28.919  1.00  0.00    -0.014 A 
ATOM     77  C   UNL A   1      42.530  35.685  27.866  1.00  0.00     0.009 A 
ATOM     78  C   UNL A   1      44.357  35.257  29.369  1.00  0.00     0.009 A 
ATOM     79  C   UNL A   1      43.251  36.750  27.304  1.00  0.00     0.001 A 
ATOM     80  C   UNL A   1      45.076  36.320  28.809  1.00  0.00     0.001 A 
ATOM     81  C   UNL A   1      44.517  37.075  27.784  1.00  0.00     0.000 A 
ENDBRANCH  57  76
BRANCH  69  82
ATOM     82  C   UNL A   1      41.390  31.244  33.670  1.00  0.00    -0.014 A 
ATOM     83  C   UNL A   1      42.134  30.986  34.836  1.00  0.00     0.009 A 
ATOM     84  C   UNL A   1      40.582  32.389  33.635  1.00  0.00     0.009 A 
ATOM     85  C   UNL A   1      42.047  31.841  35.941  1.00  0.00     0.001 A 
ATOM     86  C   UNL A   1      40.514  33.253  34.729  1.00  0.00     0.001 A 
ATOM     87  C   UNL A   1      41.242  32.977  35.883  1.00  0.00     0.000 A 
ENDBRANCH  69  82
ENDBRANCH  43  44
ENDBRANCH  36  38
ENDBRANCH  35  36
ENDBRANCH  34  35
ENDBRANCH  33  34
ENDBRANCH  32  33
ENDBRANCH  31  32
ENDBRANCH   1  31
TORSDOF 21
ENDMDL
