MODEL 1
REMARK VINA RESULT:     -10.5      0.000      0.000
REMARK SMILES Cc1c(Br)c(C)c2c(c1Br)O[C@H](C(F)(F)F)C(C(=O)OCCOCCOCCOC(=O)c1ccc(-c3c4nc(c(-c5ccccc5)c5ccc([nH]5)c(-c5ccccc5)c5nc(c(-c6ccccc6)c6ccc3[nH]6)C=C5)C=C4)cc1)=C2
REMARK SMILES IDX 25 1 24 2 23 3 22 4 21 5 20 6 18 7 19 8 17 9 1 10 2 11 3 12
REMARK SMILES IDX 9 13 4 14 5 15 8 16 10 17 6 18 7 19 11 20 80 21 12 22 13 23
REMARK SMILES IDX 14 24 15 25 16 26 26 27 27 28 28 29 29 30 30 31 31 32 32 33
REMARK SMILES IDX 33 34 79 35 34 36 78 37 35 38 36 39 37 40 72 41 38 42 77 43
REMARK SMILES IDX 71 44 73 45 39 46 76 47 70 48 69 49 40 51 62 52 47 53 61 54
REMARK SMILES IDX 48 55 51 56 60 57 74 58 49 59 50 60 59 62 75 63 52 64 41 65
REMARK SMILES IDX 42 66 46 67 43 68 45 69 44 70 63 71 64 72 68 73 65 74 67 75
REMARK SMILES IDX 66 76 53 77 54 78 58 79 55 80 57 81 56 82
REMARK H PARENT 73 50 51 61
REMARK Flexibility Score: inf
ROOT
ATOM      1  C   UNL A   1      41.272  20.572  26.749  1.00  0.00     0.188 C 
ENDROOT
BRANCH   1   2
ATOM      2  C   UNL A   1      40.530  21.830  27.248  1.00  0.00     0.188 C 
BRANCH   2   3
ATOM      3  O   UNL A   1      39.409  22.325  26.546  1.00  0.00    -0.376 OA
BRANCH   3   4
ATOM      4  C   UNL A   1      38.608  21.468  25.748  1.00  0.00     0.202 C 
BRANCH   4   5
ATOM      5  C   UNL A   1      37.094  21.656  25.561  1.00  0.00     0.261 C 
BRANCH   5   6
ATOM      6  O   UNL A   1      36.583  22.960  25.859  1.00  0.00    -0.460 OA
BRANCH   6   7
ATOM      7  C   UNL A   1      35.263  23.009  26.157  1.00  0.00     0.338 C 
ATOM      8  O   UNL A   1      34.705  22.466  27.096  1.00  0.00    -0.246 OA
BRANCH   7   9
ATOM      9  C   UNL A   1      34.588  23.968  25.260  1.00  0.00     0.087 C 
ATOM     10  C   UNL A   1      30.746  28.555  22.699  1.00  0.00     0.047 C 
ATOM     11  C   UNL A   1      31.772  27.757  23.470  1.00  0.00    -0.019 A 
ATOM     12  C   UNL A   1      32.277  28.200  24.718  1.00  0.00     0.025 A 
ATOM     13  C   UNL A   1      32.283  26.557  22.937  1.00  0.00     0.064 A 
ATOM     14  Br  UNL A   1      31.748  29.924  25.374  1.00  0.00    -0.050 Br
ATOM     15  C   UNL A   1      33.167  27.400  25.479  1.00  0.00    -0.026 A 
ATOM     16  C   UNL A   1      33.153  25.743  23.683  1.00  0.00     0.142 A 
ATOM     17  Br  UNL A   1      31.801  25.983  21.171  1.00  0.00    -0.046 Br
ATOM     18  C   UNL A   1      33.720  27.849  26.816  1.00  0.00     0.046 C 
ATOM     19  C   UNL A   1      33.547  26.132  24.970  1.00  0.00     0.022 A 
ATOM     20  O   UNL A   1      33.594  24.591  23.085  1.00  0.00    -0.474 OA
ATOM     21  C   UNL A   1      34.306  25.172  25.774  1.00  0.00     0.027 C 
ATOM     22  C   UNL A   1      34.258  23.565  23.856  1.00  0.00     0.316 C 
BRANCH  22  23
ATOM     23  C   UNL A   1      33.420  22.281  23.796  1.00  0.00     0.430 C 
ATOM     24  F   UNL A   1      32.817  22.141  22.593  1.00  0.00    -0.167 F 
ATOM     25  F   UNL A   1      34.183  21.177  23.979  1.00  0.00    -0.167 F 
ATOM     26  F   UNL A   1      32.454  22.266  24.743  1.00  0.00    -0.167 F 
ENDBRANCH  22  23
ENDBRANCH   7   9
ENDBRANCH   6   7
ENDBRANCH   5   6
ENDBRANCH   4   5
ENDBRANCH   3   4
ENDBRANCH   2   3
ENDBRANCH   1   2
BRANCH   1  27
ATOM     27  O   UNL A   1      42.078  20.665  25.600  1.00  0.00    -0.376 OA
BRANCH  27  28
ATOM     28  C   UNL A   1      43.476  20.869  25.724  1.00  0.00     0.202 C 
BRANCH  28  29
ATOM     29  C   UNL A   1      44.202  22.225  25.605  1.00  0.00     0.261 C 
BRANCH  29  30
ATOM     30  O   UNL A   1      43.428  23.373  25.242  1.00  0.00    -0.460 OA
BRANCH  30  31
ATOM     31  C   UNL A   1      44.070  24.565  25.343  1.00  0.00     0.338 C 
ATOM     32  O   UNL A   1      44.953  24.996  24.625  1.00  0.00    -0.246 OA
BRANCH  31  33
ATOM     33  C   UNL A   1      43.387  25.386  26.363  1.00  0.00     0.060 A 
ATOM     34  C   UNL A   1      43.783  26.721  26.524  1.00  0.00     0.016 A 
ATOM     35  C   UNL A   1      42.385  24.841  27.164  1.00  0.00     0.016 A 
ATOM     36  C   UNL A   1      43.177  27.517  27.495  1.00  0.00     0.010 A 
ATOM     37  C   UNL A   1      41.801  25.631  28.160  1.00  0.00     0.010 A 
ATOM     38  C   UNL A   1      42.209  26.966  28.342  1.00  0.00    -0.014 A 
BRANCH  38  39
ATOM     39  C   UNL A   1      41.770  27.723  29.539  1.00  0.00     0.031 A 
ATOM     40  C   UNL A   1      40.572  28.625  29.410  1.00  0.00     0.074 A 
ATOM     41  C   UNL A   1      42.386  27.584  30.727  1.00  0.00     0.049 A 
ATOM     42  N   UNL A   1      40.026  29.408  30.304  1.00  0.00    -0.248 NA
ATOM     43  C   UNL A   1      39.896  28.636  28.102  1.00  0.00     0.031 C 
ATOM     44  C   UNL A   1      43.508  26.688  31.003  1.00  0.00     0.029 A 
ATOM     45  N   UNL A   1      42.144  28.203  31.929  1.00  0.00    -0.354 N 
ATOM     46  C   UNL A   1      38.941  30.000  29.669  1.00  0.00     0.074 A 
ATOM     47  C   UNL A   1      38.923  29.512  28.308  1.00  0.00     0.031 C 
ATOM     48  C   UNL A   1      43.857  26.816  32.296  1.00  0.00     0.029 A 
ATOM     49  C   UNL A   1      43.012  27.831  32.927  1.00  0.00     0.049 A 
ATOM     50  H   UNL A   1      41.416  28.852  32.063  1.00  0.00     0.167 HD
ATOM     51  C   UNL A   1      38.033  30.864  30.177  1.00  0.00     0.031 A 
ATOM     52  C   UNL A   1      43.123  28.274  34.195  1.00  0.00     0.031 A 
ATOM     53  C   UNL A   1      38.058  31.367  31.522  1.00  0.00     0.049 A 
ATOM     54  C   UNL A   1      42.176  29.337  34.696  1.00  0.00     0.074 A 
ATOM     55  C   UNL A   1      37.188  32.263  32.119  1.00  0.00     0.029 A 
ATOM     56  N   UNL A   1      39.000  31.024  32.477  1.00  0.00    -0.354 N 
ATOM     57  N   UNL A   1      41.154  29.889  34.088  1.00  0.00    -0.248 NA
ATOM     58  C   UNL A   1      42.399  29.837  36.062  1.00  0.00     0.031 C 
ATOM     59  C   UNL A   1      37.638  32.505  33.419  1.00  0.00     0.029 A 
ATOM     60  C   UNL A   1      38.748  31.710  33.651  1.00  0.00     0.049 A 
ATOM     61  H   UNL A   1      39.738  30.387  32.341  1.00  0.00     0.167 HD
ATOM     62  C   UNL A   1      40.597  30.774  35.005  1.00  0.00     0.074 A 
ATOM     63  C   UNL A   1      41.382  30.674  36.216  1.00  0.00     0.031 C 
ATOM     64  C   UNL A   1      39.529  31.596  34.856  1.00  0.00     0.031 A 
BRANCH  51  65
ATOM     65  C   UNL A   1      36.936  31.339  29.269  1.00  0.00    -0.014 A 
ATOM     66  C   UNL A   1      35.831  30.524  28.984  1.00  0.00     0.009 A 
ATOM     67  C   UNL A   1      36.967  32.647  28.761  1.00  0.00     0.009 A 
ATOM     68  C   UNL A   1      34.783  31.005  28.198  1.00  0.00     0.001 A 
ATOM     69  C   UNL A   1      35.905  33.136  27.998  1.00  0.00     0.001 A 
ATOM     70  C   UNL A   1      34.816  32.313  27.715  1.00  0.00     0.000 A 
ENDBRANCH  51  65
BRANCH  52  71
ATOM     71  C   UNL A   1      44.181  27.735  35.093  1.00  0.00    -0.014 A 
ATOM     72  C   UNL A   1      45.471  28.287  35.089  1.00  0.00     0.009 A 
ATOM     73  C   UNL A   1      43.919  26.637  35.929  1.00  0.00     0.009 A 
ATOM     74  C   UNL A   1      46.482  27.736  35.883  1.00  0.00     0.001 A 
ATOM     75  C   UNL A   1      44.922  26.110  36.745  1.00  0.00     0.001 A 
ATOM     76  C   UNL A   1      46.205  26.653  36.714  1.00  0.00     0.000 A 
ENDBRANCH  52  71
BRANCH  64  77
ATOM     77  C   UNL A   1      39.114  32.435  36.032  1.00  0.00    -0.014 A 
ATOM     78  C   UNL A   1      39.601  33.740  36.205  1.00  0.00     0.009 A 
ATOM     79  C   UNL A   1      38.152  31.945  36.931  1.00  0.00     0.009 A 
ATOM     80  C   UNL A   1      39.147  34.528  37.264  1.00  0.00     0.001 A 
ATOM     81  C   UNL A   1      37.677  32.746  37.970  1.00  0.00     0.001 A 
ATOM     82  C   UNL A   1      38.180  34.034  38.140  1.00  0.00     0.000 A 
ENDBRANCH  64  77
ENDBRANCH  38  39
ENDBRANCH  31  33
ENDBRANCH  30  31
ENDBRANCH  29  30
ENDBRANCH  28  29
ENDBRANCH  27  28
ENDBRANCH   1  27
TORSDOF 18
ENDMDL
MODEL 2
REMARK VINA RESULT:     -10.0      5.669     11.428
REMARK SMILES Cc1c(Br)c(C)c2c(c1Br)O[C@H](C(F)(F)F)C(C(=O)OCCOCCOCCOC(=O)c1ccc(-c3c4nc(c(-c5ccccc5)c5ccc([nH]5)c(-c5ccccc5)c5nc(c(-c6ccccc6)c6ccc3[nH]6)C=C5)C=C4)cc1)=C2
REMARK SMILES IDX 25 1 24 2 23 3 22 4 21 5 20 6 18 7 19 8 17 9 1 10 2 11 3 12
REMARK SMILES IDX 9 13 4 14 5 15 8 16 10 17 6 18 7 19 11 20 80 21 12 22 13 23
REMARK SMILES IDX 14 24 15 25 16 26 26 27 27 28 28 29 29 30 30 31 31 32 32 33
REMARK SMILES IDX 33 34 79 35 34 36 78 37 35 38 36 39 37 40 72 41 38 42 77 43
REMARK SMILES IDX 71 44 73 45 39 46 76 47 70 48 69 49 40 51 62 52 47 53 61 54
REMARK SMILES IDX 48 55 51 56 60 57 74 58 49 59 50 60 59 62 75 63 52 64 41 65
REMARK SMILES IDX 42 66 46 67 43 68 45 69 44 70 63 71 64 72 68 73 65 74 67 75
REMARK SMILES IDX 66 76 53 77 54 78 58 79 55 80 57 81 56 82
REMARK H PARENT 73 50 51 61
REMARK Flexibility Score: inf
ROOT
ATOM      1  C   UNL A   1      32.869  35.834  30.910  1.00  0.00     0.188 C 
ENDROOT
BRANCH   1   2
ATOM      2  C   UNL A   1      33.460  36.688  32.050  1.00  0.00     0.188 C 
BRANCH   2   3
ATOM      3  O   UNL A   1      34.620  36.265  32.735  1.00  0.00    -0.376 OA
BRANCH   3   4
ATOM      4  C   UNL A   1      34.529  35.572  33.969  1.00  0.00     0.202 C 
BRANCH   4   5
ATOM      5  C   UNL A   1      34.784  34.064  34.114  1.00  0.00     0.261 C 
BRANCH   5   6
ATOM      6  O   UNL A   1      35.827  33.689  35.021  1.00  0.00    -0.460 OA
BRANCH   6   7
ATOM      7  C   UNL A   1      37.087  33.912  34.577  1.00  0.00     0.338 C 
ATOM      8  O   UNL A   1      37.635  34.994  34.445  1.00  0.00    -0.246 OA
BRANCH   7   9
ATOM      9  C   UNL A   1      37.791  32.623  34.418  1.00  0.00     0.087 C 
ATOM     10  C   UNL A   1      42.254  27.934  33.751  1.00  0.00     0.047 C 
ATOM     11  C   UNL A   1      41.355  29.052  34.223  1.00  0.00    -0.019 A 
ATOM     12  C   UNL A   1      41.754  29.949  35.246  1.00  0.00     0.025 A 
ATOM     13  C   UNL A   1      40.066  29.206  33.674  1.00  0.00     0.064 A 
ATOM     14  Br  UNL A   1      43.419  29.645  36.149  1.00  0.00    -0.050 Br
ATOM     15  C   UNL A   1      40.944  31.052  35.617  1.00  0.00    -0.026 A 
ATOM     16  C   UNL A   1      39.256  30.302  34.017  1.00  0.00     0.142 A 
ATOM     17  Br  UNL A   1      39.373  27.925  32.426  1.00  0.00    -0.046 Br
ATOM     18  C   UNL A   1      41.347  32.025  36.706  1.00  0.00     0.046 C 
ATOM     19  C   UNL A   1      39.714  31.253  34.939  1.00  0.00     0.022 A 
ATOM     20  O   UNL A   1      38.021  30.371  33.427  1.00  0.00    -0.474 OA
ATOM     21  C   UNL A   1      38.916  32.465  35.128  1.00  0.00     0.027 C 
ATOM     22  C   UNL A   1      37.234  31.582  33.498  1.00  0.00     0.316 C 
BRANCH  22  23
ATOM     23  C   UNL A   1      37.017  32.113  32.075  1.00  0.00     0.430 C 
ATOM     24  F   UNL A   1      37.542  31.276  31.149  1.00  0.00    -0.167 F 
ATOM     25  F   UNL A   1      35.700  32.236  31.784  1.00  0.00    -0.167 F 
ATOM     26  F   UNL A   1      37.585  33.328  31.898  1.00  0.00    -0.167 F 
ENDBRANCH  22  23
ENDBRANCH   7   9
ENDBRANCH   6   7
ENDBRANCH   5   6
ENDBRANCH   4   5
ENDBRANCH   3   4
ENDBRANCH   2   3
ENDBRANCH   1   2
BRANCH   1  27
ATOM     27  O   UNL A   1      33.459  34.593  30.609  1.00  0.00    -0.376 OA
BRANCH  27  28
ATOM     28  C   UNL A   1      34.227  34.435  29.427  1.00  0.00     0.202 C 
BRANCH  28  29
ATOM     29  C   UNL A   1      34.197  33.210  28.491  1.00  0.00     0.261 C 
BRANCH  29  30
ATOM     30  O   UNL A   1      34.591  31.943  29.027  1.00  0.00    -0.460 OA
BRANCH  30  31
ATOM     31  C   UNL A   1      34.636  30.920  28.135  1.00  0.00     0.338 C 
ATOM     32  O   UNL A   1      33.832  30.663  27.259  1.00  0.00    -0.246 OA
BRANCH  31  33
ATOM     33  C   UNL A   1      35.948  30.251  28.247  1.00  0.00     0.060 A 
ATOM     34  C   UNL A   1      36.194  29.441  29.364  1.00  0.00     0.016 A 
ATOM     35  C   UNL A   1      36.930  30.439  27.276  1.00  0.00     0.016 A 
ATOM     36  C   UNL A   1      37.430  28.815  29.515  1.00  0.00     0.010 A 
ATOM     37  C   UNL A   1      38.182  29.837  27.445  1.00  0.00     0.010 A 
ATOM     38  C   UNL A   1      38.443  29.040  28.575  1.00  0.00    -0.014 A 
BRANCH  38  39
ATOM     39  C   UNL A   1      39.827  28.603  28.875  1.00  0.00     0.031 A 
ATOM     40  C   UNL A   1      40.730  29.554  29.613  1.00  0.00     0.074 A 
ATOM     41  C   UNL A   1      40.267  27.374  28.546  1.00  0.00     0.049 A 
ATOM     42  N   UNL A   1      41.984  29.409  29.956  1.00  0.00    -0.248 NA
ATOM     43  C   UNL A   1      40.135  30.836  30.027  1.00  0.00     0.031 C 
ATOM     44  C   UNL A   1      39.471  26.332  27.899  1.00  0.00     0.029 A 
ATOM     45  N   UNL A   1      41.502  26.798  28.720  1.00  0.00    -0.354 N 
ATOM     46  C   UNL A   1      42.325  30.575  30.629  1.00  0.00     0.074 A 
ATOM     47  C   UNL A   1      41.160  31.431  30.620  1.00  0.00     0.031 C 
ATOM     48  C   UNL A   1      40.240  25.242  27.729  1.00  0.00     0.029 A 
ATOM     49  C   UNL A   1      41.591  25.522  28.219  1.00  0.00     0.049 A 
ATOM     50  H   UNL A   1      42.252  27.256  29.163  1.00  0.00     0.167 HD
ATOM     51  C   UNL A   1      43.500  30.901  31.213  1.00  0.00     0.031 A 
ATOM     52  C   UNL A   1      42.646  24.687  28.146  1.00  0.00     0.031 A 
ATOM     53  C   UNL A   1      44.667  30.063  31.208  1.00  0.00     0.049 A 
ATOM     54  C   UNL A   1      43.983  25.129  28.690  1.00  0.00     0.074 A 
ATOM     55  C   UNL A   1      45.910  30.320  31.759  1.00  0.00     0.029 A 
ATOM     56  N   UNL A   1      44.737  28.811  30.621  1.00  0.00    -0.354 N 
ATOM     57  N   UNL A   1      44.294  26.234  29.324  1.00  0.00    -0.248 NA
ATOM     58  C   UNL A   1      45.114  24.206  28.508  1.00  0.00     0.031 C 
ATOM     59  C   UNL A   1      46.750  29.246  31.456  1.00  0.00     0.029 A 
ATOM     60  C   UNL A   1      46.011  28.293  30.775  1.00  0.00     0.049 A 
ATOM     61  H   UNL A   1      43.993  28.356  30.165  1.00  0.00     0.167 HD
ATOM     62  C   UNL A   1      45.643  26.123  29.642  1.00  0.00     0.074 A 
ATOM     63  C   UNL A   1      46.089  24.839  29.147  1.00  0.00     0.031 C 
ATOM     64  C   UNL A   1      46.442  27.008  30.288  1.00  0.00     0.031 A 
BRANCH  51  65
ATOM     65  C   UNL A   1      43.594  32.233  31.900  1.00  0.00    -0.014 A 
ATOM     66  C   UNL A   1      43.946  33.389  31.188  1.00  0.00     0.009 A 
ATOM     67  C   UNL A   1      43.245  32.346  33.255  1.00  0.00     0.009 A 
ATOM     68  C   UNL A   1      43.957  34.632  31.823  1.00  0.00     0.001 A 
ATOM     69  C   UNL A   1      43.231  33.594  33.880  1.00  0.00     0.001 A 
ATOM     70  C   UNL A   1      43.590  34.735  33.164  1.00  0.00     0.000 A 
ENDBRANCH  51  65
BRANCH  52  71
ATOM     71  C   UNL A   1      42.504  23.344  27.517  1.00  0.00    -0.014 A 
ATOM     72  C   UNL A   1      42.751  23.167  26.147  1.00  0.00     0.009 A 
ATOM     73  C   UNL A   1      42.081  22.240  28.276  1.00  0.00     0.009 A 
ATOM     74  C   UNL A   1      42.551  21.921  25.546  1.00  0.00     0.001 A 
ATOM     75  C   UNL A   1      41.914  20.989  27.678  1.00  0.00     0.001 A 
ATOM     76  C   UNL A   1      42.140  20.833  26.312  1.00  0.00     0.000 A 
ENDBRANCH  52  71
BRANCH  64  77
ATOM     77  C   UNL A   1      47.873  26.620  30.533  1.00  0.00    -0.014 A 
ATOM     78  C   UNL A   1      48.247  25.898  31.677  1.00  0.00     0.009 A 
ATOM     79  C   UNL A   1      48.847  26.902  29.560  1.00  0.00     0.009 A 
ATOM     80  C   UNL A   1      49.569  25.484  31.849  1.00  0.00     0.001 A 
ATOM     81  C   UNL A   1      50.161  26.461  29.720  1.00  0.00     0.001 A 
ATOM     82  C   UNL A   1      50.523  25.758  30.868  1.00  0.00     0.000 A 
ENDBRANCH  64  77
ENDBRANCH  38  39
ENDBRANCH  31  33
ENDBRANCH  30  31
ENDBRANCH  29  30
ENDBRANCH  28  29
ENDBRANCH  27  28
ENDBRANCH   1  27
TORSDOF 18
ENDMDL
MODEL 3
REMARK VINA RESULT:      -9.9      3.885      7.417
REMARK SMILES Cc1c(Br)c(C)c2c(c1Br)O[C@H](C(F)(F)F)C(C(=O)OCCOCCOCCOC(=O)c1ccc(-c3c4nc(c(-c5ccccc5)c5ccc([nH]5)c(-c5ccccc5)c5nc(c(-c6ccccc6)c6ccc3[nH]6)C=C5)C=C4)cc1)=C2
REMARK SMILES IDX 25 1 24 2 23 3 22 4 21 5 20 6 18 7 19 8 17 9 1 10 2 11 3 12
REMARK SMILES IDX 9 13 4 14 5 15 8 16 10 17 6 18 7 19 11 20 80 21 12 22 13 23
REMARK SMILES IDX 14 24 15 25 16 26 26 27 27 28 28 29 29 30 30 31 31 32 32 33
REMARK SMILES IDX 33 34 79 35 34 36 78 37 35 38 36 39 37 40 72 41 38 42 77 43
REMARK SMILES IDX 71 44 73 45 39 46 76 47 70 48 69 49 40 51 62 52 47 53 61 54
REMARK SMILES IDX 48 55 51 56 60 57 74 58 49 59 50 60 59 62 75 63 52 64 41 65
REMARK SMILES IDX 42 66 46 67 43 68 45 69 44 70 63 71 64 72 68 73 65 74 67 75
REMARK SMILES IDX 66 76 53 77 54 78 58 79 55 80 57 81 56 82
REMARK H PARENT 73 50 51 61
REMARK Flexibility Score: inf
ROOT
ATOM      1  C   UNL A   1      35.868  19.853  24.998  1.00  0.00     0.188 C 
ENDROOT
BRANCH   1   2
ATOM      2  C   UNL A   1      34.368  20.112  24.749  1.00  0.00     0.188 C 
BRANCH   2   3
ATOM      3  O   UNL A   1      33.675  21.083  25.503  1.00  0.00    -0.376 OA
BRANCH   3   4
ATOM      4  C   UNL A   1      34.117  21.458  26.798  1.00  0.00     0.202 C 
BRANCH   4   5
ATOM      5  C   UNL A   1      34.689  22.845  27.129  1.00  0.00     0.261 C 
BRANCH   5   6
ATOM      6  O   UNL A   1      34.014  23.959  26.535  1.00  0.00    -0.460 OA
BRANCH   6   7
ATOM      7  C   UNL A   1      34.549  24.409  25.375  1.00  0.00     0.338 C 
ATOM      8  O   UNL A   1      35.459  23.899  24.744  1.00  0.00    -0.246 OA
BRANCH   7   9
ATOM      9  C   UNL A   1      33.755  25.549  24.873  1.00  0.00     0.087 C 
ATOM     10  C   UNL A   1      29.859  30.729  24.285  1.00  0.00     0.047 C 
ATOM     11  C   UNL A   1      30.969  29.750  24.589  1.00  0.00    -0.019 A 
ATOM     12  C   UNL A   1      31.849  29.935  25.685  1.00  0.00     0.025 A 
ATOM     13  C   UNL A   1      31.180  28.635  23.753  1.00  0.00     0.064 A 
ATOM     14  Br  UNL A   1      31.711  31.544  26.722  1.00  0.00    -0.050 Br
ATOM     15  C   UNL A   1      32.826  28.964  26.020  1.00  0.00    -0.026 A 
ATOM     16  C   UNL A   1      32.133  27.653  24.077  1.00  0.00     0.142 A 
ATOM     17  Br  UNL A   1      30.164  28.410  22.142  1.00  0.00    -0.046 Br
ATOM     18  C   UNL A   1      33.776  29.138  27.187  1.00  0.00     0.046 C 
ATOM     19  C   UNL A   1      32.911  27.786  25.235  1.00  0.00     0.022 A 
ATOM     20  O   UNL A   1      32.263  26.602  23.208  1.00  0.00    -0.474 OA
ATOM     21  C   UNL A   1      33.758  26.657  25.625  1.00  0.00     0.027 C 
ATOM     22  C   UNL A   1      33.005  25.419  23.585  1.00  0.00     0.316 C 
BRANCH  22  23
ATOM     23  C   UNL A   1      32.051  24.216  23.579  1.00  0.00     0.430 C 
ATOM     24  F   UNL A   1      32.669  23.098  23.132  1.00  0.00    -0.167 F 
ATOM     25  F   UNL A   1      31.594  23.936  24.823  1.00  0.00    -0.167 F 
ATOM     26  F   UNL A   1      30.974  24.432  22.791  1.00  0.00    -0.167 F 
ENDBRANCH  22  23
ENDBRANCH   7   9
ENDBRANCH   6   7
ENDBRANCH   5   6
ENDBRANCH   4   5
ENDBRANCH   3   4
ENDBRANCH   2   3
ENDBRANCH   1   2
BRANCH   1  27
ATOM     27  O   UNL A   1      36.793  20.877  24.724  1.00  0.00    -0.376 OA
BRANCH  27  28
ATOM     28  C   UNL A   1      38.065  20.876  25.352  1.00  0.00     0.202 C 
BRANCH  28  29
ATOM     29  C   UNL A   1      39.076  19.710  25.337  1.00  0.00     0.261 C 
BRANCH  29  30
ATOM     30  O   UNL A   1      39.967  19.577  26.448  1.00  0.00    -0.460 OA
BRANCH  30  31
ATOM     31  C   UNL A   1      41.289  19.592  26.140  1.00  0.00     0.338 C 
ATOM     32  O   UNL A   1      41.908  18.777  25.483  1.00  0.00    -0.246 OA
BRANCH  31  33
ATOM     33  C   UNL A   1      41.858  20.889  26.560  1.00  0.00     0.060 A 
ATOM     34  C   UNL A   1      41.906  21.188  27.929  1.00  0.00     0.016 A 
ATOM     35  C   UNL A   1      42.319  21.806  25.616  1.00  0.00     0.016 A 
ATOM     36  C   UNL A   1      42.413  22.414  28.359  1.00  0.00     0.010 A 
ATOM     37  C   UNL A   1      42.797  23.048  26.047  1.00  0.00     0.010 A 
ATOM     38  C   UNL A   1      42.827  23.364  27.418  1.00  0.00    -0.014 A 
BRANCH  38  39
ATOM     39  C   UNL A   1      43.103  24.753  27.857  1.00  0.00     0.031 A 
ATOM     40  C   UNL A   1      44.538  25.179  28.013  1.00  0.00     0.074 A 
ATOM     41  C   UNL A   1      42.110  25.636  28.070  1.00  0.00     0.049 A 
ATOM     42  N   UNL A   1      45.023  26.325  28.415  1.00  0.00    -0.248 NA
ATOM     43  C   UNL A   1      45.561  24.181  27.658  1.00  0.00     0.031 C 
ATOM     44  C   UNL A   1      40.684  25.374  27.882  1.00  0.00     0.029 A 
ATOM     45  N   UNL A   1      42.161  26.943  28.492  1.00  0.00    -0.354 N 
ATOM     46  C   UNL A   1      46.404  26.187  28.356  1.00  0.00     0.074 A 
ATOM     47  C   UNL A   1      46.682  24.840  27.911  1.00  0.00     0.031 C 
ATOM     48  C   UNL A   1      39.994  26.487  28.188  1.00  0.00     0.029 A 
ATOM     49  C   UNL A   1      40.925  27.526  28.632  1.00  0.00     0.049 A 
ATOM     50  H   UNL A   1      43.004  27.416  28.676  1.00  0.00     0.167 HD
ATOM     51  C   UNL A   1      47.357  27.105  28.637  1.00  0.00     0.031 A 
ATOM     52  C   UNL A   1      40.586  28.749  29.085  1.00  0.00     0.031 A 
ATOM     53  C   UNL A   1      47.087  28.438  29.099  1.00  0.00     0.049 A 
ATOM     54  C   UNL A   1      41.668  29.708  29.516  1.00  0.00     0.074 A 
ATOM     55  C   UNL A   1      47.992  29.432  29.427  1.00  0.00     0.029 A 
ATOM     56  N   UNL A   1      45.822  28.963  29.301  1.00  0.00    -0.354 N 
ATOM     57  N   UNL A   1      42.970  29.569  29.456  1.00  0.00    -0.248 NA
ATOM     58  C   UNL A   1      41.231  30.997  30.077  1.00  0.00     0.031 C 
ATOM     59  C   UNL A   1      47.275  30.540  29.883  1.00  0.00     0.029 A 
ATOM     60  C   UNL A   1      45.923  30.259  29.775  1.00  0.00     0.049 A 
ATOM     61  H   UNL A   1      44.978  28.487  29.132  1.00  0.00     0.167 HD
ATOM     62  C   UNL A   1      43.504  30.758  29.940  1.00  0.00     0.074 A 
ATOM     63  C   UNL A   1      42.388  31.615  30.274  1.00  0.00     0.031 C 
ATOM     64  C   UNL A   1      44.805  31.108  30.094  1.00  0.00     0.031 A 
BRANCH  51  65
ATOM     65  C   UNL A   1      48.792  26.697  28.468  1.00  0.00    -0.014 A 
ATOM     66  C   UNL A   1      49.463  26.902  27.253  1.00  0.00     0.009 A 
ATOM     67  C   UNL A   1      49.504  26.179  29.562  1.00  0.00     0.009 A 
ATOM     68  C   UNL A   1      50.817  26.585  27.134  1.00  0.00     0.001 A 
ATOM     69  C   UNL A   1      50.864  25.889  29.447  1.00  0.00     0.001 A 
ATOM     70  C   UNL A   1      51.519  26.090  28.233  1.00  0.00     0.000 A 
ENDBRANCH  51  65
BRANCH  52  71
ATOM     71  C   UNL A   1      39.154  29.149  29.178  1.00  0.00    -0.014 A 
ATOM     72  C   UNL A   1      38.522  29.798  28.107  1.00  0.00     0.009 A 
ATOM     73  C   UNL A   1      38.424  28.921  30.356  1.00  0.00     0.009 A 
ATOM     74  C   UNL A   1      37.198  30.233  28.222  1.00  0.00     0.001 A 
ATOM     75  C   UNL A   1      37.092  29.328  30.456  1.00  0.00     0.001 A 
ATOM     76  C   UNL A   1      36.483  29.992  29.393  1.00  0.00     0.000 A 
ENDBRANCH  52  71
BRANCH  64  77
ATOM     77  C   UNL A   1      45.109  32.485  30.615  1.00  0.00    -0.014 A 
ATOM     78  C   UNL A   1      45.310  32.719  31.984  1.00  0.00     0.009 A 
ATOM     79  C   UNL A   1      45.285  33.548  29.712  1.00  0.00     0.009 A 
ATOM     80  C   UNL A   1      45.663  33.991  32.439  1.00  0.00     0.001 A 
ATOM     81  C   UNL A   1      45.668  34.810  30.167  1.00  0.00     0.001 A 
ATOM     82  C   UNL A   1      45.850  35.032  31.530  1.00  0.00     0.000 A 
ENDBRANCH  64  77
ENDBRANCH  38  39
ENDBRANCH  31  33
ENDBRANCH  30  31
ENDBRANCH  29  30
ENDBRANCH  28  29
ENDBRANCH  27  28
ENDBRANCH   1  27
TORSDOF 18
ENDMDL
