MODEL 1
REMARK VINA RESULT:     -11.3      0.000      0.000
REMARK SMILES Cc1ccccc1/[NH+]=C1\S[C@@H](CC(=O)Nc2ccc(C(=O)OCCOCCOCCOC(=O)c3ccc(-c4c5nc(c(-c6ccccc6)c6ccc([nH]6)c(-c6ccccc6)c6nc(c(-c7ccccc7)c7ccc4[nH]7)C=C6)C=C5)cc3)cc2)C(=O)N1C
REMARK SMILES IDX 26 1 25 2 24 3 23 4 22 5 20 6 21 7 19 8 16 9 17 10 83 11
REMARK SMILES IDX 18 12 82 13 15 14 13 15 14 16 12 18 11 19 8 20 9 21 10 23
REMARK SMILES IDX 86 24 84 25 87 26 85 27 7 28 1 29 2 30 3 31 4 32 6 33 5 34
REMARK SMILES IDX 27 35 28 36 29 37 30 38 31 39 32 40 33 41 34 42 35 43 81 44
REMARK SMILES IDX 36 45 80 46 37 47 38 48 39 49 74 50 40 51 79 52 73 53 75 54
REMARK SMILES IDX 41 55 78 56 72 57 71 58 42 60 64 61 49 62 63 63 50 64 53 65
REMARK SMILES IDX 62 66 76 67 51 68 52 69 61 71 77 72 54 73 43 74 44 75 48 76
REMARK SMILES IDX 45 77 47 78 46 79 65 80 66 81 70 82 67 83 69 84 68 85 55 86
REMARK SMILES IDX 56 87 60 88 57 89 59 90 58 91
REMARK H PARENT 15 17 8 22 75 59 53 70
REMARK Flexibility Score: inf
ROOT
ATOM      1  C   UNL A   1      41.137  19.831  27.482  1.00  0.00     0.188 C 
ENDROOT
BRANCH   1   2
ATOM      2  O   UNL A   1      41.134  21.139  28.039  1.00  0.00    -0.376 OA
BRANCH   2   3
ATOM      3  C   UNL A   1      41.279  22.337  27.303  1.00  0.00     0.202 C 
BRANCH   3   4
ATOM      4  C   UNL A   1      40.020  22.776  26.359  1.00  0.00     0.261 C 
BRANCH   4   5
ATOM      5  O   UNL A   1      38.671  21.923  26.120  1.00  0.00    -0.460 OA
BRANCH   5   6
ATOM      6  C   UNL A   1      37.570  21.445  25.418  1.00  0.00     0.338 C 
ATOM      7  O   UNL A   1      37.751  20.458  24.700  1.00  0.00    -0.246 OA
BRANCH   6   8
ATOM      8  C   UNL A   1      36.119  21.916  25.312  1.00  0.00     0.060 A 
ATOM      9  C   UNL A   1      33.460  22.526  26.009  1.00  0.00     0.041 A 
ATOM     10  C   UNL A   1      33.756  21.306  25.407  1.00  0.00     0.027 A 
ATOM     11  C   UNL A   1      34.402  23.548  25.988  1.00  0.00     0.027 A 
ATOM     12  C   UNL A   1      35.089  20.991  25.096  1.00  0.00     0.018 A 
ATOM     13  C   UNL A   1      35.738  23.235  25.671  1.00  0.00     0.018 A 
BRANCH   9  14
ATOM     14  N   UNL A   1      32.379  22.551  26.913  1.00  0.00    -0.326 N 
ATOM     15  C   UNL A   1      31.215  23.260  26.663  1.00  0.00     0.226 C 
ATOM     16  O   UNL A   1      30.490  23.593  27.603  1.00  0.00    -0.275 OA
ATOM     17  H   UNL A   1      32.453  22.044  27.754  1.00  0.00     0.169 HD
BRANCH  15  18
ATOM     18  C   UNL A   1      30.839  23.635  25.241  1.00  0.00     0.128 C 
BRANCH  18  19
ATOM     19  C   UNL A   1      31.476  24.908  24.708  1.00  0.00     0.183 C 
ATOM     20  N   UNL A   1      31.696  28.663  24.632  1.00  0.00    -0.234 N 
ATOM     21  C   UNL A   1      31.279  27.450  24.649  1.00  0.00     0.319 C 
ATOM     22  H   UNL A   1      31.514  29.109  23.774  1.00  0.00     0.313 HD
ATOM     23  S   UNL A   1      31.211  26.257  25.897  1.00  0.00    -0.022 SA
ATOM     24  N   UNL A   1      30.859  26.876  23.475  1.00  0.00    -0.193 N 
ATOM     25  C   UNL A   1      31.028  25.507  23.383  1.00  0.00     0.324 C 
ATOM     26  C   UNL A   1      30.432  27.687  22.350  1.00  0.00     0.301 C 
ATOM     27  O   UNL A   1      30.992  24.878  22.329  1.00  0.00    -0.245 OA
BRANCH  20  28
ATOM     28  C   UNL A   1      32.347  29.503  25.541  1.00  0.00     0.128 A 
ATOM     29  C   UNL A   1      30.743  31.529  25.732  1.00  0.00     0.049 C 
ATOM     30  C   UNL A   1      31.924  30.705  26.143  1.00  0.00    -0.004 A 
ATOM     31  C   UNL A   1      32.640  31.216  27.250  1.00  0.00     0.008 A 
ATOM     32  C   UNL A   1      33.737  30.552  27.788  1.00  0.00     0.001 A 
ATOM     33  C   UNL A   1      33.494  28.883  26.083  1.00  0.00     0.052 A 
ATOM     34  C   UNL A   1      34.175  29.382  27.195  1.00  0.00     0.004 A 
ENDBRANCH  20  28
ENDBRANCH  18  19
ENDBRANCH  15  18
ENDBRANCH   9  14
ENDBRANCH   6   8
ENDBRANCH   5   6
ENDBRANCH   4   5
ENDBRANCH   3   4
ENDBRANCH   2   3
ENDBRANCH   1   2
BRANCH   1  35
ATOM     35  C   UNL A   1      41.964  19.613  26.221  1.00  0.00     0.188 C 
BRANCH  35  36
ATOM     36  O   UNL A   1      43.235  19.086  26.564  1.00  0.00    -0.376 OA
BRANCH  36  37
ATOM     37  C   UNL A   1      43.810  18.246  25.576  1.00  0.00     0.202 C 
BRANCH  37  38
ATOM     38  C   UNL A   1      45.317  18.492  25.385  1.00  0.00     0.261 C 
BRANCH  38  39
ATOM     39  O   UNL A   1      45.575  19.910  25.312  1.00  0.00    -0.460 OA
BRANCH  39  40
ATOM     40  C   UNL A   1      45.011  20.573  24.242  1.00  0.00     0.338 C 
ATOM     41  O   UNL A   1      44.748  20.092  23.185  1.00  0.00    -0.246 OA
BRANCH  40  42
ATOM     42  C   UNL A   1      45.032  22.052  24.532  1.00  0.00     0.060 A 
ATOM     43  C   UNL A   1      45.999  22.686  25.304  1.00  0.00     0.016 A 
ATOM     44  C   UNL A   1      43.921  22.784  24.274  1.00  0.00     0.016 A 
ATOM     45  C   UNL A   1      45.725  23.938  25.982  1.00  0.00     0.010 A 
ATOM     46  C   UNL A   1      43.682  23.925  25.060  1.00  0.00     0.010 A 
ATOM     47  C   UNL A   1      44.472  24.564  26.021  1.00  0.00    -0.014 A 
BRANCH  47  48
ATOM     48  C   UNL A   1      43.988  25.591  27.187  1.00  0.00     0.031 A 
ATOM     49  C   UNL A   1      42.625  26.264  27.614  1.00  0.00     0.074 A 
ATOM     50  C   UNL A   1      44.933  26.026  28.057  1.00  0.00     0.049 A 
ATOM     51  N   UNL A   1      42.339  27.546  27.471  1.00  0.00    -0.248 NA
ATOM     52  C   UNL A   1      41.572  25.628  28.447  1.00  0.00     0.031 C 
ATOM     53  C   UNL A   1      44.780  26.908  29.219  1.00  0.00     0.029 A 
ATOM     54  N   UNL A   1      46.310  25.879  27.943  1.00  0.00    -0.354 N 
ATOM     55  C   UNL A   1      41.116  27.793  28.123  1.00  0.00     0.074 A 
ATOM     56  C   UNL A   1      40.592  26.526  28.520  1.00  0.00     0.031 C 
ATOM     57  C   UNL A   1      45.975  27.465  29.482  1.00  0.00     0.029 A 
ATOM     58  C   UNL A   1      46.902  27.032  28.452  1.00  0.00     0.049 A 
ATOM     59  H   UNL A   1      46.784  25.100  27.570  1.00  0.00     0.167 HD
ATOM     60  C   UNL A   1      40.682  28.939  28.731  1.00  0.00     0.031 A 
ATOM     61  C   UNL A   1      47.664  27.822  27.643  1.00  0.00     0.031 A 
ATOM     62  C   UNL A   1      41.772  29.790  29.112  1.00  0.00     0.049 A 
ATOM     63  C   UNL A   1      47.155  29.238  27.533  1.00  0.00     0.074 A 
ATOM     64  C   UNL A   1      42.428  29.976  30.317  1.00  0.00     0.029 A 
ATOM     65  N   UNL A   1      42.533  30.379  28.132  1.00  0.00    -0.354 N 
ATOM     66  N   UNL A   1      45.990  29.638  27.960  1.00  0.00    -0.248 NA
ATOM     67  C   UNL A   1      47.902  30.305  26.873  1.00  0.00     0.031 C 
ATOM     68  C   UNL A   1      43.656  30.622  30.036  1.00  0.00     0.029 A 
ATOM     69  C   UNL A   1      43.691  30.882  28.680  1.00  0.00     0.049 A 
ATOM     70  H   UNL A   1      42.288  30.433  27.180  1.00  0.00     0.167 HD
ATOM     71  C   UNL A   1      45.798  30.947  27.595  1.00  0.00     0.074 A 
ATOM     72  C   UNL A   1      47.036  31.330  26.950  1.00  0.00     0.031 C 
ATOM     73  C   UNL A   1      44.618  31.589  27.826  1.00  0.00     0.031 A 
BRANCH  60  74
ATOM     74  C   UNL A   1      39.278  29.032  29.305  1.00  0.00    -0.014 A 
ATOM     75  C   UNL A   1      38.146  29.388  28.549  1.00  0.00     0.009 A 
ATOM     76  C   UNL A   1      39.062  28.752  30.671  1.00  0.00     0.009 A 
ATOM     77  C   UNL A   1      36.881  29.543  29.148  1.00  0.00     0.001 A 
ATOM     78  C   UNL A   1      37.804  28.918  31.270  1.00  0.00     0.001 A 
ATOM     79  C   UNL A   1      36.714  29.330  30.512  1.00  0.00     0.000 A 
ENDBRANCH  60  74
BRANCH  61  80
ATOM     80  C   UNL A   1      48.421  27.095  26.572  1.00  0.00    -0.014 A 
ATOM     81  C   UNL A   1      47.922  27.150  25.250  1.00  0.00     0.009 A 
ATOM     82  C   UNL A   1      49.722  26.606  26.762  1.00  0.00     0.009 A 
ATOM     83  C   UNL A   1      48.723  26.811  24.153  1.00  0.00     0.001 A 
ATOM     84  C   UNL A   1      50.518  26.252  25.658  1.00  0.00     0.001 A 
ATOM     85  C   UNL A   1      50.025  26.370  24.358  1.00  0.00     0.000 A 
ENDBRANCH  61  80
BRANCH  73  86
ATOM     86  C   UNL A   1      44.182  32.936  27.305  1.00  0.00    -0.014 A 
ATOM     87  C   UNL A   1      44.091  34.094  28.082  1.00  0.00     0.009 A 
ATOM     88  C   UNL A   1      43.984  33.093  25.910  1.00  0.00     0.009 A 
ATOM     89  C   UNL A   1      43.783  35.333  27.504  1.00  0.00     0.001 A 
ATOM     90  C   UNL A   1      43.727  34.333  25.324  1.00  0.00     0.001 A 
ATOM     91  C   UNL A   1      43.614  35.456  26.127  1.00  0.00     0.000 A 
ENDBRANCH  73  86
ENDBRANCH  47  48
ENDBRANCH  40  42
ENDBRANCH  39  40
ENDBRANCH  38  39
ENDBRANCH  37  38
ENDBRANCH  36  37
ENDBRANCH  35  36
ENDBRANCH   1  35
TORSDOF 21
ENDMDL
MODEL 2
REMARK VINA RESULT:     -10.8      1.500      2.518
REMARK SMILES Cc1ccccc1/[NH+]=C1\S[C@@H](CC(=O)Nc2ccc(C(=O)OCCOCCOCCOC(=O)c3ccc(-c4c5nc(c(-c6ccccc6)c6ccc([nH]6)c(-c6ccccc6)c6nc(c(-c7ccccc7)c7ccc4[nH]7)C=C6)C=C5)cc3)cc2)C(=O)N1C
REMARK SMILES IDX 26 1 25 2 24 3 23 4 22 5 20 6 21 7 19 8 16 9 17 10 83 11
REMARK SMILES IDX 18 12 82 13 15 14 13 15 14 16 12 18 11 19 8 20 9 21 10 23
REMARK SMILES IDX 86 24 84 25 87 26 85 27 7 28 1 29 2 30 3 31 4 32 6 33 5 34
REMARK SMILES IDX 27 35 28 36 29 37 30 38 31 39 32 40 33 41 34 42 35 43 81 44
REMARK SMILES IDX 36 45 80 46 37 47 38 48 39 49 74 50 40 51 79 52 73 53 75 54
REMARK SMILES IDX 41 55 78 56 72 57 71 58 42 60 64 61 49 62 63 63 50 64 53 65
REMARK SMILES IDX 62 66 76 67 51 68 52 69 61 71 77 72 54 73 43 74 44 75 48 76
REMARK SMILES IDX 45 77 47 78 46 79 65 80 66 81 70 82 67 83 69 84 68 85 55 86
REMARK SMILES IDX 56 87 60 88 57 89 59 90 58 91
REMARK H PARENT 15 17 8 22 75 59 53 70
REMARK Flexibility Score: inf
ROOT
ATOM      1  C   UNL A   1      40.532  21.959  27.586  1.00  0.00     0.188 C 
ENDROOT
BRANCH   1   2
ATOM      2  O   UNL A   1      40.424  23.371  27.713  1.00  0.00    -0.376 OA
BRANCH   2   3
ATOM      3  C   UNL A   1      39.784  24.226  26.788  1.00  0.00     0.202 C 
BRANCH   3   4
ATOM      4  C   UNL A   1      38.217  23.906  26.454  1.00  0.00     0.261 C 
BRANCH   4   5
ATOM      5  O   UNL A   1      37.673  23.025  25.216  1.00  0.00    -0.460 OA
BRANCH   5   6
ATOM      6  C   UNL A   1      36.738  22.327  24.460  1.00  0.00     0.338 C 
ATOM      7  O   UNL A   1      37.137  21.317  23.872  1.00  0.00    -0.246 OA
BRANCH   6   8
ATOM      8  C   UNL A   1      35.258  22.564  24.157  1.00  0.00     0.060 A 
ATOM      9  C   UNL A   1      32.501  23.005  24.528  1.00  0.00     0.041 A 
ATOM     10  C   UNL A   1      32.973  21.713  24.313  1.00  0.00     0.027 A 
ATOM     11  C   UNL A   1      33.328  24.091  24.260  1.00  0.00     0.027 A 
ATOM     12  C   UNL A   1      34.353  21.494  24.166  1.00  0.00     0.018 A 
ATOM     13  C   UNL A   1      34.710  23.872  24.108  1.00  0.00     0.018 A 
BRANCH   9  14
ATOM     14  N   UNL A   1      31.355  23.144  25.336  1.00  0.00    -0.326 N 
ATOM     15  C   UNL A   1      31.218  24.162  26.264  1.00  0.00     0.226 C 
ATOM     16  O   UNL A   1      30.432  24.028  27.206  1.00  0.00    -0.275 OA
ATOM     17  H   UNL A   1      30.624  22.491  25.237  1.00  0.00     0.169 HD
BRANCH  15  18
ATOM     18  C   UNL A   1      32.035  25.434  26.130  1.00  0.00     0.128 C 
BRANCH  18  19
ATOM     19  C   UNL A   1      31.233  26.724  26.052  1.00  0.00     0.183 C 
ATOM     20  N   UNL A   1      30.417  29.959  24.314  1.00  0.00    -0.234 N 
ATOM     21  C   UNL A   1      31.021  28.956  24.837  1.00  0.00     0.319 C 
ATOM     22  H   UNL A   1      30.573  30.793  24.814  1.00  0.00     0.313 HD
ATOM     23  S   UNL A   1      31.209  27.314  24.333  1.00  0.00    -0.022 SA
ATOM     24  N   UNL A   1      31.595  29.099  26.075  1.00  0.00    -0.193 N 
ATOM     25  C   UNL A   1      31.654  27.952  26.845  1.00  0.00     0.324 C 
ATOM     26  C   UNL A   1      31.949  30.407  26.596  1.00  0.00     0.301 C 
ATOM     27  O   UNL A   1      31.851  27.945  28.056  1.00  0.00    -0.245 OA
BRANCH  20  28
ATOM     28  C   UNL A   1      29.588  30.152  23.205  1.00  0.00     0.128 A 
ATOM     29  C   UNL A   1      28.168  27.986  23.139  1.00  0.00     0.049 C 
ATOM     30  C   UNL A   1      28.513  29.380  22.717  1.00  0.00    -0.004 A 
ATOM     31  C   UNL A   1      27.645  29.934  21.749  1.00  0.00     0.008 A 
ATOM     32  C   UNL A   1      27.796  31.234  21.280  1.00  0.00     0.001 A 
ATOM     33  C   UNL A   1      29.740  31.450  22.669  1.00  0.00     0.052 A 
ATOM     34  C   UNL A   1      28.856  31.995  21.735  1.00  0.00     0.004 A 
ENDBRANCH  20  28
ENDBRANCH  18  19
ENDBRANCH  15  18
ENDBRANCH   9  14
ENDBRANCH   6   8
ENDBRANCH   5   6
ENDBRANCH   4   5
ENDBRANCH   3   4
ENDBRANCH   2   3
ENDBRANCH   1   2
BRANCH   1  35
ATOM     35  C   UNL A   1      41.299  21.427  26.382  1.00  0.00     0.188 C 
BRANCH  35  36
ATOM     36  O   UNL A   1      42.402  20.650  26.819  1.00  0.00    -0.376 OA
BRANCH  36  37
ATOM     37  C   UNL A   1      42.426  19.324  26.317  1.00  0.00     0.202 C 
BRANCH  37  38
ATOM     38  C   UNL A   1      43.420  19.141  25.157  1.00  0.00     0.261 C 
BRANCH  38  39
ATOM     39  O   UNL A   1      44.532  20.046  25.320  1.00  0.00    -0.460 OA
BRANCH  39  40
ATOM     40  C   UNL A   1      44.678  21.008  24.341  1.00  0.00     0.338 C 
ATOM     41  O   UNL A   1      44.634  20.817  23.166  1.00  0.00    -0.246 OA
BRANCH  40  42
ATOM     42  C   UNL A   1      45.166  22.277  24.988  1.00  0.00     0.060 A 
ATOM     43  C   UNL A   1      45.757  22.341  26.245  1.00  0.00     0.016 A 
ATOM     44  C   UNL A   1      44.776  23.467  24.469  1.00  0.00     0.016 A 
ATOM     45  C   UNL A   1      45.730  23.556  27.035  1.00  0.00     0.010 A 
ATOM     46  C   UNL A   1      44.673  24.568  25.337  1.00  0.00     0.010 A 
ATOM     47  C   UNL A   1      45.036  24.721  26.679  1.00  0.00    -0.014 A 
BRANCH  47  48
ATOM     48  C   UNL A   1      44.506  25.840  27.735  1.00  0.00     0.031 A 
ATOM     49  C   UNL A   1      43.111  26.475  28.111  1.00  0.00     0.074 A 
ATOM     50  C   UNL A   1      45.434  26.423  28.535  1.00  0.00     0.049 A 
ATOM     51  N   UNL A   1      42.746  27.715  27.834  1.00  0.00    -0.248 NA
ATOM     52  C   UNL A   1      42.108  25.875  29.028  1.00  0.00     0.031 C 
ATOM     53  C   UNL A   1      45.243  27.417  29.596  1.00  0.00     0.029 A 
ATOM     54  N   UNL A   1      46.816  26.344  28.412  1.00  0.00    -0.354 N 
ATOM     55  C   UNL A   1      41.519  27.961  28.478  1.00  0.00     0.074 A 
ATOM     56  C   UNL A   1      41.077  26.716  29.021  1.00  0.00     0.031 C 
ATOM     57  C   UNL A   1      46.405  28.068  29.775  1.00  0.00     0.029 A 
ATOM     58  C   UNL A   1      47.344  27.578  28.780  1.00  0.00     0.049 A 
ATOM     59  H   UNL A   1      47.331  25.557  28.117  1.00  0.00     0.167 HD
ATOM     60  C   UNL A   1      41.025  29.140  28.966  1.00  0.00     0.031 A 
ATOM     61  C   UNL A   1      48.047  28.317  27.876  1.00  0.00     0.031 A 
ATOM     62  C   UNL A   1      42.067  30.089  29.231  1.00  0.00     0.049 A 
ATOM     63  C   UNL A   1      47.453  29.681  27.622  1.00  0.00     0.074 A 
ATOM     64  C   UNL A   1      42.725  30.444  30.396  1.00  0.00     0.029 A 
ATOM     65  N   UNL A   1      42.778  30.610  28.179  1.00  0.00    -0.354 N 
ATOM     66  N   UNL A   1      46.271  30.057  28.024  1.00  0.00    -0.248 NA
ATOM     67  C   UNL A   1      48.126  30.711  26.836  1.00  0.00     0.031 C 
ATOM     68  C   UNL A   1      43.908  31.126  30.024  1.00  0.00     0.029 A 
ATOM     69  C   UNL A   1      43.911  31.237  28.647  1.00  0.00     0.049 A 
ATOM     70  H   UNL A   1      42.519  30.544  27.231  1.00  0.00     0.167 HD
ATOM     71  C   UNL A   1      45.997  31.304  27.522  1.00  0.00     0.074 A 
ATOM     72  C   UNL A   1      47.202  31.685  26.816  1.00  0.00     0.031 C 
ATOM     73  C   UNL A   1      44.783  31.898  27.703  1.00  0.00     0.031 A 
BRANCH  60  74
ATOM     74  C   UNL A   1      39.624  29.213  29.552  1.00  0.00    -0.014 A 
ATOM     75  C   UNL A   1      39.336  29.019  30.915  1.00  0.00     0.009 A 
ATOM     76  C   UNL A   1      38.528  29.492  28.708  1.00  0.00     0.009 A 
ATOM     77  C   UNL A   1      38.011  29.013  31.393  1.00  0.00     0.001 A 
ATOM     78  C   UNL A   1      37.207  29.474  29.182  1.00  0.00     0.001 A 
ATOM     79  C   UNL A   1      36.945  29.218  30.522  1.00  0.00     0.000 A 
ENDBRANCH  60  74
BRANCH  61  80
ATOM     80  C   UNL A   1      48.833  27.523  26.877  1.00  0.00    -0.014 A 
ATOM     81  C   UNL A   1      48.288  27.353  25.584  1.00  0.00     0.009 A 
ATOM     82  C   UNL A   1      50.180  27.182  27.070  1.00  0.00     0.009 A 
ATOM     83  C   UNL A   1      49.079  26.941  24.506  1.00  0.00     0.001 A 
ATOM     84  C   UNL A   1      50.969  26.754  25.987  1.00  0.00     0.001 A 
ATOM     85  C   UNL A   1      50.424  26.650  24.707  1.00  0.00     0.000 A 
ENDBRANCH  61  80
BRANCH  73  86
ATOM     86  C   UNL A   1      44.261  33.152  27.047  1.00  0.00    -0.014 A 
ATOM     87  C   UNL A   1      44.090  33.313  25.670  1.00  0.00     0.009 A 
ATOM     88  C   UNL A   1      43.772  34.196  27.872  1.00  0.00     0.009 A 
ATOM     89  C   UNL A   1      43.497  34.468  25.142  1.00  0.00     0.001 A 
ATOM     90  C   UNL A   1      43.135  35.325  27.354  1.00  0.00     0.001 A 
ATOM     91  C   UNL A   1      43.009  35.466  25.982  1.00  0.00     0.000 A 
ENDBRANCH  73  86
ENDBRANCH  47  48
ENDBRANCH  40  42
ENDBRANCH  39  40
ENDBRANCH  38  39
ENDBRANCH  37  38
ENDBRANCH  36  37
ENDBRANCH  35  36
ENDBRANCH   1  35
TORSDOF 21
ENDMDL
MODEL 3
REMARK VINA RESULT:     -10.8      1.757      4.212
REMARK SMILES Cc1ccccc1/[NH+]=C1\S[C@@H](CC(=O)Nc2ccc(C(=O)OCCOCCOCCOC(=O)c3ccc(-c4c5nc(c(-c6ccccc6)c6ccc([nH]6)c(-c6ccccc6)c6nc(c(-c7ccccc7)c7ccc4[nH]7)C=C6)C=C5)cc3)cc2)C(=O)N1C
REMARK SMILES IDX 26 1 25 2 24 3 23 4 22 5 20 6 21 7 19 8 16 9 17 10 83 11
REMARK SMILES IDX 18 12 82 13 15 14 13 15 14 16 12 18 11 19 8 20 9 21 10 23
REMARK SMILES IDX 86 24 84 25 87 26 85 27 7 28 1 29 2 30 3 31 4 32 6 33 5 34
REMARK SMILES IDX 27 35 28 36 29 37 30 38 31 39 32 40 33 41 34 42 35 43 81 44
REMARK SMILES IDX 36 45 80 46 37 47 38 48 39 49 74 50 40 51 79 52 73 53 75 54
REMARK SMILES IDX 41 55 78 56 72 57 71 58 42 60 64 61 49 62 63 63 50 64 53 65
REMARK SMILES IDX 62 66 76 67 51 68 52 69 61 71 77 72 54 73 43 74 44 75 48 76
REMARK SMILES IDX 45 77 47 78 46 79 65 80 66 81 70 82 67 83 69 84 68 85 55 86
REMARK SMILES IDX 56 87 60 88 57 89 59 90 58 91
REMARK H PARENT 15 17 8 22 75 59 53 70
REMARK Flexibility Score: inf
ROOT
ATOM      1  C   UNL A   1      40.247  21.608  26.934  1.00  0.00     0.188 C 
ENDROOT
BRANCH   1   2
ATOM      2  O   UNL A   1      39.785  22.908  27.275  1.00  0.00    -0.376 OA
BRANCH   2   3
ATOM      3  C   UNL A   1      39.240  23.843  26.365  1.00  0.00     0.202 C 
BRANCH   3   4
ATOM      4  C   UNL A   1      37.610  23.907  26.267  1.00  0.00     0.261 C 
BRANCH   4   5
ATOM      5  O   UNL A   1      36.702  23.226  25.120  1.00  0.00    -0.460 OA
BRANCH   5   6
ATOM      6  C   UNL A   1      35.585  23.056  24.309  1.00  0.00     0.338 C 
ATOM      7  O   UNL A   1      35.163  21.904  24.175  1.00  0.00    -0.246 OA
BRANCH   6   8
ATOM      8  C   UNL A   1      34.741  24.027  23.483  1.00  0.00     0.060 A 
ATOM      9  C   UNL A   1      32.539  25.519  22.558  1.00  0.00     0.041 A 
ATOM     10  C   UNL A   1      32.866  24.313  21.944  1.00  0.00     0.027 A 
ATOM     11  C   UNL A   1      33.457  26.128  23.406  1.00  0.00     0.027 A 
ATOM     12  C   UNL A   1      33.943  23.555  22.433  1.00  0.00     0.018 A 
ATOM     13  C   UNL A   1      34.539  25.370  23.894  1.00  0.00     0.018 A 
BRANCH   9  14
ATOM     14  N   UNL A   1      31.177  25.881  22.578  1.00  0.00    -0.326 N 
ATOM     15  C   UNL A   1      30.352  25.616  23.658  1.00  0.00     0.226 C 
ATOM     16  O   UNL A   1      29.131  25.566  23.496  1.00  0.00    -0.275 OA
ATOM     17  H   UNL A   1      30.797  26.339  21.793  1.00  0.00     0.169 HD
BRANCH  15  18
ATOM     18  C   UNL A   1      30.948  25.379  25.034  1.00  0.00     0.128 C 
BRANCH  18  19
ATOM     19  C   UNL A   1      31.929  24.222  25.134  1.00  0.00     0.183 C 
ATOM     20  N   UNL A   1      32.629  20.580  25.767  1.00  0.00    -0.234 N 
ATOM     21  C   UNL A   1      32.186  21.782  25.830  1.00  0.00     0.319 C 
ATOM     22  H   UNL A   1      33.217  20.358  26.524  1.00  0.00     0.313 HD
ATOM     23  S   UNL A   1      31.043  22.657  24.873  1.00  0.00    -0.022 SA
ATOM     24  N   UNL A   1      32.721  22.639  26.759  1.00  0.00    -0.193 N 
ATOM     25  C   UNL A   1      32.718  23.978  26.412  1.00  0.00     0.324 C 
ATOM     26  C   UNL A   1      33.402  22.142  27.940  1.00  0.00     0.301 C 
ATOM     27  O   UNL A   1      33.403  24.834  26.963  1.00  0.00    -0.245 OA
BRANCH  20  28
ATOM     28  C   UNL A   1      32.477  19.511  24.880  1.00  0.00     0.128 A 
ATOM     29  C   UNL A   1      32.117  20.679  22.595  1.00  0.00     0.049 C 
ATOM     30  C   UNL A   1      32.368  19.493  23.474  1.00  0.00    -0.004 A 
ATOM     31  C   UNL A   1      32.516  18.269  22.782  1.00  0.00     0.008 A 
ATOM     32  C   UNL A   1      32.798  17.078  23.442  1.00  0.00     0.001 A 
ATOM     33  C   UNL A   1      32.714  18.274  25.520  1.00  0.00     0.052 A 
ATOM     34  C   UNL A   1      32.888  17.077  24.822  1.00  0.00     0.004 A 
ENDBRANCH  20  28
ENDBRANCH  18  19
ENDBRANCH  15  18
ENDBRANCH   9  14
ENDBRANCH   6   8
ENDBRANCH   5   6
ENDBRANCH   4   5
ENDBRANCH   3   4
ENDBRANCH   2   3
ENDBRANCH   1   2
BRANCH   1  35
ATOM     35  C   UNL A   1      41.575  21.513  26.193  1.00  0.00     0.188 C 
BRANCH  35  36
ATOM     36  O   UNL A   1      42.426  20.585  26.846  1.00  0.00    -0.376 OA
BRANCH  36  37
ATOM     37  C   UNL A   1      42.268  19.242  26.422  1.00  0.00     0.202 C 
BRANCH  37  38
ATOM     38  C   UNL A   1      43.331  18.808  25.398  1.00  0.00     0.261 C 
BRANCH  38  39
ATOM     39  O   UNL A   1      44.468  19.694  25.469  1.00  0.00    -0.460 OA
BRANCH  39  40
ATOM     40  C   UNL A   1      44.680  20.498  24.368  1.00  0.00     0.338 C 
ATOM     41  O   UNL A   1      44.788  20.122  23.243  1.00  0.00    -0.246 OA
BRANCH  40  42
ATOM     42  C   UNL A   1      45.018  21.885  24.847  1.00  0.00     0.060 A 
ATOM     43  C   UNL A   1      45.765  22.161  25.988  1.00  0.00     0.016 A 
ATOM     44  C   UNL A   1      44.348  22.939  24.322  1.00  0.00     0.016 A 
ATOM     45  C   UNL A   1      45.633  23.421  26.693  1.00  0.00     0.010 A 
ATOM     46  C   UNL A   1      44.174  24.081  25.124  1.00  0.00     0.010 A 
ATOM     47  C   UNL A   1      44.696  24.415  26.378  1.00  0.00    -0.014 A 
BRANCH  47  48
ATOM     48  C   UNL A   1      44.130  25.519  27.432  1.00  0.00     0.031 A 
ATOM     49  C   UNL A   1      42.738  26.202  27.722  1.00  0.00     0.074 A 
ATOM     50  C   UNL A   1      45.016  26.031  28.323  1.00  0.00     0.049 A 
ATOM     51  N   UNL A   1      42.449  27.467  27.466  1.00  0.00    -0.248 NA
ATOM     52  C   UNL A   1      41.641  25.616  28.535  1.00  0.00     0.031 C 
ATOM     53  C   UNL A   1      44.783  26.995  29.404  1.00  0.00     0.029 A 
ATOM     54  N   UNL A   1      46.399  25.894  28.305  1.00  0.00    -0.354 N 
ATOM     55  C   UNL A   1      41.186  27.744  28.021  1.00  0.00     0.074 A 
ATOM     56  C   UNL A   1      40.650  26.503  28.480  1.00  0.00     0.031 C 
ATOM     57  C   UNL A   1      45.953  27.586  29.697  1.00  0.00     0.029 A 
ATOM     58  C   UNL A   1      46.948  27.090  28.761  1.00  0.00     0.049 A 
ATOM     59  H   UNL A   1      46.902  25.096  28.021  1.00  0.00     0.167 HD
ATOM     60  C   UNL A   1      40.705  28.926  28.514  1.00  0.00     0.031 A 
ATOM     61  C   UNL A   1      47.751  27.828  27.943  1.00  0.00     0.031 A 
ATOM     62  C   UNL A   1      41.761  29.818  28.895  1.00  0.00     0.049 A 
ATOM     63  C   UNL A   1      47.236  29.225  27.696  1.00  0.00     0.074 A 
ATOM     64  C   UNL A   1      42.339  30.102  30.121  1.00  0.00     0.029 A 
ATOM     65  N   UNL A   1      42.575  30.343  27.922  1.00  0.00    -0.354 N 
ATOM     66  N   UNL A   1      46.043  29.640  28.019  1.00  0.00    -0.248 NA
ATOM     67  C   UNL A   1      48.013  30.250  27.004  1.00  0.00     0.031 C 
ATOM     68  C   UNL A   1      43.576  30.743  29.869  1.00  0.00     0.029 A 
ATOM     69  C   UNL A   1      43.692  30.902  28.502  1.00  0.00     0.049 A 
ATOM     70  H   UNL A   1      42.390  30.322  26.956  1.00  0.00     0.167 HD
ATOM     71  C   UNL A   1      45.862  30.914  27.546  1.00  0.00     0.074 A 
ATOM     72  C   UNL A   1      47.134  31.266  26.950  1.00  0.00     0.031 C 
ATOM     73  C   UNL A   1      44.664  31.556  27.654  1.00  0.00     0.031 A 
BRANCH  60  74
ATOM     74  C   UNL A   1      39.266  29.043  28.992  1.00  0.00    -0.014 A 
ATOM     75  C   UNL A   1      38.187  29.370  28.152  1.00  0.00     0.009 A 
ATOM     76  C   UNL A   1      38.962  28.814  30.351  1.00  0.00     0.009 A 
ATOM     77  C   UNL A   1      36.886  29.549  28.661  1.00  0.00     0.001 A 
ATOM     78  C   UNL A   1      37.668  29.005  30.860  1.00  0.00     0.001 A 
ATOM     79  C   UNL A   1      36.631  29.388  30.019  1.00  0.00     0.000 A 
ENDBRANCH  60  74
BRANCH  61  80
ATOM     80  C   UNL A   1      48.579  27.035  26.979  1.00  0.00    -0.014 A 
ATOM     81  C   UNL A   1      48.124  26.922  25.645  1.00  0.00     0.009 A 
ATOM     82  C   UNL A   1      49.896  26.639  27.256  1.00  0.00     0.009 A 
ATOM     83  C   UNL A   1      48.977  26.512  24.614  1.00  0.00     0.001 A 
ATOM     84  C   UNL A   1      50.747  26.214  26.220  1.00  0.00     0.001 A 
ATOM     85  C   UNL A   1      50.292  26.167  24.901  1.00  0.00     0.000 A 
ENDBRANCH  61  80
BRANCH  73  86
ATOM     86  C   UNL A   1      44.249  32.854  27.008  1.00  0.00    -0.014 A 
ATOM     87  C   UNL A   1      44.135  33.052  25.630  1.00  0.00     0.009 A 
ATOM     88  C   UNL A   1      43.803  33.913  27.839  1.00  0.00     0.009 A 
ATOM     89  C   UNL A   1      43.638  34.254  25.108  1.00  0.00     0.001 A 
ATOM     90  C   UNL A   1      43.261  35.092  27.324  1.00  0.00     0.001 A 
ATOM     91  C   UNL A   1      43.190  35.267  25.952  1.00  0.00     0.000 A 
ENDBRANCH  73  86
ENDBRANCH  47  48
ENDBRANCH  40  42
ENDBRANCH  39  40
ENDBRANCH  38  39
ENDBRANCH  37  38
ENDBRANCH  36  37
ENDBRANCH  35  36
ENDBRANCH   1  35
TORSDOF 21
ENDMDL
