MODEL 1
REMARK VINA RESULT:     -10.0      0.000      0.000
REMARK SMILES Cc1cccc(C)c1Nc1ccccc1CC(=O)OCCOCCOCCOC(=O)c1ccc(-c2c3nc(c(-c4ccccc4)c4ccc([nH]4)c(-c4ccccc4)c4nc(c(-c5ccccc5)c5ccc2[nH]5)C=C4)C=C3)cc1
REMARK SMILES IDX 23 1 22 2 21 3 20 4 19 5 17 6 18 7 16 8 15 9 10 10 11 11
REMARK SMILES IDX 12 12 14 13 13 14 9 15 8 17 1 18 2 19 3 20 4 21 6 22 5 23
REMARK SMILES IDX 7 24 24 25 25 26 26 27 27 28 28 29 29 30 30 31 31 32 32 33
REMARK SMILES IDX 78 34 33 35 77 36 34 37 35 38 36 39 71 40 37 41 76 42 70 43
REMARK SMILES IDX 72 44 38 45 75 46 69 47 68 48 39 50 61 51 46 52 60 53 47 54
REMARK SMILES IDX 50 55 59 56 73 57 48 58 49 59 58 61 74 62 51 63 40 64 41 65
REMARK SMILES IDX 45 66 42 67 44 68 43 69 62 70 63 71 67 72 64 73 66 74 65 75
REMARK SMILES IDX 52 76 53 77 57 78 54 79 56 80 55 81
REMARK H PARENT 9 16 72 49 50 60
REMARK Flexibility Score: inf
ROOT
ATOM      1  C   UNL A   1      40.139  20.652  26.345  1.00  0.00     0.188 C 
ENDROOT
BRANCH   1   2
ATOM      2  O   UNL A   1      39.000  21.416  25.956  1.00  0.00    -0.376 OA
BRANCH   2   3
ATOM      3  C   UNL A   1      38.894  22.756  26.420  1.00  0.00     0.202 C 
BRANCH   3   4
ATOM      4  C   UNL A   1      37.607  23.484  26.012  1.00  0.00     0.261 C 
BRANCH   4   5
ATOM      5  O   UNL A   1      37.525  23.687  24.585  1.00  0.00    -0.463 OA
BRANCH   5   6
ATOM      6  C   UNL A   1      36.412  23.214  23.971  1.00  0.00     0.310 C 
ATOM      7  O   UNL A   1      36.374  22.896  22.785  1.00  0.00    -0.252 OA
BRANCH   6   8
ATOM      8  C   UNL A   1      35.282  22.881  24.922  1.00  0.00     0.160 C 
BRANCH   8   9
ATOM      9  C   UNL A   1      34.409  21.653  24.707  1.00  0.00    -0.013 A 
ATOM     10  C   UNL A   1      33.061  21.694  24.307  1.00  0.00     0.042 A 
ATOM     11  C   UNL A   1      32.328  20.489  24.211  1.00  0.00     0.026 A 
ATOM     12  C   UNL A   1      32.938  19.249  24.382  1.00  0.00     0.002 A 
ATOM     13  C   UNL A   1      35.015  20.386  24.805  1.00  0.00     0.006 A 
ATOM     14  C   UNL A   1      34.298  19.198  24.644  1.00  0.00     0.000 A 
BRANCH  10  15
ATOM     15  N   UNL A   1      32.441  22.842  23.788  1.00  0.00    -0.355 N 
ATOM     16  H   UNL A   1      32.236  22.793  22.826  1.00  0.00     0.167 HD
BRANCH  15  17
ATOM     17  C   UNL A   1      32.060  24.056  24.406  1.00  0.00     0.044 A 
ATOM     18  C   UNL A   1      33.535  25.236  22.694  1.00  0.00     0.046 C 
ATOM     19  C   UNL A   1      32.533  25.257  23.819  1.00  0.00    -0.027 A 
ATOM     20  C   UNL A   1      32.030  26.493  24.247  1.00  0.00     0.005 A 
ATOM     21  C   UNL A   1      31.075  26.560  25.255  1.00  0.00     0.001 A 
ATOM     22  C   UNL A   1      31.157  24.139  25.500  1.00  0.00    -0.027 A 
ATOM     23  C   UNL A   1      30.650  25.394  25.881  1.00  0.00     0.005 A 
ATOM     24  C   UNL A   1      30.649  22.956  26.283  1.00  0.00     0.046 C 
ENDBRANCH  15  17
ENDBRANCH  10  15
ENDBRANCH   8   9
ENDBRANCH   6   8
ENDBRANCH   5   6
ENDBRANCH   4   5
ENDBRANCH   3   4
ENDBRANCH   2   3
ENDBRANCH   1   2
BRANCH   1  25
ATOM     25  C   UNL A   1      41.064  21.166  27.454  1.00  0.00     0.188 C 
BRANCH  25  26
ATOM     26  O   UNL A   1      42.422  20.822  27.214  1.00  0.00    -0.376 OA
BRANCH  26  27
ATOM     27  C   UNL A   1      42.691  20.573  25.841  1.00  0.00     0.202 C 
BRANCH  27  28
ATOM     28  C   UNL A   1      43.965  21.332  25.467  1.00  0.00     0.261 C 
BRANCH  28  29
ATOM     29  O   UNL A   1      44.183  22.529  26.249  1.00  0.00    -0.460 OA
BRANCH  29  30
ATOM     30  C   UNL A   1      44.128  23.701  25.590  1.00  0.00     0.338 C 
ATOM     31  O   UNL A   1      44.471  23.906  24.426  1.00  0.00    -0.246 OA
BRANCH  30  32
ATOM     32  C   UNL A   1      43.421  24.701  26.418  1.00  0.00     0.060 A 
ATOM     33  C   UNL A   1      43.891  26.020  26.428  1.00  0.00     0.016 A 
ATOM     34  C   UNL A   1      42.336  24.343  27.220  1.00  0.00     0.016 A 
ATOM     35  C   UNL A   1      43.294  26.982  27.246  1.00  0.00     0.010 A 
ATOM     36  C   UNL A   1      41.756  25.299  28.063  1.00  0.00     0.010 A 
ATOM     37  C   UNL A   1      42.248  26.617  28.102  1.00  0.00    -0.014 A 
BRANCH  37  38
ATOM     38  C   UNL A   1      41.790  27.550  29.164  1.00  0.00     0.031 A 
ATOM     39  C   UNL A   1      42.529  27.565  30.475  1.00  0.00     0.074 A 
ATOM     40  C   UNL A   1      40.754  28.387  28.973  1.00  0.00     0.049 A 
ATOM     41  N   UNL A   1      42.247  28.201  31.583  1.00  0.00    -0.248 NA
ATOM     42  C   UNL A   1      43.755  26.752  30.542  1.00  0.00     0.031 C 
ATOM     43  C   UNL A   1      40.000  28.542  27.731  1.00  0.00     0.029 A 
ATOM     44  N   UNL A   1      40.152  29.265  29.843  1.00  0.00    -0.354 N 
ATOM     45  C   UNL A   1      43.249  27.857  32.481  1.00  0.00     0.074 A 
ATOM     46  C   UNL A   1      44.135  26.939  31.798  1.00  0.00     0.031 C 
ATOM     47  C   UNL A   1      39.031  29.455  27.921  1.00  0.00     0.029 A 
ATOM     48  C   UNL A   1      39.064  29.911  29.310  1.00  0.00     0.049 A 
ATOM     49  H   UNL A   1      40.473  29.417  30.762  1.00  0.00     0.167 HD
ATOM     50  C   UNL A   1      43.423  28.268  33.760  1.00  0.00     0.031 A 
ATOM     51  C   UNL A   1      38.177  30.747  29.886  1.00  0.00     0.031 A 
ATOM     52  C   UNL A   1      42.540  29.169  34.451  1.00  0.00     0.049 A 
ATOM     53  C   UNL A   1      38.322  31.093  31.347  1.00  0.00     0.074 A 
ATOM     54  C   UNL A   1      42.620  29.624  35.755  1.00  0.00     0.029 A 
ATOM     55  N   UNL A   1      41.416  29.753  33.891  1.00  0.00    -0.354 N 
ATOM     56  N   UNL A   1      39.259  30.743  32.194  1.00  0.00    -0.248 NA
ATOM     57  C   UNL A   1      37.278  31.950  31.930  1.00  0.00     0.031 C 
ATOM     58  C   UNL A   1      41.516  30.447  36.000  1.00  0.00     0.029 A 
ATOM     59  C   UNL A   1      40.782  30.549  34.830  1.00  0.00     0.049 A 
ATOM     60  H   UNL A   1      41.112  29.621  32.964  1.00  0.00     0.167 HD
ATOM     61  C   UNL A   1      38.937  31.364  33.396  1.00  0.00     0.074 A 
ATOM     62  C   UNL A   1      37.727  32.123  33.165  1.00  0.00     0.031 C 
ATOM     63  C   UNL A   1      39.586  31.311  34.585  1.00  0.00     0.031 A 
BRANCH  50  64
ATOM     64  C   UNL A   1      44.600  27.712  34.510  1.00  0.00    -0.014 A 
ATOM     65  C   UNL A   1      44.497  26.522  35.248  1.00  0.00     0.009 A 
ATOM     66  C   UNL A   1      45.838  28.370  34.449  1.00  0.00     0.009 A 
ATOM     67  C   UNL A   1      45.606  26.018  35.933  1.00  0.00     0.001 A 
ATOM     68  C   UNL A   1      46.951  27.849  35.111  1.00  0.00     0.001 A 
ATOM     69  C   UNL A   1      46.831  26.679  35.860  1.00  0.00     0.000 A 
ENDBRANCH  50  64
BRANCH  51  70
ATOM     70  C   UNL A   1      37.034  31.293  29.105  1.00  0.00    -0.014 A 
ATOM     71  C   UNL A   1      37.022  32.637  28.698  1.00  0.00     0.009 A 
ATOM     72  C   UNL A   1      35.919  30.490  28.815  1.00  0.00     0.009 A 
ATOM     73  C   UNL A   1      35.906  33.171  28.049  1.00  0.00     0.001 A 
ATOM     74  C   UNL A   1      34.818  31.018  28.139  1.00  0.00     0.001 A 
ATOM     75  C   UNL A   1      34.806  32.362  27.767  1.00  0.00     0.000 A 
ENDBRANCH  51  70
BRANCH  63  76
ATOM     76  C   UNL A   1      39.035  32.139  35.712  1.00  0.00    -0.014 A 
ATOM     77  C   UNL A   1      38.165  31.591  36.667  1.00  0.00     0.009 A 
ATOM     78  C   UNL A   1      39.431  33.481  35.843  1.00  0.00     0.009 A 
ATOM     79  C   UNL A   1      37.674  32.381  37.710  1.00  0.00     0.001 A 
ATOM     80  C   UNL A   1      38.962  34.259  36.903  1.00  0.00     0.001 A 
ATOM     81  C   UNL A   1      38.077  33.712  37.829  1.00  0.00     0.000 A 
ENDBRANCH  63  76
ENDBRANCH  37  38
ENDBRANCH  30  32
ENDBRANCH  29  30
ENDBRANCH  28  29
ENDBRANCH  27  28
ENDBRANCH  26  27
ENDBRANCH  25  26
ENDBRANCH   1  25
TORSDOF 20
ENDMDL
MODEL 2
REMARK VINA RESULT:     -10.0      4.244      8.788
REMARK SMILES Cc1cccc(C)c1Nc1ccccc1CC(=O)OCCOCCOCCOC(=O)c1ccc(-c2c3nc(c(-c4ccccc4)c4ccc([nH]4)c(-c4ccccc4)c4nc(c(-c5ccccc5)c5ccc2[nH]5)C=C4)C=C3)cc1
REMARK SMILES IDX 23 1 22 2 21 3 20 4 19 5 17 6 18 7 16 8 15 9 10 10 11 11
REMARK SMILES IDX 12 12 14 13 13 14 9 15 8 17 1 18 2 19 3 20 4 21 6 22 5 23
REMARK SMILES IDX 7 24 24 25 25 26 26 27 27 28 28 29 29 30 30 31 31 32 32 33
REMARK SMILES IDX 78 34 33 35 77 36 34 37 35 38 36 39 71 40 37 41 76 42 70 43
REMARK SMILES IDX 72 44 38 45 75 46 69 47 68 48 39 50 61 51 46 52 60 53 47 54
REMARK SMILES IDX 50 55 59 56 73 57 48 58 49 59 58 61 74 62 51 63 40 64 41 65
REMARK SMILES IDX 45 66 42 67 44 68 43 69 62 70 63 71 67 72 64 73 66 74 65 75
REMARK SMILES IDX 52 76 53 77 57 78 54 79 56 80 55 81
REMARK H PARENT 9 16 72 49 50 60
REMARK Flexibility Score: inf
ROOT
ATOM      1  C   UNL A   1      32.684  27.233  25.442  1.00  0.00     0.188 C 
ENDROOT
BRANCH   1   2
ATOM      2  O   UNL A   1      32.217  25.931  25.097  1.00  0.00    -0.376 OA
BRANCH   2   3
ATOM      3  C   UNL A   1      31.296  25.806  24.020  1.00  0.00     0.202 C 
BRANCH   3   4
ATOM      4  C   UNL A   1      31.448  24.532  23.182  1.00  0.00     0.261 C 
BRANCH   4   5
ATOM      5  O   UNL A   1      30.763  23.406  23.772  1.00  0.00    -0.463 OA
BRANCH   5   6
ATOM      6  C   UNL A   1      31.479  22.653  24.645  1.00  0.00     0.310 C 
ATOM      7  O   UNL A   1      31.035  22.252  25.717  1.00  0.00    -0.252 OA
BRANCH   6   8
ATOM      8  C   UNL A   1      32.789  22.145  24.083  1.00  0.00     0.160 C 
BRANCH   8   9
ATOM      9  C   UNL A   1      33.129  20.662  24.099  1.00  0.00    -0.013 A 
ATOM     10  C   UNL A   1      34.211  20.099  24.802  1.00  0.00     0.042 A 
ATOM     11  C   UNL A   1      34.473  18.715  24.683  1.00  0.00     0.026 A 
ATOM     12  C   UNL A   1      33.614  17.869  23.987  1.00  0.00     0.002 A 
ATOM     13  C   UNL A   1      32.243  19.773  23.463  1.00  0.00     0.006 A 
ATOM     14  C   UNL A   1      32.473  18.396  23.405  1.00  0.00     0.000 A 
BRANCH  10  15
ATOM     15  N   UNL A   1      34.933  20.786  25.792  1.00  0.00    -0.355 N 
ATOM     16  H   UNL A   1      34.590  20.661  26.706  1.00  0.00     0.167 HD
BRANCH  15  17
ATOM     17  C   UNL A   1      36.068  21.627  25.703  1.00  0.00     0.044 A 
ATOM     18  C   UNL A   1      34.544  23.538  26.426  1.00  0.00     0.046 C 
ATOM     19  C   UNL A   1      35.904  22.979  26.095  1.00  0.00    -0.027 A 
ATOM     20  C   UNL A   1      37.023  23.811  26.232  1.00  0.00     0.005 A 
ATOM     21  C   UNL A   1      38.301  23.329  25.977  1.00  0.00     0.001 A 
ATOM     22  C   UNL A   1      37.367  21.170  25.350  1.00  0.00    -0.027 A 
ATOM     23  C   UNL A   1      38.470  22.023  25.531  1.00  0.00     0.005 A 
ATOM     24  C   UNL A   1      37.677  19.792  24.823  1.00  0.00     0.046 C 
ENDBRANCH  15  17
ENDBRANCH  10  15
ENDBRANCH   8   9
ENDBRANCH   6   8
ENDBRANCH   5   6
ENDBRANCH   4   5
ENDBRANCH   3   4
ENDBRANCH   2   3
ENDBRANCH   1   2
BRANCH   1  25
ATOM     25  C   UNL A   1      32.033  27.999  26.600  1.00  0.00     0.188 C 
BRANCH  25  26
ATOM     26  O   UNL A   1      31.679  29.323  26.228  1.00  0.00    -0.376 OA
BRANCH  26  27
ATOM     27  C   UNL A   1      32.800  30.195  26.168  1.00  0.00     0.202 C 
BRANCH  27  28
ATOM     28  C   UNL A   1      33.368  30.326  27.582  1.00  0.00     0.261 C 
BRANCH  28  29
ATOM     29  O   UNL A   1      34.493  31.228  27.679  1.00  0.00    -0.460 OA
BRANCH  29  30
ATOM     30  C   UNL A   1      35.088  31.327  28.883  1.00  0.00     0.338 C 
ATOM     31  O   UNL A   1      34.631  31.877  29.885  1.00  0.00    -0.246 OA
BRANCH  30  32
ATOM     32  C   UNL A   1      36.324  30.516  28.892  1.00  0.00     0.060 A 
ATOM     33  C   UNL A   1      36.745  29.945  30.099  1.00  0.00     0.016 A 
ATOM     34  C   UNL A   1      37.095  30.354  27.739  1.00  0.00     0.016 A 
ATOM     35  C   UNL A   1      37.941  29.227  30.167  1.00  0.00     0.010 A 
ATOM     36  C   UNL A   1      38.309  29.661  27.812  1.00  0.00     0.010 A 
ATOM     37  C   UNL A   1      38.753  29.116  29.031  1.00  0.00    -0.014 A 
BRANCH  37  38
ATOM     38  C   UNL A   1      40.141  28.598  29.152  1.00  0.00     0.031 A 
ATOM     39  C   UNL A   1      41.211  29.523  29.666  1.00  0.00     0.074 A 
ATOM     40  C   UNL A   1      40.453  27.328  28.834  1.00  0.00     0.049 A 
ATOM     41  N   UNL A   1      42.504  29.337  29.748  1.00  0.00    -0.248 NA
ATOM     42  C   UNL A   1      40.759  30.834  30.159  1.00  0.00     0.031 C 
ATOM     43  C   UNL A   1      39.509  26.299  28.404  1.00  0.00     0.029 A 
ATOM     44  N   UNL A   1      41.672  26.693  28.819  1.00  0.00    -0.354 N 
ATOM     45  C   UNL A   1      43.020  30.509  30.286  1.00  0.00     0.074 A 
ATOM     46  C   UNL A   1      41.905  31.408  30.492  1.00  0.00     0.031 C 
ATOM     47  C   UNL A   1      40.185  25.162  28.161  1.00  0.00     0.029 A 
ATOM     48  C   UNL A   1      41.613  25.397  28.368  1.00  0.00     0.049 A 
ATOM     49  H   UNL A   1      42.509  27.126  29.106  1.00  0.00     0.167 HD
ATOM     50  C   UNL A   1      44.305  30.813  30.586  1.00  0.00     0.031 A 
ATOM     51  C   UNL A   1      42.600  24.514  28.119  1.00  0.00     0.031 A 
ATOM     52  C   UNL A   1      45.420  29.930  30.371  1.00  0.00     0.049 A 
ATOM     53  C   UNL A   1      44.035  24.920  28.345  1.00  0.00     0.074 A 
ATOM     54  C   UNL A   1      46.762  30.159  30.621  1.00  0.00     0.029 A 
ATOM     55  N   UNL A   1      45.322  28.648  29.857  1.00  0.00    -0.354 N 
ATOM     56  N   UNL A   1      44.514  26.039  28.832  1.00  0.00    -0.248 NA
ATOM     57  C   UNL A   1      45.066  23.935  27.983  1.00  0.00     0.031 C 
ATOM     58  C   UNL A   1      47.482  29.032  30.213  1.00  0.00     0.029 A 
ATOM     59  C   UNL A   1      46.581  28.081  29.763  1.00  0.00     0.049 A 
ATOM     60  H   UNL A   1      44.481  28.207  29.595  1.00  0.00     0.167 HD
ATOM     61  C   UNL A   1      45.895  25.878  28.865  1.00  0.00     0.074 A 
ATOM     62  C   UNL A   1      46.176  24.550  28.365  1.00  0.00     0.031 C 
ATOM     63  C   UNL A   1      46.847  26.753  29.276  1.00  0.00     0.031 A 
BRANCH  50  64
ATOM     64  C   UNL A   1      44.578  32.180  31.148  1.00  0.00    -0.014 A 
ATOM     65  C   UNL A   1      44.835  33.275  30.307  1.00  0.00     0.009 A 
ATOM     66  C   UNL A   1      44.544  32.381  32.536  1.00  0.00     0.009 A 
ATOM     67  C   UNL A   1      45.080  34.539  30.849  1.00  0.00     0.001 A 
ATOM     68  C   UNL A   1      44.761  33.651  33.073  1.00  0.00     0.001 A 
ATOM     69  C   UNL A   1      45.038  34.726  32.230  1.00  0.00     0.000 A 
ENDBRANCH  50  64
BRANCH  51  70
ATOM     70  C   UNL A   1      42.289  23.161  27.581  1.00  0.00    -0.014 A 
ATOM     71  C   UNL A   1      42.697  22.794  26.289  1.00  0.00     0.009 A 
ATOM     72  C   UNL A   1      41.528  22.253  28.334  1.00  0.00     0.009 A 
ATOM     73  C   UNL A   1      42.320  21.560  25.751  1.00  0.00     0.001 A 
ATOM     74  C   UNL A   1      41.180  21.008  27.806  1.00  0.00     0.001 A 
ATOM     75  C   UNL A   1      41.565  20.667  26.510  1.00  0.00     0.000 A 
ENDBRANCH  51  70
BRANCH  63  76
ATOM     76  C   UNL A   1      48.275  26.283  29.255  1.00  0.00    -0.014 A 
ATOM     77  C   UNL A   1      49.080  26.436  28.116  1.00  0.00     0.009 A 
ATOM     78  C   UNL A   1      48.835  25.718  30.413  1.00  0.00     0.009 A 
ATOM     79  C   UNL A   1      50.407  25.998  28.126  1.00  0.00     0.001 A 
ATOM     80  C   UNL A   1      50.169  25.309  30.429  1.00  0.00     0.001 A 
ATOM     81  C   UNL A   1      50.951  25.440  29.283  1.00  0.00     0.000 A 
ENDBRANCH  63  76
ENDBRANCH  37  38
ENDBRANCH  30  32
ENDBRANCH  29  30
ENDBRANCH  28  29
ENDBRANCH  27  28
ENDBRANCH  26  27
ENDBRANCH  25  26
ENDBRANCH   1  25
TORSDOF 20
ENDMDL
MODEL 3
REMARK VINA RESULT:      -9.9      4.339      9.663
REMARK SMILES Cc1cccc(C)c1Nc1ccccc1CC(=O)OCCOCCOCCOC(=O)c1ccc(-c2c3nc(c(-c4ccccc4)c4ccc([nH]4)c(-c4ccccc4)c4nc(c(-c5ccccc5)c5ccc2[nH]5)C=C4)C=C3)cc1
REMARK SMILES IDX 23 1 22 2 21 3 20 4 19 5 17 6 18 7 16 8 15 9 10 10 11 11
REMARK SMILES IDX 12 12 14 13 13 14 9 15 8 17 1 18 2 19 3 20 4 21 6 22 5 23
REMARK SMILES IDX 7 24 24 25 25 26 26 27 27 28 28 29 29 30 30 31 31 32 32 33
REMARK SMILES IDX 78 34 33 35 77 36 34 37 35 38 36 39 71 40 37 41 76 42 70 43
REMARK SMILES IDX 72 44 38 45 75 46 69 47 68 48 39 50 61 51 46 52 60 53 47 54
REMARK SMILES IDX 50 55 59 56 73 57 48 58 49 59 58 61 74 62 51 63 40 64 41 65
REMARK SMILES IDX 45 66 42 67 44 68 43 69 62 70 63 71 67 72 64 73 66 74 65 75
REMARK SMILES IDX 52 76 53 77 57 78 54 79 56 80 55 81
REMARK H PARENT 9 16 72 49 50 60
REMARK Flexibility Score: inf
ROOT
ATOM      1  C   UNL A   1      34.255  32.296  28.873  1.00  0.00     0.188 C 
ENDROOT
BRANCH   1   2
ATOM      2  O   UNL A   1      34.604  31.605  27.675  1.00  0.00    -0.376 OA
BRANCH   2   3
ATOM      3  C   UNL A   1      34.368  30.204  27.608  1.00  0.00     0.202 C 
BRANCH   3   4
ATOM      4  C   UNL A   1      33.538  29.743  26.404  1.00  0.00     0.261 C 
BRANCH   4   5
ATOM      5  O   UNL A   1      34.038  28.513  25.838  1.00  0.00    -0.463 OA
BRANCH   5   6
ATOM      6  C   UNL A   1      33.355  27.383  26.149  1.00  0.00     0.310 C 
ATOM      7  O   UNL A   1      32.259  27.384  26.704  1.00  0.00    -0.252 OA
BRANCH   6   8
ATOM      8  C   UNL A   1      33.941  26.126  25.542  1.00  0.00     0.160 C 
BRANCH   8   9
ATOM      9  C   UNL A   1      33.570  25.688  24.132  1.00  0.00    -0.013 A 
ATOM     10  C   UNL A   1      33.543  24.351  23.694  1.00  0.00     0.042 A 
ATOM     11  C   UNL A   1      33.255  24.069  22.340  1.00  0.00     0.026 A 
ATOM     12  C   UNL A   1      32.875  25.072  21.452  1.00  0.00     0.002 A 
ATOM     13  C   UNL A   1      33.116  26.670  23.233  1.00  0.00     0.006 A 
ATOM     14  C   UNL A   1      32.769  26.375  21.912  1.00  0.00     0.000 A 
BRANCH  10  15
ATOM     15  N   UNL A   1      33.577  23.249  24.565  1.00  0.00    -0.355 N 
ATOM     16  H   UNL A   1      32.947  23.308  25.319  1.00  0.00     0.167 HD
BRANCH  15  17
ATOM     17  C   UNL A   1      34.359  22.070  24.547  1.00  0.00     0.044 A 
ATOM     18  C   UNL A   1      36.407  23.586  24.629  1.00  0.00     0.046 C 
ATOM     19  C   UNL A   1      35.763  22.224  24.661  1.00  0.00    -0.027 A 
ATOM     20  C   UNL A   1      36.579  21.101  24.860  1.00  0.00     0.005 A 
ATOM     21  C   UNL A   1      36.026  19.828  24.936  1.00  0.00     0.001 A 
ATOM     22  C   UNL A   1      33.814  20.759  24.528  1.00  0.00    -0.027 A 
ATOM     23  C   UNL A   1      34.658  19.658  24.762  1.00  0.00     0.005 A 
ATOM     24  C   UNL A   1      32.356  20.439  24.316  1.00  0.00     0.046 C 
ENDBRANCH  15  17
ENDBRANCH  10  15
ENDBRANCH   8   9
ENDBRANCH   6   8
ENDBRANCH   5   6
ENDBRANCH   4   5
ENDBRANCH   3   4
ENDBRANCH   2   3
ENDBRANCH   1   2
BRANCH   1  25
ATOM     25  C   UNL A   1      34.031  33.812  28.845  1.00  0.00     0.188 C 
BRANCH  25  26
ATOM     26  O   UNL A   1      34.779  34.477  29.854  1.00  0.00    -0.376 OA
BRANCH  26  27
ATOM     27  C   UNL A   1      33.969  34.920  30.935  1.00  0.00     0.202 C 
BRANCH  27  28
ATOM     28  C   UNL A   1      34.570  34.368  32.228  1.00  0.00     0.261 C 
BRANCH  28  29
ATOM     29  O   UNL A   1      34.931  32.970  32.156  1.00  0.00    -0.460 OA
BRANCH  29  30
ATOM     30  C   UNL A   1      35.916  32.555  32.973  1.00  0.00     0.338 C 
ATOM     31  O   UNL A   1      35.950  32.668  34.199  1.00  0.00    -0.246 OA
BRANCH  30  32
ATOM     32  C   UNL A   1      36.902  31.770  32.201  1.00  0.00     0.060 A 
ATOM     33  C   UNL A   1      37.843  31.000  32.897  1.00  0.00     0.016 A 
ATOM     34  C   UNL A   1      36.941  31.823  30.807  1.00  0.00     0.016 A 
ATOM     35  C   UNL A   1      38.834  30.296  32.209  1.00  0.00     0.010 A 
ATOM     36  C   UNL A   1      37.952  31.142  30.118  1.00  0.00     0.010 A 
ATOM     37  C   UNL A   1      38.920  30.396  30.815  1.00  0.00    -0.014 A 
BRANCH  37  38
ATOM     38  C   UNL A   1      40.117  29.881  30.101  1.00  0.00     0.031 A 
ATOM     39  C   UNL A   1      41.278  30.814  29.878  1.00  0.00     0.074 A 
ATOM     40  C   UNL A   1      40.194  28.608  29.672  1.00  0.00     0.049 A 
ATOM     41  N   UNL A   1      42.373  30.631  29.186  1.00  0.00    -0.248 NA
ATOM     42  C   UNL A   1      41.190  32.132  30.531  1.00  0.00     0.031 C 
ATOM     43  C   UNL A   1      39.187  27.573  29.890  1.00  0.00     0.029 A 
ATOM     44  N   UNL A   1      41.177  27.975  28.950  1.00  0.00    -0.354 N 
ATOM     45  C   UNL A   1      43.097  31.811  29.306  1.00  0.00     0.074 A 
ATOM     46  C   UNL A   1      42.308  32.711  30.120  1.00  0.00     0.031 C 
ATOM     47  C   UNL A   1      39.600  26.433  29.307  1.00  0.00     0.029 A 
ATOM     48  C   UNL A   1      40.874  26.673  28.632  1.00  0.00     0.049 A 
ATOM     49  H   UNL A   1      42.018  28.413  28.685  1.00  0.00     0.167 HD
ATOM     50  C   UNL A   1      44.310  32.121  28.790  1.00  0.00     0.031 A 
ATOM     51  C   UNL A   1      41.534  25.788  27.858  1.00  0.00     0.031 A 
ATOM     52  C   UNL A   1      45.093  31.236  27.969  1.00  0.00     0.049 A 
ATOM     53  C   UNL A   1      42.824  26.199  27.193  1.00  0.00     0.074 A 
ATOM     54  C   UNL A   1      46.323  31.470  27.380  1.00  0.00     0.029 A 
ATOM     55  N   UNL A   1      44.721  29.948  27.623  1.00  0.00    -0.354 N 
ATOM     56  N   UNL A   1      43.488  27.325  27.294  1.00  0.00    -0.248 NA
ATOM     57  C   UNL A   1      43.454  25.211  26.303  1.00  0.00     0.031 C 
ATOM     58  C   UNL A   1      46.674  30.339  26.636  1.00  0.00     0.029 A 
ATOM     59  C   UNL A   1      45.689  29.381  26.812  1.00  0.00     0.049 A 
ATOM     60  H   UNL A   1      43.892  29.503  27.910  1.00  0.00     0.167 HD
ATOM     61  C   UNL A   1      44.626  27.166  26.510  1.00  0.00     0.074 A 
ATOM     62  C   UNL A   1      44.570  25.832  25.953  1.00  0.00     0.031 C 
ATOM     63  C   UNL A   1      45.629  28.047  26.274  1.00  0.00     0.031 A 
BRANCH  50  64
ATOM     64  C   UNL A   1      44.849  33.495  29.070  1.00  0.00    -0.014 A 
ATOM     65  C   UNL A   1      44.575  34.573  28.214  1.00  0.00     0.009 A 
ATOM     66  C   UNL A   1      45.613  33.720  30.226  1.00  0.00     0.009 A 
ATOM     67  C   UNL A   1      45.081  35.845  28.496  1.00  0.00     0.001 A 
ATOM     68  C   UNL A   1      46.093  34.997  30.519  1.00  0.00     0.001 A 
ATOM     69  C   UNL A   1      45.834  36.056  29.650  1.00  0.00     0.000 A 
ENDBRANCH  50  64
BRANCH  51  70
ATOM     70  C   UNL A   1      40.977  24.428  27.619  1.00  0.00    -0.014 A 
ATOM     71  C   UNL A   1      41.582  23.297  28.190  1.00  0.00     0.009 A 
ATOM     72  C   UNL A   1      39.876  24.249  26.768  1.00  0.00     0.009 A 
ATOM     73  C   UNL A   1      41.116  22.015  27.887  1.00  0.00     0.001 A 
ATOM     74  C   UNL A   1      39.392  22.968  26.492  1.00  0.00     0.001 A 
ATOM     75  C   UNL A   1      40.020  21.851  27.041  1.00  0.00     0.000 A 
ENDBRANCH  51  70
BRANCH  63  76
ATOM     76  C   UNL A   1      46.776  27.580  25.422  1.00  0.00    -0.014 A 
ATOM     77  C   UNL A   1      46.854  27.900  24.057  1.00  0.00     0.009 A 
ATOM     78  C   UNL A   1      47.818  26.842  26.007  1.00  0.00     0.009 A 
ATOM     79  C   UNL A   1      47.935  27.459  23.290  1.00  0.00     0.001 A 
ATOM     80  C   UNL A   1      48.911  26.429  25.244  1.00  0.00     0.001 A 
ATOM     81  C   UNL A   1      48.964  26.729  23.885  1.00  0.00     0.000 A 
ENDBRANCH  63  76
ENDBRANCH  37  38
ENDBRANCH  30  32
ENDBRANCH  29  30
ENDBRANCH  28  29
ENDBRANCH  27  28
ENDBRANCH  26  27
ENDBRANCH  25  26
ENDBRANCH   1  25
TORSDOF 20
ENDMDL
