MODEL 1
REMARK VINA RESULT:     -10.9      0.000      0.000
REMARK SMILES C[C@H](NC(=O)c1cccc(NC(=O)c2ccccc2C(=O)OCCOCCOCCOC(=O)c2ccc(-c3c4nc(c(-c5ccccc5)c5ccc([nH]5)c(-c5ccccc5)c5nc(c(-c6ccccc6)c6ccc3[nH]6)C=C5)C=C4)cc2)c1)c1ccccc1
REMARK SMILES IDX 25 1 24 2 23 3 22 4 20 5 21 6 19 7 14 8 15 9 16 10 18 11
REMARK SMILES IDX 17 12 12 13 11 14 13 16 10 17 6 18 7 19 82 20 8 21 9 22 4 23
REMARK SMILES IDX 3 24 5 26 2 27 1 28 83 29 84 30 88 31 85 32 87 33 86 34
REMARK SMILES IDX 26 35 27 36 28 37 29 38 30 39 31 40 32 41 33 42 34 43 35 44
REMARK SMILES IDX 81 45 36 46 80 47 37 48 38 49 39 50 74 51 40 52 79 53 73 54
REMARK SMILES IDX 75 55 41 56 78 57 72 58 71 59 42 61 64 62 49 63 63 64 50 65
REMARK SMILES IDX 53 66 62 67 76 68 51 69 52 70 61 72 77 73 54 74 43 75 44 76
REMARK SMILES IDX 48 77 45 78 47 79 46 80 65 81 66 82 70 83 67 84 69 85 68 86
REMARK SMILES IDX 55 87 56 88 60 89 57 90 59 91 58 92
REMARK H PARENT 11 15 3 25 75 60 53 71
REMARK Flexibility Score: inf
ROOT
ATOM      1  O   UNL A   1      39.281  21.909  26.453  1.00  0.00    -0.376 OA
ENDROOT
BRANCH   1   2
ATOM      2  C   UNL A   1      38.676  23.177  26.567  1.00  0.00     0.202 C 
BRANCH   2   3
ATOM      3  C   UNL A   1      37.625  23.649  25.559  1.00  0.00     0.261 C 
BRANCH   3   4
ATOM      4  O   UNL A   1      36.279  23.189  25.642  1.00  0.00    -0.460 OA
BRANCH   4   5
ATOM      5  C   UNL A   1      35.951  22.133  24.875  1.00  0.00     0.339 C 
ATOM      6  O   UNL A   1      36.504  21.048  24.859  1.00  0.00    -0.246 OA
BRANCH   5   7
ATOM      7  C   UNL A   1      34.690  22.424  24.154  1.00  0.00     0.072 A 
ATOM      8  C   UNL A   1      33.396  22.185  24.648  1.00  0.00     0.054 A 
ATOM      9  C   UNL A   1      32.300  22.450  23.800  1.00  0.00     0.015 A 
ATOM     10  C   UNL A   1      32.480  22.979  22.518  1.00  0.00     0.001 A 
ATOM     11  C   UNL A   1      34.860  22.971  22.865  1.00  0.00     0.016 A 
ATOM     12  C   UNL A   1      33.762  23.246  22.053  1.00  0.00     0.001 A 
BRANCH   8  13
ATOM     13  C   UNL A   1      33.030  21.592  25.967  1.00  0.00     0.256 C 
ATOM     14  N   UNL A   1      32.173  22.152  26.894  1.00  0.00    -0.322 N 
ATOM     15  H   UNL A   1      32.085  21.628  27.723  1.00  0.00     0.170 HD
ATOM     16  O   UNL A   1      33.550  20.509  26.254  1.00  0.00    -0.269 OA
BRANCH  14  17
ATOM     17  C   UNL A   1      31.402  23.326  26.881  1.00  0.00     0.042 A 
ATOM     18  C   UNL A   1      31.380  25.665  26.226  1.00  0.00     0.041 A 
ATOM     19  C   UNL A   1      29.979  25.580  26.138  1.00  0.00     0.014 A 
ATOM     20  C   UNL A   1      32.080  24.546  26.684  1.00  0.00     0.040 A 
ATOM     21  C   UNL A   1      29.297  24.430  26.537  1.00  0.00     0.003 A 
ATOM     22  C   UNL A   1      30.012  23.308  26.934  1.00  0.00     0.026 A 
BRANCH  18  23
ATOM     23  C   UNL A   1      31.959  27.005  25.959  1.00  0.00     0.251 C 
ATOM     24  N   UNL A   1      31.885  27.774  24.833  1.00  0.00    -0.346 N 
ATOM     25  H   UNL A   1      32.435  28.578  24.976  1.00  0.00     0.164 HD
ATOM     26  O   UNL A   1      32.584  27.515  26.898  1.00  0.00    -0.269 OA
BRANCH  24  27
ATOM     27  C   UNL A   1      31.298  27.857  23.491  1.00  0.00     0.109 C 
ATOM     28  C   UNL A   1      31.300  26.634  22.599  1.00  0.00     0.036 C 
BRANCH  27  29
ATOM     29  C   UNL A   1      29.931  28.530  23.455  1.00  0.00    -0.026 A 
ATOM     30  C   UNL A   1      28.736  27.820  23.298  1.00  0.00     0.006 A 
ATOM     31  C   UNL A   1      29.875  29.940  23.455  1.00  0.00     0.006 A 
ATOM     32  C   UNL A   1      27.526  28.503  23.102  1.00  0.00     0.000 A 
ATOM     33  C   UNL A   1      28.670  30.617  23.269  1.00  0.00     0.000 A 
ATOM     34  C   UNL A   1      27.495  29.897  23.078  1.00  0.00     0.000 A 
ENDBRANCH  27  29
ENDBRANCH  24  27
ENDBRANCH  18  23
ENDBRANCH  14  17
ENDBRANCH   8  13
ENDBRANCH   5   7
ENDBRANCH   4   5
ENDBRANCH   3   4
ENDBRANCH   2   3
ENDBRANCH   1   2
BRANCH   1  35
ATOM     35  C   UNL A   1      40.655  21.833  26.126  1.00  0.00     0.188 C 
BRANCH  35  36
ATOM     36  C   UNL A   1      41.704  21.609  27.241  1.00  0.00     0.188 C 
BRANCH  36  37
ATOM     37  O   UNL A   1      42.192  20.282  27.279  1.00  0.00    -0.376 OA
BRANCH  37  38
ATOM     38  C   UNL A   1      42.063  19.524  26.088  1.00  0.00     0.202 C 
BRANCH  38  39
ATOM     39  C   UNL A   1      43.273  18.736  25.545  1.00  0.00     0.261 C 
BRANCH  39  40
ATOM     40  O   UNL A   1      43.831  19.144  24.281  1.00  0.00    -0.460 OA
BRANCH  40  41
ATOM     41  C   UNL A   1      45.095  19.627  24.243  1.00  0.00     0.338 C 
ATOM     42  O   UNL A   1      46.063  19.104  23.716  1.00  0.00    -0.246 OA
BRANCH  41  43
ATOM     43  C   UNL A   1      45.052  21.033  24.733  1.00  0.00     0.060 A 
ATOM     44  C   UNL A   1      44.562  22.040  23.884  1.00  0.00     0.016 A 
ATOM     45  C   UNL A   1      45.366  21.336  26.060  1.00  0.00     0.016 A 
ATOM     46  C   UNL A   1      44.383  23.345  24.360  1.00  0.00     0.010 A 
ATOM     47  C   UNL A   1      45.227  22.652  26.523  1.00  0.00     0.010 A 
ATOM     48  C   UNL A   1      44.752  23.668  25.673  1.00  0.00    -0.014 A 
BRANCH  48  49
ATOM     49  C   UNL A   1      44.862  25.092  26.089  1.00  0.00     0.031 A 
ATOM     50  C   UNL A   1      46.224  25.733  26.025  1.00  0.00     0.074 A 
ATOM     51  C   UNL A   1      43.808  25.806  26.523  1.00  0.00     0.049 A 
ATOM     52  N   UNL A   1      46.602  26.927  26.402  1.00  0.00    -0.248 NA
ATOM     53  C   UNL A   1      47.305  24.908  25.458  1.00  0.00     0.031 C 
ATOM     54  C   UNL A   1      42.428  25.333  26.598  1.00  0.00     0.029 A 
ATOM     55  N   UNL A   1      43.747  27.095  27.003  1.00  0.00    -0.354 N 
ATOM     56  C   UNL A   1      47.965  26.989  26.137  1.00  0.00     0.074 A 
ATOM     57  C   UNL A   1      48.350  25.710  25.582  1.00  0.00     0.031 C 
ATOM     58  C   UNL A   1      41.659  26.309  27.114  1.00  0.00     0.029 A 
ATOM     59  C   UNL A   1      42.497  27.464  27.443  1.00  0.00     0.049 A 
ATOM     60  H   UNL A   1      44.525  27.698  27.027  1.00  0.00     0.167 HD
ATOM     61  C   UNL A   1      48.823  28.015  26.338  1.00  0.00     0.031 A 
ATOM     62  C   UNL A   1      42.086  28.587  28.068  1.00  0.00     0.031 A 
ATOM     63  C   UNL A   1      48.451  29.283  26.904  1.00  0.00     0.049 A 
ATOM     64  C   UNL A   1      43.081  29.686  28.356  1.00  0.00     0.074 A 
ATOM     65  C   UNL A   1      49.247  30.394  27.119  1.00  0.00     0.029 A 
ATOM     66  N   UNL A   1      47.183  29.603  27.360  1.00  0.00    -0.354 N 
ATOM     67  N   UNL A   1      44.355  29.752  28.056  1.00  0.00    -0.248 NA
ATOM     68  C   UNL A   1      42.575  30.871  29.068  1.00  0.00     0.031 C 
ATOM     69  C   UNL A   1      48.479  31.361  27.773  1.00  0.00     0.029 A 
ATOM     70  C   UNL A   1      47.185  30.880  27.894  1.00  0.00     0.049 A 
ATOM     71  H   UNL A   1      46.398  29.010  27.313  1.00  0.00     0.167 HD
ATOM     72  C   UNL A   1      44.793  30.992  28.514  1.00  0.00     0.074 A 
ATOM     73  C   UNL A   1      43.643  31.654  29.093  1.00  0.00     0.031 C 
ATOM     74  C   UNL A   1      46.035  31.532  28.464  1.00  0.00     0.031 A 
BRANCH  61  75
ATOM     75  C   UNL A   1      50.267  27.796  25.986  1.00  0.00    -0.014 A 
ATOM     76  C   UNL A   1      51.189  27.317  26.929  1.00  0.00     0.009 A 
ATOM     77  C   UNL A   1      50.697  28.024  24.669  1.00  0.00     0.009 A 
ATOM     78  C   UNL A   1      52.520  27.094  26.565  1.00  0.00     0.001 A 
ATOM     79  C   UNL A   1      52.019  27.771  24.300  1.00  0.00     0.001 A 
ATOM     80  C   UNL A   1      52.930  27.314  25.250  1.00  0.00     0.000 A 
ENDBRANCH  61  75
BRANCH  62  81
ATOM     81  C   UNL A   1      40.672  28.728  28.521  1.00  0.00    -0.014 A 
ATOM     82  C   UNL A   1      40.263  28.249  29.776  1.00  0.00     0.009 A 
ATOM     83  C   UNL A   1      39.708  29.291  27.669  1.00  0.00     0.009 A 
ATOM     84  C   UNL A   1      38.917  28.297  30.151  1.00  0.00     0.001 A 
ATOM     85  C   UNL A   1      38.369  29.370  28.060  1.00  0.00     0.001 A 
ATOM     86  C   UNL A   1      37.973  28.860  29.296  1.00  0.00     0.000 A 
ENDBRANCH  62  81
BRANCH  74  87
ATOM     87  C   UNL A   1      46.215  32.924  29.009  1.00  0.00    -0.014 A 
ATOM     88  C   UNL A   1      46.611  33.146  30.338  1.00  0.00     0.009 A 
ATOM     89  C   UNL A   1      46.034  34.029  28.162  1.00  0.00     0.009 A 
ATOM     90  C   UNL A   1      46.785  34.448  30.814  1.00  0.00     0.001 A 
ATOM     91  C   UNL A   1      46.243  35.327  28.632  1.00  0.00     0.001 A 
ATOM     92  C   UNL A   1      46.608  35.535  29.961  1.00  0.00     0.000 A 
ENDBRANCH  74  87
ENDBRANCH  48  49
ENDBRANCH  41  43
ENDBRANCH  40  41
ENDBRANCH  39  40
ENDBRANCH  38  39
ENDBRANCH  37  38
ENDBRANCH  36  37
ENDBRANCH  35  36
ENDBRANCH   1  35
TORSDOF 22
ENDMDL
MODEL 2
REMARK VINA RESULT:     -10.9      2.701      5.847
REMARK SMILES C[C@H](NC(=O)c1cccc(NC(=O)c2ccccc2C(=O)OCCOCCOCCOC(=O)c2ccc(-c3c4nc(c(-c5ccccc5)c5ccc([nH]5)c(-c5ccccc5)c5nc(c(-c6ccccc6)c6ccc3[nH]6)C=C5)C=C4)cc2)c1)c1ccccc1
REMARK SMILES IDX 25 1 24 2 23 3 22 4 20 5 21 6 19 7 14 8 15 9 16 10 18 11
REMARK SMILES IDX 17 12 12 13 11 14 13 16 10 17 6 18 7 19 82 20 8 21 9 22 4 23
REMARK SMILES IDX 3 24 5 26 2 27 1 28 83 29 84 30 88 31 85 32 87 33 86 34
REMARK SMILES IDX 26 35 27 36 28 37 29 38 30 39 31 40 32 41 33 42 34 43 35 44
REMARK SMILES IDX 81 45 36 46 80 47 37 48 38 49 39 50 74 51 40 52 79 53 73 54
REMARK SMILES IDX 75 55 41 56 78 57 72 58 71 59 42 61 64 62 49 63 63 64 50 65
REMARK SMILES IDX 53 66 62 67 76 68 51 69 52 70 61 72 77 73 54 74 43 75 44 76
REMARK SMILES IDX 48 77 45 78 47 79 46 80 65 81 66 82 70 83 67 84 69 85 68 86
REMARK SMILES IDX 55 87 56 88 60 89 57 90 59 91 58 92
REMARK H PARENT 11 15 3 25 75 60 53 71
REMARK Flexibility Score: inf
ROOT
ATOM      1  O   UNL A   1      34.620  23.111  26.809  1.00  0.00    -0.376 OA
ENDROOT
BRANCH   1   2
ATOM      2  C   UNL A   1      33.786  24.223  26.573  1.00  0.00     0.202 C 
BRANCH   2   3
ATOM      3  C   UNL A   1      32.261  24.080  26.549  1.00  0.00     0.261 C 
BRANCH   3   4
ATOM      4  O   UNL A   1      31.426  25.111  27.070  1.00  0.00    -0.460 OA
BRANCH   4   5
ATOM      5  C   UNL A   1      30.657  25.772  26.187  1.00  0.00     0.339 C 
ATOM      6  O   UNL A   1      29.576  25.416  25.755  1.00  0.00    -0.246 OA
BRANCH   5   7
ATOM      7  C   UNL A   1      31.247  27.107  25.928  1.00  0.00     0.072 A 
ATOM      8  C   UNL A   1      31.222  27.782  24.695  1.00  0.00     0.054 A 
ATOM      9  C   UNL A   1      31.899  29.017  24.599  1.00  0.00     0.015 A 
ATOM     10  C   UNL A   1      32.541  29.585  25.704  1.00  0.00     0.001 A 
ATOM     11  C   UNL A   1      31.885  27.696  27.039  1.00  0.00     0.016 A 
ATOM     12  C   UNL A   1      32.528  28.927  26.927  1.00  0.00     0.001 A 
BRANCH   8  13
ATOM     13  C   UNL A   1      30.622  27.303  23.417  1.00  0.00     0.256 C 
ATOM     14  N   UNL A   1      31.008  26.177  22.716  1.00  0.00    -0.322 N 
ATOM     15  H   UNL A   1      30.517  26.045  21.873  1.00  0.00     0.170 HD
ATOM     16  O   UNL A   1      29.705  27.981  22.944  1.00  0.00    -0.269 OA
BRANCH  14  17
ATOM     17  C   UNL A   1      31.967  25.185  22.975  1.00  0.00     0.042 A 
ATOM     18  C   UNL A   1      32.499  22.831  22.695  1.00  0.00     0.041 A 
ATOM     19  C   UNL A   1      33.860  23.178  22.764  1.00  0.00     0.014 A 
ATOM     20  C   UNL A   1      31.553  23.841  22.887  1.00  0.00     0.040 A 
ATOM     21  C   UNL A   1      34.263  24.480  23.061  1.00  0.00     0.003 A 
ATOM     22  C   UNL A   1      33.309  25.482  23.193  1.00  0.00     0.026 A 
BRANCH  18  23
ATOM     23  C   UNL A   1      32.211  21.381  22.568  1.00  0.00     0.251 C 
ATOM     24  N   UNL A   1      32.543  20.354  23.405  1.00  0.00    -0.346 N 
ATOM     25  H   UNL A   1      32.250  19.513  22.986  1.00  0.00     0.164 HD
ATOM     26  O   UNL A   1      31.557  21.051  21.571  1.00  0.00    -0.269 OA
BRANCH  24  27
ATOM     27  C   UNL A   1      33.171  20.028  24.691  1.00  0.00     0.109 C 
ATOM     28  C   UNL A   1      32.603  20.611  25.966  1.00  0.00     0.036 C 
BRANCH  27  29
ATOM     29  C   UNL A   1      33.464  18.544  24.876  1.00  0.00    -0.026 A 
ATOM     30  C   UNL A   1      34.486  17.878  24.189  1.00  0.00     0.006 A 
ATOM     31  C   UNL A   1      32.591  17.780  25.678  1.00  0.00     0.006 A 
ATOM     32  C   UNL A   1      34.601  16.483  24.269  1.00  0.00     0.000 A 
ATOM     33  C   UNL A   1      32.713  16.393  25.764  1.00  0.00     0.000 A 
ATOM     34  C   UNL A   1      33.711  15.742  25.047  1.00  0.00     0.000 A 
ENDBRANCH  27  29
ENDBRANCH  24  27
ENDBRANCH  18  23
ENDBRANCH  14  17
ENDBRANCH   8  13
ENDBRANCH   5   7
ENDBRANCH   4   5
ENDBRANCH   3   4
ENDBRANCH   2   3
ENDBRANCH   1   2
BRANCH   1  35
ATOM     35  C   UNL A   1      35.740  22.905  25.970  1.00  0.00     0.188 C 
BRANCH  35  36
ATOM     36  C   UNL A   1      36.310  21.479  25.777  1.00  0.00     0.188 C 
BRANCH  36  37
ATOM     37  O   UNL A   1      37.504  21.461  25.021  1.00  0.00    -0.376 OA
BRANCH  37  38
ATOM     38  C   UNL A   1      38.697  21.158  25.723  1.00  0.00     0.202 C 
BRANCH  38  39
ATOM     39  C   UNL A   1      39.447  19.842  25.428  1.00  0.00     0.261 C 
BRANCH  39  40
ATOM     40  O   UNL A   1      40.535  19.476  26.298  1.00  0.00    -0.460 OA
BRANCH  40  41
ATOM     41  C   UNL A   1      41.787  19.899  26.003  1.00  0.00     0.338 C 
ATOM     42  O   UNL A   1      42.579  19.365  25.243  1.00  0.00    -0.246 OA
BRANCH  41  43
ATOM     43  C   UNL A   1      41.943  21.268  26.567  1.00  0.00     0.060 A 
ATOM     44  C   UNL A   1      42.244  22.335  25.703  1.00  0.00     0.016 A 
ATOM     45  C   UNL A   1      41.666  21.521  27.913  1.00  0.00     0.016 A 
ATOM     46  C   UNL A   1      42.263  23.651  26.181  1.00  0.00     0.010 A 
ATOM     47  C   UNL A   1      41.728  22.835  28.399  1.00  0.00     0.010 A 
ATOM     48  C   UNL A   1      42.044  23.905  27.542  1.00  0.00    -0.014 A 
BRANCH  48  49
ATOM     49  C   UNL A   1      42.367  25.240  28.114  1.00  0.00     0.031 A 
ATOM     50  C   UNL A   1      43.796  25.499  28.514  1.00  0.00     0.074 A 
ATOM     51  C   UNL A   1      41.440  26.198  28.293  1.00  0.00     0.049 A 
ATOM     52  N   UNL A   1      44.322  26.541  29.104  1.00  0.00    -0.248 NA
ATOM     53  C   UNL A   1      44.762  24.429  28.205  1.00  0.00     0.031 C 
ATOM     54  C   UNL A   1      40.032  26.106  27.915  1.00  0.00     0.029 A 
ATOM     55  N   UNL A   1      41.553  27.447  28.862  1.00  0.00    -0.354 N 
ATOM     56  C   UNL A   1      45.671  26.246  29.253  1.00  0.00     0.074 A 
ATOM     57  C   UNL A   1      45.882  24.924  28.709  1.00  0.00     0.031 C 
ATOM     58  C   UNL A   1      39.406  27.240  28.281  1.00  0.00     0.029 A 
ATOM     59  C   UNL A   1      40.360  28.123  28.955  1.00  0.00     0.049 A 
ATOM     60  H   UNL A   1      42.409  27.821  29.173  1.00  0.00     0.167 HD
ATOM     61  C   UNL A   1      46.650  27.004  29.799  1.00  0.00     0.031 A 
ATOM     62  C   UNL A   1      40.065  29.301  29.543  1.00  0.00     0.031 A 
ATOM     63  C   UNL A   1      46.447  28.313  30.358  1.00  0.00     0.049 A 
ATOM     64  C   UNL A   1      41.161  30.092  30.219  1.00  0.00     0.074 A 
ATOM     65  C   UNL A   1      47.385  29.168  30.906  1.00  0.00     0.029 A 
ATOM     66  N   UNL A   1      45.219  28.947  30.455  1.00  0.00    -0.354 N 
ATOM     67  N   UNL A   1      42.442  29.824  30.310  1.00  0.00    -0.248 NA
ATOM     68  C   UNL A   1      40.769  31.353  30.869  1.00  0.00     0.031 C 
ATOM     69  C   UNL A   1      46.715  30.290  31.402  1.00  0.00     0.029 A 
ATOM     70  C   UNL A   1      45.370  30.166  31.092  1.00  0.00     0.049 A 
ATOM     71  H   UNL A   1      44.366  28.584  30.121  1.00  0.00     0.167 HD
ATOM     72  C   UNL A   1      43.008  30.894  30.999  1.00  0.00     0.074 A 
ATOM     73  C   UNL A   1      41.936  31.824  31.282  1.00  0.00     0.031 C 
ATOM     74  C   UNL A   1      44.298  31.087  31.367  1.00  0.00     0.031 A 
BRANCH  61  75
ATOM     75  C   UNL A   1      48.032  26.418  29.861  1.00  0.00    -0.014 A 
ATOM     76  C   UNL A   1      48.939  26.560  28.799  1.00  0.00     0.009 A 
ATOM     77  C   UNL A   1      48.448  25.756  31.026  1.00  0.00     0.009 A 
ATOM     78  C   UNL A   1      50.228  26.030  28.896  1.00  0.00     0.001 A 
ATOM     79  C   UNL A   1      49.746  25.254  31.133  1.00  0.00     0.001 A 
ATOM     80  C   UNL A   1      50.632  25.385  30.065  1.00  0.00     0.000 A 
ENDBRANCH  61  75
BRANCH  62  81
ATOM     81  C   UNL A   1      38.661  29.802  29.578  1.00  0.00    -0.014 A 
ATOM     82  C   UNL A   1      37.776  29.405  30.593  1.00  0.00     0.009 A 
ATOM     83  C   UNL A   1      38.181  30.636  28.555  1.00  0.00     0.009 A 
ATOM     84  C   UNL A   1      36.435  29.800  30.562  1.00  0.00     0.001 A 
ATOM     85  C   UNL A   1      36.850  31.059  28.546  1.00  0.00     0.001 A 
ATOM     86  C   UNL A   1      35.974  30.629  29.541  1.00  0.00     0.000 A 
ENDBRANCH  62  81
BRANCH  74  87
ATOM     87  C   UNL A   1      44.638  32.369  32.079  1.00  0.00    -0.014 A 
ATOM     88  C   UNL A   1      44.977  33.533  31.373  1.00  0.00     0.009 A 
ATOM     89  C   UNL A   1      44.568  32.422  33.481  1.00  0.00     0.009 A 
ATOM     90  C   UNL A   1      45.275  34.714  32.059  1.00  0.00     0.001 A 
ATOM     91  C   UNL A   1      44.831  33.612  34.161  1.00  0.00     0.001 A 
ATOM     92  C   UNL A   1      45.196  34.754  33.450  1.00  0.00     0.000 A 
ENDBRANCH  74  87
ENDBRANCH  48  49
ENDBRANCH  41  43
ENDBRANCH  40  41
ENDBRANCH  39  40
ENDBRANCH  38  39
ENDBRANCH  37  38
ENDBRANCH  36  37
ENDBRANCH  35  36
ENDBRANCH   1  35
TORSDOF 22
ENDMDL
MODEL 3
REMARK VINA RESULT:     -10.9      3.930      5.882
REMARK SMILES C[C@H](NC(=O)c1cccc(NC(=O)c2ccccc2C(=O)OCCOCCOCCOC(=O)c2ccc(-c3c4nc(c(-c5ccccc5)c5ccc([nH]5)c(-c5ccccc5)c5nc(c(-c6ccccc6)c6ccc3[nH]6)C=C5)C=C4)cc2)c1)c1ccccc1
REMARK SMILES IDX 25 1 24 2 23 3 22 4 20 5 21 6 19 7 14 8 15 9 16 10 18 11
REMARK SMILES IDX 17 12 12 13 11 14 13 16 10 17 6 18 7 19 82 20 8 21 9 22 4 23
REMARK SMILES IDX 3 24 5 26 2 27 1 28 83 29 84 30 88 31 85 32 87 33 86 34
REMARK SMILES IDX 26 35 27 36 28 37 29 38 30 39 31 40 32 41 33 42 34 43 35 44
REMARK SMILES IDX 81 45 36 46 80 47 37 48 38 49 39 50 74 51 40 52 79 53 73 54
REMARK SMILES IDX 75 55 41 56 78 57 72 58 71 59 42 61 64 62 49 63 63 64 50 65
REMARK SMILES IDX 53 66 62 67 76 68 51 69 52 70 61 72 77 73 54 74 43 75 44 76
REMARK SMILES IDX 48 77 45 78 47 79 46 80 65 81 66 82 70 83 67 84 69 85 68 86
REMARK SMILES IDX 55 87 56 88 60 89 57 90 59 91 58 92
REMARK H PARENT 11 15 3 25 75 60 53 71
REMARK Flexibility Score: inf
ROOT
ATOM      1  O   UNL A   1      39.053  21.964  26.478  1.00  0.00    -0.376 OA
ENDROOT
BRANCH   1   2
ATOM      2  C   UNL A   1      38.607  23.301  26.459  1.00  0.00     0.202 C 
BRANCH   2   3
ATOM      3  C   UNL A   1      37.390  23.720  25.630  1.00  0.00     0.261 C 
BRANCH   3   4
ATOM      4  O   UNL A   1      36.134  23.067  25.800  1.00  0.00    -0.460 OA
BRANCH   4   5
ATOM      5  C   UNL A   1      35.862  22.051  24.961  1.00  0.00     0.339 C 
ATOM      6  O   UNL A   1      36.438  20.981  24.906  1.00  0.00    -0.246 OA
BRANCH   5   7
ATOM      7  C   UNL A   1      34.625  22.360  24.205  1.00  0.00     0.072 A 
ATOM      8  C   UNL A   1      33.314  22.173  24.678  1.00  0.00     0.054 A 
ATOM      9  C   UNL A   1      32.244  22.446  23.799  1.00  0.00     0.015 A 
ATOM     10  C   UNL A   1      32.467  22.934  22.508  1.00  0.00     0.001 A 
ATOM     11  C   UNL A   1      34.838  22.866  22.906  1.00  0.00     0.016 A 
ATOM     12  C   UNL A   1      33.766  23.150  22.063  1.00  0.00     0.001 A 
BRANCH   8  13
ATOM     13  C   UNL A   1      32.904  21.627  26.003  1.00  0.00     0.256 C 
ATOM     14  N   UNL A   1      32.063  22.249  26.907  1.00  0.00    -0.322 N 
ATOM     15  H   UNL A   1      31.940  21.748  27.746  1.00  0.00     0.170 HD
ATOM     16  O   UNL A   1      33.366  20.527  26.321  1.00  0.00    -0.269 OA
BRANCH  14  17
ATOM     17  C   UNL A   1      31.351  23.458  26.858  1.00  0.00     0.042 A 
ATOM     18  C   UNL A   1      31.411  25.753  26.063  1.00  0.00     0.041 A 
ATOM     19  C   UNL A   1      30.005  25.735  26.046  1.00  0.00     0.014 A 
ATOM     20  C   UNL A   1      32.077  24.628  26.555  1.00  0.00     0.040 A 
ATOM     21  C   UNL A   1      29.287  24.648  26.545  1.00  0.00     0.003 A 
ATOM     22  C   UNL A   1      29.966  23.515  26.977  1.00  0.00     0.026 A 
BRANCH  18  23
ATOM     23  C   UNL A   1      32.040  27.043  25.688  1.00  0.00     0.251 C 
ATOM     24  N   UNL A   1      32.051  27.685  24.483  1.00  0.00    -0.346 N 
ATOM     25  H   UNL A   1      32.614  28.489  24.571  1.00  0.00     0.164 HD
ATOM     26  O   UNL A   1      32.624  27.639  26.602  1.00  0.00    -0.269 OA
BRANCH  24  27
ATOM     27  C   UNL A   1      31.544  27.633  23.107  1.00  0.00     0.109 C 
ATOM     28  C   UNL A   1      31.469  26.303  22.391  1.00  0.00     0.036 C 
BRANCH  27  29
ATOM     29  C   UNL A   1      30.256  28.419  22.895  1.00  0.00    -0.026 A 
ATOM     30  C   UNL A   1      29.001  27.949  23.300  1.00  0.00     0.006 A 
ATOM     31  C   UNL A   1      30.311  29.613  22.146  1.00  0.00     0.006 A 
ATOM     32  C   UNL A   1      27.834  28.632  22.928  1.00  0.00     0.000 A 
ATOM     33  C   UNL A   1      29.149  30.296  21.784  1.00  0.00     0.000 A 
ATOM     34  C   UNL A   1      27.908  29.797  22.165  1.00  0.00     0.000 A 
ENDBRANCH  27  29
ENDBRANCH  24  27
ENDBRANCH  18  23
ENDBRANCH  14  17
ENDBRANCH   8  13
ENDBRANCH   5   7
ENDBRANCH   4   5
ENDBRANCH   3   4
ENDBRANCH   2   3
ENDBRANCH   1   2
BRANCH   1  35
ATOM     35  C   UNL A   1      40.444  21.706  26.457  1.00  0.00     0.188 C 
BRANCH  35  36
ATOM     36  C   UNL A   1      41.088  20.845  27.570  1.00  0.00     0.188 C 
BRANCH  36  37
ATOM     37  O   UNL A   1      42.298  20.238  27.165  1.00  0.00    -0.376 OA
BRANCH  37  38
ATOM     38  C   UNL A   1      42.681  20.424  25.814  1.00  0.00     0.202 C 
BRANCH  38  39
ATOM     39  C   UNL A   1      44.052  21.052  25.484  1.00  0.00     0.261 C 
BRANCH  39  40
ATOM     40  O   UNL A   1      44.159  22.488  25.505  1.00  0.00    -0.460 OA
BRANCH  40  41
ATOM     41  C   UNL A   1      45.091  23.068  26.296  1.00  0.00     0.338 C 
ATOM     42  O   UNL A   1      46.303  22.957  26.202  1.00  0.00    -0.246 OA
BRANCH  41  43
ATOM     43  C   UNL A   1      44.395  24.074  27.145  1.00  0.00     0.060 A 
ATOM     44  C   UNL A   1      44.744  25.431  27.028  1.00  0.00     0.016 A 
ATOM     45  C   UNL A   1      43.317  23.702  27.954  1.00  0.00     0.016 A 
ATOM     46  C   UNL A   1      44.016  26.412  27.712  1.00  0.00     0.010 A 
ATOM     47  C   UNL A   1      42.618  24.682  28.672  1.00  0.00     0.010 A 
ATOM     48  C   UNL A   1      42.973  26.040  28.570  1.00  0.00    -0.014 A 
BRANCH  48  49
ATOM     49  C   UNL A   1      42.407  27.026  29.530  1.00  0.00     0.031 A 
ATOM     50  C   UNL A   1      43.077  27.156  30.872  1.00  0.00     0.074 A 
ATOM     51  C   UNL A   1      41.330  27.781  29.245  1.00  0.00     0.049 A 
ATOM     52  N   UNL A   1      42.737  27.878  31.908  1.00  0.00    -0.248 NA
ATOM     53  C   UNL A   1      44.299  26.355  31.069  1.00  0.00     0.031 C 
ATOM     54  C   UNL A   1      40.607  27.794  27.976  1.00  0.00     0.029 A 
ATOM     55  N   UNL A   1      40.646  28.682  30.030  1.00  0.00    -0.354 N 
ATOM     56  C   UNL A   1      43.689  27.606  32.883  1.00  0.00     0.074 A 
ATOM     57  C   UNL A   1      44.610  26.642  32.324  1.00  0.00     0.031 C 
ATOM     58  C   UNL A   1      39.567  28.643  28.075  1.00  0.00     0.029 A 
ATOM     59  C   UNL A   1      39.528  29.205  29.426  1.00  0.00     0.049 A 
ATOM     60  H   UNL A   1      40.932  28.928  30.940  1.00  0.00     0.167 HD
ATOM     61  C   UNL A   1      43.788  28.108  34.135  1.00  0.00     0.031 A 
ATOM     62  C   UNL A   1      38.566  30.016  29.917  1.00  0.00     0.031 A 
ATOM     63  C   UNL A   1      42.868  29.053  34.706  1.00  0.00     0.049 A 
ATOM     64  C   UNL A   1      38.656  30.499  31.345  1.00  0.00     0.074 A 
ATOM     65  C   UNL A   1      42.905  29.641  35.957  1.00  0.00     0.029 A 
ATOM     66  N   UNL A   1      41.736  29.535  34.069  1.00  0.00    -0.354 N 
ATOM     67  N   UNL A   1      39.587  30.273  32.241  1.00  0.00    -0.248 NA
ATOM     68  C   UNL A   1      37.560  31.354  31.828  1.00  0.00     0.031 C 
ATOM     69  C   UNL A   1      41.756  30.423  36.106  1.00  0.00     0.029 A 
ATOM     70  C   UNL A   1      41.045  30.382  34.918  1.00  0.00     0.049 A 
ATOM     71  H   UNL A   1      41.464  29.308  33.150  1.00  0.00     0.167 HD
ATOM     72  C   UNL A   1      39.204  30.980  33.377  1.00  0.00     0.074 A 
ATOM     73  C   UNL A   1      37.969  31.660  33.051  1.00  0.00     0.031 C 
ATOM     74  C   UNL A   1      39.818  31.057  34.583  1.00  0.00     0.031 A 
BRANCH  61  75
ATOM     75  C   UNL A   1      44.913  27.610  34.998  1.00  0.00    -0.014 A 
ATOM     76  C   UNL A   1      46.162  28.248  35.018  1.00  0.00     0.009 A 
ATOM     77  C   UNL A   1      44.697  26.511  35.845  1.00  0.00     0.009 A 
ATOM     78  C   UNL A   1      47.181  27.780  35.853  1.00  0.00     0.001 A 
ATOM     79  C   UNL A   1      45.705  26.065  36.701  1.00  0.00     0.001 A 
ATOM     80  C   UNL A   1      46.948  26.695  36.698  1.00  0.00     0.000 A 
ENDBRANCH  61  75
BRANCH  62  81
ATOM     81  C   UNL A   1      37.394  30.395  29.078  1.00  0.00    -0.014 A 
ATOM     82  C   UNL A   1      37.232  31.710  28.612  1.00  0.00     0.009 A 
ATOM     83  C   UNL A   1      36.393  29.453  28.791  1.00  0.00     0.009 A 
ATOM     84  C   UNL A   1      36.080  32.080  27.912  1.00  0.00     0.001 A 
ATOM     85  C   UNL A   1      35.260  29.815  28.060  1.00  0.00     0.001 A 
ATOM     86  C   UNL A   1      35.097  31.132  27.632  1.00  0.00     0.000 A 
ENDBRANCH  62  81
BRANCH  74  87
ATOM     87  C   UNL A   1      39.192  31.937  35.632  1.00  0.00    -0.014 A 
ATOM     88  C   UNL A   1      39.435  33.320  35.671  1.00  0.00     0.009 A 
ATOM     89  C   UNL A   1      38.305  31.379  36.566  1.00  0.00     0.009 A 
ATOM     90  C   UNL A   1      38.830  34.116  36.646  1.00  0.00     0.001 A 
ATOM     91  C   UNL A   1      37.674  32.183  37.517  1.00  0.00     0.001 A 
ATOM     92  C   UNL A   1      37.947  33.549  37.563  1.00  0.00     0.000 A 
ENDBRANCH  74  87
ENDBRANCH  48  49
ENDBRANCH  41  43
ENDBRANCH  40  41
ENDBRANCH  39  40
ENDBRANCH  38  39
ENDBRANCH  37  38
ENDBRANCH  36  37
ENDBRANCH  35  36
ENDBRANCH   1  35
TORSDOF 22
ENDMDL
