MODEL 1
REMARK VINA RESULT:     -10.2      0.000      0.000
REMARK SMILES Cn1nc(C(=O)N2C[C@@H](O)C[C@H]2C(=O)OCCOCCOCCOC(=O)c2ccc(-c3c4nc(c(-c5ccccc5)c5ccc([nH]5)c(-c5ccccc5)c5nc(c(-c6ccccc6)c6ccc3[nH]6)C=C5)C=C4)cc2)ccc1=O
REMARK SMILES IDX 19 1 18 2 17 3 16 4 15 5 13 6 14 7 12 8 7 9 8 10 9 11 11 12
REMARK SMILES IDX 5 13 6 14 4 15 1 16 2 17 3 18 77 19 76 20 78 21 75 22 10 23
REMARK SMILES IDX 20 25 21 26 22 27 23 28 24 29 25 30 26 31 27 32 28 33 74 34
REMARK SMILES IDX 29 35 73 36 30 37 31 38 32 39 67 40 33 41 72 42 66 43 68 44
REMARK SMILES IDX 34 45 71 46 65 47 64 48 35 50 57 51 42 52 56 53 43 54 46 55
REMARK SMILES IDX 55 56 69 57 44 58 45 59 54 61 70 62 47 63 36 64 37 65 41 66
REMARK SMILES IDX 38 67 40 68 39 69 58 70 59 71 63 72 60 73 62 74 61 75 48 76
REMARK SMILES IDX 49 77 53 78 50 79 52 80 51 81
REMARK H PARENT 10 24 68 49 46 60
REMARK Flexibility Score: inf
ROOT
ATOM      1  C   UNL A   1      34.118  31.953  28.334  1.00  0.00     0.188 C 
ENDROOT
BRANCH   1   2
ATOM      2  O   UNL A   1      33.262  31.345  27.376  1.00  0.00    -0.376 OA
BRANCH   2   3
ATOM      3  C   UNL A   1      33.255  29.930  27.238  1.00  0.00     0.202 C 
BRANCH   3   4
ATOM      4  C   UNL A   1      32.087  29.301  26.458  1.00  0.00     0.261 C 
BRANCH   4   5
ATOM      5  O   UNL A   1      32.359  28.067  25.741  1.00  0.00    -0.462 OA
BRANCH   5   6
ATOM      6  C   UNL A   1      31.337  27.172  25.658  1.00  0.00     0.329 C 
ATOM      7  O   UNL A   1      30.849  26.608  26.635  1.00  0.00    -0.250 OA
BRANCH   6   8
ATOM      8  C   UNL A   1      30.860  26.809  24.214  1.00  0.00     0.198 C 
ATOM      9  N   UNL A   1      30.337  27.753  23.198  1.00  0.00    -0.321 N 
ATOM     10  C   UNL A   1      31.193  27.821  22.038  1.00  0.00     0.152 C 
ATOM     11  C   UNL A   1      32.004  26.538  22.073  1.00  0.00     0.136 C 
ATOM     12  C   UNL A   1      32.126  26.228  23.557  1.00  0.00     0.071 C 
BRANCH   9  13
ATOM     13  C   UNL A   1      29.027  28.187  23.068  1.00  0.00     0.275 C 
ATOM     14  O   UNL A   1      28.079  27.468  23.367  1.00  0.00    -0.267 OA
BRANCH  13  15
ATOM     15  C   UNL A   1      28.703  29.660  22.737  1.00  0.00     0.149 A 
ATOM     16  C   UNL A   1      27.753  31.776  19.983  1.00  0.00     0.178 C 
ATOM     17  N   UNL A   1      28.142  31.387  21.327  1.00  0.00    -0.232 N 
ATOM     18  N   UNL A   1      28.293  30.015  21.556  1.00  0.00    -0.165 NA
ATOM     19  C   UNL A   1      28.404  32.381  22.265  1.00  0.00     0.266 A 
ATOM     20  C   UNL A   1      28.794  31.914  23.607  1.00  0.00     0.076 A 
ATOM     21  O   UNL A   1      28.332  33.591  22.064  1.00  0.00    -0.268 OA
ATOM     22  C   UNL A   1      28.943  30.613  23.851  1.00  0.00     0.042 A 
ENDBRANCH  13  15
ENDBRANCH   9  13
BRANCH  11  23
ATOM     23  O   UNL A   1      33.286  26.699  21.486  1.00  0.00    -0.391 OA
ATOM     24  H   UNL A   1      33.703  25.829  21.378  1.00  0.00     0.211 HD
ENDBRANCH  11  23
ENDBRANCH   6   8
ENDBRANCH   5   6
ENDBRANCH   4   5
ENDBRANCH   3   4
ENDBRANCH   2   3
ENDBRANCH   1   2
BRANCH   1  25
ATOM     25  C   UNL A   1      34.414  33.448  28.236  1.00  0.00     0.188 C 
BRANCH  25  26
ATOM     26  O   UNL A   1      33.593  34.251  29.057  1.00  0.00    -0.376 OA
BRANCH  26  27
ATOM     27  C   UNL A   1      33.837  35.645  28.982  1.00  0.00     0.202 C 
BRANCH  27  28
ATOM     28  C   UNL A   1      32.806  36.426  29.801  1.00  0.00     0.261 C 
BRANCH  28  29
ATOM     29  O   UNL A   1      33.152  36.615  31.191  1.00  0.00    -0.460 OA
BRANCH  29  30
ATOM     30  C   UNL A   1      32.716  35.691  32.072  1.00  0.00     0.338 C 
ATOM     31  O   UNL A   1      31.558  35.351  32.282  1.00  0.00    -0.246 OA
BRANCH  30  32
ATOM     32  C   UNL A   1      33.893  34.982  32.616  1.00  0.00     0.060 A 
ATOM     33  C   UNL A   1      35.159  35.587  32.564  1.00  0.00     0.016 A 
ATOM     34  C   UNL A   1      33.746  33.709  33.163  1.00  0.00     0.016 A 
ATOM     35  C   UNL A   1      36.285  34.913  33.034  1.00  0.00     0.010 A 
ATOM     36  C   UNL A   1      34.878  33.020  33.605  1.00  0.00     0.010 A 
ATOM     37  C   UNL A   1      36.153  33.607  33.516  1.00  0.00    -0.014 A 
BRANCH  37  38
ATOM     38  C   UNL A   1      37.354  32.772  33.746  1.00  0.00     0.031 A 
ATOM     39  C   UNL A   1      38.140  32.993  35.007  1.00  0.00     0.074 A 
ATOM     40  C   UNL A   1      37.748  31.843  32.858  1.00  0.00     0.049 A 
ATOM     41  N   UNL A   1      39.289  32.482  35.364  1.00  0.00    -0.248 NA
ATOM     42  C   UNL A   1      37.554  33.912  35.998  1.00  0.00     0.031 C 
ATOM     43  C   UNL A   1      37.038  31.484  31.633  1.00  0.00     0.029 A 
ATOM     44  N   UNL A   1      38.864  31.042  32.851  1.00  0.00    -0.354 N 
ATOM     45  C   UNL A   1      39.564  33.018  36.614  1.00  0.00     0.074 A 
ATOM     46  C   UNL A   1      38.475  33.908  36.950  1.00  0.00     0.031 C 
ATOM     47  C   UNL A   1      37.749  30.549  30.978  1.00  0.00     0.029 A 
ATOM     48  C   UNL A   1      38.980  30.273  31.719  1.00  0.00     0.049 A 
ATOM     49  H   UNL A   1      39.518  31.021  33.586  1.00  0.00     0.167 HD
ATOM     50  C   UNL A   1      40.628  32.784  37.413  1.00  0.00     0.031 A 
ATOM     51  C   UNL A   1      39.979  29.466  31.310  1.00  0.00     0.031 A 
ATOM     52  C   UNL A   1      41.715  31.909  37.079  1.00  0.00     0.049 A 
ATOM     53  C   UNL A   1      41.202  29.293  32.172  1.00  0.00     0.074 A 
ATOM     54  C   UNL A   1      42.843  31.622  37.827  1.00  0.00     0.029 A 
ATOM     55  N   UNL A   1      41.811  31.181  35.906  1.00  0.00    -0.354 N 
ATOM     56  N   UNL A   1      41.462  29.823  33.343  1.00  0.00    -0.248 NA
ATOM     57  C   UNL A   1      42.267  28.417  31.661  1.00  0.00     0.031 C 
ATOM     58  C   UNL A   1      43.645  30.754  37.087  1.00  0.00     0.029 A 
ATOM     59  C   UNL A   1      42.988  30.457  35.903  1.00  0.00     0.049 A 
ATOM     60  H   UNL A   1      41.142  31.179  35.183  1.00  0.00     0.167 HD
ATOM     61  C   UNL A   1      42.706  29.329  33.717  1.00  0.00     0.074 A 
ATOM     62  C   UNL A   1      43.148  28.452  32.653  1.00  0.00     0.031 C 
ATOM     63  C   UNL A   1      43.416  29.581  34.843  1.00  0.00     0.031 A 
BRANCH  50  64
ATOM     64  C   UNL A   1      40.684  33.484  38.737  1.00  0.00    -0.014 A 
ATOM     65  C   UNL A   1      41.297  34.740  38.856  1.00  0.00     0.009 A 
ATOM     66  C   UNL A   1      40.014  32.940  39.843  1.00  0.00     0.009 A 
ATOM     67  C   UNL A   1      41.230  35.443  40.060  1.00  0.00     0.001 A 
ATOM     68  C   UNL A   1      39.931  33.655  41.039  1.00  0.00     0.001 A 
ATOM     69  C   UNL A   1      40.537  34.906  41.145  1.00  0.00     0.000 A 
ENDBRANCH  50  64
BRANCH  51  70
ATOM     70  C   UNL A   1      39.868  28.774  30.001  1.00  0.00    -0.014 A 
ATOM     71  C   UNL A   1      40.300  29.400  28.822  1.00  0.00     0.009 A 
ATOM     72  C   UNL A   1      39.359  27.467  29.928  1.00  0.00     0.009 A 
ATOM     73  C   UNL A   1      40.226  28.730  27.599  1.00  0.00     0.001 A 
ATOM     74  C   UNL A   1      39.309  26.791  28.707  1.00  0.00     0.001 A 
ATOM     75  C   UNL A   1      39.740  27.425  27.543  1.00  0.00     0.000 A 
ENDBRANCH  51  70
BRANCH  63  76
ATOM     76  C   UNL A   1      44.739  28.897  35.023  1.00  0.00    -0.014 A 
ATOM     77  C   UNL A   1      44.817  27.617  35.588  1.00  0.00     0.009 A 
ATOM     78  C   UNL A   1      45.900  29.480  34.485  1.00  0.00     0.009 A 
ATOM     79  C   UNL A   1      46.035  26.932  35.613  1.00  0.00     0.001 A 
ATOM     80  C   UNL A   1      47.109  28.783  34.491  1.00  0.00     0.001 A 
ATOM     81  C   UNL A   1      47.175  27.510  35.055  1.00  0.00     0.000 A 
ENDBRANCH  63  76
ENDBRANCH  37  38
ENDBRANCH  30  32
ENDBRANCH  29  30
ENDBRANCH  28  29
ENDBRANCH  27  28
ENDBRANCH  26  27
ENDBRANCH  25  26
ENDBRANCH   1  25
TORSDOF 20
ENDMDL
MODEL 2
REMARK VINA RESULT:     -10.1      1.538      3.131
REMARK SMILES Cn1nc(C(=O)N2C[C@@H](O)C[C@H]2C(=O)OCCOCCOCCOC(=O)c2ccc(-c3c4nc(c(-c5ccccc5)c5ccc([nH]5)c(-c5ccccc5)c5nc(c(-c6ccccc6)c6ccc3[nH]6)C=C5)C=C4)cc2)ccc1=O
REMARK SMILES IDX 19 1 18 2 17 3 16 4 15 5 13 6 14 7 12 8 7 9 8 10 9 11 11 12
REMARK SMILES IDX 5 13 6 14 4 15 1 16 2 17 3 18 77 19 76 20 78 21 75 22 10 23
REMARK SMILES IDX 20 25 21 26 22 27 23 28 24 29 25 30 26 31 27 32 28 33 74 34
REMARK SMILES IDX 29 35 73 36 30 37 31 38 32 39 67 40 33 41 72 42 66 43 68 44
REMARK SMILES IDX 34 45 71 46 65 47 64 48 35 50 57 51 42 52 56 53 43 54 46 55
REMARK SMILES IDX 55 56 69 57 44 58 45 59 54 61 70 62 47 63 36 64 37 65 41 66
REMARK SMILES IDX 38 67 40 68 39 69 58 70 59 71 63 72 60 73 62 74 61 75 48 76
REMARK SMILES IDX 49 77 53 78 50 79 52 80 51 81
REMARK H PARENT 10 24 68 49 46 60
REMARK Flexibility Score: inf
ROOT
ATOM      1  C   UNL A   1      34.842  32.128  28.520  1.00  0.00     0.188 C 
ENDROOT
BRANCH   1   2
ATOM      2  O   UNL A   1      35.213  31.137  27.572  1.00  0.00    -0.376 OA
BRANCH   2   3
ATOM      3  C   UNL A   1      34.307  30.086  27.263  1.00  0.00     0.202 C 
BRANCH   3   4
ATOM      4  C   UNL A   1      32.811  30.440  27.193  1.00  0.00     0.261 C 
BRANCH   4   5
ATOM      5  O   UNL A   1      32.073  29.969  26.033  1.00  0.00    -0.462 OA
BRANCH   5   6
ATOM      6  C   UNL A   1      31.660  28.673  26.058  1.00  0.00     0.329 C 
ATOM      7  O   UNL A   1      31.512  28.028  27.095  1.00  0.00    -0.250 OA
BRANCH   6   8
ATOM      8  C   UNL A   1      31.466  27.988  24.666  1.00  0.00     0.198 C 
ATOM      9  N   UNL A   1      30.175  27.587  24.056  1.00  0.00    -0.321 N 
ATOM     10  C   UNL A   1      29.907  28.320  22.842  1.00  0.00     0.152 C 
ATOM     11  C   UNL A   1      31.261  28.830  22.382  1.00  0.00     0.136 C 
ATOM     12  C   UNL A   1      32.032  29.025  23.678  1.00  0.00     0.071 C 
BRANCH   9  13
ATOM     13  C   UNL A   1      29.495  26.398  24.265  1.00  0.00     0.275 C 
ATOM     14  O   UNL A   1      28.291  26.301  24.052  1.00  0.00    -0.267 OA
BRANCH  13  15
ATOM     15  C   UNL A   1      30.252  25.090  24.577  1.00  0.00     0.149 A 
ATOM     16  C   UNL A   1      32.007  22.403  22.944  1.00  0.00     0.178 C 
ATOM     17  N   UNL A   1      31.405  23.183  24.010  1.00  0.00    -0.232 N 
ATOM     18  N   UNL A   1      30.850  24.413  23.642  1.00  0.00    -0.165 NA
ATOM     19  C   UNL A   1      31.354  22.642  25.293  1.00  0.00     0.266 A 
ATOM     20  C   UNL A   1      30.730  23.488  26.324  1.00  0.00     0.076 A 
ATOM     21  O   UNL A   1      31.786  21.540  25.621  1.00  0.00    -0.268 OA
ATOM     22  C   UNL A   1      30.195  24.663  25.999  1.00  0.00     0.042 A 
ENDBRANCH  13  15
ENDBRANCH   9  13
BRANCH  11  23
ATOM     23  O   UNL A   1      31.159  30.051  21.668  1.00  0.00    -0.391 OA
ATOM     24  H   UNL A   1      32.038  30.316  21.354  1.00  0.00     0.211 HD
ENDBRANCH  11  23
ENDBRANCH   6   8
ENDBRANCH   5   6
ENDBRANCH   4   5
ENDBRANCH   3   4
ENDBRANCH   2   3
ENDBRANCH   1   2
BRANCH   1  25
ATOM     25  C   UNL A   1      34.460  33.526  28.036  1.00  0.00     0.188 C 
BRANCH  25  26
ATOM     26  O   UNL A   1      34.519  34.517  29.040  1.00  0.00    -0.376 OA
BRANCH  26  27
ATOM     27  C   UNL A   1      34.006  35.785  28.672  1.00  0.00     0.202 C 
BRANCH  27  28
ATOM     28  C   UNL A   1      32.827  36.180  29.564  1.00  0.00     0.261 C 
BRANCH  28  29
ATOM     29  O   UNL A   1      32.537  35.251  30.632  1.00  0.00    -0.460 OA
BRANCH  29  30
ATOM     30  C   UNL A   1      32.706  35.685  31.898  1.00  0.00     0.338 C 
ATOM     31  O   UNL A   1      31.950  36.396  32.549  1.00  0.00    -0.246 OA
BRANCH  30  32
ATOM     32  C   UNL A   1      33.875  34.985  32.472  1.00  0.00     0.060 A 
ATOM     33  C   UNL A   1      35.145  35.580  32.410  1.00  0.00     0.016 A 
ATOM     34  C   UNL A   1      33.716  33.730  33.056  1.00  0.00     0.016 A 
ATOM     35  C   UNL A   1      36.263  34.914  32.908  1.00  0.00     0.010 A 
ATOM     36  C   UNL A   1      34.840  33.048  33.527  1.00  0.00     0.010 A 
ATOM     37  C   UNL A   1      36.120  33.624  33.429  1.00  0.00    -0.014 A 
BRANCH  37  38
ATOM     38  C   UNL A   1      37.313  32.788  33.693  1.00  0.00     0.031 A 
ATOM     39  C   UNL A   1      38.079  33.027  34.964  1.00  0.00     0.074 A 
ATOM     40  C   UNL A   1      37.720  31.845  32.827  1.00  0.00     0.049 A 
ATOM     41  N   UNL A   1      39.219  32.518  35.349  1.00  0.00    -0.248 NA
ATOM     42  C   UNL A   1      37.478  33.963  35.930  1.00  0.00     0.031 C 
ATOM     43  C   UNL A   1      37.029  31.469  31.595  1.00  0.00     0.029 A 
ATOM     44  N   UNL A   1      38.832  31.040  32.851  1.00  0.00    -0.354 N 
ATOM     45  C   UNL A   1      39.474  33.073  36.595  1.00  0.00     0.074 A 
ATOM     46  C   UNL A   1      38.383  33.971  36.898  1.00  0.00     0.031 C 
ATOM     47  C   UNL A   1      37.749  30.521  30.968  1.00  0.00     0.029 A 
ATOM     48  C   UNL A   1      38.965  30.253  31.734  1.00  0.00     0.049 A 
ATOM     49  H   UNL A   1      39.474  31.028  33.598  1.00  0.00     0.167 HD
ATOM     50  C   UNL A   1      40.523  32.848  37.416  1.00  0.00     0.031 A 
ATOM     51  C   UNL A   1      39.969  29.436  31.355  1.00  0.00     0.031 A 
ATOM     52  C   UNL A   1      41.613  31.964  37.114  1.00  0.00     0.049 A 
ATOM     53  C   UNL A   1      41.176  29.274  32.241  1.00  0.00     0.074 A 
ATOM     54  C   UNL A   1      42.726  31.685  37.886  1.00  0.00     0.029 A 
ATOM     55  N   UNL A   1      41.727  31.217  35.955  1.00  0.00    -0.354 N 
ATOM     56  N   UNL A   1      41.418  29.820  33.408  1.00  0.00    -0.248 NA
ATOM     57  C   UNL A   1      42.246  28.386  31.763  1.00  0.00     0.031 C 
ATOM     58  C   UNL A   1      43.538  30.803  37.174  1.00  0.00     0.029 A 
ATOM     59  C   UNL A   1      42.901  30.490  35.984  1.00  0.00     0.049 A 
ATOM     60  H   UNL A   1      41.070  31.206  35.221  1.00  0.00     0.167 HD
ATOM     61  C   UNL A   1      42.653  29.329  33.811  1.00  0.00     0.074 A 
ATOM     62  C   UNL A   1      43.110  28.434  32.769  1.00  0.00     0.031 C 
ATOM     63  C   UNL A   1      43.344  29.596  34.945  1.00  0.00     0.031 A 
BRANCH  50  64
ATOM     64  C   UNL A   1      40.559  33.568  38.730  1.00  0.00    -0.014 A 
ATOM     65  C   UNL A   1      41.179  34.822  38.841  1.00  0.00     0.009 A 
ATOM     66  C   UNL A   1      39.863  33.047  39.831  1.00  0.00     0.009 A 
ATOM     67  C   UNL A   1      41.094  35.545  40.032  1.00  0.00     0.001 A 
ATOM     68  C   UNL A   1      39.763  33.781  41.013  1.00  0.00     0.001 A 
ATOM     69  C   UNL A   1      40.376  35.030  41.112  1.00  0.00     0.000 A 
ENDBRANCH  50  64
BRANCH  51  70
ATOM     70  C   UNL A   1      39.878  28.725  30.055  1.00  0.00    -0.014 A 
ATOM     71  C   UNL A   1      40.389  29.304  28.885  1.00  0.00     0.009 A 
ATOM     72  C   UNL A   1      39.309  27.442  29.985  1.00  0.00     0.009 A 
ATOM     73  C   UNL A   1      40.333  28.614  27.672  1.00  0.00     0.001 A 
ATOM     74  C   UNL A   1      39.276  26.745  28.775  1.00  0.00     0.001 A 
ATOM     75  C   UNL A   1      39.785  27.334  27.619  1.00  0.00     0.000 A 
ENDBRANCH  51  70
BRANCH  63  76
ATOM     76  C   UNL A   1      44.662  28.911  35.159  1.00  0.00    -0.014 A 
ATOM     77  C   UNL A   1      45.864  29.529  34.789  1.00  0.00     0.009 A 
ATOM     78  C   UNL A   1      44.706  27.701  35.873  1.00  0.00     0.009 A 
ATOM     79  C   UNL A   1      47.088  28.947  35.128  1.00  0.00     0.001 A 
ATOM     80  C   UNL A   1      45.931  27.135  36.232  1.00  0.00     0.001 A 
ATOM     81  C   UNL A   1      47.120  27.759  35.859  1.00  0.00     0.000 A 
ENDBRANCH  63  76
ENDBRANCH  37  38
ENDBRANCH  30  32
ENDBRANCH  29  30
ENDBRANCH  28  29
ENDBRANCH  27  28
ENDBRANCH  26  27
ENDBRANCH  25  26
ENDBRANCH   1  25
TORSDOF 20
ENDMDL
MODEL 3
REMARK VINA RESULT:     -10.0      4.756     10.568
REMARK SMILES Cn1nc(C(=O)N2C[C@@H](O)C[C@H]2C(=O)OCCOCCOCCOC(=O)c2ccc(-c3c4nc(c(-c5ccccc5)c5ccc([nH]5)c(-c5ccccc5)c5nc(c(-c6ccccc6)c6ccc3[nH]6)C=C5)C=C4)cc2)ccc1=O
REMARK SMILES IDX 19 1 18 2 17 3 16 4 15 5 13 6 14 7 12 8 7 9 8 10 9 11 11 12
REMARK SMILES IDX 5 13 6 14 4 15 1 16 2 17 3 18 77 19 76 20 78 21 75 22 10 23
REMARK SMILES IDX 20 25 21 26 22 27 23 28 24 29 25 30 26 31 27 32 28 33 74 34
REMARK SMILES IDX 29 35 73 36 30 37 31 38 32 39 67 40 33 41 72 42 66 43 68 44
REMARK SMILES IDX 34 45 71 46 65 47 64 48 35 50 57 51 42 52 56 53 43 54 46 55
REMARK SMILES IDX 55 56 69 57 44 58 45 59 54 61 70 62 47 63 36 64 37 65 41 66
REMARK SMILES IDX 38 67 40 68 39 69 58 70 59 71 63 72 60 73 62 74 61 75 48 76
REMARK SMILES IDX 49 77 53 78 50 79 52 80 51 81
REMARK H PARENT 10 24 68 49 46 60
REMARK Flexibility Score: inf
ROOT
ATOM      1  C   UNL A   1      40.533  21.884  27.023  1.00  0.00     0.188 C 
ENDROOT
BRANCH   1   2
ATOM      2  O   UNL A   1      39.595  22.414  26.096  1.00  0.00    -0.376 OA
BRANCH   2   3
ATOM      3  C   UNL A   1      38.756  23.494  26.487  1.00  0.00     0.202 C 
BRANCH   3   4
ATOM      4  C   UNL A   1      37.414  23.650  25.749  1.00  0.00     0.261 C 
BRANCH   4   5
ATOM      5  O   UNL A   1      37.054  22.607  24.804  1.00  0.00    -0.462 OA
BRANCH   5   6
ATOM      6  C   UNL A   1      36.331  22.992  23.717  1.00  0.00     0.329 C 
ATOM      7  O   UNL A   1      36.841  23.406  22.677  1.00  0.00    -0.250 OA
BRANCH   6   8
ATOM      8  C   UNL A   1      34.777  22.973  23.884  1.00  0.00     0.198 C 
ATOM      9  N   UNL A   1      34.032  22.751  25.146  1.00  0.00    -0.321 N 
ATOM     10  C   UNL A   1      33.260  23.911  25.524  1.00  0.00     0.152 C 
ATOM     11  C   UNL A   1      33.095  24.708  24.242  1.00  0.00     0.136 C 
ATOM     12  C   UNL A   1      34.357  24.392  23.455  1.00  0.00     0.071 C 
BRANCH   9  13
ATOM     13  C   UNL A   1      33.684  21.528  25.698  1.00  0.00     0.275 C 
ATOM     14  O   UNL A   1      33.471  21.403  26.899  1.00  0.00    -0.267 OA
BRANCH  13  15
ATOM     15  C   UNL A   1      33.348  20.316  24.803  1.00  0.00     0.149 A 
ATOM     16  C   UNL A   1      34.353  16.911  24.195  1.00  0.00     0.178 C 
ATOM     17  N   UNL A   1      33.643  18.168  24.036  1.00  0.00    -0.232 N 
ATOM     18  N   UNL A   1      33.930  19.166  24.973  1.00  0.00    -0.165 NA
ATOM     19  C   UNL A   1      32.792  18.327  22.945  1.00  0.00     0.266 A 
ATOM     20  C   UNL A   1      32.106  19.626  22.847  1.00  0.00     0.076 A 
ATOM     21  O   UNL A   1      32.573  17.481  22.081  1.00  0.00    -0.268 OA
ATOM     22  C   UNL A   1      32.361  20.592  23.727  1.00  0.00     0.042 A 
ENDBRANCH  13  15
ENDBRANCH   9  13
BRANCH  11  23
ATOM     23  O   UNL A   1      32.991  26.101  24.487  1.00  0.00    -0.391 OA
ATOM     24  H   UNL A   1      32.937  26.575  23.642  1.00  0.00     0.211 HD
ENDBRANCH  11  23
ENDBRANCH   6   8
ENDBRANCH   5   6
ENDBRANCH   4   5
ENDBRANCH   3   4
ENDBRANCH   2   3
ENDBRANCH   1   2
BRANCH   1  25
ATOM     25  C   UNL A   1      41.568  20.867  26.545  1.00  0.00     0.188 C 
BRANCH  25  26
ATOM     26  O   UNL A   1      42.401  21.340  25.507  1.00  0.00    -0.376 OA
BRANCH  26  27
ATOM     27  C   UNL A   1      43.787  21.108  25.687  1.00  0.00     0.202 C 
BRANCH  27  28
ATOM     28  C   UNL A   1      44.617  22.215  25.030  1.00  0.00     0.261 C 
BRANCH  28  29
ATOM     29  O   UNL A   1      43.923  23.469  24.853  1.00  0.00    -0.460 OA
BRANCH  29  30
ATOM     30  C   UNL A   1      44.604  24.601  25.128  1.00  0.00     0.338 C 
ATOM     31  O   UNL A   1      45.606  25.024  24.562  1.00  0.00    -0.246 OA
BRANCH  30  32
ATOM     32  C   UNL A   1      43.821  25.384  26.106  1.00  0.00     0.060 A 
ATOM     33  C   UNL A   1      44.119  26.740  26.315  1.00  0.00     0.016 A 
ATOM     34  C   UNL A   1      42.801  24.770  26.830  1.00  0.00     0.016 A 
ATOM     35  C   UNL A   1      43.417  27.480  27.265  1.00  0.00     0.010 A 
ATOM     36  C   UNL A   1      42.118  25.502  27.804  1.00  0.00     0.010 A 
ATOM     37  C   UNL A   1      42.443  26.849  28.046  1.00  0.00    -0.014 A 
BRANCH  37  38
ATOM     38  C   UNL A   1      41.894  27.524  29.243  1.00  0.00     0.031 A 
ATOM     39  C   UNL A   1      40.609  28.291  29.099  1.00  0.00     0.074 A 
ATOM     40  C   UNL A   1      42.519  27.471  30.432  1.00  0.00     0.049 A 
ATOM     41  N   UNL A   1      40.009  29.066  29.964  1.00  0.00    -0.248 NA
ATOM     42  C   UNL A   1      39.908  28.167  27.810  1.00  0.00     0.031 C 
ATOM     43  C   UNL A   1      43.731  26.708  30.720  1.00  0.00     0.029 A 
ATOM     44  N   UNL A   1      42.219  28.093  31.619  1.00  0.00    -0.354 N 
ATOM     45  C   UNL A   1      38.866  29.523  29.324  1.00  0.00     0.074 A 
ATOM     46  C   UNL A   1      38.860  28.957  27.994  1.00  0.00     0.031 C 
ATOM     47  C   UNL A   1      44.086  26.927  31.999  1.00  0.00     0.029 A 
ATOM     48  C   UNL A   1      43.149  27.872  32.605  1.00  0.00     0.049 A 
ATOM     49  H   UNL A   1      41.413  28.644  31.752  1.00  0.00     0.167 HD
ATOM     50  C   UNL A   1      37.902  30.338  29.806  1.00  0.00     0.031 A 
ATOM     51  C   UNL A   1      43.252  28.399  33.842  1.00  0.00     0.031 A 
ATOM     52  C   UNL A   1      37.908  30.910  31.123  1.00  0.00     0.049 A 
ATOM     53  C   UNL A   1      42.219  29.381  34.326  1.00  0.00     0.074 A 
ATOM     54  C   UNL A   1      36.976  31.758  31.691  1.00  0.00     0.029 A 
ATOM     55  N   UNL A   1      38.890  30.691  32.074  1.00  0.00    -0.354 N 
ATOM     56  N   UNL A   1      41.153  29.825  33.704  1.00  0.00    -0.248 NA
ATOM     57  C   UNL A   1      42.400  29.937  35.675  1.00  0.00     0.031 C 
ATOM     58  C   UNL A   1      37.415  32.090  32.972  1.00  0.00     0.029 A 
ATOM     59  C   UNL A   1      38.592  31.403  33.220  1.00  0.00     0.049 A 
ATOM     60  H   UNL A   1      39.679  30.115  31.952  1.00  0.00     0.167 HD
ATOM     61  C   UNL A   1      40.527  30.692  34.592  1.00  0.00     0.074 A 
ATOM     62  C   UNL A   1      41.327  30.709  35.798  1.00  0.00     0.031 C 
ATOM     63  C   UNL A   1      39.391  31.408  34.419  1.00  0.00     0.031 A 
BRANCH  50  64
ATOM     64  C   UNL A   1      36.748  30.675  28.910  1.00  0.00    -0.014 A 
ATOM     65  C   UNL A   1      35.818  29.692  28.544  1.00  0.00     0.009 A 
ATOM     66  C   UNL A   1      36.524  32.008  28.533  1.00  0.00     0.009 A 
ATOM     67  C   UNL A   1      34.676  30.040  27.820  1.00  0.00     0.001 A 
ATOM     68  C   UNL A   1      35.371  32.355  27.827  1.00  0.00     0.001 A 
ATOM     69  C   UNL A   1      34.448  31.372  27.474  1.00  0.00     0.000 A 
ENDBRANCH  50  64
BRANCH  51  70
ATOM     70  C   UNL A   1      44.401  28.017  34.702  1.00  0.00    -0.014 A 
ATOM     71  C   UNL A   1      44.319  26.905  35.553  1.00  0.00     0.009 A 
ATOM     72  C   UNL A   1      45.602  28.744  34.650  1.00  0.00     0.009 A 
ATOM     73  C   UNL A   1      45.415  26.529  36.332  1.00  0.00     0.001 A 
ATOM     74  C   UNL A   1      46.703  28.352  35.413  1.00  0.00     0.001 A 
ATOM     75  C   UNL A   1      46.608  27.246  36.256  1.00  0.00     0.000 A 
ENDBRANCH  51  70
BRANCH  63  76
ATOM     76  C   UNL A   1      38.904  32.263  35.552  1.00  0.00    -0.014 A 
ATOM     77  C   UNL A   1      38.130  31.717  36.586  1.00  0.00     0.009 A 
ATOM     78  C   UNL A   1      39.350  33.591  35.659  1.00  0.00     0.009 A 
ATOM     79  C   UNL A   1      37.811  32.487  37.707  1.00  0.00     0.001 A 
ATOM     80  C   UNL A   1      39.049  34.350  36.792  1.00  0.00     0.001 A 
ATOM     81  C   UNL A   1      38.279  33.797  37.814  1.00  0.00     0.000 A 
ENDBRANCH  63  76
ENDBRANCH  37  38
ENDBRANCH  30  32
ENDBRANCH  29  30
ENDBRANCH  28  29
ENDBRANCH  27  28
ENDBRANCH  26  27
ENDBRANCH  25  26
ENDBRANCH   1  25
TORSDOF 20
ENDMDL
