MODEL 1
REMARK VINA RESULT:     -11.4      0.000      0.000
REMARK SMILES Cc1ccc2nc(Cl)c([C@@H]3CC(c4cccs4)=NN3C(=O)CCCC(=O)OCCOCCOCCOC(=O)c3ccc(-c4c5nc(c(-c6ccccc6)c6ccc([nH]6)c(-c6ccccc6)c6nc(c(-c7ccccc7)c7ccc4[nH]7)C=C6)C=C5)cc3)cc2c1
REMARK SMILES IDX 30 1 29 2 28 3 27 4 25 5 26 6 24 7 23 8 22 9 20 10 21 11
REMARK SMILES IDX 19 12 10 13 11 14 12 15 18 16 9 17 1 18 2 19 3 20 89 21 4 22
REMARK SMILES IDX 88 23 5 24 87 25 6 26 7 27 8 28 13 29 14 30 17 31 15 32
REMARK SMILES IDX 16 33 31 34 32 35 33 36 34 37 35 38 36 39 37 40 38 41 39 42
REMARK SMILES IDX 40 43 86 44 41 45 85 46 42 47 43 48 44 49 79 50 45 51 84 52
REMARK SMILES IDX 78 53 80 54 46 55 83 56 77 57 76 58 47 60 69 61 54 62 68 63
REMARK SMILES IDX 55 64 58 65 67 66 81 67 56 68 57 69 66 71 82 72 59 73 48 74
REMARK SMILES IDX 49 75 53 76 50 77 52 78 51 79 70 80 71 81 75 82 72 83 74 84
REMARK SMILES IDX 73 85 60 86 61 87 65 88 62 89 64 90 63 91
REMARK H PARENT 80 59 58 70
REMARK Flexibility Score: inf
ROOT
ATOM      1  O   UNL A   1      43.155  20.533  26.223  1.00  0.00    -0.376 OA
ENDROOT
BRANCH   1   2
ATOM      2  C   UNL A   1      42.062  19.513  26.429  1.00  0.00     0.202 C 
BRANCH   2   3
ATOM      3  C   UNL A   1      40.189  19.658  26.113  1.00  0.00     0.261 C 
BRANCH   3   4
ATOM      4  O   UNL A   1      39.266  21.492  25.969  1.00  0.00    -0.463 OA
BRANCH   4   5
ATOM      5  C   UNL A   1      39.313  22.943  26.585  1.00  0.00     0.305 C 
ATOM      6  O   UNL A   1      39.929  23.265  27.624  1.00  0.00    -0.252 OA
BRANCH   5   7
ATOM      7  C   UNL A   1      38.357  24.040  26.285  1.00  0.00     0.123 C 
BRANCH   7   8
ATOM      8  C   UNL A   1      36.921  23.834  26.033  1.00  0.00     0.022 C 
BRANCH   8   9
ATOM      9  C   UNL A   1      36.731  23.315  24.638  1.00  0.00     0.103 C 
BRANCH   9  10
ATOM     10  C   UNL A   1      35.427  23.744  23.968  1.00  0.00     0.243 C 
ATOM     11  O   UNL A   1      35.395  23.633  22.733  1.00  0.00    -0.273 OA
BRANCH  10  12
ATOM     12  N   UNL A   1      34.279  24.082  24.695  1.00  0.00    -0.225 N 
ATOM     13  C   UNL A   1      33.443  23.508  25.865  1.00  0.00     0.150 C 
ATOM     14  C   UNL A   1      32.431  24.629  26.146  1.00  0.00     0.092 C 
ATOM     15  C   UNL A   1      32.842  25.657  25.139  1.00  0.00     0.081 C 
ATOM     16  N   UNL A   1      33.864  25.361  24.412  1.00  0.00    -0.173 NA
BRANCH  13  17
ATOM     17  C   UNL A   1      32.735  22.176  25.610  1.00  0.00     0.015 A 
ATOM     18  C   UNL A   1      32.705  15.013  25.389  1.00  0.00     0.044 C 
ATOM     19  C   UNL A   1      32.880  16.418  24.861  1.00  0.00    -0.050 A 
ATOM     20  C   UNL A   1      32.923  16.668  23.502  1.00  0.00     0.005 A 
ATOM     21  C   UNL A   1      32.969  17.489  25.797  1.00  0.00     0.013 A 
ATOM     22  C   UNL A   1      32.900  17.973  23.027  1.00  0.00     0.029 A 
ATOM     23  C   UNL A   1      33.081  18.962  25.602  1.00  0.00     0.001 A 
ATOM     24  C   UNL A   1      32.866  19.081  23.857  1.00  0.00     0.072 A 
ATOM     25  C   UNL A   1      33.037  20.642  26.552  1.00  0.00     0.019 A 
ATOM     26  N   UNL A   1      32.450  20.515  23.133  1.00  0.00    -0.236 NA
ATOM     27  C   UNL A   1      32.374  21.962  23.940  1.00  0.00     0.135 A 
ATOM     28  Cl  UNL A   1      31.663  23.207  22.983  1.00  0.00    -0.062 Cl
ENDBRANCH  13  17
BRANCH  15  29
ATOM     29  C   UNL A   1      32.162  26.905  24.933  1.00  0.00     0.050 A 
ATOM     30  C   UNL A   1      32.438  28.156  25.437  1.00  0.00     0.022 A 
ATOM     31  S   UNL A   1      30.832  26.934  23.847  1.00  0.00    -0.142 S 
ATOM     32  C   UNL A   1      31.571  29.153  24.893  1.00  0.00     0.012 A 
ATOM     33  C   UNL A   1      30.647  28.621  24.021  1.00  0.00     0.065 A 
ENDBRANCH  15  29
ENDBRANCH  10  12
ENDBRANCH   9  10
ENDBRANCH   8   9
ENDBRANCH   7   8
ENDBRANCH   5   7
ENDBRANCH   4   5
ENDBRANCH   3   4
ENDBRANCH   2   3
ENDBRANCH   1   2
BRANCH   1  34
ATOM     34  C   UNL A   1      43.952  20.922  25.019  1.00  0.00     0.188 C 
BRANCH  34  35
ATOM     35  C   UNL A   1      45.630  20.985  24.973  1.00  0.00     0.188 C 
BRANCH  35  36
ATOM     36  O   UNL A   1      46.359  22.055  25.587  1.00  0.00    -0.376 OA
BRANCH  36  37
ATOM     37  C   UNL A   1      45.846  23.292  26.127  1.00  0.00     0.202 C 
BRANCH  37  38
ATOM     38  C   UNL A   1      45.146  24.319  25.232  1.00  0.00     0.261 C 
BRANCH  38  39
ATOM     39  O   UNL A   1      44.456  25.305  25.984  1.00  0.00    -0.460 OA
BRANCH  39  40
ATOM     40  C   UNL A   1      43.184  25.479  25.556  1.00  0.00     0.338 C 
ATOM     41  O   UNL A   1      42.620  24.862  24.671  1.00  0.00    -0.246 OA
BRANCH  40  42
ATOM     42  C   UNL A   1      42.533  26.332  26.564  1.00  0.00     0.060 A 
ATOM     43  C   UNL A   1      42.862  27.690  26.587  1.00  0.00     0.016 A 
ATOM     44  C   UNL A   1      41.532  25.814  27.400  1.00  0.00     0.016 A 
ATOM     45  C   UNL A   1      42.258  28.518  27.522  1.00  0.00     0.010 A 
ATOM     46  C   UNL A   1      40.905  26.645  28.313  1.00  0.00     0.010 A 
ATOM     47  C   UNL A   1      41.325  27.978  28.418  1.00  0.00    -0.014 A 
BRANCH  47  48
ATOM     48  C   UNL A   1      41.033  28.704  29.663  1.00  0.00     0.031 A 
ATOM     49  C   UNL A   1      39.875  29.660  29.633  1.00  0.00     0.074 A 
ATOM     50  C   UNL A   1      41.753  28.501  30.775  1.00  0.00     0.049 A 
ATOM     51  N   UNL A   1      39.391  30.405  30.591  1.00  0.00    -0.248 NA
ATOM     52  C   UNL A   1      39.164  29.796  28.346  1.00  0.00     0.031 C 
ATOM     53  C   UNL A   1      42.881  27.579  30.905  1.00  0.00     0.029 A 
ATOM     54  N   UNL A   1      41.626  29.066  32.014  1.00  0.00    -0.354 N 
ATOM     55  C   UNL A   1      38.319  31.081  30.025  1.00  0.00     0.074 A 
ATOM     56  C   UNL A   1      38.252  30.709  28.631  1.00  0.00     0.031 C 
ATOM     57  C   UNL A   1      43.346  27.643  32.165  1.00  0.00     0.029 A 
ATOM     58  C   UNL A   1      42.558  28.619  32.915  1.00  0.00     0.049 A 
ATOM     59  H   UNL A   1      40.935  29.729  32.237  1.00  0.00     0.167 HD
ATOM     60  C   UNL A   1      37.448  31.924  30.619  1.00  0.00     0.031 A 
ATOM     61  C   UNL A   1      42.744  28.974  34.200  1.00  0.00     0.031 A 
ATOM     62  C   UNL A   1      37.532  32.308  31.997  1.00  0.00     0.049 A 
ATOM     63  C   UNL A   1      41.806  29.976  34.821  1.00  0.00     0.074 A 
ATOM     64  C   UNL A   1      36.712  33.163  32.708  1.00  0.00     0.029 A 
ATOM     65  N   UNL A   1      38.511  31.861  32.871  1.00  0.00    -0.354 N 
ATOM     66  N   UNL A   1      40.771  30.583  34.290  1.00  0.00    -0.248 NA
ATOM     67  C   UNL A   1      42.056  30.331  36.225  1.00  0.00     0.031 C 
ATOM     68  C   UNL A   1      37.222  33.269  34.005  1.00  0.00     0.029 A 
ATOM     69  C   UNL A   1      38.329  32.440  34.113  1.00  0.00     0.049 A 
ATOM     70  H   UNL A   1      39.228  31.227  32.642  1.00  0.00     0.167 HD
ATOM     71  C   UNL A   1      40.231  31.369  35.301  1.00  0.00     0.074 A 
ATOM     72  C   UNL A   1      41.046  31.150  36.479  1.00  0.00     0.031 C 
ATOM     73  C   UNL A   1      39.159  32.199  35.263  1.00  0.00     0.031 A 
BRANCH  60  74
ATOM     74  C   UNL A   1      36.355  32.490  29.764  1.00  0.00    -0.014 A 
ATOM     75  C   UNL A   1      35.166  31.775  29.542  1.00  0.00     0.009 A 
ATOM     76  C   UNL A   1      36.517  33.747  29.165  1.00  0.00     0.009 A 
ATOM     77  C   UNL A   1      34.172  32.297  28.712  1.00  0.00     0.001 A 
ATOM     78  C   UNL A   1      35.511  34.279  28.357  1.00  0.00     0.001 A 
ATOM     79  C   UNL A   1      34.344  33.551  28.125  1.00  0.00     0.000 A 
ENDBRANCH  60  74
BRANCH  61  80
ATOM     80  C   UNL A   1      43.859  28.386  34.982  1.00  0.00    -0.014 A 
ATOM     81  C   UNL A   1      45.090  29.051  35.091  1.00  0.00     0.009 A 
ATOM     82  C   UNL A   1      43.704  27.136  35.603  1.00  0.00     0.009 A 
ATOM     83  C   UNL A   1      46.152  28.462  35.781  1.00  0.00     0.001 A 
ATOM     84  C   UNL A   1      44.761  26.562  36.313  1.00  0.00     0.001 A 
ATOM     85  C   UNL A   1      45.986  27.220  36.392  1.00  0.00     0.000 A 
ENDBRANCH  61  80
BRANCH  73  86
ATOM     86  C   UNL A   1      38.792  32.903  36.537  1.00  0.00    -0.014 A 
ATOM     87  C   UNL A   1      37.738  32.446  37.342  1.00  0.00     0.009 A 
ATOM     88  C   UNL A   1      39.554  34.001  36.964  1.00  0.00     0.009 A 
ATOM     89  C   UNL A   1      37.436  33.098  38.538  1.00  0.00     0.001 A 
ATOM     90  C   UNL A   1      39.266  34.633  38.174  1.00  0.00     0.001 A 
ATOM     91  C   UNL A   1      38.202  34.186  38.955  1.00  0.00     0.000 A 
ENDBRANCH  73  86
ENDBRANCH  47  48
ENDBRANCH  40  42
ENDBRANCH  39  40
ENDBRANCH  38  39
ENDBRANCH  37  38
ENDBRANCH  36  37
ENDBRANCH  35  36
ENDBRANCH  34  35
ENDBRANCH   1  34
TORSDOF 23
ENDMDL
MODEL 2
REMARK VINA RESULT:     -10.6      1.713      7.039
REMARK SMILES Cc1ccc2nc(Cl)c([C@@H]3CC(c4cccs4)=NN3C(=O)CCCC(=O)OCCOCCOCCOC(=O)c3ccc(-c4c5nc(c(-c6ccccc6)c6ccc([nH]6)c(-c6ccccc6)c6nc(c(-c7ccccc7)c7ccc4[nH]7)C=C6)C=C5)cc3)cc2c1
REMARK SMILES IDX 30 1 29 2 28 3 27 4 25 5 26 6 24 7 23 8 22 9 20 10 21 11
REMARK SMILES IDX 19 12 10 13 11 14 12 15 18 16 9 17 1 18 2 19 3 20 89 21 4 22
REMARK SMILES IDX 88 23 5 24 87 25 6 26 7 27 8 28 13 29 14 30 17 31 15 32
REMARK SMILES IDX 16 33 31 34 32 35 33 36 34 37 35 38 36 39 37 40 38 41 39 42
REMARK SMILES IDX 40 43 86 44 41 45 85 46 42 47 43 48 44 49 79 50 45 51 84 52
REMARK SMILES IDX 78 53 80 54 46 55 83 56 77 57 76 58 47 60 69 61 54 62 68 63
REMARK SMILES IDX 55 64 58 65 67 66 81 67 56 68 57 69 66 71 82 72 59 73 48 74
REMARK SMILES IDX 49 75 53 76 50 77 52 78 51 79 70 80 71 81 75 82 72 83 74 84
REMARK SMILES IDX 73 85 60 86 61 87 65 88 62 89 64 90 63 91
REMARK H PARENT 80 59 58 70
REMARK Flexibility Score: inf
ROOT
ATOM      1  O   UNL A   1      44.364  20.888  25.626  1.00  0.00    -0.376 OA
ENDROOT
BRANCH   1   2
ATOM      2  C   UNL A   1      43.609  19.604  25.383  1.00  0.00     0.202 C 
BRANCH   2   3
ATOM      3  C   UNL A   1      41.942  19.022  26.099  1.00  0.00     0.261 C 
BRANCH   3   4
ATOM      4  O   UNL A   1      40.422  20.352  26.495  1.00  0.00    -0.463 OA
BRANCH   4   5
ATOM      5  C   UNL A   1      40.027  21.865  26.284  1.00  0.00     0.305 C 
ATOM      6  O   UNL A   1      40.745  22.844  26.578  1.00  0.00    -0.252 OA
BRANCH   5   7
ATOM      7  C   UNL A   1      38.647  22.377  26.086  1.00  0.00     0.123 C 
BRANCH   7   8
ATOM      8  C   UNL A   1      37.529  21.558  25.590  1.00  0.00     0.022 C 
BRANCH   8   9
ATOM      9  C   UNL A   1      36.968  22.183  24.347  1.00  0.00     0.103 C 
BRANCH   9  10
ATOM     10  C   UNL A   1      35.568  22.773  24.503  1.00  0.00     0.243 C 
ATOM     11  O   UNL A   1      35.521  23.977  24.802  1.00  0.00    -0.273 OA
BRANCH  10  12
ATOM     12  N   UNL A   1      34.408  22.065  24.170  1.00  0.00    -0.225 N 
ATOM     13  C   UNL A   1      33.134  22.272  23.314  1.00  0.00     0.150 C 
ATOM     14  C   UNL A   1      32.457  20.894  23.365  1.00  0.00     0.092 C 
ATOM     15  C   UNL A   1      33.429  20.119  24.200  1.00  0.00     0.081 C 
ATOM     16  N   UNL A   1      34.487  20.754  24.573  1.00  0.00    -0.173 NA
BRANCH  13  17
ATOM     17  C   UNL A   1      32.177  23.375  23.770  1.00  0.00     0.015 A 
ATOM     18  C   UNL A   1      29.956  30.188  23.727  1.00  0.00     0.044 C 
ATOM     19  C   UNL A   1      30.741  28.987  24.200  1.00  0.00    -0.050 A 
ATOM     20  C   UNL A   1      31.332  28.968  25.449  1.00  0.00     0.005 A 
ATOM     21  C   UNL A   1      30.832  27.854  23.339  1.00  0.00     0.013 A 
ATOM     22  C   UNL A   1      31.891  27.797  25.944  1.00  0.00     0.029 A 
ATOM     23  C   UNL A   1      31.466  26.519  23.530  1.00  0.00     0.001 A 
ATOM     24  C   UNL A   1      31.924  26.611  25.230  1.00  0.00     0.072 A 
ATOM     25  C   UNL A   1      31.627  24.770  22.730  1.00  0.00     0.019 A 
ATOM     26  N   UNL A   1      32.264  25.246  26.109  1.00  0.00    -0.236 NA
ATOM     27  C   UNL A   1      32.374  23.730  25.443  1.00  0.00     0.135 A 
ATOM     28  Cl  UNL A   1      32.475  22.496  26.643  1.00  0.00    -0.062 Cl
ENDBRANCH  13  17
BRANCH  15  29
ATOM     29  C   UNL A   1      33.235  18.758  24.612  1.00  0.00     0.050 A 
ATOM     30  C   UNL A   1      32.998  18.237  25.865  1.00  0.00     0.022 A 
ATOM     31  S   UNL A   1      33.213  17.540  23.402  1.00  0.00    -0.142 S 
ATOM     32  C   UNL A   1      32.756  16.829  25.821  1.00  0.00     0.012 A 
ATOM     33  C   UNL A   1      32.851  16.324  24.543  1.00  0.00     0.065 A 
ENDBRANCH  15  29
ENDBRANCH  10  12
ENDBRANCH   9  10
ENDBRANCH   8   9
ENDBRANCH   7   8
ENDBRANCH   5   7
ENDBRANCH   4   5
ENDBRANCH   3   4
ENDBRANCH   2   3
ENDBRANCH   1   2
BRANCH   1  34
ATOM     34  C   UNL A   1      44.174  22.279  25.111  1.00  0.00     0.188 C 
BRANCH  34  35
ATOM     35  C   UNL A   1      45.427  23.356  24.806  1.00  0.00     0.188 C 
BRANCH  35  36
ATOM     36  O   UNL A   1      45.549  24.590  25.526  1.00  0.00    -0.376 OA
BRANCH  36  37
ATOM     37  C   UNL A   1      45.484  25.937  25.009  1.00  0.00     0.202 C 
BRANCH  37  38
ATOM     38  C   UNL A   1      44.318  26.866  25.360  1.00  0.00     0.261 C 
BRANCH  38  39
ATOM     39  O   UNL A   1      43.410  26.268  26.270  1.00  0.00    -0.460 OA
BRANCH  39  40
ATOM     40  C   UNL A   1      42.122  26.418  25.884  1.00  0.00     0.338 C 
ATOM     41  O   UNL A   1      41.538  25.783  25.025  1.00  0.00    -0.246 OA
BRANCH  40  42
ATOM     42  C   UNL A   1      41.491  27.271  26.905  1.00  0.00     0.060 A 
ATOM     43  C   UNL A   1      41.826  28.627  26.927  1.00  0.00     0.016 A 
ATOM     44  C   UNL A   1      40.501  26.754  27.756  1.00  0.00     0.016 A 
ATOM     45  C   UNL A   1      41.241  29.456  27.874  1.00  0.00     0.010 A 
ATOM     46  C   UNL A   1      39.893  27.586  28.681  1.00  0.00     0.010 A 
ATOM     47  C   UNL A   1      40.321  28.916  28.784  1.00  0.00    -0.014 A 
BRANCH  47  48
ATOM     48  C   UNL A   1      40.053  29.641  30.035  1.00  0.00     0.031 A 
ATOM     49  C   UNL A   1      40.984  29.376  31.184  1.00  0.00     0.074 A 
ATOM     50  C   UNL A   1      39.040  30.513  30.133  1.00  0.00     0.049 A 
ATOM     51  N   UNL A   1      40.988  29.894  32.382  1.00  0.00    -0.248 NA
ATOM     52  C   UNL A   1      42.059  28.391  30.949  1.00  0.00     0.031 C 
ATOM     53  C   UNL A   1      38.097  30.850  29.067  1.00  0.00     0.029 A 
ATOM     54  N   UNL A   1      38.646  31.279  31.195  1.00  0.00    -0.354 N 
ATOM     55  C   UNL A   1      42.066  29.309  33.032  1.00  0.00     0.074 A 
ATOM     56  C   UNL A   1      42.661  28.357  32.125  1.00  0.00     0.031 C 
ATOM     57  C   UNL A   1      37.228  31.763  29.534  1.00  0.00     0.029 A 
ATOM     58  C   UNL A   1      37.547  32.055  30.929  1.00  0.00     0.049 A 
ATOM     59  H   UNL A   1      39.105  31.274  32.064  1.00  0.00     0.167 HD
ATOM     60  C   UNL A   1      42.537  29.559  34.272  1.00  0.00     0.031 A 
ATOM     61  C   UNL A   1      36.882  32.900  31.738  1.00  0.00     0.031 A 
ATOM     62  C   UNL A   1      41.928  30.488  35.179  1.00  0.00     0.049 A 
ATOM     63  C   UNL A   1      37.380  33.105  33.144  1.00  0.00     0.074 A 
ATOM     64  C   UNL A   1      42.311  30.818  36.465  1.00  0.00     0.029 A 
ATOM     65  N   UNL A   1      40.795  31.232  34.886  1.00  0.00    -0.354 N 
ATOM     66  N   UNL A   1      38.423  32.577  33.740  1.00  0.00    -0.248 NA
ATOM     67  C   UNL A   1      36.614  34.035  33.986  1.00  0.00     0.031 C 
ATOM     68  C   UNL A   1      41.379  31.730  36.970  1.00  0.00     0.029 A 
ATOM     69  C   UNL A   1      40.450  32.005  35.978  1.00  0.00     0.049 A 
ATOM     70  H   UNL A   1      40.310  31.212  34.030  1.00  0.00     0.167 HD
ATOM     71  C   UNL A   1      38.454  33.130  35.015  1.00  0.00     0.074 A 
ATOM     72  C   UNL A   1      37.333  34.044  35.099  1.00  0.00     0.031 C 
ATOM     73  C   UNL A   1      39.328  32.905  36.027  1.00  0.00     0.031 A 
BRANCH  60  74
ATOM     74  C   UNL A   1      43.750  28.794  34.708  1.00  0.00    -0.014 A 
ATOM     75  C   UNL A   1      45.041  29.310  34.507  1.00  0.00     0.009 A 
ATOM     76  C   UNL A   1      43.604  27.541  35.319  1.00  0.00     0.009 A 
ATOM     77  C   UNL A   1      46.164  28.571  34.883  1.00  0.00     0.001 A 
ATOM     78  C   UNL A   1      44.727  26.815  35.718  1.00  0.00     0.001 A 
ATOM     79  C   UNL A   1      46.005  27.326  35.492  1.00  0.00     0.000 A 
ENDBRANCH  60  74
BRANCH  61  80
ATOM     80  C   UNL A   1      35.676  33.611  31.244  1.00  0.00    -0.014 A 
ATOM     81  C   UNL A   1      35.056  33.227  30.046  1.00  0.00     0.009 A 
ATOM     82  C   UNL A   1      35.154  34.699  31.962  1.00  0.00     0.009 A 
ATOM     83  C   UNL A   1      33.956  33.938  29.560  1.00  0.00     0.001 A 
ATOM     84  C   UNL A   1      34.040  35.392  31.486  1.00  0.00     0.001 A 
ATOM     85  C   UNL A   1      33.448  35.019  30.281  1.00  0.00     0.000 A 
ENDBRANCH  61  80
BRANCH  73  86
ATOM     86  C   UNL A   1      39.122  33.681  37.295  1.00  0.00    -0.014 A 
ATOM     87  C   UNL A   1      38.431  33.126  38.382  1.00  0.00     0.009 A 
ATOM     88  C   UNL A   1      39.681  34.962  37.421  1.00  0.00     0.009 A 
ATOM     89  C   UNL A   1      38.280  33.854  39.563  1.00  0.00     0.001 A 
ATOM     90  C   UNL A   1      39.552  35.675  38.613  1.00  0.00     0.001 A 
ATOM     91  C   UNL A   1      38.844  35.124  39.679  1.00  0.00     0.000 A 
ENDBRANCH  73  86
ENDBRANCH  47  48
ENDBRANCH  40  42
ENDBRANCH  39  40
ENDBRANCH  38  39
ENDBRANCH  37  38
ENDBRANCH  36  37
ENDBRANCH  35  36
ENDBRANCH  34  35
ENDBRANCH   1  34
TORSDOF 23
ENDMDL
MODEL 3
REMARK VINA RESULT:      -9.9      5.637     11.733
REMARK SMILES Cc1ccc2nc(Cl)c([C@@H]3CC(c4cccs4)=NN3C(=O)CCCC(=O)OCCOCCOCCOC(=O)c3ccc(-c4c5nc(c(-c6ccccc6)c6ccc([nH]6)c(-c6ccccc6)c6nc(c(-c7ccccc7)c7ccc4[nH]7)C=C6)C=C5)cc3)cc2c1
REMARK SMILES IDX 30 1 29 2 28 3 27 4 25 5 26 6 24 7 23 8 22 9 20 10 21 11
REMARK SMILES IDX 19 12 10 13 11 14 12 15 18 16 9 17 1 18 2 19 3 20 89 21 4 22
REMARK SMILES IDX 88 23 5 24 87 25 6 26 7 27 8 28 13 29 14 30 17 31 15 32
REMARK SMILES IDX 16 33 31 34 32 35 33 36 34 37 35 38 36 39 37 40 38 41 39 42
REMARK SMILES IDX 40 43 86 44 41 45 85 46 42 47 43 48 44 49 79 50 45 51 84 52
REMARK SMILES IDX 78 53 80 54 46 55 83 56 77 57 76 58 47 60 69 61 54 62 68 63
REMARK SMILES IDX 55 64 58 65 67 66 81 67 56 68 57 69 66 71 82 72 59 73 48 74
REMARK SMILES IDX 49 75 53 76 50 77 52 78 51 79 70 80 71 81 75 82 72 83 74 84
REMARK SMILES IDX 73 85 60 86 61 87 65 88 62 89 64 90 63 91
REMARK H PARENT 80 59 58 70
REMARK Flexibility Score: inf
ROOT
ATOM      1  O   UNL A   1      32.876  35.304  31.113  1.00  0.00    -0.376 OA
ENDROOT
BRANCH   1   2
ATOM      2  C   UNL A   1      33.274  35.517  29.673  1.00  0.00     0.202 C 
BRANCH   2   3
ATOM      3  C   UNL A   1      34.932  35.160  28.804  1.00  0.00     0.261 C 
BRANCH   3   4
ATOM      4  O   UNL A   1      36.470  34.207  29.783  1.00  0.00    -0.463 OA
BRANCH   4   5
ATOM      5  C   UNL A   1      38.024  33.954  29.678  1.00  0.00     0.305 C 
ATOM      6  O   UNL A   1      38.865  34.791  29.287  1.00  0.00    -0.252 OA
BRANCH   5   7
ATOM      7  C   UNL A   1      38.681  32.622  29.643  1.00  0.00     0.123 C 
BRANCH   7   8
ATOM      8  C   UNL A   1      38.945  31.803  30.837  1.00  0.00     0.022 C 
BRANCH   8   9
ATOM      9  C   UNL A   1      37.643  31.420  31.475  1.00  0.00     0.103 C 
BRANCH   9  10
ATOM     10  C   UNL A   1      37.032  30.121  30.952  1.00  0.00     0.243 C 
ATOM     11  O   UNL A   1      36.193  29.584  31.692  1.00  0.00    -0.273 OA
BRANCH  10  12
ATOM     12  N   UNL A   1      37.264  29.644  29.657  1.00  0.00    -0.225 N 
ATOM     13  C   UNL A   1      36.738  29.895  28.222  1.00  0.00     0.150 C 
ATOM     14  C   UNL A   1      37.686  29.052  27.355  1.00  0.00     0.092 C 
ATOM     15  C   UNL A   1      38.601  28.479  28.392  1.00  0.00     0.081 C 
ATOM     16  N   UNL A   1      38.386  28.852  29.606  1.00  0.00    -0.173 NA
BRANCH  13  17
ATOM     17  C   UNL A   1      35.276  29.531  27.957  1.00  0.00     0.015 A 
ATOM     18  C   UNL A   1      30.008  27.449  23.567  1.00  0.00     0.044 C 
ATOM     19  C   UNL A   1      30.907  28.422  24.293  1.00  0.00    -0.050 A 
ATOM     20  C   UNL A   1      30.566  29.757  24.410  1.00  0.00     0.005 A 
ATOM     21  C   UNL A   1      32.106  27.927  24.885  1.00  0.00     0.013 A 
ATOM     22  C   UNL A   1      31.302  30.601  25.232  1.00  0.00     0.029 A 
ATOM     23  C   UNL A   1      33.152  28.602  25.704  1.00  0.00     0.001 A 
ATOM     24  C   UNL A   1      32.415  30.185  25.943  1.00  0.00     0.072 A 
ATOM     25  C   UNL A   1      34.719  28.255  26.777  1.00  0.00     0.019 A 
ATOM     26  N   UNL A   1      32.922  31.201  27.152  1.00  0.00    -0.236 NA
ATOM     27  C   UNL A   1      34.247  30.903  28.106  1.00  0.00     0.135 A 
ATOM     28  Cl  UNL A   1      34.357  32.000  29.432  1.00  0.00    -0.062 Cl
ENDBRANCH  13  17
BRANCH  15  29
ATOM     29  C   UNL A   1      39.656  27.547  28.112  1.00  0.00     0.050 A 
ATOM     30  C   UNL A   1      39.764  26.211  28.428  1.00  0.00     0.022 A 
ATOM     31  S   UNL A   1      40.994  28.091  27.183  1.00  0.00    -0.142 S 
ATOM     32  C   UNL A   1      40.938  25.622  27.865  1.00  0.00     0.012 A 
ATOM     33  C   UNL A   1      41.698  26.537  27.170  1.00  0.00     0.065 A 
ENDBRANCH  15  29
ENDBRANCH  10  12
ENDBRANCH   9  10
ENDBRANCH   8   9
ENDBRANCH   7   8
ENDBRANCH   5   7
ENDBRANCH   4   5
ENDBRANCH   3   4
ENDBRANCH   2   3
ENDBRANCH   1   2
BRANCH   1  34
ATOM     34  C   UNL A   1      33.669  34.960  32.334  1.00  0.00     0.188 C 
BRANCH  34  35
ATOM     35  C   UNL A   1      33.826  33.408  32.957  1.00  0.00     0.188 C 
BRANCH  35  36
ATOM     36  O   UNL A   1      34.900  33.058  33.839  1.00  0.00    -0.376 OA
BRANCH  36  37
ATOM     37  C   UNL A   1      35.653  33.921  34.718  1.00  0.00     0.202 C 
BRANCH  37  38
ATOM     38  C   UNL A   1      37.149  33.698  34.960  1.00  0.00     0.261 C 
BRANCH  38  39
ATOM     39  O   UNL A   1      37.404  32.497  35.671  1.00  0.00    -0.460 OA
BRANCH  39  40
ATOM     40  C   UNL A   1      38.546  32.560  36.393  1.00  0.00     0.338 C 
ATOM     41  O   UNL A   1      38.649  32.841  37.574  1.00  0.00    -0.246 OA
BRANCH  40  42
ATOM     42  C   UNL A   1      39.585  31.932  35.562  1.00  0.00     0.060 A 
ATOM     43  C   UNL A   1      40.911  32.332  35.752  1.00  0.00     0.016 A 
ATOM     44  C   UNL A   1      39.263  30.885  34.685  1.00  0.00     0.016 A 
ATOM     45  C   UNL A   1      41.911  31.751  34.987  1.00  0.00     0.010 A 
ATOM     46  C   UNL A   1      40.264  30.282  33.942  1.00  0.00     0.010 A 
ATOM     47  C   UNL A   1      41.574  30.770  34.045  1.00  0.00    -0.014 A 
BRANCH  47  48
ATOM     48  C   UNL A   1      42.511  30.487  32.947  1.00  0.00     0.031 A 
ATOM     49  C   UNL A   1      43.219  29.163  32.985  1.00  0.00     0.074 A 
ATOM     50  C   UNL A   1      42.700  31.362  31.950  1.00  0.00     0.049 A 
ATOM     51  N   UNL A   1      44.073  28.657  32.137  1.00  0.00    -0.248 NA
ATOM     52  C   UNL A   1      42.925  28.290  34.139  1.00  0.00     0.031 C 
ATOM     53  C   UNL A   1      42.043  32.661  31.816  1.00  0.00     0.029 A 
ATOM     54  N   UNL A   1      43.510  31.272  30.851  1.00  0.00    -0.354 N 
ATOM     55  C   UNL A   1      44.403  27.409  32.649  1.00  0.00     0.074 A 
ATOM     56  C   UNL A   1      43.709  27.252  33.905  1.00  0.00     0.031 C 
ATOM     57  C   UNL A   1      42.480  33.251  30.690  1.00  0.00     0.029 A 
ATOM     58  C   UNL A   1      43.454  32.377  30.041  1.00  0.00     0.049 A 
ATOM     59  H   UNL A   1      44.078  30.492  30.661  1.00  0.00     0.167 HD
ATOM     60  C   UNL A   1      45.199  26.462  32.108  1.00  0.00     0.031 A 
ATOM     61  C   UNL A   1      44.127  32.639  28.905  1.00  0.00     0.031 A 
ATOM     62  C   UNL A   1      45.905  26.631  30.872  1.00  0.00     0.049 A 
ATOM     63  C   UNL A   1      45.070  31.599  28.361  1.00  0.00     0.074 A 
ATOM     64  C   UNL A   1      46.748  25.745  30.230  1.00  0.00     0.029 A 
ATOM     65  N   UNL A   1      45.850  27.778  30.096  1.00  0.00    -0.354 N 
ATOM     66  N   UNL A   1      45.348  30.405  28.831  1.00  0.00    -0.248 NA
ATOM     67  C   UNL A   1      45.782  31.938  27.121  1.00  0.00     0.031 C 
ATOM     68  C   UNL A   1      47.242  26.376  29.084  1.00  0.00     0.029 A 
ATOM     69  C   UNL A   1      46.664  27.633  28.989  1.00  0.00     0.049 A 
ATOM     70  H   UNL A   1      45.313  28.577  30.302  1.00  0.00     0.167 HD
ATOM     71  C   UNL A   1      46.245  29.842  27.931  1.00  0.00     0.074 A 
ATOM     72  C   UNL A   1      46.452  30.820  26.882  1.00  0.00     0.031 C 
ATOM     73  C   UNL A   1      46.846  28.626  27.964  1.00  0.00     0.031 A 
BRANCH  60  74
ATOM     74  C   UNL A   1      45.352  25.182  32.873  1.00  0.00    -0.014 A 
ATOM     75  C   UNL A   1      46.346  25.042  33.857  1.00  0.00     0.009 A 
ATOM     76  C   UNL A   1      44.502  24.101  32.604  1.00  0.00     0.009 A 
ATOM     77  C   UNL A   1      46.503  23.832  34.535  1.00  0.00     0.001 A 
ATOM     78  C   UNL A   1      44.644  22.901  33.301  1.00  0.00     0.001 A 
ATOM     79  C   UNL A   1      45.648  22.764  34.259  1.00  0.00     0.000 A 
ENDBRANCH  60  74
BRANCH  61  80
ATOM     80  C   UNL A   1      43.940  33.937  28.210  1.00  0.00    -0.014 A 
ATOM     81  C   UNL A   1      43.426  33.987  26.906  1.00  0.00     0.009 A 
ATOM     82  C   UNL A   1      44.302  35.136  28.844  1.00  0.00     0.009 A 
ATOM     83  C   UNL A   1      43.308  35.208  26.238  1.00  0.00     0.001 A 
ATOM     84  C   UNL A   1      44.159  36.358  28.184  1.00  0.00     0.001 A 
ATOM     85  C   UNL A   1      43.673  36.392  26.878  1.00  0.00     0.000 A 
ENDBRANCH  61  80
BRANCH  73  86
ATOM     86  C   UNL A   1      47.755  28.280  26.822  1.00  0.00    -0.014 A 
ATOM     87  C   UNL A   1      49.141  28.476  26.912  1.00  0.00     0.009 A 
ATOM     88  C   UNL A   1      47.220  27.693  25.665  1.00  0.00     0.009 A 
ATOM     89  C   UNL A   1      49.971  28.117  25.849  1.00  0.00     0.001 A 
ATOM     90  C   UNL A   1      48.056  27.309  24.616  1.00  0.00     0.001 A 
ATOM     91  C   UNL A   1      49.429  27.530  24.706  1.00  0.00     0.000 A 
ENDBRANCH  73  86
ENDBRANCH  47  48
ENDBRANCH  40  42
ENDBRANCH  39  40
ENDBRANCH  38  39
ENDBRANCH  37  38
ENDBRANCH  36  37
ENDBRANCH  35  36
ENDBRANCH  34  35
ENDBRANCH   1  34
TORSDOF 23
ENDMDL
