MODEL 1
REMARK VINA RESULT:      -9.4      0.000      0.000
REMARK SMILES C[C@@H](CNC(=O)Cc1ccc(F)cc1F)C(=O)OCCOCCOCCOC(=O)c1ccc(-c2c3nc(c(-c4ccccc4)c4ccc([nH]4)c(-c4ccccc4)c4nc(c(-c5ccccc5)c5ccc2[nH]5)C=C4)C=C3)cc1
REMARK SMILES IDX 22 1 21 2 20 3 19 4 18 5 16 6 17 7 2 8 1 9 3 10 4 11 5 12
REMARK SMILES IDX 6 14 7 15 8 16 9 17 14 18 10 19 13 20 15 21 11 22 12 23
REMARK SMILES IDX 23 24 24 25 25 26 26 27 27 28 28 29 29 30 30 31 31 32 77 33
REMARK SMILES IDX 32 34 76 35 33 36 34 37 35 38 70 39 36 40 75 41 69 42 71 43
REMARK SMILES IDX 37 44 74 45 68 46 67 47 38 49 60 50 45 51 59 52 46 53 49 54
REMARK SMILES IDX 58 55 72 56 47 57 48 58 57 60 73 61 50 62 39 63 40 64 44 65
REMARK SMILES IDX 41 66 43 67 42 68 61 69 62 70 66 71 63 72 65 73 64 74 51 75
REMARK SMILES IDX 52 76 56 77 53 78 55 79 54 80
REMARK H PARENT 4 13 71 48 49 59
REMARK Flexibility Score: inf
ROOT
ATOM      1  C   UNL A   1      34.758  33.822  29.286  1.00  0.00     0.188 C 
ENDROOT
BRANCH   1   2
ATOM      2  O   UNL A   1      34.299  32.488  29.138  1.00  0.00    -0.376 OA
BRANCH   2   3
ATOM      3  C   UNL A   1      34.432  31.948  27.834  1.00  0.00     0.202 C 
BRANCH   3   4
ATOM      4  C   UNL A   1      33.218  31.152  27.347  1.00  0.00     0.261 C 
BRANCH   4   5
ATOM      5  O   UNL A   1      33.390  30.067  26.411  1.00  0.00    -0.463 OA
BRANCH   5   6
ATOM      6  C   UNL A   1      32.352  29.537  25.721  1.00  0.00     0.310 C 
ATOM      7  O   UNL A   1      31.413  30.169  25.261  1.00  0.00    -0.252 OA
BRANCH   6   8
ATOM      8  C   UNL A   1      32.468  28.029  25.587  1.00  0.00     0.115 C 
ATOM      9  C   UNL A   1      32.149  27.264  26.873  1.00  0.00     0.022 C 
BRANCH   8  10
ATOM     10  C   UNL A   1      31.634  27.546  24.397  1.00  0.00     0.130 C 
BRANCH  10  11
ATOM     11  N   UNL A   1      32.421  27.332  23.196  1.00  0.00    -0.355 N 
ATOM     12  C   UNL A   1      32.943  26.161  22.717  1.00  0.00     0.224 C 
ATOM     13  H   UNL A   1      32.604  28.133  22.654  1.00  0.00     0.163 HD
ATOM     14  O   UNL A   1      33.820  26.221  21.853  1.00  0.00    -0.275 OA
BRANCH  12  15
ATOM     15  C   UNL A   1      32.438  24.823  23.238  1.00  0.00     0.138 C 
BRANCH  15  16
ATOM     16  C   UNL A   1      33.442  24.052  24.059  1.00  0.00    -0.003 A 
ATOM     17  C   UNL A   1      33.470  24.162  25.458  1.00  0.00     0.010 A 
ATOM     18  C   UNL A   1      34.370  23.200  23.440  1.00  0.00     0.129 A 
ATOM     19  C   UNL A   1      34.372  23.399  26.207  1.00  0.00     0.040 A 
ATOM     20  C   UNL A   1      35.266  22.434  24.180  1.00  0.00     0.078 A 
ATOM     21  F   UNL A   1      34.370  23.074  22.106  1.00  0.00    -0.207 F 
ATOM     22  C   UNL A   1      35.248  22.531  25.562  1.00  0.00     0.126 A 
ATOM     23  F   UNL A   1      36.069  21.763  26.289  1.00  0.00    -0.207 F 
ENDBRANCH  15  16
ENDBRANCH  12  15
ENDBRANCH  10  11
ENDBRANCH   8  10
ENDBRANCH   6   8
ENDBRANCH   5   6
ENDBRANCH   4   5
ENDBRANCH   3   4
ENDBRANCH   2   3
ENDBRANCH   1   2
BRANCH   1  24
ATOM     24  C   UNL A   1      33.927  34.665  30.262  1.00  0.00     0.188 C 
BRANCH  24  25
ATOM     25  O   UNL A   1      33.581  34.173  31.547  1.00  0.00    -0.376 OA
BRANCH  25  26
ATOM     26  C   UNL A   1      33.858  34.987  32.674  1.00  0.00     0.202 C 
BRANCH  26  27
ATOM     27  C   UNL A   1      35.011  34.574  33.604  1.00  0.00     0.261 C 
BRANCH  27  28
ATOM     28  O   UNL A   1      36.149  33.976  32.955  1.00  0.00    -0.460 OA
BRANCH  28  29
ATOM     29  C   UNL A   1      36.722  32.936  33.615  1.00  0.00     0.338 C 
ATOM     30  O   UNL A   1      36.504  32.588  34.762  1.00  0.00    -0.246 OA
BRANCH  29  31
ATOM     31  C   UNL A   1      37.521  32.113  32.672  1.00  0.00     0.060 A 
ATOM     32  C   UNL A   1      38.601  31.385  33.195  1.00  0.00     0.016 A 
ATOM     33  C   UNL A   1      37.252  32.072  31.303  1.00  0.00     0.016 A 
ATOM     34  C   UNL A   1      39.427  30.638  32.358  1.00  0.00     0.010 A 
ATOM     35  C   UNL A   1      38.110  31.355  30.454  1.00  0.00     0.010 A 
ATOM     36  C   UNL A   1      39.221  30.663  30.974  1.00  0.00    -0.014 A 
BRANCH  36  37
ATOM     37  C   UNL A   1      40.299  30.154  30.087  1.00  0.00     0.031 A 
ATOM     38  C   UNL A   1      41.506  31.025  29.856  1.00  0.00     0.074 A 
ATOM     39  C   UNL A   1      40.260  28.915  29.561  1.00  0.00     0.049 A 
ATOM     40  N   UNL A   1      42.583  30.785  29.152  1.00  0.00    -0.248 NA
ATOM     41  C   UNL A   1      41.500  32.341  30.517  1.00  0.00     0.031 C 
ATOM     42  C   UNL A   1      39.185  27.945  29.747  1.00  0.00     0.029 A 
ATOM     43  N   UNL A   1      41.168  28.265  28.760  1.00  0.00    -0.354 N 
ATOM     44  C   UNL A   1      43.382  31.914  29.290  1.00  0.00     0.074 A 
ATOM     45  C   UNL A   1      42.652  32.853  30.113  1.00  0.00     0.031 C 
ATOM     46  C   UNL A   1      39.490  26.822  29.070  1.00  0.00     0.029 A 
ATOM     47  C   UNL A   1      40.768  27.005  28.385  1.00  0.00     0.049 A 
ATOM     48  H   UNL A   1      42.024  28.664  28.481  1.00  0.00     0.167 HD
ATOM     49  C   UNL A   1      44.616  32.150  28.787  1.00  0.00     0.031 A 
ATOM     50  C   UNL A   1      41.360  26.109  27.569  1.00  0.00     0.031 A 
ATOM     51  C   UNL A   1      45.344  31.236  27.948  1.00  0.00     0.049 A 
ATOM     52  C   UNL A   1      42.697  26.433  26.949  1.00  0.00     0.074 A 
ATOM     53  C   UNL A   1      46.596  31.396  27.381  1.00  0.00     0.029 A 
ATOM     54  N   UNL A   1      44.881  29.993  27.550  1.00  0.00    -0.354 N 
ATOM     55  N   UNL A   1      43.445  27.498  27.100  1.00  0.00    -0.248 NA
ATOM     56  C   UNL A   1      43.274  25.416  26.055  1.00  0.00     0.031 C 
ATOM     57  C   UNL A   1      46.871  30.270  26.598  1.00  0.00     0.029 A 
ATOM     58  C   UNL A   1      45.814  29.383  26.727  1.00  0.00     0.049 A 
ATOM     59  H   UNL A   1      44.017  29.600  27.812  1.00  0.00     0.167 HD
ATOM     60  C   UNL A   1      44.589  27.269  26.341  1.00  0.00     0.074 A 
ATOM     61  C   UNL A   1      44.447  25.953  25.755  1.00  0.00     0.031 C 
ATOM     62  C   UNL A   1      45.660  28.077  26.143  1.00  0.00     0.031 A 
BRANCH  49  63
ATOM     63  C   UNL A   1      45.253  33.472  29.115  1.00  0.00    -0.014 A 
ATOM     64  C   UNL A   1      46.086  33.617  30.237  1.00  0.00     0.009 A 
ATOM     65  C   UNL A   1      45.049  34.573  28.271  1.00  0.00     0.009 A 
ATOM     66  C   UNL A   1      46.681  34.849  30.518  1.00  0.00     0.001 A 
ATOM     67  C   UNL A   1      45.668  35.796  28.540  1.00  0.00     0.001 A 
ATOM     68  C   UNL A   1      46.476  35.934  29.667  1.00  0.00     0.000 A 
ENDBRANCH  49  63
BRANCH  50  69
ATOM     69  C   UNL A   1      40.684  24.823  27.250  1.00  0.00    -0.014 A 
ATOM     70  C   UNL A   1      39.528  24.790  26.456  1.00  0.00     0.009 A 
ATOM     71  C   UNL A   1      41.166  23.620  27.792  1.00  0.00     0.009 A 
ATOM     72  C   UNL A   1      38.848  23.587  26.242  1.00  0.00     0.001 A 
ATOM     73  C   UNL A   1      40.504  22.415  27.549  1.00  0.00     0.001 A 
ATOM     74  C   UNL A   1      39.339  22.400  26.785  1.00  0.00     0.000 A 
ENDBRANCH  50  69
BRANCH  62  75
ATOM     75  C   UNL A   1      46.774  27.546  25.282  1.00  0.00    -0.014 A 
ATOM     76  C   UNL A   1      46.899  27.921  23.936  1.00  0.00     0.009 A 
ATOM     77  C   UNL A   1      47.721  26.667  25.833  1.00  0.00     0.009 A 
ATOM     78  C   UNL A   1      47.921  27.388  23.145  1.00  0.00     0.001 A 
ATOM     79  C   UNL A   1      48.760  26.163  25.050  1.00  0.00     0.001 A 
ATOM     80  C   UNL A   1      48.853  26.513  23.704  1.00  0.00     0.000 A 
ENDBRANCH  62  75
ENDBRANCH  36  37
ENDBRANCH  29  31
ENDBRANCH  28  29
ENDBRANCH  27  28
ENDBRANCH  26  27
ENDBRANCH  25  26
ENDBRANCH  24  25
ENDBRANCH   1  24
TORSDOF 21
ENDMDL
MODEL 2
REMARK VINA RESULT:      -9.3      4.623     10.061
REMARK SMILES C[C@@H](CNC(=O)Cc1ccc(F)cc1F)C(=O)OCCOCCOCCOC(=O)c1ccc(-c2c3nc(c(-c4ccccc4)c4ccc([nH]4)c(-c4ccccc4)c4nc(c(-c5ccccc5)c5ccc2[nH]5)C=C4)C=C3)cc1
REMARK SMILES IDX 22 1 21 2 20 3 19 4 18 5 16 6 17 7 2 8 1 9 3 10 4 11 5 12
REMARK SMILES IDX 6 14 7 15 8 16 9 17 14 18 10 19 13 20 15 21 11 22 12 23
REMARK SMILES IDX 23 24 24 25 25 26 26 27 27 28 28 29 29 30 30 31 31 32 77 33
REMARK SMILES IDX 32 34 76 35 33 36 34 37 35 38 70 39 36 40 75 41 69 42 71 43
REMARK SMILES IDX 37 44 74 45 68 46 67 47 38 49 60 50 45 51 59 52 46 53 49 54
REMARK SMILES IDX 58 55 72 56 47 57 48 58 57 60 73 61 50 62 39 63 40 64 44 65
REMARK SMILES IDX 41 66 43 67 42 68 61 69 62 70 66 71 63 72 65 73 64 74 51 75
REMARK SMILES IDX 52 76 56 77 53 78 55 79 54 80
REMARK H PARENT 4 13 71 48 49 59
REMARK Flexibility Score: inf
ROOT
ATOM      1  C   UNL A   1      38.604  21.950  25.998  1.00  0.00     0.188 C 
ENDROOT
BRANCH   1   2
ATOM      2  O   UNL A   1      37.784  21.726  24.863  1.00  0.00    -0.376 OA
BRANCH   2   3
ATOM      3  C   UNL A   1      36.942  20.588  24.943  1.00  0.00     0.202 C 
BRANCH   3   4
ATOM      4  C   UNL A   1      35.452  20.906  25.093  1.00  0.00     0.261 C 
BRANCH   4   5
ATOM      5  O   UNL A   1      34.839  21.914  24.261  1.00  0.00    -0.463 OA
BRANCH   5   6
ATOM      6  C   UNL A   1      34.472  23.124  24.744  1.00  0.00     0.310 C 
ATOM      7  O   UNL A   1      35.222  24.076  24.910  1.00  0.00    -0.252 OA
BRANCH   6   8
ATOM      8  C   UNL A   1      32.994  23.177  25.087  1.00  0.00     0.115 C 
ATOM      9  C   UNL A   1      32.684  23.904  26.397  1.00  0.00     0.022 C 
BRANCH   8  10
ATOM     10  C   UNL A   1      32.205  23.743  23.902  1.00  0.00     0.130 C 
BRANCH  10  11
ATOM     11  N   UNL A   1      33.050  24.367  22.899  1.00  0.00    -0.355 N 
ATOM     12  C   UNL A   1      33.222  25.699  22.640  1.00  0.00     0.224 C 
ATOM     13  H   UNL A   1      33.566  23.752  22.331  1.00  0.00     0.163 HD
ATOM     14  O   UNL A   1      33.745  26.025  21.572  1.00  0.00    -0.275 OA
BRANCH  12  15
ATOM     15  C   UNL A   1      32.786  26.745  23.656  1.00  0.00     0.138 C 
BRANCH  15  16
ATOM     16  C   UNL A   1      31.482  27.431  23.328  1.00  0.00    -0.003 A 
ATOM     17  C   UNL A   1      30.252  26.845  23.664  1.00  0.00     0.010 A 
ATOM     18  C   UNL A   1      31.471  28.676  22.683  1.00  0.00     0.129 A 
ATOM     19  C   UNL A   1      29.055  27.520  23.402  1.00  0.00     0.040 A 
ATOM     20  C   UNL A   1      30.285  29.355  22.423  1.00  0.00     0.078 A 
ATOM     21  F   UNL A   1      32.630  29.262  22.348  1.00  0.00    -0.207 F 
ATOM     22  C   UNL A   1      29.085  28.774  22.800  1.00  0.00     0.126 A 
ATOM     23  F   UNL A   1      27.938  29.437  22.603  1.00  0.00    -0.207 F 
ENDBRANCH  15  16
ENDBRANCH  12  15
ENDBRANCH  10  11
ENDBRANCH   8  10
ENDBRANCH   6   8
ENDBRANCH   5   6
ENDBRANCH   4   5
ENDBRANCH   3   4
ENDBRANCH   2   3
ENDBRANCH   1   2
BRANCH   1  24
ATOM     24  C   UNL A   1      39.861  21.073  26.046  1.00  0.00     0.188 C 
BRANCH  24  25
ATOM     25  O   UNL A   1      40.390  20.613  27.278  1.00  0.00    -0.376 OA
BRANCH  25  26
ATOM     26  C   UNL A   1      41.699  20.069  27.286  1.00  0.00     0.202 C 
BRANCH  26  27
ATOM     27  C   UNL A   1      42.720  20.612  26.272  1.00  0.00     0.261 C 
BRANCH  27  28
ATOM     28  O   UNL A   1      43.362  21.849  26.639  1.00  0.00    -0.460 OA
BRANCH  28  29
ATOM     29  C   UNL A   1      43.099  22.908  25.832  1.00  0.00     0.338 C 
ATOM     30  O   UNL A   1      43.116  22.923  24.614  1.00  0.00    -0.246 OA
BRANCH  29  31
ATOM     31  C   UNL A   1      42.561  24.037  26.633  1.00  0.00     0.060 A 
ATOM     32  C   UNL A   1      43.049  25.325  26.357  1.00  0.00     0.016 A 
ATOM     33  C   UNL A   1      41.630  23.851  27.656  1.00  0.00     0.016 A 
ATOM     34  C   UNL A   1      42.631  26.420  27.109  1.00  0.00     0.010 A 
ATOM     35  C   UNL A   1      41.242  24.948  28.442  1.00  0.00     0.010 A 
ATOM     36  C   UNL A   1      41.767  26.231  28.194  1.00  0.00    -0.014 A 
BRANCH  36  37
ATOM     37  C   UNL A   1      41.611  27.333  29.178  1.00  0.00     0.031 A 
ATOM     38  C   UNL A   1      40.391  28.212  29.079  1.00  0.00     0.074 A 
ATOM     39  C   UNL A   1      42.479  27.508  30.192  1.00  0.00     0.049 A 
ATOM     40  N   UNL A   1      40.022  29.211  29.841  1.00  0.00    -0.248 NA
ATOM     41  C   UNL A   1      39.458  27.916  27.979  1.00  0.00     0.031 C 
ATOM     42  C   UNL A   1      43.668  26.699  30.443  1.00  0.00     0.029 A 
ATOM     43  N   UNL A   1      42.479  28.435  31.207  1.00  0.00    -0.354 N 
ATOM     44  C   UNL A   1      38.815  29.658  29.314  1.00  0.00     0.074 A 
ATOM     45  C   UNL A   1      38.532  28.846  28.151  1.00  0.00     0.031 C 
ATOM     46  C   UNL A   1      44.291  27.171  31.539  1.00  0.00     0.029 A 
ATOM     47  C   UNL A   1      43.558  28.328  32.050  1.00  0.00     0.049 A 
ATOM     48  H   UNL A   1      41.772  29.111  31.319  1.00  0.00     0.167 HD
ATOM     49  C   UNL A   1      38.006  30.647  29.762  1.00  0.00     0.031 A 
ATOM     50  C   UNL A   1      43.920  29.088  33.104  1.00  0.00     0.031 A 
ATOM     51  C   UNL A   1      38.286  31.477  30.902  1.00  0.00     0.049 A 
ATOM     52  C   UNL A   1      43.045  30.241  33.529  1.00  0.00     0.074 A 
ATOM     53  C   UNL A   1      37.529  32.513  31.421  1.00  0.00     0.029 A 
ATOM     54  N   UNL A   1      39.415  31.369  31.697  1.00  0.00    -0.354 N 
ATOM     55  N   UNL A   1      41.901  30.642  33.031  1.00  0.00    -0.248 NA
ATOM     56  C   UNL A   1      43.512  31.037  34.674  1.00  0.00     0.031 C 
ATOM     57  C   UNL A   1      38.225  33.066  32.501  1.00  0.00     0.029 A 
ATOM     58  C   UNL A   1      39.386  32.334  32.691  1.00  0.00     0.049 A 
ATOM     59  H   UNL A   1      40.132  30.706  31.574  1.00  0.00     0.167 HD
ATOM     60  C   UNL A   1      41.502  31.718  33.816  1.00  0.00     0.074 A 
ATOM     61  C   UNL A   1      42.511  31.889  34.839  1.00  0.00     0.031 C 
ATOM     62  C   UNL A   1      40.399  32.500  33.699  1.00  0.00     0.031 A 
BRANCH  49  63
ATOM     63  C   UNL A   1      36.741  30.903  28.991  1.00  0.00    -0.014 A 
ATOM     64  C   UNL A   1      36.455  32.174  28.468  1.00  0.00     0.009 A 
ATOM     65  C   UNL A   1      35.844  29.851  28.752  1.00  0.00     0.009 A 
ATOM     66  C   UNL A   1      35.282  32.391  27.742  1.00  0.00     0.001 A 
ATOM     67  C   UNL A   1      34.686  30.064  28.002  1.00  0.00     0.001 A 
ATOM     68  C   UNL A   1      34.402  31.335  27.505  1.00  0.00     0.000 A 
ENDBRANCH  49  63
BRANCH  50  69
ATOM     69  C   UNL A   1      45.193  28.815  33.824  1.00  0.00    -0.014 A 
ATOM     70  C   UNL A   1      45.226  27.963  34.939  1.00  0.00     0.009 A 
ATOM     71  C   UNL A   1      46.377  29.457  33.429  1.00  0.00     0.009 A 
ATOM     72  C   UNL A   1      46.409  27.789  35.664  1.00  0.00     0.001 A 
ATOM     73  C   UNL A   1      47.565  29.256  34.135  1.00  0.00     0.001 A 
ATOM     74  C   UNL A   1      47.578  28.433  35.259  1.00  0.00     0.000 A 
ENDBRANCH  50  69
BRANCH  62  75
ATOM     75  C   UNL A   1      40.215  33.588  34.722  1.00  0.00    -0.014 A 
ATOM     76  C   UNL A   1      39.521  33.355  35.920  1.00  0.00     0.009 A 
ATOM     77  C   UNL A   1      40.757  34.862  34.489  1.00  0.00     0.009 A 
ATOM     78  C   UNL A   1      39.331  34.389  36.840  1.00  0.00     0.001 A 
ATOM     79  C   UNL A   1      40.594  35.884  35.425  1.00  0.00     0.001 A 
ATOM     80  C   UNL A   1      39.871  35.652  36.593  1.00  0.00     0.000 A 
ENDBRANCH  62  75
ENDBRANCH  36  37
ENDBRANCH  29  31
ENDBRANCH  28  29
ENDBRANCH  27  28
ENDBRANCH  26  27
ENDBRANCH  25  26
ENDBRANCH  24  25
ENDBRANCH   1  24
TORSDOF 21
ENDMDL
MODEL 3
REMARK VINA RESULT:      -9.0      0.821      5.866
REMARK SMILES C[C@@H](CNC(=O)Cc1ccc(F)cc1F)C(=O)OCCOCCOCCOC(=O)c1ccc(-c2c3nc(c(-c4ccccc4)c4ccc([nH]4)c(-c4ccccc4)c4nc(c(-c5ccccc5)c5ccc2[nH]5)C=C4)C=C3)cc1
REMARK SMILES IDX 22 1 21 2 20 3 19 4 18 5 16 6 17 7 2 8 1 9 3 10 4 11 5 12
REMARK SMILES IDX 6 14 7 15 8 16 9 17 14 18 10 19 13 20 15 21 11 22 12 23
REMARK SMILES IDX 23 24 24 25 25 26 26 27 27 28 28 29 29 30 30 31 31 32 77 33
REMARK SMILES IDX 32 34 76 35 33 36 34 37 35 38 70 39 36 40 75 41 69 42 71 43
REMARK SMILES IDX 37 44 74 45 68 46 67 47 38 49 60 50 45 51 59 52 46 53 49 54
REMARK SMILES IDX 58 55 72 56 47 57 48 58 57 60 73 61 50 62 39 63 40 64 44 65
REMARK SMILES IDX 41 66 43 67 42 68 61 69 62 70 66 71 63 72 65 73 64 74 51 75
REMARK SMILES IDX 52 76 56 77 53 78 55 79 54 80
REMARK H PARENT 4 13 71 48 49 59
REMARK Flexibility Score: inf
ROOT
ATOM      1  C   UNL A   1      35.263  32.529  29.370  1.00  0.00     0.188 C 
ENDROOT
BRANCH   1   2
ATOM      2  O   UNL A   1      34.406  31.485  28.939  1.00  0.00    -0.376 OA
BRANCH   2   3
ATOM      3  C   UNL A   1      34.103  31.488  27.553  1.00  0.00     0.202 C 
BRANCH   3   4
ATOM      4  C   UNL A   1      33.093  30.423  27.119  1.00  0.00     0.261 C 
BRANCH   4   5
ATOM      5  O   UNL A   1      33.190  29.823  25.809  1.00  0.00    -0.463 OA
BRANCH   5   6
ATOM      6  C   UNL A   1      32.102  29.382  25.135  1.00  0.00     0.310 C 
ATOM      7  O   UNL A   1      31.104  30.045  24.891  1.00  0.00    -0.252 OA
BRANCH   6   8
ATOM      8  C   UNL A   1      32.242  27.930  24.714  1.00  0.00     0.115 C 
ATOM      9  C   UNL A   1      32.026  26.929  25.850  1.00  0.00     0.022 C 
BRANCH   8  10
ATOM     10  C   UNL A   1      31.341  27.649  23.507  1.00  0.00     0.130 C 
BRANCH  10  11
ATOM     11  N   UNL A   1      32.084  27.366  22.292  1.00  0.00    -0.355 N 
ATOM     12  C   UNL A   1      32.617  26.177  21.877  1.00  0.00     0.224 C 
ATOM     13  H   UNL A   1      32.224  28.130  21.687  1.00  0.00     0.163 HD
ATOM     14  O   UNL A   1      33.456  26.195  20.974  1.00  0.00    -0.275 OA
BRANCH  12  15
ATOM     15  C   UNL A   1      32.170  24.868  22.512  1.00  0.00     0.138 C 
BRANCH  15  16
ATOM     16  C   UNL A   1      33.244  24.155  23.297  1.00  0.00    -0.003 A 
ATOM     17  C   UNL A   1      34.257  24.871  23.953  1.00  0.00     0.010 A 
ATOM     18  C   UNL A   1      33.249  22.755  23.394  1.00  0.00     0.129 A 
ATOM     19  C   UNL A   1      35.213  24.197  24.721  1.00  0.00     0.040 A 
ATOM     20  C   UNL A   1      34.194  22.079  24.160  1.00  0.00     0.078 A 
ATOM     21  F   UNL A   1      32.295  22.042  22.778  1.00  0.00    -0.207 F 
ATOM     22  C   UNL A   1      35.161  22.811  24.829  1.00  0.00     0.126 A 
ATOM     23  F   UNL A   1      36.046  22.178  25.611  1.00  0.00    -0.207 F 
ENDBRANCH  15  16
ENDBRANCH  12  15
ENDBRANCH  10  11
ENDBRANCH   8  10
ENDBRANCH   6   8
ENDBRANCH   5   6
ENDBRANCH   4   5
ENDBRANCH   3   4
ENDBRANCH   2   3
ENDBRANCH   1   2
BRANCH   1  24
ATOM     24  C   UNL A   1      34.564  33.606  30.209  1.00  0.00     0.188 C 
BRANCH  24  25
ATOM     25  O   UNL A   1      34.042  33.313  31.495  1.00  0.00    -0.376 OA
BRANCH  25  26
ATOM     26  C   UNL A   1      34.207  34.276  32.521  1.00  0.00     0.202 C 
BRANCH  26  27
ATOM     27  C   UNL A   1      35.316  34.050  33.562  1.00  0.00     0.261 C 
BRANCH  27  28
ATOM     28  O   UNL A   1      36.608  33.701  33.027  1.00  0.00    -0.460 OA
BRANCH  28  29
ATOM     29  C   UNL A   1      37.230  32.657  33.633  1.00  0.00     0.338 C 
ATOM     30  O   UNL A   1      37.016  32.225  34.751  1.00  0.00    -0.246 OA
BRANCH  29  31
ATOM     31  C   UNL A   1      38.092  31.943  32.656  1.00  0.00     0.060 A 
ATOM     32  C   UNL A   1      39.096  31.103  33.163  1.00  0.00     0.016 A 
ATOM     33  C   UNL A   1      37.953  32.108  31.277  1.00  0.00     0.016 A 
ATOM     34  C   UNL A   1      39.976  30.449  32.304  1.00  0.00     0.010 A 
ATOM     35  C   UNL A   1      38.867  31.483  30.414  1.00  0.00     0.010 A 
ATOM     36  C   UNL A   1      39.904  30.678  30.926  1.00  0.00    -0.014 A 
BRANCH  36  37
ATOM     37  C   UNL A   1      41.046  30.255  30.074  1.00  0.00     0.031 A 
ATOM     38  C   UNL A   1      40.967  28.917  29.386  1.00  0.00     0.074 A 
ATOM     39  C   UNL A   1      42.095  31.065  29.839  1.00  0.00     0.049 A 
ATOM     40  N   UNL A   1      41.820  28.349  28.571  1.00  0.00    -0.248 NA
ATOM     41  C   UNL A   1      39.758  28.118  29.645  1.00  0.00     0.031 C 
ATOM     42  C   UNL A   1      42.275  32.405  30.390  1.00  0.00     0.029 A 
ATOM     43  N   UNL A   1      43.210  30.866  29.062  1.00  0.00    -0.354 N 
ATOM     44  C   UNL A   1      41.249  27.132  28.219  1.00  0.00     0.074 A 
ATOM     45  C   UNL A   1      39.997  27.027  28.934  1.00  0.00     0.031 C 
ATOM     46  C   UNL A   1      43.441  32.907  29.941  1.00  0.00     0.029 A 
ATOM     47  C   UNL A   1      44.097  31.915  29.090  1.00  0.00     0.049 A 
ATOM     48  H   UNL A   1      43.360  30.049  28.533  1.00  0.00     0.167 HD
ATOM     49  C   UNL A   1      41.716  26.187  27.369  1.00  0.00     0.031 A 
ATOM     50  C   UNL A   1      45.306  32.051  28.510  1.00  0.00     0.031 A 
ATOM     51  C   UNL A   1      42.971  26.267  26.670  1.00  0.00     0.049 A 
ATOM     52  C   UNL A   1      45.844  30.945  27.637  1.00  0.00     0.074 A 
ATOM     53  C   UNL A   1      43.532  25.350  25.798  1.00  0.00     0.029 A 
ATOM     54  N   UNL A   1      43.861  27.323  26.768  1.00  0.00    -0.354 N 
ATOM     55  N   UNL A   1      45.287  29.807  27.302  1.00  0.00    -0.248 NA
ATOM     56  C   UNL A   1      47.178  31.154  27.053  1.00  0.00     0.031 C 
ATOM     57  C   UNL A   1      44.787  25.828  25.407  1.00  0.00     0.029 A 
ATOM     58  C   UNL A   1      44.979  27.071  25.988  1.00  0.00     0.049 A 
ATOM     59  H   UNL A   1      43.722  28.132  27.311  1.00  0.00     0.167 HD
ATOM     60  C   UNL A   1      46.190  29.178  26.451  1.00  0.00     0.074 A 
ATOM     61  C   UNL A   1      47.317  30.074  26.299  1.00  0.00     0.031 C 
ATOM     62  C   UNL A   1      46.097  27.966  25.850  1.00  0.00     0.031 A 
BRANCH  49  63
ATOM     63  C   UNL A   1      40.868  24.962  27.167  1.00  0.00    -0.014 A 
ATOM     64  C   UNL A   1      41.248  23.721  27.703  1.00  0.00     0.009 A 
ATOM     65  C   UNL A   1      39.656  25.060  26.467  1.00  0.00     0.009 A 
ATOM     66  C   UNL A   1      40.441  22.597  27.518  1.00  0.00     0.001 A 
ATOM     67  C   UNL A   1      38.838  23.940  26.308  1.00  0.00     0.001 A 
ATOM     68  C   UNL A   1      39.235  22.708  26.827  1.00  0.00     0.000 A 
ENDBRANCH  49  63
BRANCH  50  69
ATOM     69  C   UNL A   1      46.124  33.269  28.756  1.00  0.00    -0.014 A 
ATOM     70  C   UNL A   1      47.165  33.264  29.697  1.00  0.00     0.009 A 
ATOM     71  C   UNL A   1      45.826  34.466  28.085  1.00  0.00     0.009 A 
ATOM     72  C   UNL A   1      47.865  34.439  29.988  1.00  0.00     0.001 A 
ATOM     73  C   UNL A   1      46.548  35.631  28.353  1.00  0.00     0.001 A 
ATOM     74  C   UNL A   1      47.558  35.620  29.312  1.00  0.00     0.000 A 
ENDBRANCH  50  69
BRANCH  62  75
ATOM     75  C   UNL A   1      47.231  27.554  24.950  1.00  0.00    -0.014 A 
ATOM     76  C   UNL A   1      47.245  27.896  23.589  1.00  0.00     0.009 A 
ATOM     77  C   UNL A   1      48.310  26.825  25.478  1.00  0.00     0.009 A 
ATOM     78  C   UNL A   1      48.291  27.474  22.765  1.00  0.00     0.001 A 
ATOM     79  C   UNL A   1      49.369  26.433  24.659  1.00  0.00     0.001 A 
ATOM     80  C   UNL A   1      49.354  26.746  23.301  1.00  0.00     0.000 A 
ENDBRANCH  62  75
ENDBRANCH  36  37
ENDBRANCH  29  31
ENDBRANCH  28  29
ENDBRANCH  27  28
ENDBRANCH  26  27
ENDBRANCH  25  26
ENDBRANCH  24  25
ENDBRANCH   1  24
TORSDOF 21
ENDMDL
