MODEL 1
REMARK VINA RESULT:     -10.6      0.000      0.000
REMARK SMILES C[C@@H]1C[N@@H+]2CCC[C@@H]2CN1C(=O)N1CC(C(=O)OCCOCCOCCOC(=O)c2ccc(-c3c4nc(c(-c5ccccc5)c5ccc([nH]5)c(-c5ccccc5)c5nc(c(-c6ccccc6)c6ccc3[nH]6)C=C5)C=C4)cc2)C1
REMARK SMILES IDX 23 1 22 2 21 3 20 4 19 5 18 6 16 7 17 8 15 9 11 10 12 11
REMARK SMILES IDX 13 12 14 13 78 14 10 15 1 16 2 17 3 18 4 19 9 20 5 21 8 22
REMARK SMILES IDX 6 24 7 25 24 26 25 27 26 28 27 29 28 30 29 31 30 32 31 33
REMARK SMILES IDX 77 34 32 35 76 36 33 37 34 38 35 39 70 40 36 41 75 42 69 43
REMARK SMILES IDX 71 44 37 45 74 46 68 47 67 48 38 50 60 51 45 52 59 53 46 54
REMARK SMILES IDX 49 55 58 56 72 57 47 58 48 59 57 61 73 62 50 63 39 64 40 65
REMARK SMILES IDX 44 66 41 67 43 68 42 69 61 70 62 71 66 72 63 73 65 74 64 75
REMARK SMILES IDX 51 76 52 77 56 78 53 79 55 80 54 81
REMARK H PARENT 4 23 71 49 49 60
REMARK Flexibility Score: inf
ROOT
ATOM      1  C   UNL A   1      33.899  36.942  32.751  1.00  0.00     0.188 C 
ENDROOT
BRANCH   1   2
ATOM      2  C   UNL A   1      32.651  36.293  32.123  1.00  0.00     0.188 C 
BRANCH   2   3
ATOM      3  O   UNL A   1      32.362  36.523  30.751  1.00  0.00    -0.376 OA
BRANCH   3   4
ATOM      4  C   UNL A   1      33.325  36.158  29.766  1.00  0.00     0.202 C 
BRANCH   4   5
ATOM      5  C   UNL A   1      32.988  35.076  28.728  1.00  0.00     0.261 C 
BRANCH   5   6
ATOM      6  O   UNL A   1      33.362  33.740  29.123  1.00  0.00    -0.463 OA
BRANCH   6   7
ATOM      7  C   UNL A   1      34.029  32.997  28.190  1.00  0.00     0.312 C 
ATOM      8  O   UNL A   1      35.030  33.407  27.601  1.00  0.00    -0.252 OA
BRANCH   7   9
ATOM      9  C   UNL A   1      33.470  31.580  27.986  1.00  0.00     0.138 C 
ATOM     10  C   UNL A   1      32.947  28.790  26.364  1.00  0.00     0.320 C 
ATOM     11  O   UNL A   1      33.629  27.937  26.936  1.00  0.00    -0.248 OA
ATOM     12  N   UNL A   1      33.227  30.117  26.543  1.00  0.00    -0.323 N 
ATOM     13  C   UNL A   1      34.404  30.645  27.217  1.00  0.00     0.138 C 
ATOM     14  C   UNL A   1      32.381  31.229  26.956  1.00  0.00     0.138 C 
BRANCH  10  15
ATOM     15  N   UNL A   1      31.948  28.445  25.475  1.00  0.00    -0.310 N 
ATOM     16  C   UNL A   1      30.521  29.681  23.896  1.00  0.00     0.037 C 
ATOM     17  C   UNL A   1      31.827  28.897  24.082  1.00  0.00     0.139 C 
ATOM     18  C   UNL A   1      31.915  27.723  23.047  1.00  0.00     0.287 C 
ATOM     19  N   UNL A   1      32.064  26.347  23.524  1.00  0.00    -0.329 N 
ATOM     20  C   UNL A   1      31.193  27.224  25.760  1.00  0.00     0.186 C 
ATOM     21  C   UNL A   1      31.385  25.349  22.700  1.00  0.00     0.262 C 
ATOM     22  C   UNL A   1      31.794  26.070  24.947  1.00  0.00     0.204 C 
ATOM     23  H   UNL A   1      33.074  26.253  23.423  1.00  0.00     0.348 HD
ATOM     24  C   UNL A   1      31.245  24.154  23.624  1.00  0.00     0.068 C 
ATOM     25  C   UNL A   1      30.933  24.808  24.959  1.00  0.00     0.073 C 
ENDBRANCH  10  15
ENDBRANCH   7   9
ENDBRANCH   6   7
ENDBRANCH   5   6
ENDBRANCH   4   5
ENDBRANCH   3   4
ENDBRANCH   2   3
ENDBRANCH   1   2
BRANCH   1  26
ATOM     26  O   UNL A   1      34.395  36.324  33.912  1.00  0.00    -0.376 OA
BRANCH  26  27
ATOM     27  C   UNL A   1      35.347  35.279  33.815  1.00  0.00     0.202 C 
BRANCH  27  28
ATOM     28  C   UNL A   1      35.053  33.776  34.007  1.00  0.00     0.261 C 
BRANCH  28  29
ATOM     29  O   UNL A   1      35.913  32.825  33.376  1.00  0.00    -0.460 OA
BRANCH  29  30
ATOM     30  C   UNL A   1      35.419  32.186  32.293  1.00  0.00     0.338 C 
ATOM     31  O   UNL A   1      34.306  32.319  31.795  1.00  0.00    -0.246 OA
BRANCH  30  32
ATOM     32  C   UNL A   1      36.523  31.442  31.663  1.00  0.00     0.060 A 
ATOM     33  C   UNL A   1      37.449  30.776  32.479  1.00  0.00     0.016 A 
ATOM     34  C   UNL A   1      36.644  31.403  30.272  1.00  0.00     0.016 A 
ATOM     35  C   UNL A   1      38.512  30.080  31.905  1.00  0.00     0.010 A 
ATOM     36  C   UNL A   1      37.725  30.728  29.701  1.00  0.00     0.010 A 
ATOM     37  C   UNL A   1      38.677  30.087  30.515  1.00  0.00    -0.014 A 
BRANCH  37  38
ATOM     38  C   UNL A   1      39.937  29.591  29.917  1.00  0.00     0.031 A 
ATOM     39  C   UNL A   1      41.091  30.546  29.785  1.00  0.00     0.074 A 
ATOM     40  C   UNL A   1      40.062  28.320  29.498  1.00  0.00     0.049 A 
ATOM     41  N   UNL A   1      42.262  30.364  29.233  1.00  0.00    -0.248 NA
ATOM     42  C   UNL A   1      40.890  31.889  30.354  1.00  0.00     0.031 C 
ATOM     43  C   UNL A   1      39.041  27.282  29.620  1.00  0.00     0.029 A 
ATOM     44  N   UNL A   1      41.111  27.693  28.873  1.00  0.00    -0.354 N 
ATOM     45  C   UNL A   1      42.932  31.572  29.373  1.00  0.00     0.074 A 
ATOM     46  C   UNL A   1      42.029  32.486  30.038  1.00  0.00     0.031 C 
ATOM     47  C   UNL A   1      39.512  26.146  29.076  1.00  0.00     0.029 A 
ATOM     48  C   UNL A   1      40.847  26.389  28.533  1.00  0.00     0.049 A 
ATOM     49  H   UNL A   1      41.970  28.137  28.685  1.00  0.00     0.167 HD
ATOM     50  C   UNL A   1      44.190  31.893  28.987  1.00  0.00     0.031 A 
ATOM     51  C   UNL A   1      41.591  25.504  27.841  1.00  0.00     0.031 A 
ATOM     52  C   UNL A   1      45.079  30.994  28.303  1.00  0.00     0.049 A 
ATOM     53  C   UNL A   1      42.947  25.915  27.332  1.00  0.00     0.074 A 
ATOM     54  C   UNL A   1      46.374  31.222  27.875  1.00  0.00     0.029 A 
ATOM     55  N   UNL A   1      44.757  29.696  27.935  1.00  0.00    -0.354 N 
ATOM     56  N   UNL A   1      43.582  27.052  27.485  1.00  0.00    -0.248 NA
ATOM     57  C   UNL A   1      43.694  24.913  26.556  1.00  0.00     0.031 C 
ATOM     58  C   UNL A   1      46.814  30.082  27.191  1.00  0.00     0.029 A 
ATOM     59  C   UNL A   1      45.817  29.121  27.255  1.00  0.00     0.049 A 
ATOM     60  H   UNL A   1      43.900  29.251  28.127  1.00  0.00     0.167 HD
ATOM     61  C   UNL A   1      44.811  26.892  26.855  1.00  0.00     0.074 A 
ATOM     62  C   UNL A   1      44.837  25.544  26.326  1.00  0.00     0.031 C 
ATOM     63  C   UNL A   1      45.829  27.779  26.731  1.00  0.00     0.031 A 
BRANCH  50  64
ATOM     64  C   UNL A   1      44.650  33.300  29.253  1.00  0.00    -0.014 A 
ATOM     65  C   UNL A   1      45.352  33.634  30.422  1.00  0.00     0.009 A 
ATOM     66  C   UNL A   1      44.378  34.308  28.315  1.00  0.00     0.009 A 
ATOM     67  C   UNL A   1      45.733  34.956  30.665  1.00  0.00     0.001 A 
ATOM     68  C   UNL A   1      44.789  35.622  28.546  1.00  0.00     0.001 A 
ATOM     69  C   UNL A   1      45.454  35.947  29.726  1.00  0.00     0.000 A 
ENDBRANCH  50  64
BRANCH  51  70
ATOM     70  C   UNL A   1      41.064  24.141  27.571  1.00  0.00    -0.014 A 
ATOM     71  C   UNL A   1      41.593  23.025  28.237  1.00  0.00     0.009 A 
ATOM     72  C   UNL A   1      40.035  23.947  26.635  1.00  0.00     0.009 A 
ATOM     73  C   UNL A   1      41.119  21.742  27.955  1.00  0.00     0.001 A 
ATOM     74  C   UNL A   1      39.542  22.665  26.378  1.00  0.00     0.001 A 
ATOM     75  C   UNL A   1      40.090  21.564  27.031  1.00  0.00     0.000 A 
ENDBRANCH  51  70
BRANCH  63  76
ATOM     76  C   UNL A   1      47.077  27.310  26.033  1.00  0.00    -0.014 A 
ATOM     77  C   UNL A   1      48.108  26.658  26.728  1.00  0.00     0.009 A 
ATOM     78  C   UNL A   1      47.198  27.483  24.644  1.00  0.00     0.009 A 
ATOM     79  C   UNL A   1      49.248  26.220  26.051  1.00  0.00     0.001 A 
ATOM     80  C   UNL A   1      48.325  27.014  23.966  1.00  0.00     0.001 A 
ATOM     81  C   UNL A   1      49.353  26.392  24.671  1.00  0.00     0.000 A 
ENDBRANCH  63  76
ENDBRANCH  37  38
ENDBRANCH  30  32
ENDBRANCH  29  30
ENDBRANCH  28  29
ENDBRANCH  27  28
ENDBRANCH  26  27
ENDBRANCH   1  26
TORSDOF 18
ENDMDL
MODEL 2
REMARK VINA RESULT:     -10.1      1.262      6.012
REMARK SMILES C[C@@H]1C[N@@H+]2CCC[C@@H]2CN1C(=O)N1CC(C(=O)OCCOCCOCCOC(=O)c2ccc(-c3c4nc(c(-c5ccccc5)c5ccc([nH]5)c(-c5ccccc5)c5nc(c(-c6ccccc6)c6ccc3[nH]6)C=C5)C=C4)cc2)C1
REMARK SMILES IDX 23 1 22 2 21 3 20 4 19 5 18 6 16 7 17 8 15 9 11 10 12 11
REMARK SMILES IDX 13 12 14 13 78 14 10 15 1 16 2 17 3 18 4 19 9 20 5 21 8 22
REMARK SMILES IDX 6 24 7 25 24 26 25 27 26 28 27 29 28 30 29 31 30 32 31 33
REMARK SMILES IDX 77 34 32 35 76 36 33 37 34 38 35 39 70 40 36 41 75 42 69 43
REMARK SMILES IDX 71 44 37 45 74 46 68 47 67 48 38 50 60 51 45 52 59 53 46 54
REMARK SMILES IDX 49 55 58 56 72 57 47 58 48 59 57 61 73 62 50 63 39 64 40 65
REMARK SMILES IDX 44 66 41 67 43 68 42 69 61 70 62 71 66 72 63 73 65 74 64 75
REMARK SMILES IDX 51 76 52 77 56 78 53 79 55 80 54 81
REMARK H PARENT 4 23 71 49 49 60
REMARK Flexibility Score: inf
ROOT
ATOM      1  C   UNL A   1      33.266  35.531  31.546  1.00  0.00     0.188 C 
ENDROOT
BRANCH   1   2
ATOM      2  C   UNL A   1      33.302  35.084  30.073  1.00  0.00     0.188 C 
BRANCH   2   3
ATOM      3  O   UNL A   1      34.017  33.909  29.719  1.00  0.00    -0.376 OA
BRANCH   3   4
ATOM      4  C   UNL A   1      34.349  33.680  28.352  1.00  0.00     0.202 C 
BRANCH   4   5
ATOM      5  C   UNL A   1      35.333  32.560  27.978  1.00  0.00     0.261 C 
BRANCH   5   6
ATOM      6  O   UNL A   1      35.165  31.347  28.739  1.00  0.00    -0.463 OA
BRANCH   6   7
ATOM      7  C   UNL A   1      35.357  30.176  28.062  1.00  0.00     0.312 C 
ATOM      8  O   UNL A   1      36.177  29.327  28.416  1.00  0.00    -0.252 OA
BRANCH   7   9
ATOM      9  C   UNL A   1      34.418  29.971  26.863  1.00  0.00     0.138 C 
ATOM     10  C   UNL A   1      31.756  28.866  25.320  1.00  0.00     0.320 C 
ATOM     11  O   UNL A   1      31.056  29.858  25.106  1.00  0.00    -0.248 OA
ATOM     12  N   UNL A   1      32.737  28.918  26.271  1.00  0.00    -0.323 N 
ATOM     13  C   UNL A   1      32.932  30.002  27.222  1.00  0.00     0.138 C 
ATOM     14  C   UNL A   1      34.159  28.606  26.201  1.00  0.00     0.138 C 
BRANCH  10  15
ATOM     15  N   UNL A   1      31.526  27.663  24.680  1.00  0.00    -0.310 N 
ATOM     16  C   UNL A   1      31.139  26.981  22.347  1.00  0.00     0.037 C 
ATOM     17  C   UNL A   1      32.182  27.190  23.453  1.00  0.00     0.139 C 
ATOM     18  C   UNL A   1      33.021  25.884  23.671  1.00  0.00     0.287 C 
ATOM     19  N   UNL A   1      33.051  25.256  24.993  1.00  0.00    -0.329 N 
ATOM     20  C   UNL A   1      30.925  26.590  25.472  1.00  0.00     0.186 C 
ATOM     21  C   UNL A   1      33.129  23.797  24.963  1.00  0.00     0.262 C 
ATOM     22  C   UNL A   1      32.041  25.670  25.985  1.00  0.00     0.204 C 
ATOM     23  H   UNL A   1      33.930  25.645  25.334  1.00  0.00     0.348 HD
ATOM     24  C   UNL A   1      32.642  23.382  26.338  1.00  0.00     0.068 C 
ATOM     25  C   UNL A   1      31.521  24.372  26.600  1.00  0.00     0.073 C 
ENDBRANCH  10  15
ENDBRANCH   7   9
ENDBRANCH   6   7
ENDBRANCH   5   6
ENDBRANCH   4   5
ENDBRANCH   3   4
ENDBRANCH   2   3
ENDBRANCH   1   2
BRANCH   1  26
ATOM     26  O   UNL A   1      34.514  35.767  32.147  1.00  0.00    -0.376 OA
BRANCH  26  27
ATOM     27  C   UNL A   1      35.032  34.856  33.101  1.00  0.00     0.202 C 
BRANCH  27  28
ATOM     28  C   UNL A   1      34.532  33.413  33.329  1.00  0.00     0.261 C 
BRANCH  28  29
ATOM     29  O   UNL A   1      35.371  32.327  32.929  1.00  0.00    -0.460 OA
BRANCH  29  30
ATOM     30  C   UNL A   1      36.566  32.223  33.550  1.00  0.00     0.338 C 
ATOM     31  O   UNL A   1      36.803  32.403  34.740  1.00  0.00    -0.246 OA
BRANCH  30  32
ATOM     32  C   UNL A   1      37.525  31.642  32.595  1.00  0.00     0.060 A 
ATOM     33  C   UNL A   1      38.539  30.800  33.075  1.00  0.00     0.016 A 
ATOM     34  C   UNL A   1      37.424  31.928  31.232  1.00  0.00     0.016 A 
ATOM     35  C   UNL A   1      39.467  30.252  32.191  1.00  0.00     0.010 A 
ATOM     36  C   UNL A   1      38.371  31.400  30.353  1.00  0.00     0.010 A 
ATOM     37  C   UNL A   1      39.412  30.582  30.831  1.00  0.00    -0.014 A 
BRANCH  37  38
ATOM     38  C   UNL A   1      40.539  30.233  29.938  1.00  0.00     0.031 A 
ATOM     39  C   UNL A   1      40.529  28.889  29.264  1.00  0.00     0.074 A 
ATOM     40  C   UNL A   1      41.555  31.088  29.725  1.00  0.00     0.049 A 
ATOM     41  N   UNL A   1      41.435  28.335  28.502  1.00  0.00    -0.248 NA
ATOM     42  C   UNL A   1      39.333  28.061  29.487  1.00  0.00     0.031 C 
ATOM     43  C   UNL A   1      41.657  32.439  30.271  1.00  0.00     0.029 A 
ATOM     44  N   UNL A   1      42.704  30.930  28.992  1.00  0.00    -0.354 N 
ATOM     45  C   UNL A   1      40.925  27.088  28.165  1.00  0.00     0.074 A 
ATOM     46  C   UNL A   1      39.645  26.956  28.827  1.00  0.00     0.031 C 
ATOM     47  C   UNL A   1      42.815  32.985  29.860  1.00  0.00     0.029 A 
ATOM     48  C   UNL A   1      43.550  32.009  29.059  1.00  0.00     0.049 A 
ATOM     49  H   UNL A   1      42.903  30.120  28.468  1.00  0.00     0.167 HD
ATOM     50  C   UNL A   1      41.471  26.135  27.372  1.00  0.00     0.031 A 
ATOM     51  C   UNL A   1      44.787  32.177  28.551  1.00  0.00     0.031 A 
ATOM     52  C   UNL A   1      42.754  26.254  26.734  1.00  0.00     0.049 A 
ATOM     53  C   UNL A   1      45.418  31.064  27.756  1.00  0.00     0.074 A 
ATOM     54  C   UNL A   1      43.393  25.348  25.906  1.00  0.00     0.029 A 
ATOM     55  N   UNL A   1      43.602  27.344  26.866  1.00  0.00    -0.354 N 
ATOM     56  N   UNL A   1      44.923  29.896  27.426  1.00  0.00    -0.248 NA
ATOM     57  C   UNL A   1      46.782  31.299  27.258  1.00  0.00     0.031 C 
ATOM     58  C   UNL A   1      44.655  25.863  25.588  1.00  0.00     0.029 A 
ATOM     59  C   UNL A   1      44.772  27.119  26.161  1.00  0.00     0.049 A 
ATOM     60  H   UNL A   1      43.401  28.156  27.385  1.00  0.00     0.167 HD
ATOM     61  C   UNL A   1      45.899  29.271  26.657  1.00  0.00     0.074 A 
ATOM     62  C   UNL A   1      47.010  30.194  26.561  1.00  0.00     0.031 C 
ATOM     63  C   UNL A   1      45.873  28.046  26.076  1.00  0.00     0.031 A 
BRANCH  50  64
ATOM     64  C   UNL A   1      40.694  24.859  27.200  1.00  0.00    -0.014 A 
ATOM     65  C   UNL A   1      41.128  23.653  27.771  1.00  0.00     0.009 A 
ATOM     66  C   UNL A   1      39.503  24.868  26.457  1.00  0.00     0.009 A 
ATOM     67  C   UNL A   1      40.409  22.473  27.564  1.00  0.00     0.001 A 
ATOM     68  C   UNL A   1      38.770  23.693  26.279  1.00  0.00     0.001 A 
ATOM     69  C   UNL A   1      39.230  22.495  26.821  1.00  0.00     0.000 A 
ENDBRANCH  50  64
BRANCH  51  70
ATOM     70  C   UNL A   1      45.524  33.445  28.792  1.00  0.00    -0.014 A 
ATOM     71  C   UNL A   1      45.433  34.508  27.881  1.00  0.00     0.009 A 
ATOM     72  C   UNL A   1      46.333  33.594  29.930  1.00  0.00     0.009 A 
ATOM     73  C   UNL A   1      46.154  35.686  28.093  1.00  0.00     0.001 A 
ATOM     74  C   UNL A   1      47.029  34.785  30.154  1.00  0.00     0.001 A 
ATOM     75  C   UNL A   1      46.946  35.825  29.232  1.00  0.00     0.000 A 
ENDBRANCH  51  70
BRANCH  63  76
ATOM     76  C   UNL A   1      47.064  27.645  25.249  1.00  0.00    -0.014 A 
ATOM     77  C   UNL A   1      48.174  27.003  25.820  1.00  0.00     0.009 A 
ATOM     78  C   UNL A   1      47.051  27.872  23.863  1.00  0.00     0.009 A 
ATOM     79  C   UNL A   1      49.260  26.628  25.025  1.00  0.00     0.001 A 
ATOM     80  C   UNL A   1      48.123  27.466  23.066  1.00  0.00     0.001 A 
ATOM     81  C   UNL A   1      49.231  26.855  23.649  1.00  0.00     0.000 A 
ENDBRANCH  63  76
ENDBRANCH  37  38
ENDBRANCH  30  32
ENDBRANCH  29  30
ENDBRANCH  28  29
ENDBRANCH  27  28
ENDBRANCH  26  27
ENDBRANCH   1  26
TORSDOF 18
ENDMDL
MODEL 3
REMARK VINA RESULT:     -10.1      1.359      2.329
REMARK SMILES C[C@@H]1C[N@@H+]2CCC[C@@H]2CN1C(=O)N1CC(C(=O)OCCOCCOCCOC(=O)c2ccc(-c3c4nc(c(-c5ccccc5)c5ccc([nH]5)c(-c5ccccc5)c5nc(c(-c6ccccc6)c6ccc3[nH]6)C=C5)C=C4)cc2)C1
REMARK SMILES IDX 23 1 22 2 21 3 20 4 19 5 18 6 16 7 17 8 15 9 11 10 12 11
REMARK SMILES IDX 13 12 14 13 78 14 10 15 1 16 2 17 3 18 4 19 9 20 5 21 8 22
REMARK SMILES IDX 6 24 7 25 24 26 25 27 26 28 27 29 28 30 29 31 30 32 31 33
REMARK SMILES IDX 77 34 32 35 76 36 33 37 34 38 35 39 70 40 36 41 75 42 69 43
REMARK SMILES IDX 71 44 37 45 74 46 68 47 67 48 38 50 60 51 45 52 59 53 46 54
REMARK SMILES IDX 49 55 58 56 72 57 47 58 48 59 57 61 73 62 50 63 39 64 40 65
REMARK SMILES IDX 44 66 41 67 43 68 42 69 61 70 62 71 66 72 63 73 65 74 64 75
REMARK SMILES IDX 51 76 52 77 56 78 53 79 55 80 54 81
REMARK H PARENT 4 23 71 49 49 60
REMARK Flexibility Score: inf
ROOT
ATOM      1  C   UNL A   1      33.295  35.246  29.344  1.00  0.00     0.188 C 
ENDROOT
BRANCH   1   2
ATOM      2  C   UNL A   1      33.406  34.236  28.187  1.00  0.00     0.188 C 
BRANCH   2   3
ATOM      3  O   UNL A   1      34.685  33.929  27.651  1.00  0.00    -0.376 OA
BRANCH   3   4
ATOM      4  C   UNL A   1      35.326  32.714  28.030  1.00  0.00     0.202 C 
BRANCH   4   5
ATOM      5  C   UNL A   1      34.514  31.412  28.114  1.00  0.00     0.261 C 
BRANCH   5   6
ATOM      6  O   UNL A   1      33.924  31.001  26.863  1.00  0.00    -0.463 OA
BRANCH   6   7
ATOM      7  C   UNL A   1      32.737  30.331  26.944  1.00  0.00     0.312 C 
ATOM      8  O   UNL A   1      31.655  30.905  27.079  1.00  0.00    -0.252 OA
BRANCH   7   9
ATOM      9  C   UNL A   1      32.852  28.808  26.784  1.00  0.00     0.138 C 
ATOM     10  C   UNL A   1      33.515  26.021  25.207  1.00  0.00     0.320 C 
ATOM     11  O   UNL A   1      34.541  25.578  25.726  1.00  0.00    -0.248 OA
ATOM     12  N   UNL A   1      33.188  27.340  25.363  1.00  0.00    -0.323 N 
ATOM     13  C   UNL A   1      34.050  28.357  25.946  1.00  0.00     0.138 C 
ATOM     14  C   UNL A   1      31.966  27.976  25.838  1.00  0.00     0.138 C 
BRANCH  10  15
ATOM     15  N   UNL A   1      32.716  25.239  24.395  1.00  0.00    -0.310 N 
ATOM     16  C   UNL A   1      31.742  25.493  22.149  1.00  0.00     0.037 C 
ATOM     17  C   UNL A   1      32.928  24.965  22.967  1.00  0.00     0.139 C 
ATOM     18  C   UNL A   1      33.173  23.447  22.664  1.00  0.00     0.287 C 
ATOM     19  N   UNL A   1      33.134  22.475  23.759  1.00  0.00    -0.329 N 
ATOM     20  C   UNL A   1      31.848  24.263  25.054  1.00  0.00     0.186 C 
ATOM     21  C   UNL A   1      32.595  21.169  23.384  1.00  0.00     0.262 C 
ATOM     22  C   UNL A   1      32.545  22.896  25.044  1.00  0.00     0.204 C 
ATOM     23  H   UNL A   1      34.135  22.400  23.939  1.00  0.00     0.348 HD
ATOM     24  C   UNL A   1      32.187  20.555  24.709  1.00  0.00     0.068 C 
ATOM     25  C   UNL A   1      31.630  21.747  25.466  1.00  0.00     0.073 C 
ENDBRANCH  10  15
ENDBRANCH   7   9
ENDBRANCH   6   7
ENDBRANCH   5   6
ENDBRANCH   4   5
ENDBRANCH   3   4
ENDBRANCH   2   3
ENDBRANCH   1   2
BRANCH   1  26
ATOM     26  O   UNL A   1      33.042  34.701  30.615  1.00  0.00    -0.376 OA
BRANCH  26  27
ATOM     27  C   UNL A   1      33.642  35.266  31.768  1.00  0.00     0.202 C 
BRANCH  27  28
ATOM     28  C   UNL A   1      34.701  34.579  32.657  1.00  0.00     0.261 C 
BRANCH  28  29
ATOM     29  O   UNL A   1      35.459  33.499  32.107  1.00  0.00    -0.460 OA
BRANCH  29  30
ATOM     30  C   UNL A   1      36.161  32.744  32.981  1.00  0.00     0.338 C 
ATOM     31  O   UNL A   1      35.920  32.568  34.170  1.00  0.00    -0.246 OA
BRANCH  30  32
ATOM     32  C   UNL A   1      37.162  31.981  32.218  1.00  0.00     0.060 A 
ATOM     33  C   UNL A   1      38.148  31.265  32.912  1.00  0.00     0.016 A 
ATOM     34  C   UNL A   1      37.128  31.972  30.822  1.00  0.00     0.016 A 
ATOM     35  C   UNL A   1      39.116  30.549  32.210  1.00  0.00     0.010 A 
ATOM     36  C   UNL A   1      38.115  31.276  30.121  1.00  0.00     0.010 A 
ATOM     37  C   UNL A   1      39.128  30.584  30.810  1.00  0.00    -0.014 A 
BRANCH  37  38
ATOM     38  C   UNL A   1      40.296  30.062  30.067  1.00  0.00     0.031 A 
ATOM     39  C   UNL A   1      41.469  30.976  29.844  1.00  0.00     0.074 A 
ATOM     40  C   UNL A   1      40.323  28.803  29.597  1.00  0.00     0.049 A 
ATOM     41  N   UNL A   1      42.567  30.769  29.164  1.00  0.00    -0.248 NA
ATOM     42  C   UNL A   1      41.386  32.304  30.473  1.00  0.00     0.031 C 
ATOM     43  C   UNL A   1      39.278  27.801  29.793  1.00  0.00     0.029 A 
ATOM     44  N   UNL A   1      41.273  28.160  28.844  1.00  0.00    -0.354 N 
ATOM     45  C   UNL A   1      43.299  31.945  29.272  1.00  0.00     0.074 A 
ATOM     46  C   UNL A   1      42.509  32.869  30.058  1.00  0.00     0.031 C 
ATOM     47  C   UNL A   1      39.641  26.668  29.166  1.00  0.00     0.029 A 
ATOM     48  C   UNL A   1      40.921  26.880  28.493  1.00  0.00     0.049 A 
ATOM     49  H   UNL A   1      42.126  28.577  28.580  1.00  0.00     0.167 HD
ATOM     50  C   UNL A   1      44.521  32.231  28.764  1.00  0.00     0.031 A 
ATOM     51  C   UNL A   1      41.550  25.993  27.698  1.00  0.00     0.031 A 
ATOM     52  C   UNL A   1      45.295  31.324  27.961  1.00  0.00     0.049 A 
ATOM     53  C   UNL A   1      42.862  26.369  27.061  1.00  0.00     0.074 A 
ATOM     54  C   UNL A   1      46.547  31.517  27.406  1.00  0.00     0.029 A 
ATOM     55  N   UNL A   1      44.882  30.054  27.588  1.00  0.00    -0.354 N 
ATOM     56  N   UNL A   1      43.556  27.475  27.182  1.00  0.00    -0.248 NA
ATOM     57  C   UNL A   1      43.480  25.367  26.178  1.00  0.00     0.031 C 
ATOM     58  C   UNL A   1      46.864  30.387  26.643  1.00  0.00     0.029 A 
ATOM     59  C   UNL A   1      45.840  29.463  26.782  1.00  0.00     0.049 A 
ATOM     60  H   UNL A   1      44.032  29.634  27.856  1.00  0.00     0.167 HD
ATOM     61  C   UNL A   1      44.705  27.290  26.420  1.00  0.00     0.074 A 
ATOM     62  C   UNL A   1      44.618  25.962  25.849  1.00  0.00     0.031 C 
ATOM     63  C   UNL A   1      45.741  28.141  26.217  1.00  0.00     0.031 A 
BRANCH  50  64
ATOM     64  C   UNL A   1      45.065  33.609  29.025  1.00  0.00    -0.014 A 
ATOM     65  C   UNL A   1      45.857  33.884  30.151  1.00  0.00     0.009 A 
ATOM     66  C   UNL A   1      44.782  34.648  28.124  1.00  0.00     0.009 A 
ATOM     67  C   UNL A   1      46.317  35.181  30.392  1.00  0.00     0.001 A 
ATOM     68  C   UNL A   1      45.271  35.936  28.351  1.00  0.00     0.001 A 
ATOM     69  C   UNL A   1      46.026  36.204  29.491  1.00  0.00     0.000 A 
ENDBRANCH  50  64
BRANCH  51  70
ATOM     70  C   UNL A   1      40.941  24.661  27.442  1.00  0.00    -0.014 A 
ATOM     71  C   UNL A   1      39.798  24.541  26.637  1.00  0.00     0.009 A 
ATOM     72  C   UNL A   1      41.492  23.503  28.014  1.00  0.00     0.009 A 
ATOM     73  C   UNL A   1      39.207  23.293  26.427  1.00  0.00     0.001 A 
ATOM     74  C   UNL A   1      40.916  22.252  27.777  1.00  0.00     0.001 A 
ATOM     75  C   UNL A   1      39.770  22.149  26.992  1.00  0.00     0.000 A 
ENDBRANCH  51  70
BRANCH  63  76
ATOM     76  C   UNL A   1      46.887  27.650  25.376  1.00  0.00    -0.014 A 
ATOM     77  C   UNL A   1      47.926  26.881  25.925  1.00  0.00     0.009 A 
ATOM     78  C   UNL A   1      46.901  27.923  23.998  1.00  0.00     0.009 A 
ATOM     79  C   UNL A   1      48.970  26.426  25.117  1.00  0.00     0.001 A 
ATOM     80  C   UNL A   1      47.928  27.438  23.187  1.00  0.00     0.001 A 
ATOM     81  C   UNL A   1      48.968  26.699  23.749  1.00  0.00     0.000 A 
ENDBRANCH  63  76
ENDBRANCH  37  38
ENDBRANCH  30  32
ENDBRANCH  29  30
ENDBRANCH  28  29
ENDBRANCH  27  28
ENDBRANCH  26  27
ENDBRANCH   1  26
TORSDOF 18
ENDMDL
