MODEL 1
REMARK VINA RESULT:     -11.3      0.000      0.000
REMARK SMILES Cc1[nH]c2ccccc2c1[C@H](C(=O)OCCOCCOCCOC(=O)c1ccc(-c2c3nc(c(-c4ccccc4)c4ccc([nH]4)c(-c4ccccc4)c4nc(c(-c5ccccc5)c5ccc2[nH]5)C=C4)C=C3)cc1)[NH+]1CCN(C(=O)c2ccco2)CC1
REMARK SMILES IDX 18 1 17 2 16 3 15 4 14 5 12 6 13 7 11 8 10 9 1 10 2 11 3 12
REMARK SMILES IDX 4 13 9 15 5 16 8 17 6 18 7 19 74 20 75 21 86 22 76 24 85 25
REMARK SMILES IDX 77 26 78 27 79 28 80 29 81 30 84 31 82 32 83 33 19 34 20 35
REMARK SMILES IDX 21 36 22 37 23 38 24 39 25 40 26 41 27 42 73 43 28 44 72 45
REMARK SMILES IDX 29 46 30 47 31 48 66 49 32 50 71 51 65 52 67 53 33 54 70 55
REMARK SMILES IDX 64 56 63 57 34 59 56 60 41 61 55 62 42 63 45 64 54 65 68 66
REMARK SMILES IDX 43 67 44 68 53 70 69 71 46 72 35 73 36 74 40 75 37 76 39 77
REMARK SMILES IDX 38 78 57 79 58 80 62 81 59 82 61 83 60 84 47 85 48 86 52 87
REMARK SMILES IDX 49 88 51 89 50 90
REMARK H PARENT 3 14 74 23 67 58 45 69
REMARK Flexibility Score: inf
ROOT
ATOM      1  C   UNL A   1      34.335  31.352  27.965  1.00  0.00     0.188 C 
ENDROOT
BRANCH   1   2
ATOM      2  O   UNL A   1      33.077  31.302  27.314  1.00  0.00    -0.376 OA
BRANCH   2   3
ATOM      3  C   UNL A   1      32.508  30.062  26.924  1.00  0.00     0.202 C 
BRANCH   3   4
ATOM      4  C   UNL A   1      33.379  28.823  27.099  1.00  0.00     0.261 C 
BRANCH   4   5
ATOM      5  O   UNL A   1      32.638  27.604  26.890  1.00  0.00    -0.459 OA
BRANCH   5   6
ATOM      6  C   UNL A   1      32.596  27.106  25.634  1.00  0.00     0.370 C 
ATOM      7  O   UNL A   1      33.574  26.642  25.051  1.00  0.00    -0.245 OA
BRANCH   6   8
ATOM      8  C   UNL A   1      31.264  27.301  24.914  1.00  0.00     0.328 C 
BRANCH   8   9
ATOM      9  C   UNL A   1      31.174  28.219  23.667  1.00  0.00     0.049 A 
ATOM     10  C   UNL A   1      33.629  28.745  22.728  1.00  0.00     0.065 C 
ATOM     11  C   UNL A   1      32.154  28.806  22.854  1.00  0.00     0.022 A 
ATOM     12  N   UNL A   1      31.542  29.667  21.980  1.00  0.00    -0.358 N 
ATOM     13  C   UNL A   1      30.192  29.647  22.126  1.00  0.00     0.046 A 
ATOM     14  H   UNL A   1      32.021  30.228  21.329  1.00  0.00     0.166 HD
ATOM     15  C   UNL A   1      29.912  28.774  23.173  1.00  0.00     0.009 A 
ATOM     16  C   UNL A   1      29.224  30.355  21.405  1.00  0.00     0.027 A 
ATOM     17  C   UNL A   1      28.552  28.626  23.529  1.00  0.00     0.011 A 
ATOM     18  C   UNL A   1      27.893  30.161  21.759  1.00  0.00     0.002 A 
ATOM     19  C   UNL A   1      27.559  29.311  22.810  1.00  0.00     0.001 A 
ENDBRANCH   8   9
BRANCH   8  20
ATOM     20  N   UNL A   1      30.559  25.997  24.721  1.00  0.00    -0.316 N 
ATOM     21  C   UNL A   1      30.473  25.505  23.344  1.00  0.00     0.285 C 
ATOM     22  C   UNL A   1      31.026  24.908  25.599  1.00  0.00     0.285 C 
ATOM     23  H   UNL A   1      29.614  26.258  25.001  1.00  0.00     0.349 HD
ATOM     24  C   UNL A   1      31.705  24.774  22.785  1.00  0.00     0.181 C 
ATOM     25  C   UNL A   1      32.221  24.031  25.148  1.00  0.00     0.181 C 
ATOM     26  N   UNL A   1      32.467  23.929  23.707  1.00  0.00    -0.325 N 
ATOM     27  C   UNL A   1      33.646  23.356  23.175  1.00  0.00     0.289 C 
ATOM     28  O   UNL A   1      34.015  23.678  22.042  1.00  0.00    -0.265 OA
BRANCH  27  29
ATOM     29  C   UNL A   1      34.399  22.379  23.953  1.00  0.00     0.191 A 
ATOM     30  C   UNL A   1      35.616  22.408  24.614  1.00  0.00     0.056 A 
ATOM     31  O   UNL A   1      33.786  21.178  24.225  1.00  0.00    -0.459 OA
ATOM     32  C   UNL A   1      35.752  21.175  25.300  1.00  0.00     0.043 A 
ATOM     33  C   UNL A   1      34.610  20.462  25.031  1.00  0.00     0.196 A 
ENDBRANCH  27  29
ENDBRANCH   8  20
ENDBRANCH   6   8
ENDBRANCH   5   6
ENDBRANCH   4   5
ENDBRANCH   3   4
ENDBRANCH   2   3
ENDBRANCH   1   2
BRANCH   1  34
ATOM     34  C   UNL A   1      34.648  32.443  29.004  1.00  0.00     0.188 C 
BRANCH  34  35
ATOM     35  O   UNL A   1      35.214  33.694  28.629  1.00  0.00    -0.376 OA
BRANCH  35  36
ATOM     36  C   UNL A   1      34.406  34.859  28.595  1.00  0.00     0.202 C 
BRANCH  36  37
ATOM     37  C   UNL A   1      33.205  34.908  29.537  1.00  0.00     0.261 C 
BRANCH  37  38
ATOM     38  O   UNL A   1      33.367  35.855  30.597  1.00  0.00    -0.460 OA
BRANCH  38  39
ATOM     39  C   UNL A   1      32.964  35.414  31.811  1.00  0.00     0.338 C 
ATOM     40  O   UNL A   1      31.831  35.379  32.251  1.00  0.00    -0.246 OA
BRANCH  39  41
ATOM     41  C   UNL A   1      34.114  34.814  32.516  1.00  0.00     0.060 A 
ATOM     42  C   UNL A   1      35.344  35.482  32.446  1.00  0.00     0.016 A 
ATOM     43  C   UNL A   1      34.000  33.590  33.178  1.00  0.00     0.016 A 
ATOM     44  C   UNL A   1      36.486  34.884  32.961  1.00  0.00     0.010 A 
ATOM     45  C   UNL A   1      35.148  32.983  33.684  1.00  0.00     0.010 A 
ATOM     46  C   UNL A   1      36.398  33.602  33.518  1.00  0.00    -0.014 A 
BRANCH  46  47
ATOM     47  C   UNL A   1      37.636  32.817  33.693  1.00  0.00     0.031 A 
ATOM     48  C   UNL A   1      38.427  33.019  34.956  1.00  0.00     0.074 A 
ATOM     49  C   UNL A   1      38.013  31.914  32.775  1.00  0.00     0.049 A 
ATOM     50  N   UNL A   1      39.550  32.464  35.330  1.00  0.00    -0.248 NA
ATOM     51  C   UNL A   1      37.876  33.980  35.928  1.00  0.00     0.031 C 
ATOM     52  C   UNL A   1      37.286  31.601  31.545  1.00  0.00     0.029 A 
ATOM     53  N   UNL A   1      39.108  31.093  32.742  1.00  0.00    -0.354 N 
ATOM     54  C   UNL A   1      39.844  33.017  36.571  1.00  0.00     0.074 A 
ATOM     55  C   UNL A   1      38.805  33.974  36.872  1.00  0.00     0.031 C 
ATOM     56  C   UNL A   1      37.961  30.652  30.874  1.00  0.00     0.029 A 
ATOM     57  C   UNL A   1      39.180  30.322  31.610  1.00  0.00     0.049 A 
ATOM     58  H   UNL A   1      39.780  31.059  33.462  1.00  0.00     0.167 HD
ATOM     59  C   UNL A   1      40.888  32.746  37.390  1.00  0.00     0.031 A 
ATOM     60  C   UNL A   1      40.136  29.464  31.210  1.00  0.00     0.031 A 
ATOM     61  C   UNL A   1      41.926  31.803  37.070  1.00  0.00     0.049 A 
ATOM     62  C   UNL A   1      41.328  29.239  32.102  1.00  0.00     0.074 A 
ATOM     63  C   UNL A   1      43.029  31.445  37.823  1.00  0.00     0.029 A 
ATOM     64  N   UNL A   1      41.989  31.075  35.892  1.00  0.00    -0.354 N 
ATOM     65  N   UNL A   1      41.592  29.755  33.279  1.00  0.00    -0.248 NA
ATOM     66  C   UNL A   1      42.346  28.300  31.613  1.00  0.00     0.031 C 
ATOM     67  C   UNL A   1      43.793  30.546  37.071  1.00  0.00     0.029 A 
ATOM     68  C   UNL A   1      43.127  30.287  35.884  1.00  0.00     0.049 A 
ATOM     69  H   UNL A   1      41.321  31.111  35.168  1.00  0.00     0.167 HD
ATOM     70  C   UNL A   1      42.791  29.179  33.686  1.00  0.00     0.074 A 
ATOM     71  C   UNL A   1      43.186  28.261  32.636  1.00  0.00     0.031 C 
ATOM     72  C   UNL A   1      43.501  29.386  34.823  1.00  0.00     0.031 A 
BRANCH  59  73
ATOM     73  C   UNL A   1      40.974  33.513  38.681  1.00  0.00    -0.014 A 
ATOM     74  C   UNL A   1      40.465  32.993  39.882  1.00  0.00     0.009 A 
ATOM     75  C   UNL A   1      41.590  34.774  38.698  1.00  0.00     0.009 A 
ATOM     76  C   UNL A   1      40.538  33.736  41.064  1.00  0.00     0.001 A 
ATOM     77  C   UNL A   1      41.691  35.500  39.886  1.00  0.00     0.001 A 
ATOM     78  C   UNL A   1      41.156  34.986  41.066  1.00  0.00     0.000 A 
ENDBRANCH  59  73
BRANCH  60  79
ATOM     79  C   UNL A   1      40.014  28.767  29.902  1.00  0.00    -0.014 A 
ATOM     80  C   UNL A   1      39.470  27.476  29.824  1.00  0.00     0.009 A 
ATOM     81  C   UNL A   1      40.457  29.387  28.723  1.00  0.00     0.009 A 
ATOM     82  C   UNL A   1      39.400  26.810  28.598  1.00  0.00     0.001 A 
ATOM     83  C   UNL A   1      40.355  28.732  27.494  1.00  0.00     0.001 A 
ATOM     84  C   UNL A   1      39.837  27.440  27.434  1.00  0.00     0.000 A 
ENDBRANCH  60  79
BRANCH  72  85
ATOM     85  C   UNL A   1      44.752  28.570  35.003  1.00  0.00    -0.014 A 
ATOM     86  C   UNL A   1      44.721  27.296  35.592  1.00  0.00     0.009 A 
ATOM     87  C   UNL A   1      45.981  29.083  34.557  1.00  0.00     0.009 A 
ATOM     88  C   UNL A   1      45.903  26.577  35.780  1.00  0.00     0.001 A 
ATOM     89  C   UNL A   1      47.155  28.346  34.711  1.00  0.00     0.001 A 
ATOM     90  C   UNL A   1      47.117  27.100  35.336  1.00  0.00     0.000 A 
ENDBRANCH  72  85
ENDBRANCH  46  47
ENDBRANCH  39  41
ENDBRANCH  38  39
ENDBRANCH  37  38
ENDBRANCH  36  37
ENDBRANCH  35  36
ENDBRANCH  34  35
ENDBRANCH   1  34
TORSDOF 20
ENDMDL
MODEL 2
REMARK VINA RESULT:     -11.0      4.523      8.830
REMARK SMILES Cc1[nH]c2ccccc2c1[C@H](C(=O)OCCOCCOCCOC(=O)c1ccc(-c2c3nc(c(-c4ccccc4)c4ccc([nH]4)c(-c4ccccc4)c4nc(c(-c5ccccc5)c5ccc2[nH]5)C=C4)C=C3)cc1)[NH+]1CCN(C(=O)c2ccco2)CC1
REMARK SMILES IDX 18 1 17 2 16 3 15 4 14 5 12 6 13 7 11 8 10 9 1 10 2 11 3 12
REMARK SMILES IDX 4 13 9 15 5 16 8 17 6 18 7 19 74 20 75 21 86 22 76 24 85 25
REMARK SMILES IDX 77 26 78 27 79 28 80 29 81 30 84 31 82 32 83 33 19 34 20 35
REMARK SMILES IDX 21 36 22 37 23 38 24 39 25 40 26 41 27 42 73 43 28 44 72 45
REMARK SMILES IDX 29 46 30 47 31 48 66 49 32 50 71 51 65 52 67 53 33 54 70 55
REMARK SMILES IDX 64 56 63 57 34 59 56 60 41 61 55 62 42 63 45 64 54 65 68 66
REMARK SMILES IDX 43 67 44 68 53 70 69 71 46 72 35 73 36 74 40 75 37 76 39 77
REMARK SMILES IDX 38 78 57 79 58 80 62 81 59 82 61 83 60 84 47 85 48 86 52 87
REMARK SMILES IDX 49 88 51 89 50 90
REMARK H PARENT 3 14 74 23 67 58 45 69
REMARK Flexibility Score: inf
ROOT
ATOM      1  C   UNL A   1      35.123  32.904  28.006  1.00  0.00     0.188 C 
ENDROOT
BRANCH   1   2
ATOM      2  O   UNL A   1      34.388  31.801  27.503  1.00  0.00    -0.376 OA
BRANCH   2   3
ATOM      3  C   UNL A   1      34.923  30.487  27.552  1.00  0.00     0.202 C 
BRANCH   3   4
ATOM      4  C   UNL A   1      33.951  29.343  27.286  1.00  0.00     0.261 C 
BRANCH   4   5
ATOM      5  O   UNL A   1      33.683  29.173  25.879  1.00  0.00    -0.459 OA
BRANCH   5   6
ATOM      6  C   UNL A   1      32.737  28.274  25.528  1.00  0.00     0.370 C 
ATOM      7  O   UNL A   1      31.546  28.392  25.811  1.00  0.00    -0.245 OA
BRANCH   6   8
ATOM      8  C   UNL A   1      33.274  27.003  24.878  1.00  0.00     0.328 C 
BRANCH   8   9
ATOM      9  C   UNL A   1      32.960  25.614  25.495  1.00  0.00     0.049 A 
ATOM     10  C   UNL A   1      30.394  25.504  26.263  1.00  0.00     0.065 C 
ATOM     11  C   UNL A   1      31.802  25.079  26.077  1.00  0.00     0.022 A 
ATOM     12  N   UNL A   1      32.105  23.857  26.618  1.00  0.00    -0.358 N 
ATOM     13  C   UNL A   1      33.398  23.516  26.381  1.00  0.00     0.046 A 
ATOM     14  H   UNL A   1      31.466  23.298  27.115  1.00  0.00     0.166 HD
ATOM     15  C   UNL A   1      33.978  24.581  25.699  1.00  0.00     0.009 A 
ATOM     16  C   UNL A   1      34.073  22.344  26.739  1.00  0.00     0.027 A 
ATOM     17  C   UNL A   1      35.350  24.458  25.379  1.00  0.00     0.011 A 
ATOM     18  C   UNL A   1      35.413  22.241  26.380  1.00  0.00     0.002 A 
ATOM     19  C   UNL A   1      36.046  23.286  25.712  1.00  0.00     0.001 A 
ENDBRANCH   8   9
BRANCH   8  20
ATOM     20  N   UNL A   1      33.081  27.031  23.396  1.00  0.00    -0.316 N 
ATOM     21  C   UNL A   1      32.070  26.119  22.857  1.00  0.00     0.285 C 
ATOM     22  C   UNL A   1      32.877  28.375  22.827  1.00  0.00     0.285 C 
ATOM     23  H   UNL A   1      33.988  26.681  23.088  1.00  0.00     0.349 HD
ATOM     24  C   UNL A   1      30.605  26.580  22.926  1.00  0.00     0.181 C 
ATOM     25  C   UNL A   1      31.444  28.961  22.762  1.00  0.00     0.181 C 
ATOM     26  N   UNL A   1      30.334  28.005  22.729  1.00  0.00    -0.325 N 
ATOM     27  C   UNL A   1      28.985  28.398  22.898  1.00  0.00     0.289 C 
ATOM     28  O   UNL A   1      28.163  27.570  23.301  1.00  0.00    -0.265 OA
BRANCH  27  29
ATOM     29  C   UNL A   1      28.576  29.760  22.577  1.00  0.00     0.191 A 
ATOM     30  C   UNL A   1      28.214  30.859  23.338  1.00  0.00     0.056 A 
ATOM     31  O   UNL A   1      28.641  30.147  21.259  1.00  0.00    -0.459 OA
ATOM     32  C   UNL A   1      28.039  31.948  22.447  1.00  0.00     0.043 A 
ATOM     33  C   UNL A   1      28.312  31.462  21.193  1.00  0.00     0.196 A 
ENDBRANCH  27  29
ENDBRANCH   8  20
ENDBRANCH   6   8
ENDBRANCH   5   6
ENDBRANCH   4   5
ENDBRANCH   3   4
ENDBRANCH   2   3
ENDBRANCH   1   2
BRANCH   1  34
ATOM     34  C   UNL A   1      34.471  33.925  28.955  1.00  0.00     0.188 C 
BRANCH  34  35
ATOM     35  O   UNL A   1      35.052  34.259  30.210  1.00  0.00    -0.376 OA
BRANCH  35  36
ATOM     36  C   UNL A   1      34.541  33.691  31.405  1.00  0.00     0.202 C 
BRANCH  36  37
ATOM     37  C   UNL A   1      34.794  32.204  31.639  1.00  0.00     0.261 C 
BRANCH  37  38
ATOM     38  O   UNL A   1      35.651  31.954  32.758  1.00  0.00    -0.460 OA
BRANCH  38  39
ATOM     39  C   UNL A   1      36.870  32.535  32.672  1.00  0.00     0.338 C 
ATOM     40  O   UNL A   1      37.264  33.525  33.257  1.00  0.00    -0.246 OA
BRANCH  39  41
ATOM     41  C   UNL A   1      37.755  31.688  31.848  1.00  0.00     0.060 A 
ATOM     42  C   UNL A   1      38.699  30.891  32.509  1.00  0.00     0.016 A 
ATOM     43  C   UNL A   1      37.700  31.725  30.453  1.00  0.00     0.016 A 
ATOM     44  C   UNL A   1      39.652  30.196  31.777  1.00  0.00     0.010 A 
ATOM     45  C   UNL A   1      38.665  31.038  29.718  1.00  0.00     0.010 A 
ATOM     46  C   UNL A   1      39.676  30.327  30.384  1.00  0.00    -0.014 A 
BRANCH  46  47
ATOM     47  C   UNL A   1      40.897  29.928  29.654  1.00  0.00     0.031 A 
ATOM     48  C   UNL A   1      40.968  28.529  29.109  1.00  0.00     0.074 A 
ATOM     49  C   UNL A   1      41.888  30.807  29.441  1.00  0.00     0.049 A 
ATOM     50  N   UNL A   1      41.934  27.941  28.454  1.00  0.00    -0.248 NA
ATOM     51  C   UNL A   1      39.788  27.675  29.337  1.00  0.00     0.031 C 
ATOM     52  C   UNL A   1      41.891  32.204  29.876  1.00  0.00     0.029 A 
ATOM     53  N   UNL A   1      43.086  30.648  28.798  1.00  0.00    -0.354 N 
ATOM     54  C   UNL A   1      41.485  26.650  28.204  1.00  0.00     0.074 A 
ATOM     55  C   UNL A   1      40.177  26.527  28.805  1.00  0.00     0.031 C 
ATOM     56  C   UNL A   1      43.044  32.774  29.488  1.00  0.00     0.029 A 
ATOM     57  C   UNL A   1      43.868  31.775  28.812  1.00  0.00     0.049 A 
ATOM     58  H   UNL A   1      43.361  29.806  28.368  1.00  0.00     0.167 HD
ATOM     59  C   UNL A   1      42.106  25.655  27.527  1.00  0.00     0.031 A 
ATOM     60  C   UNL A   1      45.116  31.964  28.347  1.00  0.00     0.031 A 
ATOM     61  C   UNL A   1      43.416  25.786  26.947  1.00  0.00     0.049 A 
ATOM     62  C   UNL A   1      45.819  30.819  27.668  1.00  0.00     0.074 A 
ATOM     63  C   UNL A   1      44.144  24.848  26.238  1.00  0.00     0.029 A 
ATOM     64  N   UNL A   1      44.197  26.929  27.022  1.00  0.00    -0.354 N 
ATOM     65  N   UNL A   1      45.382  29.605  27.424  1.00  0.00    -0.248 NA
ATOM     66  C   UNL A   1      47.183  31.076  27.188  1.00  0.00     0.031 C 
ATOM     67  C   UNL A   1      45.391  25.405  25.938  1.00  0.00     0.029 A 
ATOM     68  C   UNL A   1      45.411  26.713  26.394  1.00  0.00     0.049 A 
ATOM     69  H   UNL A   1      43.927  27.771  27.457  1.00  0.00     0.167 HD
ATOM     70  C   UNL A   1      46.405  28.965  26.734  1.00  0.00     0.074 A 
ATOM     71  C   UNL A   1      47.472  29.934  26.583  1.00  0.00     0.031 C 
ATOM     72  C   UNL A   1      46.460  27.694  26.264  1.00  0.00     0.031 A 
BRANCH  59  73
ATOM     73  C   UNL A   1      41.392  24.336  27.422  1.00  0.00    -0.014 A 
ATOM     74  C   UNL A   1      41.823  23.206  28.135  1.00  0.00     0.009 A 
ATOM     75  C   UNL A   1      40.256  24.226  26.605  1.00  0.00     0.009 A 
ATOM     76  C   UNL A   1      41.154  21.986  28.003  1.00  0.00     0.001 A 
ATOM     77  C   UNL A   1      39.569  23.015  26.499  1.00  0.00     0.001 A 
ATOM     78  C   UNL A   1      40.025  21.893  27.190  1.00  0.00     0.000 A 
ENDBRANCH  59  73
BRANCH  60  79
ATOM     79  C   UNL A   1      45.785  33.280  28.519  1.00  0.00    -0.014 A 
ATOM     80  C   UNL A   1      45.694  34.268  27.527  1.00  0.00     0.009 A 
ATOM     81  C   UNL A   1      46.535  33.550  29.675  1.00  0.00     0.009 A 
ATOM     82  C   UNL A   1      46.362  35.486  27.676  1.00  0.00     0.001 A 
ATOM     83  C   UNL A   1      47.175  34.781  29.836  1.00  0.00     0.001 A 
ATOM     84  C   UNL A   1      47.098  35.743  28.832  1.00  0.00     0.000 A 
ENDBRANCH  60  79
BRANCH  72  85
ATOM     85  C   UNL A   1      47.699  27.300  25.506  1.00  0.00    -0.014 A 
ATOM     86  C   UNL A   1      47.789  27.451  24.113  1.00  0.00     0.009 A 
ATOM     87  C   UNL A   1      48.802  26.785  26.206  1.00  0.00     0.009 A 
ATOM     88  C   UNL A   1      48.937  27.042  23.432  1.00  0.00     0.001 A 
ATOM     89  C   UNL A   1      49.962  26.414  25.527  1.00  0.00     0.001 A 
ATOM     90  C   UNL A   1      50.023  26.529  24.139  1.00  0.00     0.000 A 
ENDBRANCH  72  85
ENDBRANCH  46  47
ENDBRANCH  39  41
ENDBRANCH  38  39
ENDBRANCH  37  38
ENDBRANCH  36  37
ENDBRANCH  35  36
ENDBRANCH  34  35
ENDBRANCH   1  34
TORSDOF 20
ENDMDL
MODEL 3
REMARK VINA RESULT:     -10.8      4.410      7.481
REMARK SMILES Cc1[nH]c2ccccc2c1[C@H](C(=O)OCCOCCOCCOC(=O)c1ccc(-c2c3nc(c(-c4ccccc4)c4ccc([nH]4)c(-c4ccccc4)c4nc(c(-c5ccccc5)c5ccc2[nH]5)C=C4)C=C3)cc1)[NH+]1CCN(C(=O)c2ccco2)CC1
REMARK SMILES IDX 18 1 17 2 16 3 15 4 14 5 12 6 13 7 11 8 10 9 1 10 2 11 3 12
REMARK SMILES IDX 4 13 9 15 5 16 8 17 6 18 7 19 74 20 75 21 86 22 76 24 85 25
REMARK SMILES IDX 77 26 78 27 79 28 80 29 81 30 84 31 82 32 83 33 19 34 20 35
REMARK SMILES IDX 21 36 22 37 23 38 24 39 25 40 26 41 27 42 73 43 28 44 72 45
REMARK SMILES IDX 29 46 30 47 31 48 66 49 32 50 71 51 65 52 67 53 33 54 70 55
REMARK SMILES IDX 64 56 63 57 34 59 56 60 41 61 55 62 42 63 45 64 54 65 68 66
REMARK SMILES IDX 43 67 44 68 53 70 69 71 46 72 35 73 36 74 40 75 37 76 39 77
REMARK SMILES IDX 38 78 57 79 58 80 62 81 59 82 61 83 60 84 47 85 48 86 52 87
REMARK SMILES IDX 49 88 51 89 50 90
REMARK H PARENT 3 14 74 23 67 58 45 69
REMARK Flexibility Score: inf
ROOT
ATOM      1  C   UNL A   1      34.097  32.501  27.952  1.00  0.00     0.188 C 
ENDROOT
BRANCH   1   2
ATOM      2  O   UNL A   1      34.556  31.192  27.662  1.00  0.00    -0.376 OA
BRANCH   2   3
ATOM      3  C   UNL A   1      33.706  30.243  27.037  1.00  0.00     0.202 C 
BRANCH   3   4
ATOM      4  C   UNL A   1      34.200  28.802  26.997  1.00  0.00     0.261 C 
BRANCH   4   5
ATOM      5  O   UNL A   1      34.162  28.251  25.664  1.00  0.00    -0.459 OA
BRANCH   5   6
ATOM      6  C   UNL A   1      33.325  27.214  25.441  1.00  0.00     0.370 C 
ATOM      7  O   UNL A   1      32.192  27.138  25.913  1.00  0.00    -0.245 OA
BRANCH   6   8
ATOM      8  C   UNL A   1      33.944  26.047  24.677  1.00  0.00     0.328 C 
BRANCH   8   9
ATOM      9  C   UNL A   1      33.852  24.604  25.239  1.00  0.00     0.049 A 
ATOM     10  C   UNL A   1      31.600  24.312  26.664  1.00  0.00     0.065 C 
ATOM     11  C   UNL A   1      32.913  23.972  26.068  1.00  0.00     0.022 A 
ATOM     12  N   UNL A   1      33.389  22.731  26.403  1.00  0.00    -0.358 N 
ATOM     13  C   UNL A   1      34.576  22.472  25.796  1.00  0.00     0.046 A 
ATOM     14  H   UNL A   1      32.928  22.106  27.008  1.00  0.00     0.166 HD
ATOM     15  C   UNL A   1      34.915  23.612  25.072  1.00  0.00     0.009 A 
ATOM     16  C   UNL A   1      35.357  21.314  25.860  1.00  0.00     0.027 A 
ATOM     17  C   UNL A   1      36.149  23.581  24.382  1.00  0.00     0.011 A 
ATOM     18  C   UNL A   1      36.548  21.304  25.142  1.00  0.00     0.002 A 
ATOM     19  C   UNL A   1      36.943  22.424  24.415  1.00  0.00     0.001 A 
ENDBRANCH   8   9
BRANCH   8  20
ATOM     20  N   UNL A   1      33.613  26.120  23.221  1.00  0.00    -0.316 N 
ATOM     21  C   UNL A   1      32.505  25.278  22.766  1.00  0.00     0.285 C 
ATOM     22  C   UNL A   1      33.434  27.486  22.697  1.00  0.00     0.285 C 
ATOM     23  H   UNL A   1      34.465  25.727  22.821  1.00  0.00     0.349 HD
ATOM     24  C   UNL A   1      31.082  25.818  22.983  1.00  0.00     0.181 C 
ATOM     25  C   UNL A   1      32.037  28.152  22.780  1.00  0.00     0.181 C 
ATOM     26  N   UNL A   1      30.876  27.260  22.837  1.00  0.00    -0.325 N 
ATOM     27  C   UNL A   1      29.574  27.724  23.142  1.00  0.00     0.289 C 
ATOM     28  O   UNL A   1      28.747  26.935  23.608  1.00  0.00    -0.265 OA
BRANCH  27  29
ATOM     29  C   UNL A   1      29.216  29.114  22.886  1.00  0.00     0.191 A 
ATOM     30  C   UNL A   1      29.476  30.309  23.535  1.00  0.00     0.056 A 
ATOM     31  O   UNL A   1      28.567  29.393  21.705  1.00  0.00    -0.459 OA
ATOM     32  C   UNL A   1      28.955  31.350  22.725  1.00  0.00     0.043 A 
ATOM     33  C   UNL A   1      28.413  30.738  21.622  1.00  0.00     0.196 A 
ENDBRANCH  27  29
ENDBRANCH   8  20
ENDBRANCH   6   8
ENDBRANCH   5   6
ENDBRANCH   4   5
ENDBRANCH   3   4
ENDBRANCH   2   3
ENDBRANCH   1   2
BRANCH   1  34
ATOM     34  C   UNL A   1      35.086  33.658  28.177  1.00  0.00     0.188 C 
BRANCH  34  35
ATOM     35  O   UNL A   1      35.140  34.368  29.409  1.00  0.00    -0.376 OA
BRANCH  35  36
ATOM     36  C   UNL A   1      34.182  34.111  30.422  1.00  0.00     0.202 C 
BRANCH  36  37
ATOM     37  C   UNL A   1      34.600  34.376  31.866  1.00  0.00     0.261 C 
BRANCH  37  38
ATOM     38  O   UNL A   1      35.992  34.135  32.097  1.00  0.00    -0.460 OA
BRANCH  38  39
ATOM     39  C   UNL A   1      36.298  32.848  32.383  1.00  0.00     0.338 C 
ATOM     40  O   UNL A   1      35.564  31.992  32.836  1.00  0.00    -0.246 OA
BRANCH  39  41
ATOM     41  C   UNL A   1      37.669  32.560  31.917  1.00  0.00     0.060 A 
ATOM     42  C   UNL A   1      38.063  33.090  30.681  1.00  0.00     0.016 A 
ATOM     43  C   UNL A   1      38.525  31.735  32.648  1.00  0.00     0.016 A 
ATOM     44  C   UNL A   1      39.284  32.724  30.129  1.00  0.00     0.010 A 
ATOM     45  C   UNL A   1      39.744  31.356  32.089  1.00  0.00     0.010 A 
ATOM     46  C   UNL A   1      40.092  31.801  30.803  1.00  0.00    -0.014 A 
BRANCH  46  47
ATOM     47  C   UNL A   1      41.167  31.118  30.055  1.00  0.00     0.031 A 
ATOM     48  C   UNL A   1      42.472  31.843  29.876  1.00  0.00     0.074 A 
ATOM     49  C   UNL A   1      40.998  29.869  29.595  1.00  0.00     0.049 A 
ATOM     50  N   UNL A   1      43.553  31.464  29.245  1.00  0.00    -0.248 NA
ATOM     51  C   UNL A   1      42.570  33.179  30.489  1.00  0.00     0.031 C 
ATOM     52  C   UNL A   1      39.793  29.058  29.767  1.00  0.00     0.029 A 
ATOM     53  N   UNL A   1      41.852  29.065  28.889  1.00  0.00    -0.354 N 
ATOM     54  C   UNL A   1      44.450  32.516  29.376  1.00  0.00     0.074 A 
ATOM     55  C   UNL A   1      43.781  33.563  30.114  1.00  0.00     0.031 C 
ATOM     56  C   UNL A   1      39.986  27.867  29.176  1.00  0.00     0.029 A 
ATOM     57  C   UNL A   1      41.309  27.850  28.557  1.00  0.00     0.049 A 
ATOM     58  H   UNL A   1      42.766  29.333  28.642  1.00  0.00     0.167 HD
ATOM     59  C   UNL A   1      45.724  32.601  28.926  1.00  0.00     0.031 A 
ATOM     60  C   UNL A   1      41.823  26.849  27.819  1.00  0.00     0.031 A 
ATOM     61  C   UNL A   1      46.374  31.558  28.177  1.00  0.00     0.049 A 
ATOM     62  C   UNL A   1      43.213  26.999  27.260  1.00  0.00     0.074 A 
ATOM     63  C   UNL A   1      47.661  31.531  27.672  1.00  0.00     0.029 A 
ATOM     64  N   UNL A   1      45.776  30.359  27.821  1.00  0.00    -0.354 N 
ATOM     65  N   UNL A   1      44.060  27.991  27.400  1.00  0.00    -0.248 NA
ATOM     66  C   UNL A   1      43.721  25.881  26.454  1.00  0.00     0.031 C 
ATOM     67  C   UNL A   1      47.820  30.341  26.955  1.00  0.00     0.029 A 
ATOM     68  C   UNL A   1      46.659  29.594  27.078  1.00  0.00     0.049 A 
ATOM     69  H   UNL A   1      44.860  30.090  28.062  1.00  0.00     0.167 HD
ATOM     70  C   UNL A   1      45.213  27.604  26.726  1.00  0.00     0.074 A 
ATOM     71  C   UNL A   1      44.959  26.279  26.198  1.00  0.00     0.031 C 
ATOM     72  C   UNL A   1      46.378  28.279  26.559  1.00  0.00     0.031 A 
BRANCH  59  73
ATOM     73  C   UNL A   1      46.472  33.878  29.194  1.00  0.00    -0.014 A 
ATOM     74  C   UNL A   1      47.127  34.106  30.415  1.00  0.00     0.009 A 
ATOM     75  C   UNL A   1      46.534  34.866  28.199  1.00  0.00     0.009 A 
ATOM     76  C   UNL A   1      47.796  35.311  30.646  1.00  0.00     0.001 A 
ATOM     77  C   UNL A   1      47.231  36.056  28.420  1.00  0.00     0.001 A 
ATOM     78  C   UNL A   1      47.852  36.282  29.647  1.00  0.00     0.000 A 
ENDBRANCH  59  73
BRANCH  60  79
ATOM     79  C   UNL A   1      41.018  25.628  27.554  1.00  0.00    -0.014 A 
ATOM     80  C   UNL A   1      39.939  25.659  26.658  1.00  0.00     0.009 A 
ATOM     81  C   UNL A   1      41.316  24.423  28.211  1.00  0.00     0.009 A 
ATOM     82  C   UNL A   1      39.159  24.519  26.448  1.00  0.00     0.001 A 
ATOM     83  C   UNL A   1      40.556  23.277  27.973  1.00  0.00     0.001 A 
ATOM     84  C   UNL A   1      39.471  23.328  27.101  1.00  0.00     0.000 A 
ENDBRANCH  60  79
BRANCH  72  85
ATOM     85  C   UNL A   1      47.475  27.570  25.811  1.00  0.00    -0.014 A 
ATOM     86  C   UNL A   1      47.555  27.609  24.411  1.00  0.00     0.009 A 
ATOM     87  C   UNL A   1      48.454  26.865  26.529  1.00  0.00     0.009 A 
ATOM     88  C   UNL A   1      48.563  26.911  23.743  1.00  0.00     0.001 A 
ATOM     89  C   UNL A   1      49.482  26.200  25.861  1.00  0.00     0.001 A 
ATOM     90  C   UNL A   1      49.527  26.211  24.467  1.00  0.00     0.000 A 
ENDBRANCH  72  85
ENDBRANCH  46  47
ENDBRANCH  39  41
ENDBRANCH  38  39
ENDBRANCH  37  38
ENDBRANCH  36  37
ENDBRANCH  35  36
ENDBRANCH  34  35
ENDBRANCH   1  34
TORSDOF 20
ENDMDL
