MODEL 1
REMARK VINA RESULT:     -10.2      0.000      0.000
REMARK SMILES Cc1ccc(S(=O)(=O)n2cc(C(=O)C(=O)N[C@H](Cc3c[nH]c4ccccc34)C(=O)NCC(=O)OCCOCCOCCOC(=O)c3ccc(-c4c5nc(c(-c6ccccc6)c6ccc([nH]6)c(-c6ccccc6)c6nc(c(-c7ccccc7)c7ccc4[nH]7)C=C6)C=C5)cc3)c3ccccc32)cc1
REMARK SMILES IDX 36 1 35 2 34 3 32 4 33 5 31 6 30 7 28 8 29 9 17 11 16 12
REMARK SMILES IDX 14 13 15 14 12 16 13 17 11 18 9 19 10 20 99 21 94 22 98 23
REMARK SMILES IDX 95 24 97 25 96 26 6 27 7 28 8 29 5 30 1 31 2 32 3 33 101 34
REMARK SMILES IDX 4 35 100 36 18 37 19 38 20 39 27 40 21 41 22 42 26 43 23 45
REMARK SMILES IDX 25 46 24 47 37 48 38 49 39 50 40 51 41 52 42 53 43 54 44 55
REMARK SMILES IDX 45 56 46 57 47 58 93 59 48 60 92 61 49 62 50 63 51 64 86 65
REMARK SMILES IDX 52 66 91 67 85 68 87 69 53 70 90 71 84 72 83 73 54 75 76 76
REMARK SMILES IDX 61 77 75 78 62 79 65 80 74 81 88 82 63 83 64 84 73 86 89 87
REMARK SMILES IDX 66 88 55 89 56 90 60 91 57 92 59 93 58 94 77 95 78 96 82 97
REMARK SMILES IDX 79 98 81 99 80 100 67 101 68 102 72 103 69 104 71 105 70 106
REMARK H PARENT 30 10 16 15 21 44 87 74 65 85
REMARK Flexibility Score: inf
ROOT
ATOM      1  C   UNL A   1      31.223  26.081  25.599  1.00  0.00     0.202 C 
ENDROOT
BRANCH   1   2
ATOM      2  C   UNL A   1      32.462  25.178  25.629  1.00  0.00     0.261 C 
BRANCH   2   3
ATOM      3  O   UNL A   1      33.403  25.172  24.491  1.00  0.00    -0.462 OA
BRANCH   3   4
ATOM      4  C   UNL A   1      33.746  24.033  23.784  1.00  0.00     0.325 C 
ATOM      5  O   UNL A   1      32.925  23.358  23.165  1.00  0.00    -0.250 OA
BRANCH   4   6
ATOM      6  C   UNL A   1      35.341  23.683  23.832  1.00  0.00     0.238 C 
BRANCH   6   7
ATOM      7  N   UNL A   1      36.347  23.846  24.953  1.00  0.00    -0.343 N 
ATOM      8  C   UNL A   1      37.314  23.068  25.579  1.00  0.00     0.243 C 
ATOM      9  O   UNL A   1      37.955  23.690  26.447  1.00  0.00    -0.273 OA
ATOM     10  H   UNL A   1      36.304  24.748  25.346  1.00  0.00     0.164 HD
BRANCH   8  11
ATOM     11  C   UNL A   1      37.597  21.448  25.515  1.00  0.00     0.176 C 
BRANCH  11  12
ATOM     12  N   UNL A   1      39.029  20.984  25.261  1.00  0.00    -0.337 N 
ATOM     13  C   UNL A   1      39.775  19.864  25.671  1.00  0.00     0.293 C 
ATOM     14  O   UNL A   1      39.245  18.755  25.650  1.00  0.00    -0.265 OA
ATOM     15  H   UNL A   1      39.540  21.600  24.689  1.00  0.00     0.164 HD
BRANCH  13  16
ATOM     16  C   UNL A   1      41.382  20.020  25.849  1.00  0.00     0.252 C 
ATOM     17  O   UNL A   1      41.733  18.859  26.144  1.00  0.00    -0.283 OA
BRANCH  16  18
ATOM     18  C   UNL A   1      42.488  21.360  25.882  1.00  0.00     0.054 A 
ATOM     19  N   UNL A   1      42.726  23.575  26.596  1.00  0.00    -0.240 N 
ATOM     20  C   UNL A   1      41.940  22.512  26.324  1.00  0.00     0.117 A 
ATOM     21  C   UNL A   1      43.960  23.273  26.026  1.00  0.00     0.065 A 
ATOM     22  C   UNL A   1      43.900  21.939  25.557  1.00  0.00     0.012 A 
ATOM     23  C   UNL A   1      45.080  24.123  25.814  1.00  0.00     0.028 A 
ATOM     24  C   UNL A   1      45.101  21.575  24.828  1.00  0.00     0.011 A 
ATOM     25  C   UNL A   1      46.176  23.703  25.090  1.00  0.00     0.002 A 
ATOM     26  C   UNL A   1      46.189  22.429  24.595  1.00  0.00     0.001 A 
BRANCH  19  27
ATOM     27  S   UNL A   1      42.482  25.246  27.015  1.00  0.00     0.268 S 
ATOM     28  O   UNL A   1      43.096  25.900  25.859  1.00  0.00    -0.201 OA
ATOM     29  O   UNL A   1      43.170  25.289  28.306  1.00  0.00    -0.201 OA
BRANCH  27  30
ATOM     30  C   UNL A   1      41.143  26.370  27.395  1.00  0.00     0.088 A 
ATOM     31  C   UNL A   1      38.551  29.851  27.906  1.00  0.00     0.044 C 
ATOM     32  C   UNL A   1      39.408  28.633  27.721  1.00  0.00    -0.051 A 
ATOM     33  C   UNL A   1      40.470  28.689  26.831  1.00  0.00     0.005 A 
ATOM     34  C   UNL A   1      39.237  27.460  28.468  1.00  0.00     0.005 A 
ATOM     35  C   UNL A   1      41.296  27.578  26.665  1.00  0.00     0.022 A 
ATOM     36  C   UNL A   1      40.126  26.359  28.339  1.00  0.00     0.022 A 
ENDBRANCH  27  30
ENDBRANCH  19  27
ENDBRANCH  16  18
ENDBRANCH  13  16
ENDBRANCH  11  12
BRANCH  11  37
ATOM     37  C   UNL A   1      36.346  20.722  24.759  1.00  0.00     0.072 C 
BRANCH  37  38
ATOM     38  C   UNL A   1      34.852  20.157  24.961  1.00  0.00    -0.020 A 
ATOM     39  C   UNL A   1      33.868  20.730  25.776  1.00  0.00     0.087 A 
ATOM     40  C   UNL A   1      34.283  18.845  24.715  1.00  0.00     0.003 A 
ATOM     41  N   UNL A   1      32.904  19.853  26.147  1.00  0.00    -0.361 N 
ATOM     42  C   UNL A   1      33.167  18.664  25.558  1.00  0.00     0.046 A 
ATOM     43  C   UNL A   1      34.630  17.749  23.912  1.00  0.00     0.010 A 
ATOM     44  H   UNL A   1      32.144  20.047  26.743  1.00  0.00     0.166 HD
ATOM     45  C   UNL A   1      32.478  17.466  25.743  1.00  0.00     0.026 A 
ATOM     46  C   UNL A   1      33.894  16.553  24.019  1.00  0.00     0.001 A 
ATOM     47  C   UNL A   1      32.865  16.401  24.949  1.00  0.00     0.002 A 
ENDBRANCH  37  38
ENDBRANCH  11  37
ENDBRANCH   8  11
ENDBRANCH   6   7
ENDBRANCH   4   6
ENDBRANCH   3   4
ENDBRANCH   2   3
ENDBRANCH   1   2
BRANCH   1  48
ATOM     48  O   UNL A   1      31.474  27.283  26.281  1.00  0.00    -0.376 OA
BRANCH  48  49
ATOM     49  C   UNL A   1      31.757  28.392  25.435  1.00  0.00     0.188 C 
BRANCH  49  50
ATOM     50  C   UNL A   1      33.200  28.916  25.373  1.00  0.00     0.188 C 
BRANCH  50  51
ATOM     51  O   UNL A   1      33.996  28.377  26.440  1.00  0.00    -0.376 OA
BRANCH  51  52
ATOM     52  C   UNL A   1      34.198  29.189  27.588  1.00  0.00     0.202 C 
BRANCH  52  53
ATOM     53  C   UNL A   1      34.162  30.689  27.280  1.00  0.00     0.261 C 
BRANCH  53  54
ATOM     54  O   UNL A   1      35.466  31.222  27.576  1.00  0.00    -0.460 OA
BRANCH  54  55
ATOM     55  C   UNL A   1      35.433  32.463  28.113  1.00  0.00     0.338 C 
ATOM     56  O   UNL A   1      34.838  33.418  27.635  1.00  0.00    -0.246 OA
BRANCH  55  57
ATOM     57  C   UNL A   1      36.437  32.554  29.218  1.00  0.00     0.060 A 
ATOM     58  C   UNL A   1      37.554  33.293  28.969  1.00  0.00     0.016 A 
ATOM     59  C   UNL A   1      36.462  31.751  30.376  1.00  0.00     0.016 A 
ATOM     60  C   UNL A   1      38.686  33.060  29.776  1.00  0.00     0.010 A 
ATOM     61  C   UNL A   1      37.670  31.511  31.143  1.00  0.00     0.010 A 
ATOM     62  C   UNL A   1      38.890  32.124  30.831  1.00  0.00    -0.014 A 
BRANCH  62  63
ATOM     63  C   UNL A   1      40.377  31.834  31.479  1.00  0.00     0.031 A 
ATOM     64  C   UNL A   1      41.328  30.502  30.962  1.00  0.00     0.074 A 
ATOM     65  C   UNL A   1      40.925  32.757  32.427  1.00  0.00     0.049 A 
ATOM     66  N   UNL A   1      42.620  30.577  30.768  1.00  0.00    -0.248 NA
ATOM     67  C   UNL A   1      41.050  29.048  30.859  1.00  0.00     0.031 C 
ATOM     68  C   UNL A   1      41.524  34.096  32.159  1.00  0.00     0.029 A 
ATOM     69  N   UNL A   1      41.160  32.756  33.849  1.00  0.00    -0.354 N 
ATOM     70  C   UNL A   1      43.298  29.388  30.667  1.00  0.00     0.074 A 
ATOM     71  C   UNL A   1      42.226  28.432  30.682  1.00  0.00     0.031 C 
ATOM     72  C   UNL A   1      41.904  34.746  33.298  1.00  0.00     0.029 A 
ATOM     73  C   UNL A   1      41.736  33.876  34.453  1.00  0.00     0.049 A 
ATOM     74  H   UNL A   1      40.916  31.971  34.391  1.00  0.00     0.167 HD
ATOM     75  C   UNL A   1      44.624  29.085  30.917  1.00  0.00     0.031 A 
ATOM     76  C   UNL A   1      42.086  34.122  35.771  1.00  0.00     0.031 A 
ATOM     77  C   UNL A   1      45.472  29.784  31.997  1.00  0.00     0.049 A 
ATOM     78  C   UNL A   1      43.075  33.118  36.515  1.00  0.00     0.074 A 
ATOM     79  C   UNL A   1      46.561  30.652  32.040  1.00  0.00     0.029 A 
ATOM     80  N   UNL A   1      45.285  29.548  33.399  1.00  0.00    -0.354 N 
ATOM     81  N   UNL A   1      44.289  32.830  36.069  1.00  0.00    -0.248 NA
ATOM     82  C   UNL A   1      42.882  32.346  37.746  1.00  0.00     0.031 C 
ATOM     83  C   UNL A   1      46.836  31.059  33.423  1.00  0.00     0.029 A 
ATOM     84  C   UNL A   1      45.869  30.529  34.280  1.00  0.00     0.049 A 
ATOM     85  H   UNL A   1      44.788  28.768  33.739  1.00  0.00     0.167 HD
ATOM     86  C   UNL A   1      44.687  31.536  36.476  1.00  0.00     0.074 A 
ATOM     87  C   UNL A   1      43.896  31.439  37.710  1.00  0.00     0.031 C 
ATOM     88  C   UNL A   1      45.516  30.597  35.804  1.00  0.00     0.031 A 
BRANCH  75  89
ATOM     89  C   UNL A   1      45.202  28.310  29.707  1.00  0.00    -0.014 A 
ATOM     90  C   UNL A   1      46.256  27.405  29.876  1.00  0.00     0.009 A 
ATOM     91  C   UNL A   1      44.825  28.542  28.352  1.00  0.00     0.009 A 
ATOM     92  C   UNL A   1      46.886  26.785  28.779  1.00  0.00     0.001 A 
ATOM     93  C   UNL A   1      45.432  27.914  27.257  1.00  0.00     0.001 A 
ATOM     94  C   UNL A   1      46.472  27.033  27.473  1.00  0.00     0.000 A 
ENDBRANCH  75  89
BRANCH  76  95
ATOM     95  C   UNL A   1      40.918  34.842  36.407  1.00  0.00    -0.014 A 
ATOM     96  C   UNL A   1      39.827  34.077  36.880  1.00  0.00     0.009 A 
ATOM     97  C   UNL A   1      41.044  36.149  36.908  1.00  0.00     0.009 A 
ATOM     98  C   UNL A   1      39.013  34.529  37.931  1.00  0.00     0.001 A 
ATOM     99  C   UNL A   1      40.217  36.605  37.952  1.00  0.00     0.001 A 
ATOM    100  C   UNL A   1      39.234  35.779  38.494  1.00  0.00     0.000 A 
ENDBRANCH  76  95
BRANCH  88 101
ATOM    101  C   UNL A   1      46.289  29.588  36.632  1.00  0.00    -0.014 A 
ATOM    102  C   UNL A   1      45.651  28.542  37.314  1.00  0.00     0.009 A 
ATOM    103  C   UNL A   1      47.624  29.864  36.995  1.00  0.00     0.009 A 
ATOM    104  C   UNL A   1      46.318  27.808  38.303  1.00  0.00     0.001 A 
ATOM    105  C   UNL A   1      48.276  29.167  38.011  1.00  0.00     0.001 A 
ATOM    106  C   UNL A   1      47.622  28.134  38.663  1.00  0.00     0.000 A 
ENDBRANCH  88 101
ENDBRANCH  62  63
ENDBRANCH  55  57
ENDBRANCH  54  55
ENDBRANCH  53  54
ENDBRANCH  52  53
ENDBRANCH  51  52
ENDBRANCH  50  51
ENDBRANCH  49  50
ENDBRANCH  48  49
ENDBRANCH   1  48
TORSDOF 26
ENDMDL
MODEL 2
REMARK VINA RESULT:     -10.0      1.614      2.372
REMARK SMILES Cc1ccc(S(=O)(=O)n2cc(C(=O)C(=O)N[C@H](Cc3c[nH]c4ccccc34)C(=O)NCC(=O)OCCOCCOCCOC(=O)c3ccc(-c4c5nc(c(-c6ccccc6)c6ccc([nH]6)c(-c6ccccc6)c6nc(c(-c7ccccc7)c7ccc4[nH]7)C=C6)C=C5)cc3)c3ccccc32)cc1
REMARK SMILES IDX 36 1 35 2 34 3 32 4 33 5 31 6 30 7 28 8 29 9 17 11 16 12
REMARK SMILES IDX 14 13 15 14 12 16 13 17 11 18 9 19 10 20 99 21 94 22 98 23
REMARK SMILES IDX 95 24 97 25 96 26 6 27 7 28 8 29 5 30 1 31 2 32 3 33 101 34
REMARK SMILES IDX 4 35 100 36 18 37 19 38 20 39 27 40 21 41 22 42 26 43 23 45
REMARK SMILES IDX 25 46 24 47 37 48 38 49 39 50 40 51 41 52 42 53 43 54 44 55
REMARK SMILES IDX 45 56 46 57 47 58 93 59 48 60 92 61 49 62 50 63 51 64 86 65
REMARK SMILES IDX 52 66 91 67 85 68 87 69 53 70 90 71 84 72 83 73 54 75 76 76
REMARK SMILES IDX 61 77 75 78 62 79 65 80 74 81 88 82 63 83 64 84 73 86 89 87
REMARK SMILES IDX 66 88 55 89 56 90 60 91 57 92 59 93 58 94 77 95 78 96 82 97
REMARK SMILES IDX 79 98 81 99 80 100 67 101 68 102 72 103 69 104 71 105 70 106
REMARK H PARENT 30 10 16 15 21 44 87 74 65 85
REMARK Flexibility Score: inf
ROOT
ATOM      1  C   UNL A   1      30.437  25.183  24.812  1.00  0.00     0.202 C 
ENDROOT
BRANCH   1   2
ATOM      2  C   UNL A   1      31.652  24.352  24.383  1.00  0.00     0.261 C 
BRANCH   2   3
ATOM      3  O   UNL A   1      32.378  24.687  23.142  1.00  0.00    -0.462 OA
BRANCH   3   4
ATOM      4  C   UNL A   1      33.515  24.025  22.715  1.00  0.00     0.325 C 
ATOM      5  O   UNL A   1      33.605  23.495  21.608  1.00  0.00    -0.250 OA
BRANCH   4   6
ATOM      6  C   UNL A   1      34.731  24.030  23.806  1.00  0.00     0.238 C 
BRANCH   6   7
ATOM      7  N   UNL A   1      34.701  23.821  25.307  1.00  0.00    -0.343 N 
ATOM      8  C   UNL A   1      35.407  23.081  26.250  1.00  0.00     0.243 C 
ATOM      9  O   UNL A   1      35.034  23.297  27.418  1.00  0.00    -0.273 OA
ATOM     10  H   UNL A   1      33.988  24.353  25.730  1.00  0.00     0.164 HD
BRANCH   8  11
ATOM     11  C   UNL A   1      36.476  21.844  26.064  1.00  0.00     0.176 C 
BRANCH  11  12
ATOM     12  N   UNL A   1      37.965  22.181  26.070  1.00  0.00    -0.337 N 
ATOM     13  C   UNL A   1      39.137  21.404  26.097  1.00  0.00     0.293 C 
ATOM     14  O   UNL A   1      39.205  20.404  25.384  1.00  0.00    -0.265 OA
ATOM     15  H   UNL A   1      38.143  23.148  26.053  1.00  0.00     0.164 HD
BRANCH  13  16
ATOM     16  C   UNL A   1      40.462  22.016  26.810  1.00  0.00     0.252 C 
ATOM     17  O   UNL A   1      40.359  21.589  27.979  1.00  0.00    -0.283 OA
BRANCH  16  18
ATOM     18  C   UNL A   1      41.696  23.144  26.341  1.00  0.00     0.054 A 
ATOM     19  N   UNL A   1      42.200  25.425  26.214  1.00  0.00    -0.240 N 
ATOM     20  C   UNL A   1      41.296  24.433  26.355  1.00  0.00     0.117 A 
ATOM     21  C   UNL A   1      43.360  24.802  25.763  1.00  0.00     0.065 A 
ATOM     22  C   UNL A   1      43.137  23.405  25.800  1.00  0.00     0.012 A 
ATOM     23  C   UNL A   1      44.544  25.388  25.237  1.00  0.00     0.028 A 
ATOM     24  C   UNL A   1      44.248  22.671  25.222  1.00  0.00     0.011 A 
ATOM     25  C   UNL A   1      45.546  24.616  24.687  1.00  0.00     0.002 A 
ATOM     26  C   UNL A   1      45.400  23.257  24.677  1.00  0.00     0.001 A 
BRANCH  19  27
ATOM     27  S   UNL A   1      42.151  27.153  26.016  1.00  0.00     0.268 S 
ATOM     28  O   UNL A   1      40.836  27.447  26.584  1.00  0.00    -0.201 OA
ATOM     29  O   UNL A   1      42.339  27.249  24.568  1.00  0.00    -0.201 OA
BRANCH  27  30
ATOM     30  C   UNL A   1      43.084  28.602  26.497  1.00  0.00     0.088 A 
ATOM     31  C   UNL A   1      46.087  31.402  27.993  1.00  0.00     0.044 C 
ATOM     32  C   UNL A   1      45.047  30.467  27.449  1.00  0.00    -0.051 A 
ATOM     33  C   UNL A   1      45.409  29.161  27.155  1.00  0.00     0.005 A 
ATOM     34  C   UNL A   1      43.702  30.828  27.296  1.00  0.00     0.005 A 
ATOM     35  C   UNL A   1      44.452  28.266  26.675  1.00  0.00     0.022 A 
ATOM     36  C   UNL A   1      42.724  29.889  26.871  1.00  0.00     0.022 A 
ENDBRANCH  27  30
ENDBRANCH  19  27
ENDBRANCH  16  18
ENDBRANCH  13  16
ENDBRANCH  11  12
BRANCH  11  37
ATOM     37  C   UNL A   1      35.873  20.782  24.981  1.00  0.00     0.072 C 
BRANCH  37  38
ATOM     38  C   UNL A   1      34.562  19.942  24.570  1.00  0.00    -0.020 A 
ATOM     39  C   UNL A   1      33.263  20.458  24.468  1.00  0.00     0.087 A 
ATOM     40  C   UNL A   1      34.297  18.515  24.577  1.00  0.00     0.003 A 
ATOM     41  N   UNL A   1      32.302  19.509  24.579  1.00  0.00    -0.361 N 
ATOM     42  C   UNL A   1      32.909  18.307  24.711  1.00  0.00     0.046 A 
ATOM     43  C   UNL A   1      35.092  17.360  24.553  1.00  0.00     0.010 A 
ATOM     44  H   UNL A   1      31.330  19.668  24.568  1.00  0.00     0.166 HD
ATOM     45  C   UNL A   1      32.293  17.079  24.943  1.00  0.00     0.026 A 
ATOM     46  C   UNL A   1      34.483  16.099  24.701  1.00  0.00     0.001 A 
ATOM     47  C   UNL A   1      33.114  15.965  24.935  1.00  0.00     0.002 A 
ENDBRANCH  37  38
ENDBRANCH  11  37
ENDBRANCH   8  11
ENDBRANCH   6   7
ENDBRANCH   4   6
ENDBRANCH   3   4
ENDBRANCH   2   3
ENDBRANCH   1   2
BRANCH   1  48
ATOM     48  O   UNL A   1      30.849  26.385  25.411  1.00  0.00    -0.376 OA
BRANCH  48  49
ATOM     49  C   UNL A   1      30.781  27.521  24.557  1.00  0.00     0.188 C 
BRANCH  49  50
ATOM     50  C   UNL A   1      32.088  28.074  23.968  1.00  0.00     0.188 C 
BRANCH  50  51
ATOM     51  O   UNL A   1      33.160  28.002  24.922  1.00  0.00    -0.376 OA
BRANCH  51  52
ATOM     52  C   UNL A   1      33.526  29.198  25.596  1.00  0.00     0.202 C 
BRANCH  52  53
ATOM     53  C   UNL A   1      33.784  28.992  27.091  1.00  0.00     0.261 C 
BRANCH  53  54
ATOM     54  O   UNL A   1      35.166  29.312  27.339  1.00  0.00    -0.460 OA
BRANCH  54  55
ATOM     55  C   UNL A   1      35.356  30.576  27.782  1.00  0.00     0.338 C 
ATOM     56  O   UNL A   1      34.525  31.470  27.729  1.00  0.00    -0.246 OA
BRANCH  55  57
ATOM     57  C   UNL A   1      36.804  30.779  28.096  1.00  0.00     0.060 A 
ATOM     58  C   UNL A   1      37.627  29.711  27.901  1.00  0.00     0.016 A 
ATOM     59  C   UNL A   1      37.348  31.868  28.808  1.00  0.00     0.016 A 
ATOM     60  C   UNL A   1      38.868  29.711  28.570  1.00  0.00     0.010 A 
ATOM     61  C   UNL A   1      38.613  31.795  29.515  1.00  0.00     0.010 A 
ATOM     62  C   UNL A   1      39.427  30.655  29.480  1.00  0.00    -0.014 A 
BRANCH  62  63
ATOM     63  C   UNL A   1      40.788  30.342  30.353  1.00  0.00     0.031 A 
ATOM     64  C   UNL A   1      41.687  28.900  30.110  1.00  0.00     0.074 A 
ATOM     65  C   UNL A   1      41.280  31.326  31.269  1.00  0.00     0.049 A 
ATOM     66  N   UNL A   1      42.996  28.867  30.090  1.00  0.00    -0.248 NA
ATOM     67  C   UNL A   1      41.310  27.465  30.117  1.00  0.00     0.031 C 
ATOM     68  C   UNL A   1      42.016  32.584  30.953  1.00  0.00     0.029 A 
ATOM     69  N   UNL A   1      41.328  31.467  32.702  1.00  0.00    -0.354 N 
ATOM     70  C   UNL A   1      43.583  27.632  30.204  1.00  0.00     0.074 A 
ATOM     71  C   UNL A   1      42.444  26.757  30.168  1.00  0.00     0.031 C 
ATOM     72  C   UNL A   1      42.295  33.330  32.061  1.00  0.00     0.029 A 
ATOM     73  C   UNL A   1      41.908  32.607  33.264  1.00  0.00     0.049 A 
ATOM     74  H   UNL A   1      40.952  30.765  33.282  1.00  0.00     0.167 HD
ATOM     75  C   UNL A   1      44.836  27.272  30.664  1.00  0.00     0.031 A 
ATOM     76  C   UNL A   1      42.101  32.974  34.585  1.00  0.00     0.031 A 
ATOM     77  C   UNL A   1      45.590  28.028  31.775  1.00  0.00     0.049 A 
ATOM     78  C   UNL A   1      42.901  31.995  35.557  1.00  0.00     0.074 A 
ATOM     79  C   UNL A   1      46.730  28.822  31.880  1.00  0.00     0.029 A 
ATOM     80  N   UNL A   1      45.203  27.963  33.154  1.00  0.00    -0.354 N 
ATOM     81  N   UNL A   1      44.136  31.580  35.314  1.00  0.00    -0.248 NA
ATOM     82  C   UNL A   1      42.488  31.380  36.822  1.00  0.00     0.031 C 
ATOM     83  C   UNL A   1      46.855  29.361  33.239  1.00  0.00     0.029 A 
ATOM     84  C   UNL A   1      45.745  28.994  34.003  1.00  0.00     0.049 A 
ATOM     85  H   UNL A   1      44.605  27.260  33.499  1.00  0.00     0.167 HD
ATOM     86  C   UNL A   1      44.372  30.316  35.902  1.00  0.00     0.074 A 
ATOM     87  C   UNL A   1      43.421  30.409  37.018  1.00  0.00     0.031 C 
ATOM     88  C   UNL A   1      45.202  29.255  35.449  1.00  0.00     0.031 A 
BRANCH  75  89
ATOM     89  C   UNL A   1      45.503  26.330  29.631  1.00  0.00    -0.014 A 
ATOM     90  C   UNL A   1      44.967  25.065  29.368  1.00  0.00     0.009 A 
ATOM     91  C   UNL A   1      46.746  26.598  28.987  1.00  0.00     0.009 A 
ATOM     92  C   UNL A   1      45.623  24.139  28.533  1.00  0.00     0.001 A 
ATOM     93  C   UNL A   1      47.394  25.692  28.138  1.00  0.00     0.001 A 
ATOM     94  C   UNL A   1      46.830  24.453  27.914  1.00  0.00     0.000 A 
ENDBRANCH  75  89
BRANCH  76  95
ATOM     95  C   UNL A   1      40.923  33.836  34.978  1.00  0.00    -0.014 A 
ATOM     96  C   UNL A   1      40.003  33.334  35.927  1.00  0.00     0.009 A 
ATOM     97  C   UNL A   1      40.924  35.225  34.768  1.00  0.00     0.009 A 
ATOM     98  C   UNL A   1      39.253  34.189  36.750  1.00  0.00     0.001 A 
ATOM     99  C   UNL A   1      40.161  36.081  35.584  1.00  0.00     0.001 A 
ATOM    100  C   UNL A   1      39.362  35.566  36.604  1.00  0.00     0.000 A 
ENDBRANCH  76  95
BRANCH  88 101
ATOM    101  C   UNL A   1      45.778  28.296  36.474  1.00  0.00    -0.014 A 
ATOM    102  C   UNL A   1      47.129  28.334  36.850  1.00  0.00     0.009 A 
ATOM    103  C   UNL A   1      45.049  27.143  36.834  1.00  0.00     0.009 A 
ATOM    104  C   UNL A   1      47.715  27.274  37.554  1.00  0.00     0.001 A 
ATOM    105  C   UNL A   1      45.640  26.067  37.494  1.00  0.00     0.001 A 
ATOM    106  C   UNL A   1      46.975  26.135  37.858  1.00  0.00     0.000 A 
ENDBRANCH  88 101
ENDBRANCH  62  63
ENDBRANCH  55  57
ENDBRANCH  54  55
ENDBRANCH  53  54
ENDBRANCH  52  53
ENDBRANCH  51  52
ENDBRANCH  50  51
ENDBRANCH  49  50
ENDBRANCH  48  49
ENDBRANCH   1  48
TORSDOF 26
ENDMDL
MODEL 3
REMARK VINA RESULT:      -8.9      5.293     11.133
REMARK SMILES Cc1ccc(S(=O)(=O)n2cc(C(=O)C(=O)N[C@H](Cc3c[nH]c4ccccc34)C(=O)NCC(=O)OCCOCCOCCOC(=O)c3ccc(-c4c5nc(c(-c6ccccc6)c6ccc([nH]6)c(-c6ccccc6)c6nc(c(-c7ccccc7)c7ccc4[nH]7)C=C6)C=C5)cc3)c3ccccc32)cc1
REMARK SMILES IDX 36 1 35 2 34 3 32 4 33 5 31 6 30 7 28 8 29 9 17 11 16 12
REMARK SMILES IDX 14 13 15 14 12 16 13 17 11 18 9 19 10 20 99 21 94 22 98 23
REMARK SMILES IDX 95 24 97 25 96 26 6 27 7 28 8 29 5 30 1 31 2 32 3 33 101 34
REMARK SMILES IDX 4 35 100 36 18 37 19 38 20 39 27 40 21 41 22 42 26 43 23 45
REMARK SMILES IDX 25 46 24 47 37 48 38 49 39 50 40 51 41 52 42 53 43 54 44 55
REMARK SMILES IDX 45 56 46 57 47 58 93 59 48 60 92 61 49 62 50 63 51 64 86 65
REMARK SMILES IDX 52 66 91 67 85 68 87 69 53 70 90 71 84 72 83 73 54 75 76 76
REMARK SMILES IDX 61 77 75 78 62 79 65 80 74 81 88 82 63 83 64 84 73 86 89 87
REMARK SMILES IDX 66 88 55 89 56 90 60 91 57 92 59 93 58 94 77 95 78 96 82 97
REMARK SMILES IDX 79 98 81 99 80 100 67 101 68 102 72 103 69 104 71 105 70 106
REMARK H PARENT 30 10 16 15 21 44 87 74 65 85
REMARK Flexibility Score: inf
ROOT
ATOM      1  C   UNL A   1      42.880  21.632  25.862  1.00  0.00     0.202 C 
ENDROOT
BRANCH   1   2
ATOM      2  C   UNL A   1      43.885  22.302  24.917  1.00  0.00     0.261 C 
BRANCH   2   3
ATOM      3  O   UNL A   1      44.315  23.693  25.158  1.00  0.00    -0.462 OA
BRANCH   3   4
ATOM      4  C   UNL A   1      45.479  24.032  25.826  1.00  0.00     0.325 C 
ATOM      5  O   UNL A   1      46.289  23.197  26.225  1.00  0.00    -0.250 OA
BRANCH   4   6
ATOM      6  C   UNL A   1      45.685  25.642  26.014  1.00  0.00     0.238 C 
BRANCH   6   7
ATOM      7  N   UNL A   1      46.033  26.711  24.997  1.00  0.00    -0.343 N 
ATOM      8  C   UNL A   1      46.398  28.053  25.009  1.00  0.00     0.243 C 
ATOM      9  O   UNL A   1      46.649  28.500  23.875  1.00  0.00    -0.273 OA
ATOM     10  H   UNL A   1      45.988  26.361  24.077  1.00  0.00     0.164 HD
BRANCH   8  11
ATOM     11  C   UNL A   1      46.344  29.170  26.216  1.00  0.00     0.176 C 
BRANCH  11  12
ATOM     12  N   UNL A   1      46.140  30.632  25.826  1.00  0.00    -0.337 N 
ATOM     13  C   UNL A   1      46.660  31.847  26.306  1.00  0.00     0.293 C 
ATOM     14  O   UNL A   1      47.859  31.920  26.568  1.00  0.00    -0.265 OA
ATOM     15  H   UNL A   1      45.510  30.749  25.080  1.00  0.00     0.164 HD
BRANCH  13  16
ATOM     16  C   UNL A   1      45.744  33.184  26.197  1.00  0.00     0.252 C 
ATOM     17  O   UNL A   1      46.282  33.802  25.256  1.00  0.00    -0.283 OA
BRANCH  16  18
ATOM     18  C   UNL A   1      44.466  33.875  27.149  1.00  0.00     0.054 A 
ATOM     19  N   UNL A   1      43.114  33.505  29.022  1.00  0.00    -0.240 N 
ATOM     20  C   UNL A   1      43.962  33.039  28.081  1.00  0.00     0.117 A 
ATOM     21  C   UNL A   1      42.722  34.763  28.571  1.00  0.00     0.065 A 
ATOM     22  C   UNL A   1      43.494  35.066  27.424  1.00  0.00     0.012 A 
ATOM     23  C   UNL A   1      41.676  35.599  29.049  1.00  0.00     0.028 A 
ATOM     24  C   UNL A   1      43.066  36.306  26.804  1.00  0.00     0.011 A 
ATOM     25  C   UNL A   1      41.318  36.754  28.385  1.00  0.00     0.002 A 
ATOM     26  C   UNL A   1      42.011  37.110  27.262  1.00  0.00     0.001 A 
BRANCH  19  27
ATOM     27  S   UNL A   1      42.122  32.816  30.275  1.00  0.00     0.268 S 
ATOM     28  O   UNL A   1      42.484  33.677  31.401  1.00  0.00    -0.201 OA
ATOM     29  O   UNL A   1      42.604  31.434  30.250  1.00  0.00    -0.201 OA
BRANCH  27  30
ATOM     30  C   UNL A   1      40.397  32.485  30.614  1.00  0.00     0.088 A 
ATOM     31  C   UNL A   1      36.539  30.654  31.542  1.00  0.00     0.044 C 
ATOM     32  C   UNL A   1      37.853  31.316  31.246  1.00  0.00    -0.051 A 
ATOM     33  C   UNL A   1      39.026  30.641  31.549  1.00  0.00     0.005 A 
ATOM     34  C   UNL A   1      37.954  32.555  30.600  1.00  0.00     0.005 A 
ATOM     35  C   UNL A   1      40.259  31.225  31.256  1.00  0.00     0.022 A 
ATOM     36  C   UNL A   1      39.214  33.109  30.247  1.00  0.00     0.022 A 
ENDBRANCH  27  30
ENDBRANCH  19  27
ENDBRANCH  16  18
ENDBRANCH  13  16
ENDBRANCH  11  12
BRANCH  11  37
ATOM     37  C   UNL A   1      47.433  28.763  27.363  1.00  0.00     0.072 C 
BRANCH  37  38
ATOM     38  C   UNL A   1      48.587  29.338  28.326  1.00  0.00    -0.020 A 
ATOM     39  C   UNL A   1      49.959  29.335  28.044  1.00  0.00     0.087 A 
ATOM     40  C   UNL A   1      48.594  29.622  29.749  1.00  0.00     0.003 A 
ATOM     41  N   UNL A   1      50.733  29.420  29.154  1.00  0.00    -0.361 N 
ATOM     42  C   UNL A   1      49.918  29.535  30.227  1.00  0.00     0.046 A 
ATOM     43  C   UNL A   1      47.608  29.878  30.713  1.00  0.00     0.010 A 
ATOM     44  H   UNL A   1      51.717  29.401  29.174  1.00  0.00     0.166 HD
ATOM     45  C   UNL A   1      50.297  29.558  31.568  1.00  0.00     0.026 A 
ATOM     46  C   UNL A   1      47.979  29.991  32.067  1.00  0.00     0.001 A 
ATOM     47  C   UNL A   1      49.293  29.791  32.491  1.00  0.00     0.002 A 
ENDBRANCH  37  38
ENDBRANCH  11  37
ENDBRANCH   8  11
ENDBRANCH   6   7
ENDBRANCH   4   6
ENDBRANCH   3   4
ENDBRANCH   2   3
ENDBRANCH   1   2
BRANCH   1  48
ATOM     48  O   UNL A   1      43.141  21.996  27.195  1.00  0.00    -0.376 OA
BRANCH  48  49
ATOM     49  C   UNL A   1      42.091  22.724  27.821  1.00  0.00     0.188 C 
BRANCH  49  50
ATOM     50  C   UNL A   1      40.681  22.642  27.217  1.00  0.00     0.188 C 
BRANCH  50  51
ATOM     51  O   UNL A   1      39.873  23.758  27.624  1.00  0.00    -0.376 OA
BRANCH  51  52
ATOM     52  C   UNL A   1      40.235  25.045  27.142  1.00  0.00     0.202 C 
BRANCH  52  53
ATOM     53  C   UNL A   1      40.718  25.989  28.248  1.00  0.00     0.261 C 
BRANCH  53  54
ATOM     54  O   UNL A   1      40.049  27.250  28.062  1.00  0.00    -0.460 OA
BRANCH  54  55
ATOM     55  C   UNL A   1      40.892  28.275  27.797  1.00  0.00     0.338 C 
ATOM     56  O   UNL A   1      40.868  28.958  26.784  1.00  0.00    -0.246 OA
BRANCH  55  57
ATOM     57  C   UNL A   1      42.006  28.271  28.794  1.00  0.00     0.060 A 
ATOM     58  C   UNL A   1      43.274  28.292  28.295  1.00  0.00     0.016 A 
ATOM     59  C   UNL A   1      41.880  27.990  30.170  1.00  0.00     0.016 A 
ATOM     60  C   UNL A   1      44.317  27.863  29.140  1.00  0.00     0.010 A 
ATOM     61  C   UNL A   1      42.982  27.507  30.981  1.00  0.00     0.010 A 
ATOM     62  C   UNL A   1      44.277  27.356  30.471  1.00  0.00    -0.014 A 
BRANCH  62  63
ATOM     63  C   UNL A   1      45.588  26.666  31.193  1.00  0.00     0.031 A 
ATOM     64  C   UNL A   1      46.999  26.284  30.294  1.00  0.00     0.074 A 
ATOM     65  C   UNL A   1      45.585  26.458  32.609  1.00  0.00     0.049 A 
ATOM     66  N   UNL A   1      48.211  26.486  30.744  1.00  0.00    -0.248 NA
ATOM     67  C   UNL A   1      47.222  25.497  29.056  1.00  0.00     0.031 C 
ATOM     68  C   UNL A   1      45.781  27.475  33.683  1.00  0.00     0.029 A 
ATOM     69  N   UNL A   1      45.473  25.319  33.484  1.00  0.00    -0.354 N 
ATOM     70  C   UNL A   1      49.230  25.857  30.075  1.00  0.00     0.074 A 
ATOM     71  C   UNL A   1      48.538  25.272  28.960  1.00  0.00     0.031 C 
ATOM     72  C   UNL A   1      45.665  26.951  34.939  1.00  0.00     0.029 A 
ATOM     73  C   UNL A   1      45.514  25.505  34.868  1.00  0.00     0.049 A 
ATOM     74  H   UNL A   1      45.368  24.415  33.109  1.00  0.00     0.167 HD
ATOM     75  C   UNL A   1      50.489  25.478  30.504  1.00  0.00     0.031 A 
ATOM     76  C   UNL A   1      45.454  24.597  35.912  1.00  0.00     0.031 A 
ATOM     77  C   UNL A   1      50.803  25.031  31.945  1.00  0.00     0.049 A 
ATOM     78  C   UNL A   1      46.507  23.401  35.966  1.00  0.00     0.074 A 
ATOM     79  C   UNL A   1      51.524  25.517  33.033  1.00  0.00     0.029 A 
ATOM     80  N   UNL A   1      50.379  23.766  32.472  1.00  0.00    -0.354 N 
ATOM     81  N   UNL A   1      47.819  23.588  35.979  1.00  0.00    -0.248 NA
ATOM     82  C   UNL A   1      46.285  21.952  36.000  1.00  0.00     0.031 C 
ATOM     83  C   UNL A   1      51.331  24.652  34.203  1.00  0.00     0.029 A 
ATOM     84  C   UNL A   1      50.407  23.648  33.908  1.00  0.00     0.049 A 
ATOM     85  H   UNL A   1      50.086  23.027  31.890  1.00  0.00     0.167 HD
ATOM     86  C   UNL A   1      48.495  22.488  35.403  1.00  0.00     0.074 A 
ATOM     87  C   UNL A   1      47.511  21.440  35.704  1.00  0.00     0.031 C 
ATOM     88  C   UNL A   1      49.708  22.466  34.661  1.00  0.00     0.031 A 
BRANCH  75  89
ATOM     89  C   UNL A   1      51.544  25.984  29.490  1.00  0.00    -0.014 A 
ATOM     90  C   UNL A   1      52.696  26.647  29.927  1.00  0.00     0.009 A 
ATOM     91  C   UNL A   1      51.376  25.949  28.074  1.00  0.00     0.009 A 
ATOM     92  C   UNL A   1      53.605  27.231  29.024  1.00  0.00     0.001 A 
ATOM     93  C   UNL A   1      52.286  26.509  27.168  1.00  0.00     0.001 A 
ATOM     94  C   UNL A   1      53.406  27.158  27.648  1.00  0.00     0.000 A 
ENDBRANCH  75  89
BRANCH  76  95
ATOM     95  C   UNL A   1      44.006  24.516  36.341  1.00  0.00    -0.014 A 
ATOM     96  C   UNL A   1      43.549  25.396  37.349  1.00  0.00     0.009 A 
ATOM     97  C   UNL A   1      43.030  23.918  35.528  1.00  0.00     0.009 A 
ATOM     98  C   UNL A   1      42.205  25.796  37.423  1.00  0.00     0.001 A 
ATOM     99  C   UNL A   1      41.680  24.309  35.613  1.00  0.00     0.001 A 
ATOM    100  C   UNL A   1      41.277  25.281  36.527  1.00  0.00     0.000 A 
ENDBRANCH  76  95
BRANCH  88 101
ATOM    101  C   UNL A   1      50.543  21.200  34.674  1.00  0.00    -0.014 A 
ATOM    102  C   UNL A   1      50.744  20.455  35.846  1.00  0.00     0.009 A 
ATOM    103  C   UNL A   1      51.397  20.920  33.587  1.00  0.00     0.009 A 
ATOM    104  C   UNL A   1      51.743  19.476  35.920  1.00  0.00     0.001 A 
ATOM    105  C   UNL A   1      52.422  19.979  33.673  1.00  0.00     0.001 A 
ATOM    106  C   UNL A   1      52.593  19.254  34.841  1.00  0.00     0.000 A 
ENDBRANCH  88 101
ENDBRANCH  62  63
ENDBRANCH  55  57
ENDBRANCH  54  55
ENDBRANCH  53  54
ENDBRANCH  52  53
ENDBRANCH  51  52
ENDBRANCH  50  51
ENDBRANCH  49  50
ENDBRANCH  48  49
ENDBRANCH   1  48
TORSDOF 26
ENDMDL
