MODEL 1
REMARK VINA RESULT:     -11.0      0.000      0.000
REMARK SMILES CC(=O)Nc1cccc(NS(=O)(=O)c2cccc(C(=O)OCCOCCOCCOC(=O)c3ccc(-c4c5nc(c(-c6ccccc6)c6ccc([nH]6)c(-c6ccccc6)c6nc(c(-c7ccccc7)c7ccc4[nH]7)C=C6)C=C5)cc3)c2)c1
REMARK SMILES IDX 25 1 24 2 23 3 22 4 21 5 19 6 20 7 18 8 14 9 15 10 81 11
REMARK SMILES IDX 16 12 17 13 11 14 12 15 13 16 10 17 9 19 5 20 6 21 82 22
REMARK SMILES IDX 7 23 8 24 4 25 1 26 2 27 3 28 26 30 27 31 28 32 29 33 30 34
REMARK SMILES IDX 31 35 32 36 33 37 34 38 80 39 35 40 79 41 36 42 37 43 38 44
REMARK SMILES IDX 73 45 39 46 78 47 72 48 74 49 40 50 77 51 71 52 70 53 41 55
REMARK SMILES IDX 63 56 48 57 62 58 49 59 52 60 61 61 75 62 50 63 51 64 60 66
REMARK SMILES IDX 76 67 53 68 42 69 43 70 47 71 44 72 46 73 45 74 64 75 65 76
REMARK SMILES IDX 69 77 66 78 68 79 67 80 54 81 55 82 59 83 56 84 58 85 57 86
REMARK H PARENT 10 18 4 29 74 54 52 65
REMARK Flexibility Score: inf
ROOT
ATOM      1  C   UNL A   1      39.474  21.875  26.057  1.00  0.00     0.188 C 
ENDROOT
BRANCH   1   2
ATOM      2  O   UNL A   1      38.281  21.450  25.419  1.00  0.00    -0.376 OA
BRANCH   2   3
ATOM      3  C   UNL A   1      37.051  22.092  25.729  1.00  0.00     0.202 C 
BRANCH   3   4
ATOM      4  C   UNL A   1      35.763  21.262  25.756  1.00  0.00     0.261 C 
BRANCH   4   5
ATOM      5  O   UNL A   1      35.063  21.307  24.505  1.00  0.00    -0.460 OA
BRANCH   5   6
ATOM      6  C   UNL A   1      33.889  20.635  24.471  1.00  0.00     0.338 C 
ATOM      7  O   UNL A   1      33.709  19.443  24.655  1.00  0.00    -0.246 OA
BRANCH   6   8
ATOM      8  C   UNL A   1      32.777  21.598  24.348  1.00  0.00     0.061 A 
ATOM      9  C   UNL A   1      31.205  23.136  25.304  1.00  0.00     0.088 A 
ATOM     10  C   UNL A   1      30.825  23.571  24.026  1.00  0.00     0.022 A 
ATOM     11  C   UNL A   1      32.110  22.083  25.472  1.00  0.00     0.038 A 
ATOM     12  C   UNL A   1      31.437  23.015  22.904  1.00  0.00     0.002 A 
ATOM     13  C   UNL A   1      32.441  22.059  23.066  1.00  0.00     0.016 A 
BRANCH   9  14
ATOM     14  S   UNL A   1      30.657  24.021  26.737  1.00  0.00     0.261 S 
ATOM     15  O   UNL A   1      31.830  24.349  27.520  1.00  0.00    -0.201 OA
ATOM     16  O   UNL A   1      29.562  23.283  27.330  1.00  0.00    -0.201 OA
BRANCH  14  17
ATOM     17  N   UNL A   1      29.999  25.513  26.207  1.00  0.00    -0.280 N 
ATOM     18  H   UNL A   1      29.030  25.580  26.047  1.00  0.00     0.180 HD
BRANCH  17  19
ATOM     19  C   UNL A   1      30.832  26.671  25.991  1.00  0.00     0.051 A 
ATOM     20  C   UNL A   1      32.157  28.055  24.487  1.00  0.00     0.043 A 
ATOM     21  C   UNL A   1      32.570  28.822  25.584  1.00  0.00     0.026 A 
ATOM     22  C   UNL A   1      31.256  27.002  24.693  1.00  0.00     0.052 A 
ATOM     23  C   UNL A   1      32.176  28.484  26.873  1.00  0.00     0.004 A 
ATOM     24  C   UNL A   1      31.373  27.366  27.074  1.00  0.00     0.027 A 
BRANCH  20  25
ATOM     25  N   UNL A   1      32.804  28.343  23.272  1.00  0.00    -0.326 N 
ATOM     26  C   UNL A   1      33.562  26.117  22.460  1.00  0.00     0.114 C 
ATOM     27  C   UNL A   1      33.581  27.615  22.424  1.00  0.00     0.221 C 
ATOM     28  O   UNL A   1      34.260  28.215  21.588  1.00  0.00    -0.275 OA
ATOM     29  H   UNL A   1      32.664  29.270  22.968  1.00  0.00     0.169 HD
ENDBRANCH  20  25
ENDBRANCH  17  19
ENDBRANCH  14  17
ENDBRANCH   9  14
ENDBRANCH   6   8
ENDBRANCH   5   6
ENDBRANCH   4   5
ENDBRANCH   3   4
ENDBRANCH   2   3
ENDBRANCH   1   2
BRANCH   1  30
ATOM     30  C   UNL A   1      40.457  20.841  26.645  1.00  0.00     0.188 C 
BRANCH  30  31
ATOM     31  O   UNL A   1      41.320  20.153  25.777  1.00  0.00    -0.376 OA
BRANCH  31  32
ATOM     32  C   UNL A   1      42.727  20.249  25.899  1.00  0.00     0.202 C 
BRANCH  32  33
ATOM     33  C   UNL A   1      43.591  21.462  25.507  1.00  0.00     0.261 C 
BRANCH  33  34
ATOM     34  O   UNL A   1      42.929  22.629  25.019  1.00  0.00    -0.460 OA
BRANCH  34  35
ATOM     35  C   UNL A   1      43.677  23.759  25.027  1.00  0.00     0.338 C 
ATOM     36  O   UNL A   1      44.666  24.004  24.357  1.00  0.00    -0.246 OA
BRANCH  35  37
ATOM     37  C   UNL A   1      43.005  24.760  25.872  1.00  0.00     0.060 A 
ATOM     38  C   UNL A   1      43.457  26.086  25.834  1.00  0.00     0.016 A 
ATOM     39  C   UNL A   1      41.971  24.380  26.727  1.00  0.00     0.016 A 
ATOM     40  C   UNL A   1      42.893  27.037  26.683  1.00  0.00     0.010 A 
ATOM     41  C   UNL A   1      41.423  25.327  27.592  1.00  0.00     0.010 A 
ATOM     42  C   UNL A   1      41.905  26.649  27.598  1.00  0.00    -0.014 A 
BRANCH  42  43
ATOM     43  C   UNL A   1      41.518  27.552  28.705  1.00  0.00     0.031 A 
ATOM     44  C   UNL A   1      42.287  27.461  29.994  1.00  0.00     0.074 A 
ATOM     45  C   UNL A   1      40.494  28.413  28.586  1.00  0.00     0.049 A 
ATOM     46  N   UNL A   1      42.063  28.054  31.138  1.00  0.00    -0.248 NA
ATOM     47  C   UNL A   1      43.464  26.576  29.990  1.00  0.00     0.031 C 
ATOM     48  C   UNL A   1      39.704  28.634  27.376  1.00  0.00     0.029 A 
ATOM     49  N   UNL A   1      39.933  29.252  29.516  1.00  0.00    -0.354 N 
ATOM     50  C   UNL A   1      43.059  27.600  31.994  1.00  0.00     0.074 A 
ATOM     51  C   UNL A   1      43.877  26.673  31.244  1.00  0.00     0.031 C 
ATOM     52  C   UNL A   1      38.745  29.538  27.645  1.00  0.00     0.029 A 
ATOM     53  C   UNL A   1      38.830  29.925  29.052  1.00  0.00     0.049 A 
ATOM     54  H   UNL A   1      40.288  29.361  30.427  1.00  0.00     0.167 HD
ATOM     55  C   UNL A   1      43.274  27.925  33.290  1.00  0.00     0.031 A 
ATOM     56  C   UNL A   1      37.970  30.734  29.702  1.00  0.00     0.031 A 
ATOM     57  C   UNL A   1      42.448  28.827  34.044  1.00  0.00     0.049 A 
ATOM     58  C   UNL A   1      38.177  31.011  31.169  1.00  0.00     0.074 A 
ATOM     59  C   UNL A   1      42.583  29.223  35.363  1.00  0.00     0.029 A 
ATOM     60  N   UNL A   1      41.326  29.469  33.545  1.00  0.00    -0.354 N 
ATOM     61  N   UNL A   1      39.128  30.590  31.966  1.00  0.00    -0.248 NA
ATOM     62  C   UNL A   1      37.187  31.880  31.823  1.00  0.00     0.031 C 
ATOM     63  C   UNL A   1      41.511  30.065  35.676  1.00  0.00     0.029 A 
ATOM     64  C   UNL A   1      40.745  30.239  34.535  1.00  0.00     0.049 A 
ATOM     65  H   UNL A   1      40.992  29.388  32.622  1.00  0.00     0.167 HD
ATOM     66  C   UNL A   1      38.872  31.168  33.204  1.00  0.00     0.074 A 
ATOM     67  C   UNL A   1      37.679  31.975  33.051  1.00  0.00     0.031 C 
ATOM     68  C   UNL A   1      39.565  31.046  34.363  1.00  0.00     0.031 A 
BRANCH  55  69
ATOM     69  C   UNL A   1      44.426  27.256  33.982  1.00  0.00    -0.014 A 
ATOM     70  C   UNL A   1      44.301  25.968  34.529  1.00  0.00     0.009 A 
ATOM     71  C   UNL A   1      45.660  27.918  34.078  1.00  0.00     0.009 A 
ATOM     72  C   UNL A   1      45.378  25.373  35.187  1.00  0.00     0.001 A 
ATOM     73  C   UNL A   1      46.742  27.310  34.712  1.00  0.00     0.001 A 
ATOM     74  C   UNL A   1      46.599  26.042  35.276  1.00  0.00     0.000 A 
ENDBRANCH  55  69
BRANCH  56  75
ATOM     75  C   UNL A   1      36.812  31.324  28.983  1.00  0.00    -0.014 A 
ATOM     76  C   UNL A   1      36.809  32.681  28.624  1.00  0.00     0.009 A 
ATOM     77  C   UNL A   1      35.688  30.539  28.676  1.00  0.00     0.009 A 
ATOM     78  C   UNL A   1      35.696  33.245  27.998  1.00  0.00     0.001 A 
ATOM     79  C   UNL A   1      34.588  31.100  28.024  1.00  0.00     0.001 A 
ATOM     80  C   UNL A   1      34.588  32.455  27.694  1.00  0.00     0.000 A 
ENDBRANCH  56  75
BRANCH  68  81
ATOM     81  C   UNL A   1      39.087  31.843  35.545  1.00  0.00    -0.014 A 
ATOM     82  C   UNL A   1      38.235  31.286  36.509  1.00  0.00     0.009 A 
ATOM     83  C   UNL A   1      39.549  33.157  35.721  1.00  0.00     0.009 A 
ATOM     84  C   UNL A   1      37.832  32.041  37.614  1.00  0.00     0.001 A 
ATOM     85  C   UNL A   1      39.168  33.899  36.840  1.00  0.00     0.001 A 
ATOM     86  C   UNL A   1      38.303  33.344  37.780  1.00  0.00     0.000 A 
ENDBRANCH  68  81
ENDBRANCH  42  43
ENDBRANCH  35  37
ENDBRANCH  34  35
ENDBRANCH  33  34
ENDBRANCH  32  33
ENDBRANCH  31  32
ENDBRANCH  30  31
ENDBRANCH   1  30
TORSDOF 21
ENDMDL
MODEL 2
REMARK VINA RESULT:     -10.3      2.125      6.421
REMARK SMILES CC(=O)Nc1cccc(NS(=O)(=O)c2cccc(C(=O)OCCOCCOCCOC(=O)c3ccc(-c4c5nc(c(-c6ccccc6)c6ccc([nH]6)c(-c6ccccc6)c6nc(c(-c7ccccc7)c7ccc4[nH]7)C=C6)C=C5)cc3)c2)c1
REMARK SMILES IDX 25 1 24 2 23 3 22 4 21 5 19 6 20 7 18 8 14 9 15 10 81 11
REMARK SMILES IDX 16 12 17 13 11 14 12 15 13 16 10 17 9 19 5 20 6 21 82 22
REMARK SMILES IDX 7 23 8 24 4 25 1 26 2 27 3 28 26 30 27 31 28 32 29 33 30 34
REMARK SMILES IDX 31 35 32 36 33 37 34 38 80 39 35 40 79 41 36 42 37 43 38 44
REMARK SMILES IDX 73 45 39 46 78 47 72 48 74 49 40 50 77 51 71 52 70 53 41 55
REMARK SMILES IDX 63 56 48 57 62 58 49 59 52 60 61 61 75 62 50 63 51 64 60 66
REMARK SMILES IDX 76 67 53 68 42 69 43 70 47 71 44 72 46 73 45 74 64 75 65 76
REMARK SMILES IDX 69 77 66 78 68 79 67 80 54 81 55 82 59 83 56 84 58 85 57 86
REMARK H PARENT 10 18 4 29 74 54 52 65
REMARK Flexibility Score: inf
ROOT
ATOM      1  C   UNL A   1      41.447  20.492  27.367  1.00  0.00     0.188 C 
ENDROOT
BRANCH   1   2
ATOM      2  O   UNL A   1      40.101  20.935  27.292  1.00  0.00    -0.376 OA
BRANCH   2   3
ATOM      3  C   UNL A   1      39.645  21.603  26.121  1.00  0.00     0.202 C 
BRANCH   3   4
ATOM      4  C   UNL A   1      38.176  21.464  25.709  1.00  0.00     0.261 C 
BRANCH   4   5
ATOM      5  O   UNL A   1      37.695  22.626  25.019  1.00  0.00    -0.460 OA
BRANCH   5   6
ATOM      6  C   UNL A   1      37.202  23.608  25.808  1.00  0.00     0.338 C 
ATOM      7  O   UNL A   1      37.831  24.426  26.457  1.00  0.00    -0.246 OA
BRANCH   6   8
ATOM      8  C   UNL A   1      35.737  23.680  25.643  1.00  0.00     0.061 A 
ATOM      9  C   UNL A   1      33.782  24.027  24.297  1.00  0.00     0.088 A 
ATOM     10  C   UNL A   1      32.961  23.587  25.345  1.00  0.00     0.022 A 
ATOM     11  C   UNL A   1      35.163  24.169  24.470  1.00  0.00     0.038 A 
ATOM     12  C   UNL A   1      33.540  23.183  26.547  1.00  0.00     0.002 A 
ATOM     13  C   UNL A   1      34.929  23.192  26.681  1.00  0.00     0.016 A 
BRANCH   9  14
ATOM     14  S   UNL A   1      33.100  24.269  22.681  1.00  0.00     0.261 S 
ATOM     15  O   UNL A   1      31.658  24.240  22.810  1.00  0.00    -0.201 OA
ATOM     16  O   UNL A   1      33.773  23.370  21.768  1.00  0.00    -0.201 OA
BRANCH  14  17
ATOM     17  N   UNL A   1      33.506  25.857  22.178  1.00  0.00    -0.280 N 
ATOM     18  H   UNL A   1      34.228  25.983  21.521  1.00  0.00     0.180 HD
BRANCH  17  19
ATOM     19  C   UNL A   1      32.813  27.014  22.694  1.00  0.00     0.051 A 
ATOM     20  C   UNL A   1      32.726  28.894  24.240  1.00  0.00     0.043 A 
ATOM     21  C   UNL A   1      31.420  29.164  23.811  1.00  0.00     0.026 A 
ATOM     22  C   UNL A   1      33.432  27.837  23.649  1.00  0.00     0.052 A 
ATOM     23  C   UNL A   1      30.793  28.337  22.888  1.00  0.00     0.004 A 
ATOM     24  C   UNL A   1      31.467  27.224  22.393  1.00  0.00     0.027 A 
BRANCH  20  25
ATOM     25  N   UNL A   1      33.167  29.647  25.343  1.00  0.00    -0.326 N 
ATOM     26  C   UNL A   1      32.001  28.605  27.278  1.00  0.00     0.114 C 
ATOM     27  C   UNL A   1      32.787  29.715  26.648  1.00  0.00     0.221 C 
ATOM     28  O   UNL A   1      33.151  30.686  27.316  1.00  0.00    -0.275 OA
ATOM     29  H   UNL A   1      33.911  30.254  25.124  1.00  0.00     0.169 HD
ENDBRANCH  20  25
ENDBRANCH  17  19
ENDBRANCH  14  17
ENDBRANCH   9  14
ENDBRANCH   6   8
ENDBRANCH   5   6
ENDBRANCH   4   5
ENDBRANCH   3   4
ENDBRANCH   2   3
ENDBRANCH   1   2
BRANCH   1  30
ATOM     30  C   UNL A   1      42.243  20.194  26.079  1.00  0.00     0.188 C 
BRANCH  30  31
ATOM     31  O   UNL A   1      42.700  21.268  25.298  1.00  0.00    -0.376 OA
BRANCH  31  32
ATOM     32  C   UNL A   1      43.715  22.141  25.758  1.00  0.00     0.202 C 
BRANCH  32  33
ATOM     33  C   UNL A   1      43.499  23.493  26.463  1.00  0.00     0.261 C 
BRANCH  33  34
ATOM     34  O   UNL A   1      42.247  24.154  26.279  1.00  0.00    -0.460 OA
BRANCH  34  35
ATOM     35  C   UNL A   1      42.328  25.414  25.788  1.00  0.00     0.338 C 
ATOM     36  O   UNL A   1      42.656  25.757  24.665  1.00  0.00    -0.246 OA
BRANCH  35  37
ATOM     37  C   UNL A   1      41.785  26.344  26.791  1.00  0.00     0.060 A 
ATOM     38  C   UNL A   1      42.308  27.643  26.859  1.00  0.00     0.016 A 
ATOM     39  C   UNL A   1      40.803  25.921  27.685  1.00  0.00     0.016 A 
ATOM     40  C   UNL A   1      41.869  28.518  27.851  1.00  0.00     0.010 A 
ATOM     41  C   UNL A   1      40.381  26.789  28.692  1.00  0.00     0.010 A 
ATOM     42  C   UNL A   1      40.936  28.078  28.799  1.00  0.00    -0.014 A 
BRANCH  42  43
ATOM     43  C   UNL A   1      40.691  28.867  30.027  1.00  0.00     0.031 A 
ATOM     44  C   UNL A   1      39.573  29.873  30.010  1.00  0.00     0.074 A 
ATOM     45  C   UNL A   1      41.455  28.721  31.123  1.00  0.00     0.049 A 
ATOM     46  N   UNL A   1      39.243  30.762  30.910  1.00  0.00    -0.248 NA
ATOM     47  C   UNL A   1      38.719  29.879  28.810  1.00  0.00     0.031 C 
ATOM     48  C   UNL A   1      42.532  27.747  31.284  1.00  0.00     0.029 A 
ATOM     49  N   UNL A   1      41.444  29.416  32.306  1.00  0.00    -0.354 N 
ATOM     50  C   UNL A   1      38.154  31.443  30.379  1.00  0.00     0.074 A 
ATOM     51  C   UNL A   1      37.892  30.877  29.074  1.00  0.00     0.031 C 
ATOM     52  C   UNL A   1      43.094  27.921  32.494  1.00  0.00     0.029 A 
ATOM     53  C   UNL A   1      42.441  29.041  33.171  1.00  0.00     0.049 A 
ATOM     54  H   UNL A   1      40.783  30.115  32.515  1.00  0.00     0.167 HD
ATOM     55  C   UNL A   1      37.437  32.452  30.927  1.00  0.00     0.031 A 
ATOM     56  C   UNL A   1      42.805  29.567  34.357  1.00  0.00     0.031 A 
ATOM     57  C   UNL A   1      37.712  33.032  32.212  1.00  0.00     0.049 A 
ATOM     58  C   UNL A   1      42.048  30.749  34.907  1.00  0.00     0.074 A 
ATOM     59  C   UNL A   1      37.043  34.057  32.857  1.00  0.00     0.029 A 
ATOM     60  N   UNL A   1      38.747  32.641  33.046  1.00  0.00    -0.354 N 
ATOM     61  N   UNL A   1      41.013  31.377  34.405  1.00  0.00    -0.248 NA
ATOM     62  C   UNL A   1      42.515  31.292  36.192  1.00  0.00     0.031 C 
ATOM     63  C   UNL A   1      37.706  34.320  34.060  1.00  0.00     0.029 A 
ATOM     64  C   UNL A   1      38.751  33.419  34.189  1.00  0.00     0.049 A 
ATOM     65  H   UNL A   1      39.386  31.916  32.853  1.00  0.00     0.167 HD
ATOM     66  C   UNL A   1      40.683  32.364  35.327  1.00  0.00     0.074 A 
ATOM     67  C   UNL A   1      41.624  32.247  36.422  1.00  0.00     0.031 C 
ATOM     68  C   UNL A   1      39.687  33.282  35.274  1.00  0.00     0.031 A 
BRANCH  55  69
ATOM     69  C   UNL A   1      36.315  33.020  30.106  1.00  0.00    -0.014 A 
ATOM     70  C   UNL A   1      36.546  34.022  29.149  1.00  0.00     0.009 A 
ATOM     71  C   UNL A   1      35.010  32.536  30.284  1.00  0.00     0.009 A 
ATOM     72  C   UNL A   1      35.485  34.551  28.412  1.00  0.00     0.001 A 
ATOM     73  C   UNL A   1      33.957  33.048  29.527  1.00  0.00     0.001 A 
ATOM     74  C   UNL A   1      34.192  34.062  28.599  1.00  0.00     0.000 A 
ENDBRANCH  55  69
BRANCH  56  75
ATOM     75  C   UNL A   1      43.961  29.004  35.100  1.00  0.00    -0.014 A 
ATOM     76  C   UNL A   1      43.783  27.938  35.997  1.00  0.00     0.009 A 
ATOM     77  C   UNL A   1      45.246  29.548  34.941  1.00  0.00     0.009 A 
ATOM     78  C   UNL A   1      44.862  27.447  36.736  1.00  0.00     0.001 A 
ATOM     79  C   UNL A   1      46.328  29.036  35.660  1.00  0.00     0.001 A 
ATOM     80  C   UNL A   1      46.133  27.993  36.564  1.00  0.00     0.000 A 
ENDBRANCH  56  75
BRANCH  68  81
ATOM     81  C   UNL A   1      39.524  34.198  36.455  1.00  0.00    -0.014 A 
ATOM     82  C   UNL A   1      38.767  33.824  37.575  1.00  0.00     0.009 A 
ATOM     83  C   UNL A   1      40.191  35.434  36.466  1.00  0.00     0.009 A 
ATOM     84  C   UNL A   1      38.659  34.683  38.672  1.00  0.00     0.001 A 
ATOM     85  C   UNL A   1      40.104  36.278  37.573  1.00  0.00     0.001 A 
ATOM     86  C   UNL A   1      39.332  35.906  38.671  1.00  0.00     0.000 A 
ENDBRANCH  68  81
ENDBRANCH  42  43
ENDBRANCH  35  37
ENDBRANCH  34  35
ENDBRANCH  33  34
ENDBRANCH  32  33
ENDBRANCH  31  32
ENDBRANCH  30  31
ENDBRANCH   1  30
TORSDOF 21
ENDMDL
MODEL 3
REMARK VINA RESULT:     -10.1      3.665      4.722
REMARK SMILES CC(=O)Nc1cccc(NS(=O)(=O)c2cccc(C(=O)OCCOCCOCCOC(=O)c3ccc(-c4c5nc(c(-c6ccccc6)c6ccc([nH]6)c(-c6ccccc6)c6nc(c(-c7ccccc7)c7ccc4[nH]7)C=C6)C=C5)cc3)c2)c1
REMARK SMILES IDX 25 1 24 2 23 3 22 4 21 5 19 6 20 7 18 8 14 9 15 10 81 11
REMARK SMILES IDX 16 12 17 13 11 14 12 15 13 16 10 17 9 19 5 20 6 21 82 22
REMARK SMILES IDX 7 23 8 24 4 25 1 26 2 27 3 28 26 30 27 31 28 32 29 33 30 34
REMARK SMILES IDX 31 35 32 36 33 37 34 38 80 39 35 40 79 41 36 42 37 43 38 44
REMARK SMILES IDX 73 45 39 46 78 47 72 48 74 49 40 50 77 51 71 52 70 53 41 55
REMARK SMILES IDX 63 56 48 57 62 58 49 59 52 60 61 61 75 62 50 63 51 64 60 66
REMARK SMILES IDX 76 67 53 68 42 69 43 70 47 71 44 72 46 73 45 74 64 75 65 76
REMARK SMILES IDX 69 77 66 78 68 79 67 80 54 81 55 82 59 83 56 84 58 85 57 86
REMARK H PARENT 10 18 4 29 74 54 52 65
REMARK Flexibility Score: inf
ROOT
ATOM      1  C   UNL A   1      39.711  20.601  25.904  1.00  0.00     0.188 C 
ENDROOT
BRANCH   1   2
ATOM      2  O   UNL A   1      38.393  21.121  25.840  1.00  0.00    -0.376 OA
BRANCH   2   3
ATOM      3  C   UNL A   1      38.196  22.516  25.647  1.00  0.00     0.202 C 
BRANCH   3   4
ATOM      4  C   UNL A   1      36.789  23.034  25.334  1.00  0.00     0.261 C 
BRANCH   4   5
ATOM      5  O   UNL A   1      36.240  22.433  24.153  1.00  0.00    -0.460 OA
BRANCH   5   6
ATOM      6  C   UNL A   1      35.135  23.032  23.655  1.00  0.00     0.338 C 
ATOM      7  O   UNL A   1      35.052  23.727  22.656  1.00  0.00    -0.246 OA
BRANCH   6   8
ATOM      8  C   UNL A   1      33.950  22.579  24.409  1.00  0.00     0.061 A 
ATOM      9  C   UNL A   1      31.979  23.019  25.702  1.00  0.00     0.088 A 
ATOM     10  C   UNL A   1      31.610  21.667  25.634  1.00  0.00     0.022 A 
ATOM     11  C   UNL A   1      33.196  23.465  25.176  1.00  0.00     0.038 A 
ATOM     12  C   UNL A   1      32.420  20.771  24.938  1.00  0.00     0.002 A 
ATOM     13  C   UNL A   1      33.567  21.234  24.292  1.00  0.00     0.016 A 
BRANCH   9  14
ATOM     14  S   UNL A   1      30.834  24.216  26.327  1.00  0.00     0.261 S 
ATOM     15  O   UNL A   1      31.601  25.360  26.771  1.00  0.00    -0.201 OA
ATOM     16  O   UNL A   1      29.928  23.543  27.234  1.00  0.00    -0.201 OA
BRANCH  14  17
ATOM     17  N   UNL A   1      29.879  24.758  25.010  1.00  0.00    -0.280 N 
ATOM     18  H   UNL A   1      28.988  24.363  24.868  1.00  0.00     0.180 HD
BRANCH  17  19
ATOM     19  C   UNL A   1      30.348  25.781  24.106  1.00  0.00     0.051 A 
ATOM     20  C   UNL A   1      30.217  28.063  23.265  1.00  0.00     0.043 A 
ATOM     21  C   UNL A   1      31.137  27.728  22.263  1.00  0.00     0.026 A 
ATOM     22  C   UNL A   1      29.855  27.092  24.208  1.00  0.00     0.052 A 
ATOM     23  C   UNL A   1      31.607  26.426  22.138  1.00  0.00     0.004 A 
ATOM     24  C   UNL A   1      31.150  25.446  23.014  1.00  0.00     0.027 A 
BRANCH  20  25
ATOM     25  N   UNL A   1      29.633  29.337  23.146  1.00  0.00    -0.326 N 
ATOM     26  C   UNL A   1      27.190  28.867  23.098  1.00  0.00     0.114 C 
ATOM     27  C   UNL A   1      28.368  29.771  22.895  1.00  0.00     0.221 C 
ATOM     28  O   UNL A   1      28.208  30.945  22.549  1.00  0.00    -0.275 OA
ATOM     29  H   UNL A   1      30.276  30.071  23.274  1.00  0.00     0.169 HD
ENDBRANCH  20  25
ENDBRANCH  17  19
ENDBRANCH  14  17
ENDBRANCH   9  14
ENDBRANCH   6   8
ENDBRANCH   5   6
ENDBRANCH   4   5
ENDBRANCH   3   4
ENDBRANCH   2   3
ENDBRANCH   1   2
BRANCH   1  30
ATOM     30  C   UNL A   1      40.701  21.109  26.973  1.00  0.00     0.188 C 
BRANCH  30  31
ATOM     31  O   UNL A   1      41.672  20.228  27.474  1.00  0.00    -0.376 OA
BRANCH  31  32
ATOM     32  C   UNL A   1      42.152  19.140  26.707  1.00  0.00     0.202 C 
BRANCH  32  33
ATOM     33  C   UNL A   1      43.236  19.207  25.615  1.00  0.00     0.261 C 
BRANCH  33  34
ATOM     34  O   UNL A   1      43.349  20.409  24.853  1.00  0.00    -0.460 OA
BRANCH  34  35
ATOM     35  C   UNL A   1      44.471  21.133  25.084  1.00  0.00     0.338 C 
ATOM     36  O   UNL A   1      45.617  20.854  24.771  1.00  0.00    -0.246 OA
BRANCH  35  37
ATOM     37  C   UNL A   1      44.081  22.437  25.644  1.00  0.00     0.060 A 
ATOM     38  C   UNL A   1      43.755  23.478  24.763  1.00  0.00     0.016 A 
ATOM     39  C   UNL A   1      44.084  22.641  27.023  1.00  0.00     0.016 A 
ATOM     40  C   UNL A   1      43.461  24.745  25.263  1.00  0.00     0.010 A 
ATOM     41  C   UNL A   1      43.812  23.915  27.522  1.00  0.00     0.010 A 
ATOM     42  C   UNL A   1      43.533  24.979  26.643  1.00  0.00    -0.014 A 
BRANCH  42  43
ATOM     43  C   UNL A   1      43.532  26.363  27.166  1.00  0.00     0.031 A 
ATOM     44  C   UNL A   1      44.858  27.038  27.385  1.00  0.00     0.074 A 
ATOM     45  C   UNL A   1      42.389  27.001  27.467  1.00  0.00     0.049 A 
ATOM     46  N   UNL A   1      45.121  28.191  27.943  1.00  0.00    -0.248 NA
ATOM     47  C   UNL A   1      46.048  26.306  26.917  1.00  0.00     0.031 C 
ATOM     48  C   UNL A   1      41.041  26.479  27.252  1.00  0.00     0.029 A 
ATOM     49  N   UNL A   1      42.189  28.232  28.040  1.00  0.00    -0.354 N 
ATOM     50  C   UNL A   1      46.504  28.315  27.908  1.00  0.00     0.074 A 
ATOM     51  C   UNL A   1      47.026  27.116  27.291  1.00  0.00     0.031 C 
ATOM     52  C   UNL A   1      40.151  27.378  27.708  1.00  0.00     0.029 A 
ATOM     53  C   UNL A   1      40.869  28.517  28.280  1.00  0.00     0.049 A 
ATOM     54  H   UNL A   1      42.923  28.852  28.257  1.00  0.00     0.167 HD
ATOM     55  C   UNL A   1      47.274  29.336  28.352  1.00  0.00     0.031 A 
ATOM     56  C   UNL A   1      40.308  29.562  28.921  1.00  0.00     0.031 A 
ATOM     57  C   UNL A   1      46.760  30.518  28.987  1.00  0.00     0.049 A 
ATOM     58  C   UNL A   1      41.191  30.644  29.486  1.00  0.00     0.074 A 
ATOM     59  C   UNL A   1      47.457  31.610  29.471  1.00  0.00     0.029 A 
ATOM     60  N   UNL A   1      45.417  30.756  29.235  1.00  0.00    -0.354 N 
ATOM     61  N   UNL A   1      42.495  30.761  29.437  1.00  0.00    -0.248 NA
ATOM     62  C   UNL A   1      40.517  31.742  30.197  1.00  0.00     0.031 C 
ATOM     63  C   UNL A   1      46.539  32.487  30.058  1.00  0.00     0.029 A 
ATOM     64  C   UNL A   1      45.266  31.967  29.885  1.00  0.00     0.049 A 
ATOM     65  H   UNL A   1      44.680  30.153  28.985  1.00  0.00     0.167 HD
ATOM     66  C   UNL A   1      42.796  31.959  30.077  1.00  0.00     0.074 A 
ATOM     67  C   UNL A   1      41.536  32.534  30.500  1.00  0.00     0.031 C 
ATOM     68  C   UNL A   1      44.005  32.532  30.290  1.00  0.00     0.031 A 
BRANCH  55  69
ATOM     69  C   UNL A   1      48.761  29.188  28.204  1.00  0.00    -0.014 A 
ATOM     70  C   UNL A   1      49.539  28.591  29.210  1.00  0.00     0.009 A 
ATOM     71  C   UNL A   1      49.391  29.642  27.035  1.00  0.00     0.009 A 
ATOM     72  C   UNL A   1      50.922  28.483  29.061  1.00  0.00     0.001 A 
ATOM     73  C   UNL A   1      50.771  29.508  26.878  1.00  0.00     0.001 A 
ATOM     74  C   UNL A   1      51.537  28.938  27.894  1.00  0.00     0.000 A 
ENDBRANCH  55  69
BRANCH  56  75
ATOM     75  C   UNL A   1      38.834  29.630  29.091  1.00  0.00    -0.014 A 
ATOM     76  C   UNL A   1      38.238  29.264  30.308  1.00  0.00     0.009 A 
ATOM     77  C   UNL A   1      38.011  30.033  28.027  1.00  0.00     0.009 A 
ATOM     78  C   UNL A   1      36.848  29.276  30.447  1.00  0.00     0.001 A 
ATOM     79  C   UNL A   1      36.623  30.071  28.178  1.00  0.00     0.001 A 
ATOM     80  C   UNL A   1      36.042  29.684  29.385  1.00  0.00     0.000 A 
ENDBRANCH  56  75
BRANCH  68  81
ATOM     81  C   UNL A   1      44.027  33.876  30.964  1.00  0.00    -0.014 A 
ATOM     82  C   UNL A   1      43.964  35.067  30.226  1.00  0.00     0.009 A 
ATOM     83  C   UNL A   1      44.053  33.943  32.366  1.00  0.00     0.009 A 
ATOM     84  C   UNL A   1      43.954  36.301  30.881  1.00  0.00     0.001 A 
ATOM     85  C   UNL A   1      44.015  35.176  33.018  1.00  0.00     0.001 A 
ATOM     86  C   UNL A   1      43.975  36.354  32.275  1.00  0.00     0.000 A 
ENDBRANCH  68  81
ENDBRANCH  42  43
ENDBRANCH  35  37
ENDBRANCH  34  35
ENDBRANCH  33  34
ENDBRANCH  32  33
ENDBRANCH  31  32
ENDBRANCH  30  31
ENDBRANCH   1  30
TORSDOF 21
ENDMDL
