MODEL 1
REMARK VINA RESULT:      -9.9      0.000      0.000
REMARK SMILES Cc1cc(C(=O)Nc2ccn(C)n2)sc1/C=C/C(=O)OCCOCCOCCOC(=O)c1ccc(-c2c3nc(c(-c4ccccc4)c4ccc([nH]4)c(-c4ccccc4)c4nc(c(-c5ccccc5)c5ccc2[nH]5)C=C4)C=C3)cc1
REMARK SMILES IDX 24 1 23 2 22 3 21 4 20 5 18 6 19 7 17 8 16 9 15 10 1 11 2 12
REMARK SMILES IDX 3 13 4 14 14 15 5 16 6 17 7 18 8 20 9 21 13 22 10 23 11 24
REMARK SMILES IDX 12 25 25 26 26 27 27 28 28 29 29 30 30 31 31 32 32 33 33 34
REMARK SMILES IDX 79 35 34 36 78 37 35 38 36 39 37 40 72 41 38 42 77 43 71 44
REMARK SMILES IDX 73 45 39 46 76 47 70 48 69 49 40 51 62 52 47 53 61 54 48 55
REMARK SMILES IDX 51 56 60 57 74 58 49 59 50 60 59 62 75 63 52 64 41 65 42 66
REMARK SMILES IDX 46 67 43 68 45 69 44 70 63 71 64 72 68 73 65 74 67 75 66 76
REMARK SMILES IDX 53 77 54 78 58 79 55 80 57 81 56 82
REMARK H PARENT 7 19 73 50 51 61
REMARK Flexibility Score: inf
ROOT
ATOM      1  C   UNL A   1      33.975  35.271  30.406  1.00  0.00     0.188 C 
ENDROOT
BRANCH   1   2
ATOM      2  O   UNL A   1      33.016  34.596  29.600  1.00  0.00    -0.376 OA
BRANCH   2   3
ATOM      3  C   UNL A   1      33.372  34.152  28.297  1.00  0.00     0.202 C 
BRANCH   3   4
ATOM      4  C   UNL A   1      34.318  32.952  28.142  1.00  0.00     0.261 C 
BRANCH   4   5
ATOM      5  O   UNL A   1      33.711  31.747  27.645  1.00  0.00    -0.460 OA
BRANCH   5   6
ATOM      6  C   UNL A   1      34.563  30.707  27.467  1.00  0.00     0.330 C 
ATOM      7  O   UNL A   1      35.639  30.549  28.024  1.00  0.00    -0.247 OA
BRANCH   6   8
ATOM      8  C   UNL A   1      34.004  29.650  26.602  1.00  0.00     0.095 C 
ATOM      9  C   UNL A   1      32.920  29.745  25.813  1.00  0.00     0.027 C 
BRANCH   9  10
ATOM     10  C   UNL A   1      32.414  28.644  25.033  1.00  0.00     0.031 A 
ATOM     11  C   UNL A   1      34.054  28.612  23.040  1.00  0.00     0.046 C 
ATOM     12  C   UNL A   1      32.839  28.170  23.793  1.00  0.00    -0.032 A 
ATOM     13  C   UNL A   1      31.959  27.149  23.281  1.00  0.00     0.029 A 
ATOM     14  C   UNL A   1      30.921  26.827  24.133  1.00  0.00     0.093 A 
ATOM     15  S   UNL A   1      31.136  27.641  25.612  1.00  0.00    -0.130 S 
BRANCH  14  16
ATOM     16  C   UNL A   1      29.910  25.786  23.924  1.00  0.00     0.266 C 
ATOM     17  O   UNL A   1      28.710  26.071  23.859  1.00  0.00    -0.268 OA
ATOM     18  N   UNL A   1      30.256  24.475  23.681  1.00  0.00    -0.304 N 
ATOM     19  H   UNL A   1      29.603  23.964  23.151  1.00  0.00     0.171 HD
BRANCH  18  20
ATOM     20  C   UNL A   1      31.369  23.776  24.062  1.00  0.00     0.154 A 
ATOM     21  C   UNL A   1      32.150  22.858  23.322  1.00  0.00     0.068 A 
ATOM     22  N   UNL A   1      31.866  23.954  25.288  1.00  0.00    -0.155 NA
ATOM     23  C   UNL A   1      33.071  22.366  24.219  1.00  0.00     0.110 A 
ATOM     24  N   UNL A   1      32.804  22.994  25.398  1.00  0.00    -0.274 N 
ATOM     25  C   UNL A   1      33.335  22.665  26.698  1.00  0.00     0.173 C 
ENDBRANCH  18  20
ENDBRANCH  14  16
ENDBRANCH   9  10
ENDBRANCH   6   8
ENDBRANCH   5   6
ENDBRANCH   4   5
ENDBRANCH   3   4
ENDBRANCH   2   3
ENDBRANCH   1   2
BRANCH   1  26
ATOM     26  C   UNL A   1      33.552  35.924  31.739  1.00  0.00     0.188 C 
BRANCH  26  27
ATOM     27  O   UNL A   1      34.593  35.996  32.692  1.00  0.00    -0.376 OA
BRANCH  27  28
ATOM     28  C   UNL A   1      34.606  35.031  33.731  1.00  0.00     0.202 C 
BRANCH  28  29
ATOM     29  C   UNL A   1      35.856  34.159  33.951  1.00  0.00     0.261 C 
BRANCH  29  30
ATOM     30  O   UNL A   1      35.707  32.747  33.746  1.00  0.00    -0.460 OA
BRANCH  30  31
ATOM     31  C   UNL A   1      35.446  32.327  32.493  1.00  0.00     0.338 C 
ATOM     32  O   UNL A   1      34.371  32.367  31.906  1.00  0.00    -0.246 OA
BRANCH  31  33
ATOM     33  C   UNL A   1      36.724  31.936  31.869  1.00  0.00     0.060 A 
ATOM     34  C   UNL A   1      36.977  32.314  30.544  1.00  0.00     0.016 A 
ATOM     35  C   UNL A   1      37.666  31.192  32.586  1.00  0.00     0.016 A 
ATOM     36  C   UNL A   1      38.168  31.929  29.926  1.00  0.00     0.010 A 
ATOM     37  C   UNL A   1      38.851  30.795  31.959  1.00  0.00     0.010 A 
ATOM     38  C   UNL A   1      39.099  31.141  30.619  1.00  0.00    -0.014 A 
BRANCH  38  39
ATOM     39  C   UNL A   1      40.251  30.549  29.898  1.00  0.00     0.031 A 
ATOM     40  C   UNL A   1      41.481  31.389  29.689  1.00  0.00     0.074 A 
ATOM     41  C   UNL A   1      40.216  29.286  29.440  1.00  0.00     0.049 A 
ATOM     42  N   UNL A   1      42.587  31.100  29.054  1.00  0.00    -0.248 NA
ATOM     43  C   UNL A   1      41.457  32.738  30.277  1.00  0.00     0.031 C 
ATOM     44  C   UNL A   1      39.102  28.353  29.606  1.00  0.00     0.029 A 
ATOM     45  N   UNL A   1      41.149  28.574  28.727  1.00  0.00    -0.354 N 
ATOM     46  C   UNL A   1      43.390  32.229  29.164  1.00  0.00     0.074 A 
ATOM     47  C   UNL A   1      42.633  33.218  29.900  1.00  0.00     0.031 C 
ATOM     48  C   UNL A   1      39.412  27.194  28.997  1.00  0.00     0.029 A 
ATOM     49  C   UNL A   1      40.728  27.315  28.373  1.00  0.00     0.049 A 
ATOM     50  H   UNL A   1      42.036  28.931  28.492  1.00  0.00     0.167 HD
ATOM     51  C   UNL A   1      44.646  32.426  28.698  1.00  0.00     0.031 A 
ATOM     52  C   UNL A   1      41.327  26.379  27.610  1.00  0.00     0.031 A 
ATOM     53  C   UNL A   1      45.392  31.457  27.941  1.00  0.00     0.049 A 
ATOM     54  C   UNL A   1      42.687  26.655  27.024  1.00  0.00     0.074 A 
ATOM     55  C   UNL A   1      46.674  31.562  27.432  1.00  0.00     0.029 A 
ATOM     56  N   UNL A   1      44.916  30.208  27.574  1.00  0.00    -0.354 N 
ATOM     57  N   UNL A   1      43.448  27.715  27.161  1.00  0.00    -0.248 NA
ATOM     58  C   UNL A   1      43.273  25.601  26.182  1.00  0.00     0.031 C 
ATOM     59  C   UNL A   1      46.954  30.397  26.709  1.00  0.00     0.029 A 
ATOM     60  C   UNL A   1      45.870  29.543  26.822  1.00  0.00     0.049 A 
ATOM     61  H   UNL A   1      44.032  29.847  27.813  1.00  0.00     0.167 HD
ATOM     62  C   UNL A   1      44.611  27.441  26.450  1.00  0.00     0.074 A 
ATOM     63  C   UNL A   1      44.461  26.114  25.894  1.00  0.00     0.031 C 
ATOM     64  C   UNL A   1      45.708  28.220  26.276  1.00  0.00     0.031 A 
BRANCH  51  65
ATOM     65  C   UNL A   1      45.276  33.763  28.966  1.00  0.00    -0.014 A 
ATOM     66  C   UNL A   1      45.985  34.010  30.153  1.00  0.00     0.009 A 
ATOM     67  C   UNL A   1      45.178  34.784  28.008  1.00  0.00     0.009 A 
ATOM     68  C   UNL A   1      46.553  35.263  30.389  1.00  0.00     0.001 A 
ATOM     69  C   UNL A   1      45.770  36.027  28.235  1.00  0.00     0.001 A 
ATOM     70  C   UNL A   1      46.448  36.269  29.428  1.00  0.00     0.000 A 
ENDBRANCH  51  65
BRANCH  52  71
ATOM     71  C   UNL A   1      40.637  25.092  27.329  1.00  0.00    -0.014 A 
ATOM     72  C   UNL A   1      39.509  25.049  26.495  1.00  0.00     0.009 A 
ATOM     73  C   UNL A   1      41.089  23.901  27.919  1.00  0.00     0.009 A 
ATOM     74  C   UNL A   1      38.834  23.846  26.279  1.00  0.00     0.001 A 
ATOM     75  C   UNL A   1      40.429  22.694  27.678  1.00  0.00     0.001 A 
ATOM     76  C   UNL A   1      39.297  22.670  26.865  1.00  0.00     0.000 A 
ENDBRANCH  52  71
BRANCH  64  77
ATOM     77  C   UNL A   1      46.851  27.642  25.488  1.00  0.00    -0.014 A 
ATOM     78  C   UNL A   1      47.819  26.826  26.093  1.00  0.00     0.009 A 
ATOM     79  C   UNL A   1      46.929  27.880  24.106  1.00  0.00     0.009 A 
ATOM     80  C   UNL A   1      48.862  26.287  25.334  1.00  0.00     0.001 A 
ATOM     81  C   UNL A   1      47.956  27.316  23.346  1.00  0.00     0.001 A 
ATOM     82  C   UNL A   1      48.925  26.528  23.962  1.00  0.00     0.000 A 
ENDBRANCH  64  77
ENDBRANCH  38  39
ENDBRANCH  31  33
ENDBRANCH  30  31
ENDBRANCH  29  30
ENDBRANCH  28  29
ENDBRANCH  27  28
ENDBRANCH  26  27
ENDBRANCH   1  26
TORSDOF 20
ENDMDL
MODEL 2
REMARK VINA RESULT:      -9.7      4.737     10.665
REMARK SMILES Cc1cc(C(=O)Nc2ccn(C)n2)sc1/C=C/C(=O)OCCOCCOCCOC(=O)c1ccc(-c2c3nc(c(-c4ccccc4)c4ccc([nH]4)c(-c4ccccc4)c4nc(c(-c5ccccc5)c5ccc2[nH]5)C=C4)C=C3)cc1
REMARK SMILES IDX 24 1 23 2 22 3 21 4 20 5 18 6 19 7 17 8 16 9 15 10 1 11 2 12
REMARK SMILES IDX 3 13 4 14 14 15 5 16 6 17 7 18 8 20 9 21 13 22 10 23 11 24
REMARK SMILES IDX 12 25 25 26 26 27 27 28 28 29 29 30 30 31 31 32 32 33 33 34
REMARK SMILES IDX 79 35 34 36 78 37 35 38 36 39 37 40 72 41 38 42 77 43 71 44
REMARK SMILES IDX 73 45 39 46 76 47 70 48 69 49 40 51 62 52 47 53 61 54 48 55
REMARK SMILES IDX 51 56 60 57 74 58 49 59 50 60 59 62 75 63 52 64 41 65 42 66
REMARK SMILES IDX 46 67 43 68 45 69 44 70 63 71 64 72 68 73 65 74 67 75 66 76
REMARK SMILES IDX 53 77 54 78 58 79 55 80 57 81 56 82
REMARK H PARENT 7 19 73 50 51 61
REMARK Flexibility Score: inf
ROOT
ATOM      1  C   UNL A   1      42.238  19.566  25.778  1.00  0.00     0.188 C 
ENDROOT
BRANCH   1   2
ATOM      2  O   UNL A   1      41.082  19.553  26.609  1.00  0.00    -0.376 OA
BRANCH   2   3
ATOM      3  C   UNL A   1      39.833  19.995  26.092  1.00  0.00     0.202 C 
BRANCH   3   4
ATOM      4  C   UNL A   1      39.531  21.500  26.038  1.00  0.00     0.261 C 
BRANCH   4   5
ATOM      5  O   UNL A   1      38.254  21.854  25.478  1.00  0.00    -0.460 OA
BRANCH   5   6
ATOM      6  C   UNL A   1      37.652  22.922  26.055  1.00  0.00     0.330 C 
ATOM      7  O   UNL A   1      38.208  23.916  26.497  1.00  0.00    -0.247 OA
BRANCH   6   8
ATOM      8  C   UNL A   1      36.179  22.855  25.987  1.00  0.00     0.095 C 
ATOM      9  C   UNL A   1      35.402  21.825  26.365  1.00  0.00     0.027 C 
BRANCH   9  10
ATOM     10  C   UNL A   1      33.968  21.825  26.220  1.00  0.00     0.031 A 
ATOM     11  C   UNL A   1      33.604  19.870  24.574  1.00  0.00     0.046 C 
ATOM     12  C   UNL A   1      33.162  21.036  25.400  1.00  0.00    -0.032 A 
ATOM     13  C   UNL A   1      31.785  21.465  25.433  1.00  0.00     0.029 A 
ATOM     14  C   UNL A   1      31.549  22.521  26.291  1.00  0.00     0.093 A 
ATOM     15  S   UNL A   1      32.965  22.855  27.173  1.00  0.00    -0.130 S 
BRANCH  14  16
ATOM     16  C   UNL A   1      30.248  23.127  26.591  1.00  0.00     0.266 C 
ATOM     17  O   UNL A   1      29.325  22.450  27.055  1.00  0.00    -0.268 OA
ATOM     18  N   UNL A   1      30.036  24.483  26.478  1.00  0.00    -0.304 N 
ATOM     19  H   UNL A   1      29.340  24.846  27.072  1.00  0.00     0.171 HD
BRANCH  18  20
ATOM     20  C   UNL A   1      30.644  25.402  25.666  1.00  0.00     0.154 A 
ATOM     21  C   UNL A   1      31.199  26.661  25.994  1.00  0.00     0.068 A 
ATOM     22  N   UNL A   1      30.795  25.130  24.368  1.00  0.00    -0.155 NA
ATOM     23  C   UNL A   1      31.567  27.215  24.789  1.00  0.00     0.110 A 
ATOM     24  N   UNL A   1      31.229  26.292  23.844  1.00  0.00    -0.274 N 
ATOM     25  C   UNL A   1      31.200  26.483  22.415  1.00  0.00     0.173 C 
ENDBRANCH  18  20
ENDBRANCH  14  16
ENDBRANCH   9  10
ENDBRANCH   6   8
ENDBRANCH   5   6
ENDBRANCH   4   5
ENDBRANCH   3   4
ENDBRANCH   2   3
ENDBRANCH   1   2
BRANCH   1  26
ATOM     26  C   UNL A   1      43.314  20.658  25.959  1.00  0.00     0.188 C 
BRANCH  26  27
ATOM     27  O   UNL A   1      44.316  20.638  24.963  1.00  0.00    -0.376 OA
BRANCH  27  28
ATOM     28  C   UNL A   1      45.624  21.045  25.332  1.00  0.00     0.202 C 
BRANCH  28  29
ATOM     29  C   UNL A   1      45.973  22.544  25.386  1.00  0.00     0.261 C 
BRANCH  29  30
ATOM     30  O   UNL A   1      45.124  23.380  26.185  1.00  0.00    -0.460 OA
BRANCH  30  31
ATOM     31  C   UNL A   1      44.254  24.179  25.537  1.00  0.00     0.338 C 
ATOM     32  O   UNL A   1      43.959  24.145  24.348  1.00  0.00    -0.246 OA
BRANCH  31  33
ATOM     33  C   UNL A   1      43.584  25.028  26.540  1.00  0.00     0.060 A 
ATOM     34  C   UNL A   1      43.972  26.368  26.664  1.00  0.00     0.016 A 
ATOM     35  C   UNL A   1      42.582  24.502  27.360  1.00  0.00     0.016 A 
ATOM     36  C   UNL A   1      43.370  27.180  27.626  1.00  0.00     0.010 A 
ATOM     37  C   UNL A   1      41.991  25.314  28.333  1.00  0.00     0.010 A 
ATOM     38  C   UNL A   1      42.398  26.650  28.487  1.00  0.00    -0.014 A 
BRANCH  38  39
ATOM     39  C   UNL A   1      41.922  27.445  29.646  1.00  0.00     0.031 A 
ATOM     40  C   UNL A   1      40.658  28.246  29.503  1.00  0.00     0.074 A 
ATOM     41  C   UNL A   1      42.593  27.452  30.811  1.00  0.00     0.049 A 
ATOM     42  N   UNL A   1      40.077  29.044  30.361  1.00  0.00    -0.248 NA
ATOM     43  C   UNL A   1      39.955  28.130  28.214  1.00  0.00     0.031 C 
ATOM     44  C   UNL A   1      43.810  26.694  31.096  1.00  0.00     0.029 A 
ATOM     45  N   UNL A   1      42.344  28.139  31.974  1.00  0.00    -0.354 N 
ATOM     46  C   UNL A   1      38.943  29.526  29.719  1.00  0.00     0.074 A 
ATOM     47  C   UNL A   1      38.933  28.955  28.390  1.00  0.00     0.031 C 
ATOM     48  C   UNL A   1      44.210  26.970  32.350  1.00  0.00     0.029 A 
ATOM     49  C   UNL A   1      43.298  27.945  32.943  1.00  0.00     0.049 A 
ATOM     50  H   UNL A   1      41.556  28.715  32.101  1.00  0.00     0.167 HD
ATOM     51  C   UNL A   1      37.992  30.366  30.192  1.00  0.00     0.031 A 
ATOM     52  C   UNL A   1      43.433  28.513  34.158  1.00  0.00     0.031 A 
ATOM     53  C   UNL A   1      38.013  30.958  31.502  1.00  0.00     0.049 A 
ATOM     54  C   UNL A   1      42.412  29.515  34.629  1.00  0.00     0.074 A 
ATOM     55  C   UNL A   1      37.089  31.816  32.075  1.00  0.00     0.029 A 
ATOM     56  N   UNL A   1      39.015  30.764  32.439  1.00  0.00    -0.354 N 
ATOM     57  N   UNL A   1      41.327  29.939  34.024  1.00  0.00    -0.248 NA
ATOM     58  C   UNL A   1      42.631  30.113  35.955  1.00  0.00     0.031 C 
ATOM     59  C   UNL A   1      37.562  32.184  33.339  1.00  0.00     0.029 A 
ATOM     60  C   UNL A   1      38.746  31.507  33.576  1.00  0.00     0.049 A 
ATOM     61  H   UNL A   1      39.800  30.184  32.315  1.00  0.00     0.167 HD
ATOM     62  C   UNL A   1      40.723  30.828  34.907  1.00  0.00     0.074 A 
ATOM     63  C   UNL A   1      41.553  30.872  36.092  1.00  0.00     0.031 C 
ATOM     64  C   UNL A   1      39.580  31.540  34.751  1.00  0.00     0.031 A 
BRANCH  51  65
ATOM     65  C   UNL A   1      36.866  30.721  29.263  1.00  0.00    -0.014 A 
ATOM     66  C   UNL A   1      36.737  32.016  28.735  1.00  0.00     0.009 A 
ATOM     67  C   UNL A   1      35.934  29.740  28.892  1.00  0.00     0.009 A 
ATOM     68  C   UNL A   1      35.677  32.328  27.883  1.00  0.00     0.001 A 
ATOM     69  C   UNL A   1      34.891  30.048  28.018  1.00  0.00     0.001 A 
ATOM     70  C   UNL A   1      34.757  31.344  27.522  1.00  0.00     0.000 A 
ENDBRANCH  51  65
BRANCH  52  71
ATOM     71  C   UNL A   1      44.596  28.168  35.018  1.00  0.00    -0.014 A 
ATOM     72  C   UNL A   1      45.797  28.887  34.923  1.00  0.00     0.009 A 
ATOM     73  C   UNL A   1      44.519  27.095  35.921  1.00  0.00     0.009 A 
ATOM     74  C   UNL A   1      46.903  28.524  35.695  1.00  0.00     0.001 A 
ATOM     75  C   UNL A   1      45.617  26.752  36.711  1.00  0.00     0.001 A 
ATOM     76  C   UNL A   1      46.810  27.461  36.591  1.00  0.00     0.000 A 
ENDBRANCH  52  71
BRANCH  64  77
ATOM     77  C   UNL A   1      39.134  32.396  35.904  1.00  0.00    -0.014 A 
ATOM     78  C   UNL A   1      39.520  33.742  36.010  1.00  0.00     0.009 A 
ATOM     79  C   UNL A   1      38.272  31.858  36.873  1.00  0.00     0.009 A 
ATOM     80  C   UNL A   1      39.078  34.520  37.083  1.00  0.00     0.001 A 
ATOM     81  C   UNL A   1      37.809  32.646  37.927  1.00  0.00     0.001 A 
ATOM     82  C   UNL A   1      38.219  33.973  38.036  1.00  0.00     0.000 A 
ENDBRANCH  64  77
ENDBRANCH  38  39
ENDBRANCH  31  33
ENDBRANCH  30  31
ENDBRANCH  29  30
ENDBRANCH  28  29
ENDBRANCH  27  28
ENDBRANCH  26  27
ENDBRANCH   1  26
TORSDOF 20
ENDMDL
MODEL 3
REMARK VINA RESULT:      -9.7      4.023      9.929
REMARK SMILES Cc1cc(C(=O)Nc2ccn(C)n2)sc1/C=C/C(=O)OCCOCCOCCOC(=O)c1ccc(-c2c3nc(c(-c4ccccc4)c4ccc([nH]4)c(-c4ccccc4)c4nc(c(-c5ccccc5)c5ccc2[nH]5)C=C4)C=C3)cc1
REMARK SMILES IDX 24 1 23 2 22 3 21 4 20 5 18 6 19 7 17 8 16 9 15 10 1 11 2 12
REMARK SMILES IDX 3 13 4 14 14 15 5 16 6 17 7 18 8 20 9 21 13 22 10 23 11 24
REMARK SMILES IDX 12 25 25 26 26 27 27 28 28 29 29 30 30 31 31 32 32 33 33 34
REMARK SMILES IDX 79 35 34 36 78 37 35 38 36 39 37 40 72 41 38 42 77 43 71 44
REMARK SMILES IDX 73 45 39 46 76 47 70 48 69 49 40 51 62 52 47 53 61 54 48 55
REMARK SMILES IDX 51 56 60 57 74 58 49 59 50 60 59 62 75 63 52 64 41 65 42 66
REMARK SMILES IDX 46 67 43 68 45 69 44 70 63 71 64 72 68 73 65 74 67 75 66 76
REMARK SMILES IDX 53 77 54 78 58 79 55 80 57 81 56 82
REMARK H PARENT 7 19 73 50 51 61
REMARK Flexibility Score: inf
ROOT
ATOM      1  C   UNL A   1      36.187  18.792  24.952  1.00  0.00     0.188 C 
ENDROOT
BRANCH   1   2
ATOM      2  O   UNL A   1      35.252  18.050  24.176  1.00  0.00    -0.376 OA
BRANCH   2   3
ATOM      3  C   UNL A   1      34.770  16.801  24.652  1.00  0.00     0.202 C 
BRANCH   3   4
ATOM      4  C   UNL A   1      33.296  16.429  24.433  1.00  0.00     0.261 C 
BRANCH   4   5
ATOM      5  O   UNL A   1      32.359  17.512  24.567  1.00  0.00    -0.460 OA
BRANCH   5   6
ATOM      6  C   UNL A   1      32.370  18.408  23.550  1.00  0.00     0.330 C 
ATOM      7  O   UNL A   1      32.341  18.149  22.356  1.00  0.00    -0.247 OA
BRANCH   6   8
ATOM      8  C   UNL A   1      32.279  19.805  24.017  1.00  0.00     0.095 C 
ATOM      9  C   UNL A   1      32.524  20.257  25.258  1.00  0.00     0.027 C 
BRANCH   9  10
ATOM     10  C   UNL A   1      32.365  21.637  25.641  1.00  0.00     0.031 A 
ATOM     11  C   UNL A   1      34.068  21.849  27.570  1.00  0.00     0.046 C 
ATOM     12  C   UNL A   1      32.969  22.341  26.683  1.00  0.00    -0.032 A 
ATOM     13  C   UNL A   1      32.413  23.664  26.825  1.00  0.00     0.029 A 
ATOM     14  C   UNL A   1      31.447  23.969  25.887  1.00  0.00     0.093 A 
ATOM     15  S   UNL A   1      31.360  22.712  24.742  1.00  0.00    -0.130 S 
BRANCH  14  16
ATOM     16  C   UNL A   1      30.753  25.251  25.731  1.00  0.00     0.266 C 
ATOM     17  O   UNL A   1      29.730  25.500  26.377  1.00  0.00    -0.268 OA
ATOM     18  N   UNL A   1      31.266  26.265  24.955  1.00  0.00    -0.304 N 
ATOM     19  H   UNL A   1      31.004  27.174  25.230  1.00  0.00     0.171 HD
BRANCH  18  20
ATOM     20  C   UNL A   1      32.086  26.203  23.860  1.00  0.00     0.154 A 
ATOM     21  C   UNL A   1      33.427  26.630  23.716  1.00  0.00     0.068 A 
ATOM     22  N   UNL A   1      31.632  25.650  22.733  1.00  0.00    -0.155 NA
ATOM     23  C   UNL A   1      33.722  26.442  22.385  1.00  0.00     0.110 A 
ATOM     24  N   UNL A   1      32.588  25.931  21.828  1.00  0.00    -0.274 N 
ATOM     25  C   UNL A   1      32.306  25.773  20.423  1.00  0.00     0.173 C 
ENDBRANCH  18  20
ENDBRANCH  14  16
ENDBRANCH   9  10
ENDBRANCH   6   8
ENDBRANCH   5   6
ENDBRANCH   4   5
ENDBRANCH   3   4
ENDBRANCH   2   3
ENDBRANCH   1   2
BRANCH   1  26
ATOM     26  C   UNL A   1      36.146  20.335  24.956  1.00  0.00     0.188 C 
BRANCH  26  27
ATOM     27  O   UNL A   1      37.386  20.937  24.645  1.00  0.00    -0.376 OA
BRANCH  27  28
ATOM     28  C   UNL A   1      38.465  20.734  25.543  1.00  0.00     0.202 C 
BRANCH  28  29
ATOM     29  C   UNL A   1      39.459  19.584  25.299  1.00  0.00     0.261 C 
BRANCH  29  30
ATOM     30  O   UNL A   1      40.483  19.390  26.285  1.00  0.00    -0.460 OA
BRANCH  30  31
ATOM     31  C   UNL A   1      41.726  19.809  25.977  1.00  0.00     0.338 C 
ATOM     32  O   UNL A   1      42.539  19.249  25.250  1.00  0.00    -0.246 OA
BRANCH  31  33
ATOM     33  C   UNL A   1      41.907  21.156  26.550  1.00  0.00     0.060 A 
ATOM     34  C   UNL A   1      42.201  22.224  25.694  1.00  0.00     0.016 A 
ATOM     35  C   UNL A   1      41.796  21.361  27.928  1.00  0.00     0.016 A 
ATOM     36  C   UNL A   1      42.405  23.501  26.220  1.00  0.00     0.010 A 
ATOM     37  C   UNL A   1      42.015  22.639  28.454  1.00  0.00     0.010 A 
ATOM     38  C   UNL A   1      42.344  23.710  27.606  1.00  0.00    -0.014 A 
BRANCH  38  39
ATOM     39  C   UNL A   1      42.776  25.008  28.179  1.00  0.00     0.031 A 
ATOM     40  C   UNL A   1      41.743  26.077  28.407  1.00  0.00     0.074 A 
ATOM     41  C   UNL A   1      44.062  25.237  28.500  1.00  0.00     0.049 A 
ATOM     42  N   UNL A   1      41.894  27.297  28.854  1.00  0.00    -0.248 NA
ATOM     43  C   UNL A   1      40.352  25.719  28.085  1.00  0.00     0.031 C 
ATOM     44  C   UNL A   1      45.156  24.277  28.364  1.00  0.00     0.029 A 
ATOM     45  N   UNL A   1      44.663  26.366  29.000  1.00  0.00    -0.354 N 
ATOM     46  C   UNL A   1      40.621  27.852  28.867  1.00  0.00     0.074 A 
ATOM     47  C   UNL A   1      39.714  26.848  28.355  1.00  0.00     0.031 C 
ATOM     48  C   UNL A   1      46.300  24.864  28.757  1.00  0.00     0.029 A 
ATOM     49  C   UNL A   1      46.025  26.247  29.141  1.00  0.00     0.049 A 
ATOM     50  H   UNL A   1      44.167  27.182  29.235  1.00  0.00     0.167 HD
ATOM     51  C   UNL A   1      40.237  29.086  29.272  1.00  0.00     0.031 A 
ATOM     52  C   UNL A   1      46.944  27.159  29.512  1.00  0.00     0.031 A 
ATOM     53  C   UNL A   1      41.138  30.098  29.755  1.00  0.00     0.049 A 
ATOM     54  C   UNL A   1      46.506  28.555  29.871  1.00  0.00     0.074 A 
ATOM     55  C   UNL A   1      40.842  31.376  30.195  1.00  0.00     0.029 A 
ATOM     56  N   UNL A   1      42.512  29.949  29.849  1.00  0.00    -0.354 N 
ATOM     57  N   UNL A   1      45.295  29.059  29.908  1.00  0.00    -0.248 NA
ATOM     58  C   UNL A   1      47.563  29.508  30.243  1.00  0.00     0.031 C 
ATOM     59  C   UNL A   1      42.045  32.021  30.504  1.00  0.00     0.029 A 
ATOM     60  C   UNL A   1      43.082  31.122  30.314  1.00  0.00     0.049 A 
ATOM     61  H   UNL A   1      43.009  29.132  29.619  1.00  0.00     0.167 HD
ATOM     62  C   UNL A   1      45.444  30.373  30.336  1.00  0.00     0.074 A 
ATOM     63  C   UNL A   1      46.858  30.585  30.558  1.00  0.00     0.031 C 
ATOM     64  C   UNL A   1      44.492  31.319  30.533  1.00  0.00     0.031 A 
BRANCH  51  65
ATOM     65  C   UNL A   1      38.775  29.419  29.170  1.00  0.00    -0.014 A 
ATOM     66  C   UNL A   1      38.215  29.886  27.970  1.00  0.00     0.009 A 
ATOM     67  C   UNL A   1      37.942  29.240  30.285  1.00  0.00     0.009 A 
ATOM     68  C   UNL A   1      36.857  30.200  27.900  1.00  0.00     0.001 A 
ATOM     69  C   UNL A   1      36.578  29.528  30.204  1.00  0.00     0.001 A 
ATOM     70  C   UNL A   1      36.040  30.018  29.015  1.00  0.00     0.000 A 
ENDBRANCH  51  65
BRANCH  52  71
ATOM     71  C   UNL A   1      48.386  26.796  29.544  1.00  0.00    -0.014 A 
ATOM     72  C   UNL A   1      49.209  27.028  28.431  1.00  0.00     0.009 A 
ATOM     73  C   UNL A   1      48.940  26.187  30.681  1.00  0.00     0.009 A 
ATOM     74  C   UNL A   1      50.550  26.634  28.448  1.00  0.00     0.001 A 
ATOM     75  C   UNL A   1      50.287  25.820  30.706  1.00  0.00     0.001 A 
ATOM     76  C   UNL A   1      51.088  26.037  29.586  1.00  0.00     0.000 A 
ENDBRANCH  52  71
BRANCH  64  77
ATOM     77  C   UNL A   1      44.941  32.657  31.053  1.00  0.00    -0.014 A 
ATOM     78  C   UNL A   1      45.267  33.709  30.183  1.00  0.00     0.009 A 
ATOM     79  C   UNL A   1      44.991  32.880  32.438  1.00  0.00     0.009 A 
ATOM     80  C   UNL A   1      45.666  34.948  30.692  1.00  0.00     0.001 A 
ATOM     81  C   UNL A   1      45.361  34.128  32.943  1.00  0.00     0.001 A 
ATOM     82  C   UNL A   1      45.707  35.157  32.071  1.00  0.00     0.000 A 
ENDBRANCH  64  77
ENDBRANCH  38  39
ENDBRANCH  31  33
ENDBRANCH  30  31
ENDBRANCH  29  30
ENDBRANCH  28  29
ENDBRANCH  27  28
ENDBRANCH  26  27
ENDBRANCH   1  26
TORSDOF 20
ENDMDL
