MODEL 1
REMARK VINA RESULT:     -11.2      0.000      0.000
REMARK SMILES C[C@@H](C(=O)OCCOCCOCCOC(=O)c1ccc(-c2c3nc(c(-c4ccccc4)c4ccc([nH]4)c(-c4ccccc4)c4nc(c(-c5ccccc5)c5ccc2[nH]5)C=C4)C=C3)cc1)c1ccc2c3cc(Cl)ccc3n(C(=O)c3ccc(Cl)cc3)c2c1
REMARK SMILES IDX 9 1 8 2 7 3 6 4 5 5 3 6 4 7 2 8 1 9 65 10 66 11 87 12 67 13
REMARK SMILES IDX 86 14 68 15 76 16 69 17 75 18 70 19 74 20 71 21 73 22 72 23
REMARK SMILES IDX 77 24 78 25 79 26 80 27 85 28 81 29 84 30 82 31 83 32 10 33
REMARK SMILES IDX 11 34 12 35 13 36 14 37 15 38 16 39 17 40 18 41 64 42 19 43
REMARK SMILES IDX 63 44 20 45 21 46 22 47 57 48 23 49 62 50 56 51 58 52 24 53
REMARK SMILES IDX 61 54 55 55 54 56 25 58 47 59 32 60 46 61 33 62 36 63 45 64
REMARK SMILES IDX 59 65 34 66 35 67 44 69 60 70 37 71 26 72 27 73 31 74 28 75
REMARK SMILES IDX 30 76 29 77 48 78 49 79 53 80 50 81 52 82 51 83 38 84 39 85
REMARK SMILES IDX 43 86 40 87 42 88 41 89
REMARK H PARENT 58 57 36 68
REMARK Flexibility Score: inf
ROOT
ATOM      1  C   UNL A   1      35.467  32.375  28.037  1.00  0.00     0.188 C 
ENDROOT
BRANCH   1   2
ATOM      2  O   UNL A   1      35.185  30.993  28.209  1.00  0.00    -0.376 OA
BRANCH   2   3
ATOM      3  C   UNL A   1      34.028  30.461  27.565  1.00  0.00     0.202 C 
BRANCH   3   4
ATOM      4  C   UNL A   1      34.016  28.986  27.114  1.00  0.00     0.261 C 
BRANCH   4   5
ATOM      5  O   UNL A   1      32.726  28.347  27.230  1.00  0.00    -0.463 OA
BRANCH   5   6
ATOM      6  C   UNL A   1      32.306  27.629  26.156  1.00  0.00     0.313 C 
ATOM      7  O   UNL A   1      31.143  27.604  25.764  1.00  0.00    -0.252 OA
BRANCH   6   8
ATOM      8  C   UNL A   1      33.442  26.889  25.424  1.00  0.00     0.126 C 
ATOM      9  C   UNL A   1      33.659  27.394  23.989  1.00  0.00     0.025 C 
BRANCH   8  10
ATOM     10  C   UNL A   1      33.439  25.362  25.614  1.00  0.00    -0.032 A 
ATOM     11  C   UNL A   1      32.352  24.671  26.163  1.00  0.00     0.005 A 
ATOM     12  C   UNL A   1      34.513  24.600  25.115  1.00  0.00     0.032 A 
ATOM     13  C   UNL A   1      32.291  23.265  26.154  1.00  0.00     0.011 A 
ATOM     14  C   UNL A   1      34.476  23.186  25.156  1.00  0.00     0.057 A 
ATOM     15  C   UNL A   1      33.349  22.516  25.604  1.00  0.00     0.008 A 
ATOM     16  N   UNL A   1      35.444  22.238  24.780  1.00  0.00    -0.276 N 
ATOM     17  C   UNL A   1      33.552  21.133  25.343  1.00  0.00     0.009 A 
ATOM     18  C   UNL A   1      34.854  20.968  24.838  1.00  0.00     0.057 A 
ATOM     19  C   UNL A   1      32.712  20.011  25.517  1.00  0.00     0.031 A 
ATOM     20  C   UNL A   1      35.349  19.672  24.596  1.00  0.00     0.029 A 
ATOM     21  C   UNL A   1      33.188  18.743  25.208  1.00  0.00     0.041 A 
ATOM     22  C   UNL A   1      34.486  18.578  24.757  1.00  0.00     0.023 A 
ATOM     23  Cl  UNL A   1      32.169  17.372  25.406  1.00  0.00    -0.084 Cl
BRANCH  16  24
ATOM     24  C   UNL A   1      36.789  22.615  24.523  1.00  0.00     0.262 C 
ATOM     25  O   UNL A   1      37.014  22.920  23.347  1.00  0.00    -0.268 OA
BRANCH  24  26
ATOM     26  C   UNL A   1      37.979  22.667  25.429  1.00  0.00     0.040 A 
ATOM     27  C   UNL A   1      38.685  21.454  25.598  1.00  0.00     0.015 A 
ATOM     28  C   UNL A   1      38.367  23.762  26.202  1.00  0.00     0.015 A 
ATOM     29  C   UNL A   1      39.762  21.344  26.481  1.00  0.00     0.021 A 
ATOM     30  C   UNL A   1      39.478  23.665  27.061  1.00  0.00     0.021 A 
ATOM     31  C   UNL A   1      40.166  22.458  27.200  1.00  0.00     0.041 A 
ATOM     32  Cl  UNL A   1      41.496  22.338  28.282  1.00  0.00    -0.084 Cl
ENDBRANCH  24  26
ENDBRANCH  16  24
ENDBRANCH   8  10
ENDBRANCH   6   8
ENDBRANCH   5   6
ENDBRANCH   4   5
ENDBRANCH   3   4
ENDBRANCH   2   3
ENDBRANCH   1   2
BRANCH   1  33
ATOM     33  C   UNL A   1      34.334  33.380  28.294  1.00  0.00     0.188 C 
BRANCH  33  34
ATOM     34  O   UNL A   1      34.725  34.640  28.780  1.00  0.00    -0.376 OA
BRANCH  34  35
ATOM     35  C   UNL A   1      33.881  35.769  28.626  1.00  0.00     0.202 C 
BRANCH  35  36
ATOM     36  C   UNL A   1      32.847  36.255  29.666  1.00  0.00     0.261 C 
BRANCH  36  37
ATOM     37  O   UNL A   1      32.430  35.350  30.694  1.00  0.00    -0.460 OA
BRANCH  37  38
ATOM     38  C   UNL A   1      32.637  35.747  31.975  1.00  0.00     0.338 C 
ATOM     39  O   UNL A   1      31.899  36.413  32.670  1.00  0.00    -0.246 OA
BRANCH  38  40
ATOM     40  C   UNL A   1      33.826  35.015  32.473  1.00  0.00     0.060 A 
ATOM     41  C   UNL A   1      35.087  35.624  32.380  1.00  0.00     0.016 A 
ATOM     42  C   UNL A   1      33.692  33.750  33.045  1.00  0.00     0.016 A 
ATOM     43  C   UNL A   1      36.222  34.963  32.850  1.00  0.00     0.010 A 
ATOM     44  C   UNL A   1      34.835  33.074  33.483  1.00  0.00     0.010 A 
ATOM     45  C   UNL A   1      36.107  33.666  33.365  1.00  0.00    -0.014 A 
BRANCH  45  46
ATOM     46  C   UNL A   1      37.327  32.853  33.596  1.00  0.00     0.031 A 
ATOM     47  C   UNL A   1      38.063  33.040  34.894  1.00  0.00     0.074 A 
ATOM     48  C   UNL A   1      37.773  31.976  32.680  1.00  0.00     0.049 A 
ATOM     49  N   UNL A   1      39.174  32.486  35.306  1.00  0.00    -0.248 NA
ATOM     50  C   UNL A   1      37.472  33.991  35.850  1.00  0.00     0.031 C 
ATOM     51  C   UNL A   1      37.123  31.684  31.407  1.00  0.00     0.029 A 
ATOM     52  N   UNL A   1      38.888  31.171  32.684  1.00  0.00    -0.354 N 
ATOM     53  C   UNL A   1      39.434  33.049  36.549  1.00  0.00     0.074 A 
ATOM     54  C   UNL A   1      38.370  33.987  36.824  1.00  0.00     0.031 C 
ATOM     55  C   UNL A   1      37.848  30.758  30.753  1.00  0.00     0.029 A 
ATOM     56  C   UNL A   1      39.023  30.405  31.549  1.00  0.00     0.049 A 
ATOM     57  H   UNL A   1      39.529  31.144  33.430  1.00  0.00     0.167 HD
ATOM     58  C   UNL A   1      40.475  32.814  37.382  1.00  0.00     0.031 A 
ATOM     59  C   UNL A   1      39.984  29.522  31.203  1.00  0.00     0.031 A 
ATOM     60  C   UNL A   1      41.540  31.889  37.102  1.00  0.00     0.049 A 
ATOM     61  C   UNL A   1      41.140  29.294  32.151  1.00  0.00     0.074 A 
ATOM     62  C   UNL A   1      42.641  31.581  37.880  1.00  0.00     0.029 A 
ATOM     63  N   UNL A   1      41.637  31.126  35.949  1.00  0.00    -0.354 N 
ATOM     64  N   UNL A   1      41.347  29.795  33.346  1.00  0.00    -0.248 NA
ATOM     65  C   UNL A   1      42.194  28.373  31.701  1.00  0.00     0.031 C 
ATOM     66  C   UNL A   1      43.440  30.682  37.168  1.00  0.00     0.029 A 
ATOM     67  C   UNL A   1      42.798  30.374  35.979  1.00  0.00     0.049 A 
ATOM     68  H   UNL A   1      40.979  31.120  35.216  1.00  0.00     0.167 HD
ATOM     69  C   UNL A   1      42.537  29.233  33.795  1.00  0.00     0.074 A 
ATOM     70  C   UNL A   1      42.982  28.318  32.765  1.00  0.00     0.031 C 
ATOM     71  C   UNL A   1      43.216  29.461  34.947  1.00  0.00     0.031 A 
BRANCH  58  72
ATOM     72  C   UNL A   1      40.548  33.628  38.644  1.00  0.00    -0.014 A 
ATOM     73  C   UNL A   1      40.075  33.133  39.870  1.00  0.00     0.009 A 
ATOM     74  C   UNL A   1      41.123  34.908  38.605  1.00  0.00     0.009 A 
ATOM     75  C   UNL A   1      40.144  33.921  41.023  1.00  0.00     0.001 A 
ATOM     76  C   UNL A   1      41.220  35.679  39.765  1.00  0.00     0.001 A 
ATOM     77  C   UNL A   1      40.721  35.189  40.969  1.00  0.00     0.000 A 
ENDBRANCH  58  72
BRANCH  59  78
ATOM     78  C   UNL A   1      39.894  28.752  29.923  1.00  0.00    -0.014 A 
ATOM     79  C   UNL A   1      40.370  29.307  28.723  1.00  0.00     0.009 A 
ATOM     80  C   UNL A   1      39.328  27.470  29.877  1.00  0.00     0.009 A 
ATOM     81  C   UNL A   1      40.311  28.598  27.521  1.00  0.00     0.001 A 
ATOM     82  C   UNL A   1      39.285  26.750  28.677  1.00  0.00     0.001 A 
ATOM     83  C   UNL A   1      39.778  27.312  27.501  1.00  0.00     0.000 A 
ENDBRANCH  59  78
BRANCH  71  84
ATOM     84  C   UNL A   1      44.495  28.695  35.163  1.00  0.00    -0.014 A 
ATOM     85  C   UNL A   1      45.691  29.077  34.534  1.00  0.00     0.009 A 
ATOM     86  C   UNL A   1      44.513  27.603  36.046  1.00  0.00     0.009 A 
ATOM     87  C   UNL A   1      46.868  28.357  34.754  1.00  0.00     0.001 A 
ATOM     88  C   UNL A   1      45.698  26.908  36.290  1.00  0.00     0.001 A 
ATOM     89  C   UNL A   1      46.871  27.277  35.635  1.00  0.00     0.000 A 
ENDBRANCH  71  84
ENDBRANCH  45  46
ENDBRANCH  38  40
ENDBRANCH  37  38
ENDBRANCH  36  37
ENDBRANCH  35  36
ENDBRANCH  34  35
ENDBRANCH  33  34
ENDBRANCH   1  33
TORSDOF 20
ENDMDL
MODEL 2
REMARK VINA RESULT:     -10.2      2.414      4.348
REMARK SMILES C[C@@H](C(=O)OCCOCCOCCOC(=O)c1ccc(-c2c3nc(c(-c4ccccc4)c4ccc([nH]4)c(-c4ccccc4)c4nc(c(-c5ccccc5)c5ccc2[nH]5)C=C4)C=C3)cc1)c1ccc2c3cc(Cl)ccc3n(C(=O)c3ccc(Cl)cc3)c2c1
REMARK SMILES IDX 9 1 8 2 7 3 6 4 5 5 3 6 4 7 2 8 1 9 65 10 66 11 87 12 67 13
REMARK SMILES IDX 86 14 68 15 76 16 69 17 75 18 70 19 74 20 71 21 73 22 72 23
REMARK SMILES IDX 77 24 78 25 79 26 80 27 85 28 81 29 84 30 82 31 83 32 10 33
REMARK SMILES IDX 11 34 12 35 13 36 14 37 15 38 16 39 17 40 18 41 64 42 19 43
REMARK SMILES IDX 63 44 20 45 21 46 22 47 57 48 23 49 62 50 56 51 58 52 24 53
REMARK SMILES IDX 61 54 55 55 54 56 25 58 47 59 32 60 46 61 33 62 36 63 45 64
REMARK SMILES IDX 59 65 34 66 35 67 44 69 60 70 37 71 26 72 27 73 31 74 28 75
REMARK SMILES IDX 30 76 29 77 48 78 49 79 53 80 50 81 52 82 51 83 38 84 39 85
REMARK SMILES IDX 43 86 40 87 42 88 41 89
REMARK H PARENT 58 57 36 68
REMARK Flexibility Score: inf
ROOT
ATOM      1  C   UNL A   1      31.243  29.141  24.105  1.00  0.00     0.188 C 
ENDROOT
BRANCH   1   2
ATOM      2  O   UNL A   1      32.052  27.973  24.098  1.00  0.00    -0.376 OA
BRANCH   2   3
ATOM      3  C   UNL A   1      32.165  27.230  25.312  1.00  0.00     0.202 C 
BRANCH   3   4
ATOM      4  C   UNL A   1      33.540  26.680  25.744  1.00  0.00     0.261 C 
BRANCH   4   5
ATOM      5  O   UNL A   1      34.174  25.841  24.755  1.00  0.00    -0.463 OA
BRANCH   5   6
ATOM      6  C   UNL A   1      34.333  24.532  25.083  1.00  0.00     0.313 C 
ATOM      7  O   UNL A   1      33.797  24.001  26.051  1.00  0.00    -0.252 OA
BRANCH   6   8
ATOM      8  C   UNL A   1      35.203  23.745  24.085  1.00  0.00     0.126 C 
ATOM      9  C   UNL A   1      34.382  23.070  22.975  1.00  0.00     0.025 C 
BRANCH   8  10
ATOM     10  C   UNL A   1      36.304  22.886  24.733  1.00  0.00    -0.032 A 
ATOM     11  C   UNL A   1      36.375  21.497  24.567  1.00  0.00     0.005 A 
ATOM     12  C   UNL A   1      37.356  23.515  25.426  1.00  0.00     0.032 A 
ATOM     13  C   UNL A   1      37.488  20.758  25.006  1.00  0.00     0.011 A 
ATOM     14  C   UNL A   1      38.450  22.763  25.916  1.00  0.00     0.057 A 
ATOM     15  C   UNL A   1      38.558  21.408  25.651  1.00  0.00     0.008 A 
ATOM     16  N   UNL A   1      39.562  23.164  26.678  1.00  0.00    -0.276 N 
ATOM     17  C   UNL A   1      39.839  20.992  26.106  1.00  0.00     0.009 A 
ATOM     18  C   UNL A   1      40.453  22.084  26.747  1.00  0.00     0.057 A 
ATOM     19  C   UNL A   1      40.509  19.752  26.024  1.00  0.00     0.031 A 
ATOM     20  C   UNL A   1      41.696  21.909  27.385  1.00  0.00     0.029 A 
ATOM     21  C   UNL A   1      41.766  19.611  26.598  1.00  0.00     0.041 A 
ATOM     22  C   UNL A   1      42.348  20.673  27.269  1.00  0.00     0.023 A 
ATOM     23  Cl  UNL A   1      42.594  18.107  26.492  1.00  0.00    -0.084 Cl
BRANCH  16  24
ATOM     24  C   UNL A   1      39.605  24.432  27.316  1.00  0.00     0.262 C 
ATOM     25  O   UNL A   1      38.834  24.544  28.274  1.00  0.00    -0.268 OA
BRANCH  24  26
ATOM     26  C   UNL A   1      40.400  25.659  26.996  1.00  0.00     0.040 A 
ATOM     27  C   UNL A   1      40.062  26.825  27.721  1.00  0.00     0.015 A 
ATOM     28  C   UNL A   1      41.344  25.776  25.974  1.00  0.00     0.015 A 
ATOM     29  C   UNL A   1      40.667  28.057  27.461  1.00  0.00     0.021 A 
ATOM     30  C   UNL A   1      41.985  27.007  25.739  1.00  0.00     0.021 A 
ATOM     31  C   UNL A   1      41.641  28.140  26.478  1.00  0.00     0.041 A 
ATOM     32  Cl  UNL A   1      42.400  29.648  26.156  1.00  0.00    -0.084 Cl
ENDBRANCH  24  26
ENDBRANCH  16  24
ENDBRANCH   8  10
ENDBRANCH   6   8
ENDBRANCH   5   6
ENDBRANCH   4   5
ENDBRANCH   3   4
ENDBRANCH   2   3
ENDBRANCH   1   2
BRANCH   1  33
ATOM     33  C   UNL A   1      31.345  30.080  25.317  1.00  0.00     0.188 C 
BRANCH  33  34
ATOM     34  O   UNL A   1      32.645  30.375  25.763  1.00  0.00    -0.376 OA
BRANCH  34  35
ATOM     35  C   UNL A   1      32.853  31.059  26.987  1.00  0.00     0.202 C 
BRANCH  35  36
ATOM     36  C   UNL A   1      34.224  31.262  27.671  1.00  0.00     0.261 C 
BRANCH  36  37
ATOM     37  O   UNL A   1      34.855  32.543  27.574  1.00  0.00    -0.460 OA
BRANCH  37  38
ATOM     38  C   UNL A   1      34.712  33.374  28.637  1.00  0.00     0.338 C 
ATOM     39  O   UNL A   1      33.789  34.127  28.866  1.00  0.00    -0.246 OA
BRANCH  38  40
ATOM     40  C   UNL A   1      35.775  33.026  29.610  1.00  0.00     0.060 A 
ATOM     41  C   UNL A   1      36.965  33.771  29.612  1.00  0.00     0.016 A 
ATOM     42  C   UNL A   1      35.588  31.990  30.526  1.00  0.00     0.016 A 
ATOM     43  C   UNL A   1      37.977  33.473  30.523  1.00  0.00     0.010 A 
ATOM     44  C   UNL A   1      36.618  31.670  31.415  1.00  0.00     0.010 A 
ATOM     45  C   UNL A   1      37.826  32.392  31.401  1.00  0.00    -0.014 A 
BRANCH  45  46
ATOM     46  C   UNL A   1      38.996  31.893  32.165  1.00  0.00     0.031 A 
ATOM     47  C   UNL A   1      39.147  32.335  33.595  1.00  0.00     0.074 A 
ATOM     48  C   UNL A   1      39.904  31.073  31.607  1.00  0.00     0.049 A 
ATOM     49  N   UNL A   1      40.104  32.076  34.448  1.00  0.00    -0.248 NA
ATOM     50  C   UNL A   1      38.079  33.198  34.128  1.00  0.00     0.031 C 
ATOM     51  C   UNL A   1      39.842  30.549  30.246  1.00  0.00     0.029 A 
ATOM     52  N   UNL A   1      41.062  30.540  32.123  1.00  0.00    -0.354 N 
ATOM     53  C   UNL A   1      39.773  32.773  35.604  1.00  0.00     0.074 A 
ATOM     54  C   UNL A   1      38.532  33.467  35.343  1.00  0.00     0.031 C 
ATOM     55  C   UNL A   1      40.913  29.764  30.036  1.00  0.00     0.029 A 
ATOM     56  C   UNL A   1      41.749  29.742  31.236  1.00  0.00     0.049 A 
ATOM     57  H   UNL A   1      41.371  30.713  33.041  1.00  0.00     0.167 HD
ATOM     58  C   UNL A   1      40.450  32.840  36.773  1.00  0.00     0.031 A 
ATOM     59  C   UNL A   1      42.912  29.074  31.386  1.00  0.00     0.031 A 
ATOM     60  C   UNL A   1      41.691  32.158  37.027  1.00  0.00     0.049 A 
ATOM     61  C   UNL A   1      43.650  29.182  32.702  1.00  0.00     0.074 A 
ATOM     62  C   UNL A   1      42.457  32.163  38.179  1.00  0.00     0.029 A 
ATOM     63  N   UNL A   1      42.349  31.353  36.110  1.00  0.00    -0.354 N 
ATOM     64  N   UNL A   1      43.301  29.803  33.803  1.00  0.00    -0.248 NA
ATOM     65  C   UNL A   1      44.944  28.489  32.794  1.00  0.00     0.031 C 
ATOM     66  C   UNL A   1      43.613  31.416  37.936  1.00  0.00     0.029 A 
ATOM     67  C   UNL A   1      43.530  30.885  36.658  1.00  0.00     0.049 A 
ATOM     68  H   UNL A   1      42.026  31.146  35.203  1.00  0.00     0.167 HD
ATOM     69  C   UNL A   1      44.317  29.556  34.721  1.00  0.00     0.074 A 
ATOM     70  C   UNL A   1      45.272  28.691  34.061  1.00  0.00     0.031 C 
ATOM     71  C   UNL A   1      44.462  30.015  35.988  1.00  0.00     0.031 A 
BRANCH  58  72
ATOM     72  C   UNL A   1      39.896  33.739  37.843  1.00  0.00    -0.014 A 
ATOM     73  C   UNL A   1      40.232  35.100  37.911  1.00  0.00     0.009 A 
ATOM     74  C   UNL A   1      39.001  33.213  38.788  1.00  0.00     0.009 A 
ATOM     75  C   UNL A   1      39.712  35.906  38.927  1.00  0.00     0.001 A 
ATOM     76  C   UNL A   1      38.456  34.028  39.781  1.00  0.00     0.001 A 
ATOM     77  C   UNL A   1      38.820  35.371  39.857  1.00  0.00     0.000 A 
ENDBRANCH  58  72
BRANCH  59  78
ATOM     78  C   UNL A   1      43.449  28.211  30.288  1.00  0.00    -0.014 A 
ATOM     79  C   UNL A   1      44.346  28.737  29.342  1.00  0.00     0.009 A 
ATOM     80  C   UNL A   1      43.071  26.867  30.160  1.00  0.00     0.009 A 
ATOM     81  C   UNL A   1      44.871  27.944  28.319  1.00  0.00     0.001 A 
ATOM     82  C   UNL A   1      43.611  26.065  29.148  1.00  0.00     0.001 A 
ATOM     83  C   UNL A   1      44.511  26.602  28.230  1.00  0.00     0.000 A 
ENDBRANCH  59  78
BRANCH  71  84
ATOM     84  C   UNL A   1      45.683  29.573  36.752  1.00  0.00    -0.014 A 
ATOM     85  C   UNL A   1      45.647  28.460  37.607  1.00  0.00     0.009 A 
ATOM     86  C   UNL A   1      46.899  30.254  36.577  1.00  0.00     0.009 A 
ATOM     87  C   UNL A   1      46.793  28.064  38.301  1.00  0.00     0.001 A 
ATOM     88  C   UNL A   1      48.050  29.834  37.245  1.00  0.00     0.001 A 
ATOM     89  C   UNL A   1      47.993  28.747  38.115  1.00  0.00     0.000 A 
ENDBRANCH  71  84
ENDBRANCH  45  46
ENDBRANCH  38  40
ENDBRANCH  37  38
ENDBRANCH  36  37
ENDBRANCH  35  36
ENDBRANCH  34  35
ENDBRANCH  33  34
ENDBRANCH   1  33
TORSDOF 20
ENDMDL
MODEL 3
REMARK VINA RESULT:     -10.2      4.105      7.424
REMARK SMILES C[C@@H](C(=O)OCCOCCOCCOC(=O)c1ccc(-c2c3nc(c(-c4ccccc4)c4ccc([nH]4)c(-c4ccccc4)c4nc(c(-c5ccccc5)c5ccc2[nH]5)C=C4)C=C3)cc1)c1ccc2c3cc(Cl)ccc3n(C(=O)c3ccc(Cl)cc3)c2c1
REMARK SMILES IDX 9 1 8 2 7 3 6 4 5 5 3 6 4 7 2 8 1 9 65 10 66 11 87 12 67 13
REMARK SMILES IDX 86 14 68 15 76 16 69 17 75 18 70 19 74 20 71 21 73 22 72 23
REMARK SMILES IDX 77 24 78 25 79 26 80 27 85 28 81 29 84 30 82 31 83 32 10 33
REMARK SMILES IDX 11 34 12 35 13 36 14 37 15 38 16 39 17 40 18 41 64 42 19 43
REMARK SMILES IDX 63 44 20 45 21 46 22 47 57 48 23 49 62 50 56 51 58 52 24 53
REMARK SMILES IDX 61 54 55 55 54 56 25 58 47 59 32 60 46 61 33 62 36 63 45 64
REMARK SMILES IDX 59 65 34 66 35 67 44 69 60 70 37 71 26 72 27 73 31 74 28 75
REMARK SMILES IDX 30 76 29 77 48 78 49 79 53 80 50 81 52 82 51 83 38 84 39 85
REMARK SMILES IDX 43 86 40 87 42 88 41 89
REMARK H PARENT 58 57 36 68
REMARK Flexibility Score: inf
ROOT
ATOM      1  C   UNL A   1      34.476  33.002  30.300  1.00  0.00     0.188 C 
ENDROOT
BRANCH   1   2
ATOM      2  O   UNL A   1      34.369  32.523  28.966  1.00  0.00    -0.376 OA
BRANCH   2   3
ATOM      3  C   UNL A   1      35.305  31.537  28.532  1.00  0.00     0.202 C 
BRANCH   3   4
ATOM      4  C   UNL A   1      35.955  30.595  29.566  1.00  0.00     0.261 C 
BRANCH   4   5
ATOM      5  O   UNL A   1      36.864  29.631  28.992  1.00  0.00    -0.463 OA
BRANCH   5   6
ATOM      6  C   UNL A   1      38.179  29.776  29.303  1.00  0.00     0.313 C 
ATOM      7  O   UNL A   1      38.736  30.864  29.417  1.00  0.00    -0.252 OA
BRANCH   6   8
ATOM      8  C   UNL A   1      38.903  28.443  29.569  1.00  0.00     0.126 C 
ATOM      9  C   UNL A   1      39.235  28.226  31.053  1.00  0.00     0.025 C 
BRANCH   8  10
ATOM     10  C   UNL A   1      40.024  28.112  28.567  1.00  0.00    -0.032 A 
ATOM     11  C   UNL A   1      40.674  29.094  27.809  1.00  0.00     0.005 A 
ATOM     12  C   UNL A   1      40.508  26.792  28.480  1.00  0.00     0.032 A 
ATOM     13  C   UNL A   1      41.817  28.798  27.044  1.00  0.00     0.011 A 
ATOM     14  C   UNL A   1      41.624  26.485  27.667  1.00  0.00     0.057 A 
ATOM     15  C   UNL A   1      42.322  27.484  27.008  1.00  0.00     0.008 A 
ATOM     16  N   UNL A   1      42.232  25.249  27.384  1.00  0.00    -0.276 N 
ATOM     17  C   UNL A   1      43.482  26.884  26.445  1.00  0.00     0.009 A 
ATOM     18  C   UNL A   1      43.416  25.498  26.677  1.00  0.00     0.057 A 
ATOM     19  C   UNL A   1      44.577  27.433  25.742  1.00  0.00     0.031 A 
ATOM     20  C   UNL A   1      44.397  24.652  26.125  1.00  0.00     0.029 A 
ATOM     21  C   UNL A   1      45.575  26.595  25.263  1.00  0.00     0.041 A 
ATOM     22  C   UNL A   1      45.484  25.226  25.450  1.00  0.00     0.023 A 
ATOM     23  Cl  UNL A   1      46.918  27.256  24.415  1.00  0.00    -0.084 Cl
BRANCH  16  24
ATOM     24  C   UNL A   1      41.597  24.020  27.707  1.00  0.00     0.262 C 
ATOM     25  O   UNL A   1      42.119  23.410  28.645  1.00  0.00    -0.268 OA
BRANCH  24  26
ATOM     26  C   UNL A   1      40.429  23.330  27.076  1.00  0.00     0.040 A 
ATOM     27  C   UNL A   1      40.611  21.965  26.756  1.00  0.00     0.015 A 
ATOM     28  C   UNL A   1      39.241  23.942  26.671  1.00  0.00     0.015 A 
ATOM     29  C   UNL A   1      39.632  21.226  26.088  1.00  0.00     0.021 A 
ATOM     30  C   UNL A   1      38.236  23.189  26.035  1.00  0.00     0.021 A 
ATOM     31  C   UNL A   1      38.437  21.839  25.743  1.00  0.00     0.041 A 
ATOM     32  Cl  UNL A   1      37.221  20.937  24.929  1.00  0.00    -0.084 Cl
ENDBRANCH  24  26
ENDBRANCH  16  24
ENDBRANCH   8  10
ENDBRANCH   6   8
ENDBRANCH   5   6
ENDBRANCH   4   5
ENDBRANCH   3   4
ENDBRANCH   2   3
ENDBRANCH   1   2
BRANCH   1  33
ATOM     33  C   UNL A   1      34.958  34.446  30.511  1.00  0.00     0.188 C 
BRANCH  33  34
ATOM     34  O   UNL A   1      34.595  35.046  31.729  1.00  0.00    -0.376 OA
BRANCH  34  35
ATOM     35  C   UNL A   1      34.050  34.270  32.784  1.00  0.00     0.202 C 
BRANCH  35  36
ATOM     36  C   UNL A   1      34.785  33.907  34.094  1.00  0.00     0.261 C 
BRANCH  36  37
ATOM     37  O   UNL A   1      36.097  34.435  34.313  1.00  0.00    -0.460 OA
BRANCH  37  38
ATOM     38  C   UNL A   1      36.892  33.754  35.175  1.00  0.00     0.338 C 
ATOM     39  O   UNL A   1      36.655  33.470  36.331  1.00  0.00    -0.246 OA
BRANCH  38  40
ATOM     40  C   UNL A   1      38.015  33.194  34.386  1.00  0.00     0.060 A 
ATOM     41  C   UNL A   1      37.729  32.341  33.309  1.00  0.00     0.016 A 
ATOM     42  C   UNL A   1      39.334  33.527  34.694  1.00  0.00     0.016 A 
ATOM     43  C   UNL A   1      38.765  31.808  32.542  1.00  0.00     0.010 A 
ATOM     44  C   UNL A   1      40.373  32.964  33.947  1.00  0.00     0.010 A 
ATOM     45  C   UNL A   1      40.095  32.083  32.884  1.00  0.00    -0.014 A 
BRANCH  45  46
ATOM     46  C   UNL A   1      41.193  31.302  32.263  1.00  0.00     0.031 A 
ATOM     47  C   UNL A   1      41.588  30.002  32.909  1.00  0.00     0.074 A 
ATOM     48  C   UNL A   1      41.829  31.734  31.160  1.00  0.00     0.049 A 
ATOM     49  N   UNL A   1      42.544  29.170  32.585  1.00  0.00    -0.248 NA
ATOM     50  C   UNL A   1      40.805  29.595  34.088  1.00  0.00     0.031 C 
ATOM     51  C   UNL A   1      41.509  32.955  30.427  1.00  0.00     0.029 A 
ATOM     52  N   UNL A   1      42.882  31.188  30.465  1.00  0.00    -0.354 N 
ATOM     53  C   UNL A   1      42.501  28.162  33.541  1.00  0.00     0.074 A 
ATOM     54  C   UNL A   1      41.430  28.487  34.456  1.00  0.00     0.031 C 
ATOM     55  C   UNL A   1      42.346  33.063  29.380  1.00  0.00     0.029 A 
ATOM     56  C   UNL A   1      43.274  31.933  29.376  1.00  0.00     0.049 A 
ATOM     57  H   UNL A   1      43.316  30.343  30.722  1.00  0.00     0.167 HD
ATOM     58  C   UNL A   1      43.294  27.071  33.654  1.00  0.00     0.031 A 
ATOM     59  C   UNL A   1      44.264  31.717  28.484  1.00  0.00     0.031 A 
ATOM     60  C   UNL A   1      44.366  26.756  32.749  1.00  0.00     0.049 A 
ATOM     61  C   UNL A   1      45.139  30.495  28.647  1.00  0.00     0.074 A 
ATOM     62  C   UNL A   1      45.228  25.675  32.778  1.00  0.00     0.029 A 
ATOM     63  N   UNL A   1      44.726  27.527  31.655  1.00  0.00    -0.354 N 
ATOM     64  N   UNL A   1      45.056  29.524  29.525  1.00  0.00    -0.248 NA
ATOM     65  C   UNL A   1      46.244  30.339  27.689  1.00  0.00     0.031 C 
ATOM     66  C   UNL A   1      46.153  25.827  31.741  1.00  0.00     0.029 A 
ATOM     67  C   UNL A   1      45.820  26.964  31.021  1.00  0.00     0.049 A 
ATOM     68  H   UNL A   1      44.272  28.353  31.371  1.00  0.00     0.167 HD
ATOM     69  C   UNL A   1      46.079  28.635  29.211  1.00  0.00     0.074 A 
ATOM     70  C   UNL A   1      46.739  29.159  28.034  1.00  0.00     0.031 C 
ATOM     71  C   UNL A   1      46.455  27.497  29.844  1.00  0.00     0.031 A 
BRANCH  58  72
ATOM     72  C   UNL A   1      43.072  26.176  34.841  1.00  0.00    -0.014 A 
ATOM     73  C   UNL A   1      42.049  25.216  34.862  1.00  0.00     0.009 A 
ATOM     74  C   UNL A   1      43.924  26.284  35.952  1.00  0.00     0.009 A 
ATOM     75  C   UNL A   1      41.860  24.409  35.987  1.00  0.00     0.001 A 
ATOM     76  C   UNL A   1      43.755  25.454  37.061  1.00  0.00     0.001 A 
ATOM     77  C   UNL A   1      42.717  24.525  37.082  1.00  0.00     0.000 A 
ENDBRANCH  58  72
BRANCH  59  78
ATOM     78  C   UNL A   1      44.474  32.647  27.331  1.00  0.00    -0.014 A 
ATOM     79  C   UNL A   1      45.347  33.743  27.448  1.00  0.00     0.009 A 
ATOM     80  C   UNL A   1      43.806  32.466  26.111  1.00  0.00     0.009 A 
ATOM     81  C   UNL A   1      45.569  34.613  26.378  1.00  0.00     0.001 A 
ATOM     82  C   UNL A   1      44.042  33.325  25.031  1.00  0.00     0.001 A 
ATOM     83  C   UNL A   1      44.924  34.396  25.164  1.00  0.00     0.000 A 
ENDBRANCH  59  78
BRANCH  71  84
ATOM     84  C   UNL A   1      47.616  26.730  29.266  1.00  0.00    -0.014 A 
ATOM     85  C   UNL A   1      47.419  25.690  28.344  1.00  0.00     0.009 A 
ATOM     86  C   UNL A   1      48.929  27.086  29.615  1.00  0.00     0.009 A 
ATOM     87  C   UNL A   1      48.509  24.996  27.815  1.00  0.00     0.001 A 
ATOM     88  C   UNL A   1      50.018  26.415  29.057  1.00  0.00     0.001 A 
ATOM     89  C   UNL A   1      49.807  25.363  28.168  1.00  0.00     0.000 A 
ENDBRANCH  71  84
ENDBRANCH  45  46
ENDBRANCH  38  40
ENDBRANCH  37  38
ENDBRANCH  36  37
ENDBRANCH  35  36
ENDBRANCH  34  35
ENDBRANCH  33  34
ENDBRANCH   1  33
TORSDOF 20
ENDMDL
