MODEL 1
REMARK VINA RESULT:      -8.4      0.000      0.000
REMARK SMILES O=C(CCCc1nc(-c2ccc(Cl)c(Cl)c2)c(-c2ccccc2)o1)OCCOCCOCCOC(=O)c1ccc(-c2c3nc(c(-c4ccccc4)c4ccc([nH]4)c(-c4ccccc4)c4nc(c(-c5ccccc5)c5ccc2[nH]5)C=C4)C=C3)cc1
REMARK SMILES IDX 29 1 28 2 27 3 26 4 25 5 2 6 1 7 3 8 4 9 5 10 6 11 7 12
REMARK SMILES IDX 24 13 8 14 17 15 9 16 10 17 16 18 11 19 14 20 12 21 15 22
REMARK SMILES IDX 13 23 18 24 19 25 23 26 20 27 22 28 21 29 30 30 31 31 32 32
REMARK SMILES IDX 33 33 34 34 35 35 36 36 37 37 38 38 84 39 39 40 83 41 40 42
REMARK SMILES IDX 41 43 42 44 77 45 43 46 82 47 76 48 78 49 44 50 81 51 75 52
REMARK SMILES IDX 74 53 45 55 67 56 52 57 66 58 53 59 56 60 65 61 79 62 54 63
REMARK SMILES IDX 55 64 64 66 80 67 57 68 46 69 47 70 51 71 48 72 50 73 49 74
REMARK SMILES IDX 68 75 69 76 73 77 70 78 72 79 71 80 58 81 59 82 63 83 60 84
REMARK SMILES IDX 62 85 61 86
REMARK H PARENT 78 54 56 65
REMARK Flexibility Score: inf
ROOT
ATOM      1  C   UNL A   1      36.398  33.991  35.042  1.00  0.00     0.188 C 
ENDROOT
BRANCH   1   2
ATOM      2  O   UNL A   1      36.657  32.688  35.558  1.00  0.00    -0.376 OA
BRANCH   2   3
ATOM      3  C   UNL A   1      37.606  31.925  34.826  1.00  0.00     0.202 C 
BRANCH   3   4
ATOM      4  C   UNL A   1      38.365  31.009  35.774  1.00  0.00     0.261 C 
BRANCH   4   5
ATOM      5  O   UNL A   1      39.255  30.129  35.061  1.00  0.00    -0.463 OA
BRANCH   5   6
ATOM      6  C   UNL A   1      40.542  29.893  35.399  1.00  0.00     0.305 C 
ATOM      7  O   UNL A   1      40.984  30.331  36.460  1.00  0.00    -0.252 OA
BRANCH   6   8
ATOM      8  C   UNL A   1      41.452  29.173  34.433  1.00  0.00     0.123 C 
BRANCH   8   9
ATOM      9  C   UNL A   1      41.613  27.672  34.675  1.00  0.00     0.021 C 
BRANCH   9  10
ATOM     10  C   UNL A   1      42.530  26.917  33.703  1.00  0.00     0.098 C 
BRANCH  10  11
ATOM     11  C   UNL A   1      43.510  25.990  34.340  1.00  0.00     0.195 A 
ATOM     12  N   UNL A   1      44.406  25.194  33.786  1.00  0.00    -0.213 NA
ATOM     13  O   UNL A   1      43.505  25.974  35.711  1.00  0.00    -0.440 OA
ATOM     14  C   UNL A   1      45.022  24.590  34.864  1.00  0.00     0.117 A 
ATOM     15  C   UNL A   1      44.508  25.103  36.041  1.00  0.00     0.162 A 
BRANCH  14  16
ATOM     16  C   UNL A   1      46.110  23.632  34.752  1.00  0.00     0.006 A 
ATOM     17  C   UNL A   1      47.430  24.087  34.695  1.00  0.00     0.012 A 
ATOM     18  C   UNL A   1      45.870  22.248  34.745  1.00  0.00     0.032 A 
ATOM     19  C   UNL A   1      48.495  23.177  34.683  1.00  0.00     0.023 A 
ATOM     20  C   UNL A   1      46.932  21.336  34.733  1.00  0.00     0.060 A 
ATOM     21  C   UNL A   1      48.248  21.802  34.708  1.00  0.00     0.059 A 
ATOM     22  Cl  UNL A   1      46.546  19.651  34.761  1.00  0.00    -0.083 Cl
ATOM     23  Cl  UNL A   1      49.608  20.738  34.674  1.00  0.00    -0.083 Cl
ENDBRANCH  14  16
BRANCH  15  24
ATOM     24  C   UNL A   1      44.847  24.993  37.448  1.00  0.00     0.020 A 
ATOM     25  C   UNL A   1      44.663  26.066  38.326  1.00  0.00     0.012 A 
ATOM     26  C   UNL A   1      45.299  23.764  37.957  1.00  0.00     0.012 A 
ATOM     27  C   UNL A   1      44.904  25.903  39.694  1.00  0.00     0.001 A 
ATOM     28  C   UNL A   1      45.541  23.604  39.320  1.00  0.00     0.001 A 
ATOM     29  C   UNL A   1      45.339  24.673  40.190  1.00  0.00     0.000 A 
ENDBRANCH  15  24
ENDBRANCH  10  11
ENDBRANCH   9  10
ENDBRANCH   8   9
ENDBRANCH   6   8
ENDBRANCH   5   6
ENDBRANCH   4   5
ENDBRANCH   3   4
ENDBRANCH   2   3
ENDBRANCH   1   2
BRANCH   1  30
ATOM     30  C   UNL A   1      35.261  34.050  34.018  1.00  0.00     0.188 C 
BRANCH  30  31
ATOM     31  O   UNL A   1      34.511  35.260  33.978  1.00  0.00    -0.376 OA
BRANCH  31  32
ATOM     32  C   UNL A   1      34.538  36.023  32.772  1.00  0.00     0.202 C 
BRANCH  32  33
ATOM     33  C   UNL A   1      33.323  35.835  31.867  1.00  0.00     0.261 C 
BRANCH  33  34
ATOM     34  O   UNL A   1      33.664  36.094  30.492  1.00  0.00    -0.460 OA
BRANCH  34  35
ATOM     35  C   UNL A   1      33.409  35.094  29.619  1.00  0.00     0.338 C 
ATOM     36  O   UNL A   1      32.465  34.995  28.856  1.00  0.00    -0.246 OA
BRANCH  35  37
ATOM     37  C   UNL A   1      34.516  34.124  29.642  1.00  0.00     0.060 A 
ATOM     38  C   UNL A   1      34.459  33.059  30.547  1.00  0.00     0.016 A 
ATOM     39  C   UNL A   1      35.659  34.349  28.877  1.00  0.00     0.016 A 
ATOM     40  C   UNL A   1      35.576  32.241  30.727  1.00  0.00     0.010 A 
ATOM     41  C   UNL A   1      36.770  33.524  29.048  1.00  0.00     0.010 A 
ATOM     42  C   UNL A   1      36.751  32.498  30.009  1.00  0.00    -0.014 A 
BRANCH  42  43
ATOM     43  C   UNL A   1      38.029  31.847  30.384  1.00  0.00     0.031 A 
ATOM     44  C   UNL A   1      38.970  32.588  31.294  1.00  0.00     0.074 A 
ATOM     45  C   UNL A   1      38.374  30.646  29.892  1.00  0.00     0.049 A 
ATOM     46  N   UNL A   1      40.200  32.298  31.632  1.00  0.00    -0.248 NA
ATOM     47  C   UNL A   1      38.458  33.836  31.885  1.00  0.00     0.031 C 
ATOM     48  C   UNL A   1      37.542  29.811  29.028  1.00  0.00     0.029 A 
ATOM     49  N   UNL A   1      39.541  29.936  30.032  1.00  0.00    -0.354 N 
ATOM     50  C   UNL A   1      40.619  33.341  32.449  1.00  0.00     0.074 A 
ATOM     51  C   UNL A   1      39.520  34.278  32.541  1.00  0.00     0.031 C 
ATOM     52  C   UNL A   1      38.238  28.712  28.690  1.00  0.00     0.029 A 
ATOM     53  C   UNL A   1      39.573  28.788  29.282  1.00  0.00     0.049 A 
ATOM     54  H   UNL A   1      40.281  30.223  30.614  1.00  0.00     0.167 HD
ATOM     55  C   UNL A   1      41.813  33.508  33.065  1.00  0.00     0.031 A 
ATOM     56  C   UNL A   1      40.578  27.918  29.064  1.00  0.00     0.031 A 
ATOM     57  C   UNL A   1      42.905  32.580  32.976  1.00  0.00     0.049 A 
ATOM     58  C   UNL A   1      41.913  28.142  29.721  1.00  0.00     0.074 A 
ATOM     59  C   UNL A   1      44.142  32.639  33.595  1.00  0.00     0.029 A 
ATOM     60  N   UNL A   1      42.893  31.424  32.212  1.00  0.00    -0.354 N 
ATOM     61  N   UNL A   1      42.292  29.117  30.511  1.00  0.00    -0.248 NA
ATOM     62  C   UNL A   1      42.961  27.145  29.453  1.00  0.00     0.031 C 
ATOM     63  C   UNL A   1      44.896  31.542  33.165  1.00  0.00     0.029 A 
ATOM     64  C   UNL A   1      44.110  30.775  32.319  1.00  0.00     0.049 A 
ATOM     65  H   UNL A   1      42.132  31.110  31.672  1.00  0.00     0.167 HD
ATOM     66  C   UNL A   1      43.609  28.839  30.855  1.00  0.00     0.074 A 
ATOM     67  C   UNL A   1      43.965  27.602  30.190  1.00  0.00     0.031 C 
ATOM     68  C   UNL A   1      44.448  29.545  31.652  1.00  0.00     0.031 A 
BRANCH  55  69
ATOM     69  C   UNL A   1      42.007  34.774  33.851  1.00  0.00    -0.014 A 
ATOM     70  C   UNL A   1      41.514  34.908  35.158  1.00  0.00     0.009 A 
ATOM     71  C   UNL A   1      42.694  35.850  33.268  1.00  0.00     0.009 A 
ATOM     72  C   UNL A   1      41.670  36.111  35.850  1.00  0.00     0.001 A 
ATOM     73  C   UNL A   1      42.872  37.042  33.973  1.00  0.00     0.001 A 
ATOM     74  C   UNL A   1      42.350  37.176  35.258  1.00  0.00     0.000 A 
ENDBRANCH  55  69
BRANCH  56  75
ATOM     75  C   UNL A   1      40.364  26.768  28.149  1.00  0.00    -0.014 A 
ATOM     76  C   UNL A   1      40.849  26.798  26.834  1.00  0.00     0.009 A 
ATOM     77  C   UNL A   1      39.689  25.622  28.600  1.00  0.00     0.009 A 
ATOM     78  C   UNL A   1      40.651  25.706  25.985  1.00  0.00     0.001 A 
ATOM     79  C   UNL A   1      39.513  24.525  27.757  1.00  0.00     0.001 A 
ATOM     80  C   UNL A   1      39.990  24.569  26.448  1.00  0.00     0.000 A 
ENDBRANCH  56  75
BRANCH  68  81
ATOM     81  C   UNL A   1      45.822  28.986  31.882  1.00  0.00    -0.014 A 
ATOM     82  C   UNL A   1      46.081  28.103  32.943  1.00  0.00     0.009 A 
ATOM     83  C   UNL A   1      46.855  29.291  30.982  1.00  0.00     0.009 A 
ATOM     84  C   UNL A   1      47.354  27.551  33.105  1.00  0.00     0.001 A 
ATOM     85  C   UNL A   1      48.120  28.720  31.133  1.00  0.00     0.001 A 
ATOM     86  C   UNL A   1      48.369  27.855  32.197  1.00  0.00     0.000 A 
ENDBRANCH  68  81
ENDBRANCH  42  43
ENDBRANCH  35  37
ENDBRANCH  34  35
ENDBRANCH  33  34
ENDBRANCH  32  33
ENDBRANCH  31  32
ENDBRANCH  30  31
ENDBRANCH   1  30
TORSDOF 22
ENDMDL
MODEL 2
REMARK VINA RESULT:      -8.1      1.389      2.106
REMARK SMILES O=C(CCCc1nc(-c2ccc(Cl)c(Cl)c2)c(-c2ccccc2)o1)OCCOCCOCCOC(=O)c1ccc(-c2c3nc(c(-c4ccccc4)c4ccc([nH]4)c(-c4ccccc4)c4nc(c(-c5ccccc5)c5ccc2[nH]5)C=C4)C=C3)cc1
REMARK SMILES IDX 29 1 28 2 27 3 26 4 25 5 2 6 1 7 3 8 4 9 5 10 6 11 7 12
REMARK SMILES IDX 24 13 8 14 17 15 9 16 10 17 16 18 11 19 14 20 12 21 15 22
REMARK SMILES IDX 13 23 18 24 19 25 23 26 20 27 22 28 21 29 30 30 31 31 32 32
REMARK SMILES IDX 33 33 34 34 35 35 36 36 37 37 38 38 84 39 39 40 83 41 40 42
REMARK SMILES IDX 41 43 42 44 77 45 43 46 82 47 76 48 78 49 44 50 81 51 75 52
REMARK SMILES IDX 74 53 45 55 67 56 52 57 66 58 53 59 56 60 65 61 79 62 54 63
REMARK SMILES IDX 55 64 64 66 80 67 57 68 46 69 47 70 51 71 48 72 50 73 49 74
REMARK SMILES IDX 68 75 69 76 73 77 70 78 72 79 71 80 58 81 59 82 63 83 60 84
REMARK SMILES IDX 62 85 61 86
REMARK H PARENT 78 54 56 65
REMARK Flexibility Score: inf
ROOT
ATOM      1  C   UNL A   1      36.744  33.644  35.100  1.00  0.00     0.188 C 
ENDROOT
BRANCH   1   2
ATOM      2  O   UNL A   1      37.089  32.324  35.512  1.00  0.00    -0.376 OA
BRANCH   2   3
ATOM      3  C   UNL A   1      38.260  31.790  34.911  1.00  0.00     0.202 C 
BRANCH   3   4
ATOM      4  C   UNL A   1      38.846  30.709  35.806  1.00  0.00     0.261 C 
BRANCH   4   5
ATOM      5  O   UNL A   1      39.734  29.840  35.077  1.00  0.00    -0.463 OA
BRANCH   5   6
ATOM      6  C   UNL A   1      40.917  29.380  35.540  1.00  0.00     0.305 C 
ATOM      7  O   UNL A   1      41.509  30.002  36.421  1.00  0.00    -0.252 OA
BRANCH   6   8
ATOM      8  C   UNL A   1      41.546  28.159  34.912  1.00  0.00     0.123 C 
BRANCH   8   9
ATOM      9  C   UNL A   1      41.950  27.053  35.886  1.00  0.00     0.021 C 
BRANCH   9  10
ATOM     10  C   UNL A   1      42.106  25.645  35.296  1.00  0.00     0.098 C 
BRANCH  10  11
ATOM     11  C   UNL A   1      43.494  25.099  35.303  1.00  0.00     0.195 A 
ATOM     12  N   UNL A   1      44.651  25.725  35.186  1.00  0.00    -0.213 NA
ATOM     13  O   UNL A   1      43.597  23.744  35.485  1.00  0.00    -0.440 OA
ATOM     14  C   UNL A   1      45.585  24.712  35.272  1.00  0.00     0.117 A 
ATOM     15  C   UNL A   1      44.944  23.509  35.506  1.00  0.00     0.162 A 
BRANCH  14  16
ATOM     16  C   UNL A   1      47.023  24.918  35.216  1.00  0.00     0.006 A 
ATOM     17  C   UNL A   1      47.680  25.507  36.300  1.00  0.00     0.012 A 
ATOM     18  C   UNL A   1      47.782  24.499  34.111  1.00  0.00     0.032 A 
ATOM     19  C   UNL A   1      49.075  25.628  36.304  1.00  0.00     0.023 A 
ATOM     20  C   UNL A   1      49.176  24.618  34.112  1.00  0.00     0.060 A 
ATOM     21  C   UNL A   1      49.825  25.179  35.214  1.00  0.00     0.059 A 
ATOM     22  Cl  UNL A   1      50.033  24.043  32.725  1.00  0.00    -0.083 Cl
ATOM     23  Cl  UNL A   1      51.540  25.374  35.279  1.00  0.00    -0.083 Cl
ENDBRANCH  14  16
BRANCH  15  24
ATOM     24  C   UNL A   1      45.371  22.162  35.838  1.00  0.00     0.020 A 
ATOM     25  C   UNL A   1      45.915  21.860  37.091  1.00  0.00     0.012 A 
ATOM     26  C   UNL A   1      45.168  21.124  34.915  1.00  0.00     0.012 A 
ATOM     27  C   UNL A   1      46.226  20.537  37.421  1.00  0.00     0.001 A 
ATOM     28  C   UNL A   1      45.481  19.806  35.245  1.00  0.00     0.001 A 
ATOM     29  C   UNL A   1      46.006  19.512  36.501  1.00  0.00     0.000 A 
ENDBRANCH  15  24
ENDBRANCH  10  11
ENDBRANCH   9  10
ENDBRANCH   8   9
ENDBRANCH   6   8
ENDBRANCH   5   6
ENDBRANCH   4   5
ENDBRANCH   3   4
ENDBRANCH   2   3
ENDBRANCH   1   2
BRANCH   1  30
ATOM     30  C   UNL A   1      35.659  33.704  34.020  1.00  0.00     0.188 C 
BRANCH  30  31
ATOM     31  O   UNL A   1      34.790  34.833  34.062  1.00  0.00    -0.376 OA
BRANCH  31  32
ATOM     32  C   UNL A   1      34.715  35.661  32.902  1.00  0.00     0.202 C 
BRANCH  32  33
ATOM     33  C   UNL A   1      33.467  35.456  32.048  1.00  0.00     0.261 C 
BRANCH  33  34
ATOM     34  O   UNL A   1      33.736  35.772  30.668  1.00  0.00    -0.460 OA
BRANCH  34  35
ATOM     35  C   UNL A   1      33.515  34.779  29.779  1.00  0.00     0.338 C 
ATOM     36  O   UNL A   1      32.555  34.639  29.042  1.00  0.00    -0.246 OA
BRANCH  35  37
ATOM     37  C   UNL A   1      34.678  33.878  29.745  1.00  0.00     0.060 A 
ATOM     38  C   UNL A   1      34.662  32.727  30.539  1.00  0.00     0.016 A 
ATOM     39  C   UNL A   1      35.827  34.245  29.045  1.00  0.00     0.016 A 
ATOM     40  C   UNL A   1      35.822  31.962  30.676  1.00  0.00     0.010 A 
ATOM     41  C   UNL A   1      36.982  33.474  29.173  1.00  0.00     0.010 A 
ATOM     42  C   UNL A   1      36.999  32.358  30.028  1.00  0.00    -0.014 A 
BRANCH  42  43
ATOM     43  C   UNL A   1      38.304  31.750  30.382  1.00  0.00     0.031 A 
ATOM     44  C   UNL A   1      39.235  32.522  31.276  1.00  0.00     0.074 A 
ATOM     45  C   UNL A   1      38.680  30.561  29.884  1.00  0.00     0.049 A 
ATOM     46  N   UNL A   1      40.479  32.272  31.594  1.00  0.00    -0.248 NA
ATOM     47  C   UNL A   1      38.692  33.752  31.876  1.00  0.00     0.031 C 
ATOM     48  C   UNL A   1      37.861  29.698  29.034  1.00  0.00     0.029 A 
ATOM     49  N   UNL A   1      39.871  29.889  30.004  1.00  0.00    -0.354 N 
ATOM     50  C   UNL A   1      40.877  33.329  32.404  1.00  0.00     0.074 A 
ATOM     51  C   UNL A   1      39.750  34.229  32.514  1.00  0.00     0.031 C 
ATOM     52  C   UNL A   1      38.587  28.622  28.685  1.00  0.00     0.029 A 
ATOM     53  C   UNL A   1      39.928  28.742  29.253  1.00  0.00     0.049 A 
ATOM     54  H   UNL A   1      40.612  30.201  30.574  1.00  0.00     0.167 HD
ATOM     55  C   UNL A   1      42.075  33.536  32.999  1.00  0.00     0.031 A 
ATOM     56  C   UNL A   1      40.958  27.906  29.019  1.00  0.00     0.031 A 
ATOM     57  C   UNL A   1      43.196  32.643  32.892  1.00  0.00     0.049 A 
ATOM     58  C   UNL A   1      42.296  28.174  29.653  1.00  0.00     0.074 A 
ATOM     59  C   UNL A   1      44.440  32.743  33.491  1.00  0.00     0.029 A 
ATOM     60  N   UNL A   1      43.209  31.487  32.128  1.00  0.00    -0.354 N 
ATOM     61  N   UNL A   1      42.655  29.161  30.438  1.00  0.00    -0.248 NA
ATOM     62  C   UNL A   1      43.371  27.211  29.368  1.00  0.00     0.031 C 
ATOM     63  C   UNL A   1      45.222  31.672  33.048  1.00  0.00     0.029 A 
ATOM     64  C   UNL A   1      44.448  30.879  32.215  1.00  0.00     0.049 A 
ATOM     65  H   UNL A   1      42.449  31.149  31.601  1.00  0.00     0.167 HD
ATOM     66  C   UNL A   1      43.986  28.927  30.759  1.00  0.00     0.074 A 
ATOM     67  C   UNL A   1      44.372  27.702  30.088  1.00  0.00     0.031 C 
ATOM     68  C   UNL A   1      44.815  29.660  31.542  1.00  0.00     0.031 A 
BRANCH  55  69
ATOM     69  C   UNL A   1      42.241  34.808  33.782  1.00  0.00    -0.014 A 
ATOM     70  C   UNL A   1      42.783  35.963  33.197  1.00  0.00     0.009 A 
ATOM     71  C   UNL A   1      41.847  34.846  35.128  1.00  0.00     0.009 A 
ATOM     72  C   UNL A   1      42.967  37.119  33.959  1.00  0.00     0.001 A 
ATOM     73  C   UNL A   1      42.005  36.012  35.880  1.00  0.00     0.001 A 
ATOM     74  C   UNL A   1      42.576  37.143  35.299  1.00  0.00     0.000 A 
ENDBRANCH  55  69
BRANCH  56  75
ATOM     75  C   UNL A   1      40.767  26.749  28.108  1.00  0.00    -0.014 A 
ATOM     76  C   UNL A   1      40.315  25.517  28.599  1.00  0.00     0.009 A 
ATOM     77  C   UNL A   1      41.017  26.884  26.733  1.00  0.00     0.009 A 
ATOM     78  C   UNL A   1      40.127  24.437  27.731  1.00  0.00     0.001 A 
ATOM     79  C   UNL A   1      40.808  25.811  25.865  1.00  0.00     0.001 A 
ATOM     80  C   UNL A   1      40.367  24.588  26.365  1.00  0.00     0.000 A 
ENDBRANCH  56  75
BRANCH  68  81
ATOM     81  C   UNL A   1      46.211  29.147  31.750  1.00  0.00    -0.014 A 
ATOM     82  C   UNL A   1      47.248  29.482  30.866  1.00  0.00     0.009 A 
ATOM     83  C   UNL A   1      46.505  28.376  32.886  1.00  0.00     0.009 A 
ATOM     84  C   UNL A   1      48.551  29.040  31.109  1.00  0.00     0.001 A 
ATOM     85  C   UNL A   1      47.811  27.955  33.138  1.00  0.00     0.001 A 
ATOM     86  C   UNL A   1      48.832  28.283  32.248  1.00  0.00     0.000 A 
ENDBRANCH  68  81
ENDBRANCH  42  43
ENDBRANCH  35  37
ENDBRANCH  34  35
ENDBRANCH  33  34
ENDBRANCH  32  33
ENDBRANCH  31  32
ENDBRANCH  30  31
ENDBRANCH   1  30
TORSDOF 22
ENDMDL
MODEL 3
REMARK VINA RESULT:      -8.1      5.531     10.350
REMARK SMILES O=C(CCCc1nc(-c2ccc(Cl)c(Cl)c2)c(-c2ccccc2)o1)OCCOCCOCCOC(=O)c1ccc(-c2c3nc(c(-c4ccccc4)c4ccc([nH]4)c(-c4ccccc4)c4nc(c(-c5ccccc5)c5ccc2[nH]5)C=C4)C=C3)cc1
REMARK SMILES IDX 29 1 28 2 27 3 26 4 25 5 2 6 1 7 3 8 4 9 5 10 6 11 7 12
REMARK SMILES IDX 24 13 8 14 17 15 9 16 10 17 16 18 11 19 14 20 12 21 15 22
REMARK SMILES IDX 13 23 18 24 19 25 23 26 20 27 22 28 21 29 30 30 31 31 32 32
REMARK SMILES IDX 33 33 34 34 35 35 36 36 37 37 38 38 84 39 39 40 83 41 40 42
REMARK SMILES IDX 41 43 42 44 77 45 43 46 82 47 76 48 78 49 44 50 81 51 75 52
REMARK SMILES IDX 74 53 45 55 67 56 52 57 66 58 53 59 56 60 65 61 79 62 54 63
REMARK SMILES IDX 55 64 64 66 80 67 57 68 46 69 47 70 51 71 48 72 50 73 49 74
REMARK SMILES IDX 68 75 69 76 73 77 70 78 72 79 71 80 58 81 59 82 63 83 60 84
REMARK SMILES IDX 62 85 61 86
REMARK H PARENT 78 54 56 65
REMARK Flexibility Score: inf
ROOT
ATOM      1  C   UNL A   1      33.899  35.187  32.522  1.00  0.00     0.188 C 
ENDROOT
BRANCH   1   2
ATOM      2  O   UNL A   1      32.866  35.429  31.570  1.00  0.00    -0.376 OA
BRANCH   2   3
ATOM      3  C   UNL A   1      32.982  36.647  30.849  1.00  0.00     0.202 C 
BRANCH   3   4
ATOM      4  C   UNL A   1      32.963  36.359  29.355  1.00  0.00     0.261 C 
BRANCH   4   5
ATOM      5  O   UNL A   1      32.416  35.057  29.072  1.00  0.00    -0.463 OA
BRANCH   5   6
ATOM      6  C   UNL A   1      32.983  34.141  28.257  1.00  0.00     0.305 C 
ATOM      7  O   UNL A   1      32.284  33.527  27.451  1.00  0.00    -0.252 OA
BRANCH   6   8
ATOM      8  C   UNL A   1      34.450  33.814  28.399  1.00  0.00     0.123 C 
BRANCH   8   9
ATOM      9  C   UNL A   1      34.770  32.361  28.746  1.00  0.00     0.021 C 
BRANCH   9  10
ATOM     10  C   UNL A   1      35.709  31.619  27.787  1.00  0.00     0.098 C 
BRANCH  10  11
ATOM     11  C   UNL A   1      36.928  31.030  28.414  1.00  0.00     0.195 A 
ATOM     12  N   UNL A   1      37.508  31.312  29.566  1.00  0.00    -0.213 NA
ATOM     13  O   UNL A   1      37.531  30.023  27.705  1.00  0.00    -0.440 OA
ATOM     14  C   UNL A   1      38.584  30.449  29.614  1.00  0.00     0.117 A 
ATOM     15  C   UNL A   1      38.570  29.626  28.502  1.00  0.00     0.162 A 
BRANCH  14  16
ATOM     16  C   UNL A   1      39.522  30.372  30.722  1.00  0.00     0.006 A 
ATOM     17  C   UNL A   1      40.897  30.363  30.466  1.00  0.00     0.012 A 
ATOM     18  C   UNL A   1      39.083  30.350  32.056  1.00  0.00     0.032 A 
ATOM     19  C   UNL A   1      41.815  30.385  31.522  1.00  0.00     0.023 A 
ATOM     20  C   UNL A   1      39.998  30.372  33.113  1.00  0.00     0.060 A 
ATOM     21  C   UNL A   1      41.368  30.395  32.846  1.00  0.00     0.059 A 
ATOM     22  Cl  UNL A   1      39.368  30.380  34.723  1.00  0.00    -0.083 Cl
ATOM     23  Cl  UNL A   1      42.558  30.406  34.098  1.00  0.00    -0.083 Cl
ENDBRANCH  14  16
BRANCH  15  24
ATOM     24  C   UNL A   1      39.313  28.453  28.078  1.00  0.00     0.020 A 
ATOM     25  C   UNL A   1      40.253  28.523  27.045  1.00  0.00     0.012 A 
ATOM     26  C   UNL A   1      39.142  27.240  28.765  1.00  0.00     0.012 A 
ATOM     27  C   UNL A   1      41.026  27.403  26.722  1.00  0.00     0.001 A 
ATOM     28  C   UNL A   1      39.911  26.124  28.440  1.00  0.00     0.001 A 
ATOM     29  C   UNL A   1      40.857  26.207  27.422  1.00  0.00     0.000 A 
ENDBRANCH  15  24
ENDBRANCH  10  11
ENDBRANCH   9  10
ENDBRANCH   8   9
ENDBRANCH   6   8
ENDBRANCH   5   6
ENDBRANCH   4   5
ENDBRANCH   3   4
ENDBRANCH   2   3
ENDBRANCH   1   2
BRANCH   1  30
ATOM     30  C   UNL A   1      33.820  33.818  33.205  1.00  0.00     0.188 C 
BRANCH  30  31
ATOM     31  O   UNL A   1      34.218  32.699  32.418  1.00  0.00    -0.376 OA
BRANCH  31  32
ATOM     32  C   UNL A   1      35.600  32.344  32.412  1.00  0.00     0.202 C 
BRANCH  32  33
ATOM     33  C   UNL A   1      36.545  33.439  32.900  1.00  0.00     0.261 C 
BRANCH  33  34
ATOM     34  O   UNL A   1      37.859  33.269  32.334  1.00  0.00    -0.460 OA
BRANCH  34  35
ATOM     35  C   UNL A   1      38.781  34.191  32.689  1.00  0.00     0.338 C 
ATOM     36  O   UNL A   1      38.709  35.008  33.590  1.00  0.00    -0.246 OA
BRANCH  35  37
ATOM     37  C   UNL A   1      39.988  34.027  31.864  1.00  0.00     0.060 A 
ATOM     38  C   UNL A   1      41.241  34.058  32.486  1.00  0.00     0.016 A 
ATOM     39  C   UNL A   1      39.885  33.986  30.474  1.00  0.00     0.016 A 
ATOM     40  C   UNL A   1      42.401  34.101  31.711  1.00  0.00     0.010 A 
ATOM     41  C   UNL A   1      41.044  34.017  29.700  1.00  0.00     0.010 A 
ATOM     42  C   UNL A   1      42.304  34.125  30.313  1.00  0.00    -0.014 A 
BRANCH  42  43
ATOM     43  C   UNL A   1      43.479  34.465  29.476  1.00  0.00     0.031 A 
ATOM     44  C   UNL A   1      44.460  33.375  29.140  1.00  0.00     0.074 A 
ATOM     45  C   UNL A   1      43.701  35.723  29.060  1.00  0.00     0.049 A 
ATOM     46  N   UNL A   1      45.632  33.460  28.563  1.00  0.00    -0.248 NA
ATOM     47  C   UNL A   1      44.074  32.009  29.527  1.00  0.00     0.031 C 
ATOM     48  C   UNL A   1      42.815  36.862  29.289  1.00  0.00     0.029 A 
ATOM     49  N   UNL A   1      44.769  36.252  28.378  1.00  0.00    -0.354 N 
ATOM     50  C   UNL A   1      46.134  32.165  28.547  1.00  0.00     0.074 A 
ATOM     51  C   UNL A   1      45.151  31.317  29.186  1.00  0.00     0.031 C 
ATOM     52  C   UNL A   1      43.391  37.965  28.780  1.00  0.00     0.029 A 
ATOM     53  C   UNL A   1      44.698  37.614  28.228  1.00  0.00     0.049 A 
ATOM     54  H   UNL A   1      45.512  35.707  28.031  1.00  0.00     0.167 HD
ATOM     55  C   UNL A   1      47.311  31.719  28.049  1.00  0.00     0.031 A 
ATOM     56  C   UNL A   1      45.603  38.484  27.738  1.00  0.00     0.031 A 
ATOM     57  C   UNL A   1      48.289  32.557  27.413  1.00  0.00     0.049 A 
ATOM     58  C   UNL A   1      46.925  37.977  27.229  1.00  0.00     0.074 A 
ATOM     59  C   UNL A   1      49.496  32.195  26.840  1.00  0.00     0.029 A 
ATOM     60  N   UNL A   1      48.174  33.931  27.274  1.00  0.00    -0.354 N 
ATOM     61  N   UNL A   1      47.381  36.748  27.194  1.00  0.00    -0.248 NA
ATOM     62  C   UNL A   1      47.858  38.980  26.693  1.00  0.00     0.031 C 
ATOM     63  C   UNL A   1      50.134  33.358  26.398  1.00  0.00     0.029 A 
ATOM     64  C   UNL A   1      49.301  34.437  26.650  1.00  0.00     0.049 A 
ATOM     65  H   UNL A   1      47.406  34.468  27.574  1.00  0.00     0.167 HD
ATOM     66  C   UNL A   1      48.639  36.826  26.612  1.00  0.00     0.074 A 
ATOM     67  C   UNL A   1      48.876  38.222  26.305  1.00  0.00     0.031 C 
ATOM     68  C   UNL A   1      49.520  35.829  26.351  1.00  0.00     0.031 A 
BRANCH  55  69
ATOM     69  C   UNL A   1      47.619  30.258  28.221  1.00  0.00    -0.014 A 
ATOM     70  C   UNL A   1      47.203  29.306  27.278  1.00  0.00     0.009 A 
ATOM     71  C   UNL A   1      48.336  29.832  29.349  1.00  0.00     0.009 A 
ATOM     72  C   UNL A   1      47.463  27.949  27.484  1.00  0.00     0.001 A 
ATOM     73  C   UNL A   1      48.619  28.478  29.539  1.00  0.00     0.001 A 
ATOM     74  C   UNL A   1      48.173  27.537  28.613  1.00  0.00     0.000 A 
ENDBRANCH  55  69
BRANCH  56  75
ATOM     75  C   UNL A   1      45.295  39.936  27.740  1.00  0.00    -0.014 A 
ATOM     76  C   UNL A   1      45.647  40.742  28.832  1.00  0.00     0.009 A 
ATOM     77  C   UNL A   1      44.663  40.527  26.634  1.00  0.00     0.009 A 
ATOM     78  C   UNL A   1      45.362  42.111  28.819  1.00  0.00     0.001 A 
ATOM     79  C   UNL A   1      44.400  41.897  26.615  1.00  0.00     0.001 A 
ATOM     80  C   UNL A   1      44.746  42.687  27.709  1.00  0.00     0.000 A 
ENDBRANCH  56  75
BRANCH  68  81
ATOM     81  C   UNL A   1      50.807  36.197  25.673  1.00  0.00    -0.014 A 
ATOM     82  C   UNL A   1      51.971  36.460  26.412  1.00  0.00     0.009 A 
ATOM     83  C   UNL A   1      50.873  36.210  24.270  1.00  0.00     0.009 A 
ATOM     84  C   UNL A   1      53.172  36.746  25.758  1.00  0.00     0.001 A 
ATOM     85  C   UNL A   1      52.080  36.474  23.620  1.00  0.00     0.001 A 
ATOM     86  C   UNL A   1      53.226  36.746  24.363  1.00  0.00     0.000 A 
ENDBRANCH  68  81
ENDBRANCH  42  43
ENDBRANCH  35  37
ENDBRANCH  34  35
ENDBRANCH  33  34
ENDBRANCH  32  33
ENDBRANCH  31  32
ENDBRANCH  30  31
ENDBRANCH   1  30
TORSDOF 22
ENDMDL
