MODEL 1
REMARK VINA RESULT:      -8.3      0.000      0.000
REMARK SMILES COC(=O)N/N=C/c1ccc(-c2cccc(C(=O)OCCOCCOCCOC(=O)c3ccc(-c4c5nc(c(-c6ccccc6)c6ccc([nH]6)c(-c6ccccc6)c6nc(c(-c7ccccc7)c7ccc4[nH]7)C=C6)C=C5)cc3)c2)o1
REMARK SMILES IDX 23 1 22 2 21 3 20 4 19 5 17 6 18 7 16 8 12 9 13 10 79 11
REMARK SMILES IDX 14 12 15 13 11 14 8 15 9 16 80 17 10 18 7 19 6 20 5 21 3 22
REMARK SMILES IDX 4 23 2 25 1 26 24 27 25 28 26 29 27 30 28 31 29 32 30 33
REMARK SMILES IDX 31 34 32 35 78 36 33 37 77 38 34 39 35 40 36 41 71 42 37 43
REMARK SMILES IDX 76 44 70 45 72 46 38 47 75 48 69 49 68 50 39 52 61 53 46 54
REMARK SMILES IDX 60 55 47 56 50 57 59 58 73 59 48 60 49 61 58 63 74 64 51 65
REMARK SMILES IDX 40 66 41 67 45 68 42 69 44 70 43 71 62 72 63 73 67 74 64 75
REMARK SMILES IDX 66 76 65 77 52 78 53 79 57 80 54 81 56 82 55 83
REMARK H PARENT 5 24 72 51 50 62
REMARK Flexibility Score: inf
ROOT
ATOM      1  C   UNL A   1      44.453  19.328  25.008  1.00  0.00     0.188 C 
ENDROOT
BRANCH   1   2
ATOM      2  O   UNL A   1      43.044  19.210  25.090  1.00  0.00    -0.376 OA
BRANCH   2   3
ATOM      3  C   UNL A   1      42.348  19.726  26.216  1.00  0.00     0.202 C 
BRANCH   3   4
ATOM      4  C   UNL A   1      41.548  21.041  26.157  1.00  0.00     0.261 C 
BRANCH   4   5
ATOM      5  O   UNL A   1      42.298  22.242  26.390  1.00  0.00    -0.460 OA
BRANCH   5   6
ATOM      6  C   UNL A   1      42.051  22.876  27.564  1.00  0.00     0.338 C 
ATOM      7  O   UNL A   1      42.325  22.483  28.685  1.00  0.00    -0.246 OA
BRANCH   6   8
ATOM      8  C   UNL A   1      41.589  24.255  27.283  1.00  0.00     0.060 A 
ATOM      9  C   UNL A   1      40.433  26.294  27.923  1.00  0.00     0.018 A 
ATOM     10  C   UNL A   1      40.606  26.776  26.615  1.00  0.00     0.012 A 
ATOM     11  C   UNL A   1      40.913  25.015  28.244  1.00  0.00     0.027 A 
ATOM     12  C   UNL A   1      41.279  26.016  25.655  1.00  0.00     0.002 A 
ATOM     13  C   UNL A   1      41.785  24.763  25.993  1.00  0.00     0.016 A 
BRANCH   9  14
ATOM     14  C   UNL A   1      39.834  27.127  28.955  1.00  0.00     0.134 A 
ATOM     15  C   UNL A   1      38.348  28.562  29.721  1.00  0.00     0.147 A 
ATOM     16  C   UNL A   1      39.247  28.337  30.744  1.00  0.00     0.053 A 
ATOM     17  O   UNL A   1      38.703  27.823  28.624  1.00  0.00    -0.455 OA
ATOM     18  C   UNL A   1      40.191  27.407  30.258  1.00  0.00     0.051 A 
BRANCH  15  19
ATOM     19  C   UNL A   1      37.198  29.423  29.645  1.00  0.00     0.180 C 
ATOM     20  N   UNL A   1      37.014  30.314  30.568  1.00  0.00    -0.175 NA
BRANCH  20  21
ATOM     21  N   UNL A   1      35.913  31.126  30.517  1.00  0.00    -0.212 N 
ATOM     22  C   UNL A   1      35.375  31.940  31.490  1.00  0.00     0.427 C 
ATOM     23  O   UNL A   1      34.402  32.654  31.251  1.00  0.00    -0.223 OA
ATOM     24  H   UNL A   1      35.433  31.128  29.658  1.00  0.00     0.197 HD
BRANCH  22  25
ATOM     25  O   UNL A   1      36.024  31.906  32.683  1.00  0.00    -0.452 OA
ATOM     26  C   UNL A   1      35.616  32.927  33.593  1.00  0.00     0.284 C 
ENDBRANCH  22  25
ENDBRANCH  20  21
ENDBRANCH  15  19
ENDBRANCH   9  14
ENDBRANCH   6   8
ENDBRANCH   5   6
ENDBRANCH   4   5
ENDBRANCH   3   4
ENDBRANCH   2   3
ENDBRANCH   1   2
BRANCH   1  27
ATOM     27  C   UNL A   1      45.107  20.710  24.800  1.00  0.00     0.188 C 
BRANCH  27  28
ATOM     28  O   UNL A   1      44.503  21.533  23.835  1.00  0.00    -0.376 OA
BRANCH  28  29
ATOM     29  C   UNL A   1      44.851  22.904  23.750  1.00  0.00     0.202 C 
BRANCH  29  30
ATOM     30  C   UNL A   1      45.765  23.678  24.727  1.00  0.00     0.261 C 
BRANCH  30  31
ATOM     31  O   UNL A   1      45.849  25.101  24.618  1.00  0.00    -0.460 OA
BRANCH  31  32
ATOM     32  C   UNL A   1      46.795  25.703  25.379  1.00  0.00     0.338 C 
ATOM     33  O   UNL A   1      48.003  25.630  25.255  1.00  0.00    -0.246 OA
BRANCH  32  34
ATOM     34  C   UNL A   1      46.127  26.626  26.318  1.00  0.00     0.060 A 
ATOM     35  C   UNL A   1      46.871  27.183  27.366  1.00  0.00     0.016 A 
ATOM     36  C   UNL A   1      44.768  26.909  26.184  1.00  0.00     0.016 A 
ATOM     37  C   UNL A   1      46.250  28.015  28.298  1.00  0.00     0.010 A 
ATOM     38  C   UNL A   1      44.143  27.726  27.131  1.00  0.00     0.010 A 
ATOM     39  C   UNL A   1      44.874  28.263  28.208  1.00  0.00    -0.014 A 
BRANCH  39  40
ATOM     40  C   UNL A   1      44.168  28.953  29.315  1.00  0.00     0.031 A 
ATOM     41  C   UNL A   1      43.847  30.417  29.167  1.00  0.00     0.074 A 
ATOM     42  C   UNL A   1      43.815  28.296  30.435  1.00  0.00     0.049 A 
ATOM     43  N   UNL A   1      43.304  31.237  30.030  1.00  0.00    -0.248 NA
ATOM     44  C   UNL A   1      44.187  31.037  27.876  1.00  0.00     0.031 C 
ATOM     45  C   UNL A   1      44.030  26.873  30.688  1.00  0.00     0.029 A 
ATOM     46  N   UNL A   1      43.211  28.754  31.581  1.00  0.00    -0.354 N 
ATOM     47  C   UNL A   1      43.257  32.473  29.394  1.00  0.00     0.074 A 
ATOM     48  C   UNL A   1      43.840  32.299  28.082  1.00  0.00     0.031 C 
ATOM     49  C   UNL A   1      43.582  26.577  31.921  1.00  0.00     0.029 A 
ATOM     50  C   UNL A   1      43.087  27.796  32.558  1.00  0.00     0.049 A 
ATOM     51  H   UNL A   1      42.897  29.681  31.692  1.00  0.00     0.167 HD
ATOM     52  C   UNL A   1      42.773  33.646  29.863  1.00  0.00     0.031 A 
ATOM     53  C   UNL A   1      42.655  27.899  33.831  1.00  0.00     0.031 A 
ATOM     54  C   UNL A   1      42.197  33.822  31.169  1.00  0.00     0.049 A 
ATOM     55  C   UNL A   1      42.188  29.236  34.349  1.00  0.00     0.074 A 
ATOM     56  C   UNL A   1      41.649  34.969  31.718  1.00  0.00     0.029 A 
ATOM     57  N   UNL A   1      42.107  32.832  32.134  1.00  0.00    -0.354 N 
ATOM     58  N   UNL A   1      42.104  30.386  33.723  1.00  0.00    -0.248 NA
ATOM     59  C   UNL A   1      41.745  29.286  35.752  1.00  0.00     0.031 C 
ATOM     60  C   UNL A   1      41.290  34.691  33.040  1.00  0.00     0.029 A 
ATOM     61  C   UNL A   1      41.544  33.352  33.288  1.00  0.00     0.049 A 
ATOM     62  H   UNL A   1      42.399  31.900  32.016  1.00  0.00     0.167 HD
ATOM     63  C   UNL A   1      41.570  31.282  34.642  1.00  0.00     0.074 A 
ATOM     64  C   UNL A   1      41.330  30.540  35.861  1.00  0.00     0.031 C 
ATOM     65  C   UNL A   1      41.300  32.602  34.492  1.00  0.00     0.031 A 
BRANCH  52  66
ATOM     66  C   UNL A   1      42.878  34.855  28.975  1.00  0.00    -0.014 A 
ATOM     67  C   UNL A   1      44.060  35.608  28.895  1.00  0.00     0.009 A 
ATOM     68  C   UNL A   1      41.795  35.200  28.150  1.00  0.00     0.009 A 
ATOM     69  C   UNL A   1      44.148  36.691  28.018  1.00  0.00     0.001 A 
ATOM     70  C   UNL A   1      41.897  36.265  27.254  1.00  0.00     0.001 A 
ATOM     71  C   UNL A   1      43.071  37.013  27.192  1.00  0.00     0.000 A 
ENDBRANCH  52  66
BRANCH  53  72
ATOM     72  C   UNL A   1      42.683  26.717  34.737  1.00  0.00    -0.014 A 
ATOM     73  C   UNL A   1      41.532  25.944  34.952  1.00  0.00     0.009 A 
ATOM     74  C   UNL A   1      43.854  26.392  35.441  1.00  0.00     0.009 A 
ATOM     75  C   UNL A   1      41.539  24.903  35.884  1.00  0.00     0.001 A 
ATOM     76  C   UNL A   1      43.870  25.327  36.344  1.00  0.00     0.001 A 
ATOM     77  C   UNL A   1      42.709  24.593  36.577  1.00  0.00     0.000 A 
ENDBRANCH  53  72
BRANCH  65  78
ATOM     78  C   UNL A   1      40.666  33.321  35.650  1.00  0.00    -0.014 A 
ATOM     79  C   UNL A   1      39.287  33.242  35.901  1.00  0.00     0.009 A 
ATOM     80  C   UNL A   1      41.475  34.053  36.535  1.00  0.00     0.009 A 
ATOM     81  C   UNL A   1      38.728  33.913  36.992  1.00  0.00     0.001 A 
ATOM     82  C   UNL A   1      40.918  34.693  37.644  1.00  0.00     0.001 A 
ATOM     83  C   UNL A   1      39.543  34.632  37.864  1.00  0.00     0.000 A 
ENDBRANCH  65  78
ENDBRANCH  39  40
ENDBRANCH  32  34
ENDBRANCH  31  32
ENDBRANCH  30  31
ENDBRANCH  29  30
ENDBRANCH  28  29
ENDBRANCH  27  28
ENDBRANCH   1  27
TORSDOF 21
ENDMDL
MODEL 2
REMARK VINA RESULT:      -8.3      4.819      7.511
REMARK SMILES COC(=O)N/N=C/c1ccc(-c2cccc(C(=O)OCCOCCOCCOC(=O)c3ccc(-c4c5nc(c(-c6ccccc6)c6ccc([nH]6)c(-c6ccccc6)c6nc(c(-c7ccccc7)c7ccc4[nH]7)C=C6)C=C5)cc3)c2)o1
REMARK SMILES IDX 23 1 22 2 21 3 20 4 19 5 17 6 18 7 16 8 12 9 13 10 79 11
REMARK SMILES IDX 14 12 15 13 11 14 8 15 9 16 80 17 10 18 7 19 6 20 5 21 3 22
REMARK SMILES IDX 4 23 2 25 1 26 24 27 25 28 26 29 27 30 28 31 29 32 30 33
REMARK SMILES IDX 31 34 32 35 78 36 33 37 77 38 34 39 35 40 36 41 71 42 37 43
REMARK SMILES IDX 76 44 70 45 72 46 38 47 75 48 69 49 68 50 39 52 61 53 46 54
REMARK SMILES IDX 60 55 47 56 50 57 59 58 73 59 48 60 49 61 58 63 74 64 51 65
REMARK SMILES IDX 40 66 41 67 45 68 42 69 44 70 43 71 62 72 63 73 67 74 64 75
REMARK SMILES IDX 66 76 65 77 52 78 53 79 57 80 54 81 56 82 55 83
REMARK H PARENT 5 24 72 51 50 62
REMARK Flexibility Score: inf
ROOT
ATOM      1  C   UNL A   1      40.039  22.066  27.004  1.00  0.00     0.188 C 
ENDROOT
BRANCH   1   2
ATOM      2  O   UNL A   1      39.581  23.384  27.244  1.00  0.00    -0.376 OA
BRANCH   2   3
ATOM      3  C   UNL A   1      38.591  23.961  26.404  1.00  0.00     0.202 C 
BRANCH   3   4
ATOM      4  C   UNL A   1      37.156  23.408  26.324  1.00  0.00     0.261 C 
BRANCH   4   5
ATOM      5  O   UNL A   1      36.637  23.198  25.004  1.00  0.00    -0.460 OA
BRANCH   5   6
ATOM      6  C   UNL A   1      36.507  21.904  24.616  1.00  0.00     0.338 C 
ATOM      7  O   UNL A   1      37.401  21.133  24.311  1.00  0.00    -0.246 OA
BRANCH   6   8
ATOM      8  C   UNL A   1      35.107  21.471  24.833  1.00  0.00     0.060 A 
ATOM      9  C   UNL A   1      32.809  21.915  25.485  1.00  0.00     0.018 A 
ATOM     10  C   UNL A   1      32.537  20.541  25.382  1.00  0.00     0.012 A 
ATOM     11  C   UNL A   1      34.111  22.371  25.227  1.00  0.00     0.027 A 
ATOM     12  C   UNL A   1      33.533  19.642  24.991  1.00  0.00     0.002 A 
ATOM     13  C   UNL A   1      34.813  20.108  24.700  1.00  0.00     0.016 A 
BRANCH   9  14
ATOM     14  C   UNL A   1      31.749  22.868  25.782  1.00  0.00     0.134 A 
ATOM     15  C   UNL A   1      30.678  24.776  25.524  1.00  0.00     0.147 A 
ATOM     16  C   UNL A   1      30.053  24.105  26.556  1.00  0.00     0.053 A 
ATOM     17  O   UNL A   1      31.717  24.022  25.047  1.00  0.00    -0.455 OA
ATOM     18  C   UNL A   1      30.730  22.877  26.711  1.00  0.00     0.051 A 
BRANCH  15  19
ATOM     19  C   UNL A   1      30.428  26.070  24.948  1.00  0.00     0.180 C 
ATOM     20  N   UNL A   1      29.493  26.196  24.059  1.00  0.00    -0.175 NA
BRANCH  20  21
ATOM     21  N   UNL A   1      29.259  27.417  23.489  1.00  0.00    -0.212 N 
ATOM     22  C   UNL A   1      29.936  28.060  22.476  1.00  0.00     0.427 C 
ATOM     23  O   UNL A   1      29.548  29.144  22.043  1.00  0.00    -0.223 OA
ATOM     24  H   UNL A   1      28.492  27.912  23.858  1.00  0.00     0.197 HD
BRANCH  22  25
ATOM     25  O   UNL A   1      31.013  27.386  21.995  1.00  0.00    -0.452 OA
ATOM     26  C   UNL A   1      32.267  27.931  22.404  1.00  0.00     0.284 C 
ENDBRANCH  22  25
ENDBRANCH  20  21
ENDBRANCH  15  19
ENDBRANCH   9  14
ENDBRANCH   6   8
ENDBRANCH   5   6
ENDBRANCH   4   5
ENDBRANCH   3   4
ENDBRANCH   2   3
ENDBRANCH   1   2
BRANCH   1  27
ATOM     27  C   UNL A   1      40.933  21.763  25.782  1.00  0.00     0.188 C 
BRANCH  27  28
ATOM     28  O   UNL A   1      41.966  20.835  25.995  1.00  0.00    -0.376 OA
BRANCH  28  29
ATOM     29  C   UNL A   1      43.318  21.259  25.981  1.00  0.00     0.202 C 
BRANCH  29  30
ATOM     30  C   UNL A   1      44.012  22.062  24.857  1.00  0.00     0.261 C 
BRANCH  30  31
ATOM     31  O   UNL A   1      43.583  23.401  24.595  1.00  0.00    -0.460 OA
BRANCH  31  32
ATOM     32  C   UNL A   1      44.416  24.386  25.011  1.00  0.00     0.338 C 
ATOM     33  O   UNL A   1      45.534  24.634  24.601  1.00  0.00    -0.246 OA
BRANCH  32  34
ATOM     34  C   UNL A   1      43.685  25.253  25.957  1.00  0.00     0.060 A 
ATOM     35  C   UNL A   1      43.976  26.622  25.987  1.00  0.00     0.016 A 
ATOM     36  C   UNL A   1      42.745  24.708  26.833  1.00  0.00     0.016 A 
ATOM     37  C   UNL A   1      43.339  27.453  26.909  1.00  0.00     0.010 A 
ATOM     38  C   UNL A   1      42.123  25.538  27.770  1.00  0.00     0.010 A 
ATOM     39  C   UNL A   1      42.434  26.909  27.831  1.00  0.00    -0.014 A 
BRANCH  39  40
ATOM     40  C   UNL A   1      41.930  27.737  28.954  1.00  0.00     0.031 A 
ATOM     41  C   UNL A   1      42.666  27.698  30.268  1.00  0.00     0.074 A 
ATOM     42  C   UNL A   1      40.838  28.510  28.817  1.00  0.00     0.049 A 
ATOM     43  N   UNL A   1      42.367  28.278  31.402  1.00  0.00    -0.248 NA
ATOM     44  C   UNL A   1      43.901  26.897  30.307  1.00  0.00     0.031 C 
ATOM     45  C   UNL A   1      40.059  28.668  27.591  1.00  0.00     0.029 A 
ATOM     46  N   UNL A   1      40.186  29.298  29.734  1.00  0.00    -0.354 N 
ATOM     47  C   UNL A   1      43.363  27.895  32.293  1.00  0.00     0.074 A 
ATOM     48  C   UNL A   1      44.265  27.022  31.574  1.00  0.00     0.031 C 
ATOM     49  C   UNL A   1      39.021  29.488  27.837  1.00  0.00     0.029 A 
ATOM     50  C   UNL A   1      39.041  29.879  29.245  1.00  0.00     0.049 A 
ATOM     51  H   UNL A   1      40.508  29.434  30.654  1.00  0.00     0.167 HD
ATOM     52  C   UNL A   1      43.511  28.238  33.594  1.00  0.00     0.031 A 
ATOM     53  C   UNL A   1      38.099  30.614  29.871  1.00  0.00     0.031 A 
ATOM     54  C   UNL A   1      42.614  29.103  34.312  1.00  0.00     0.049 A 
ATOM     55  C   UNL A   1      38.254  30.922  31.339  1.00  0.00     0.074 A 
ATOM     56  C   UNL A   1      42.704  29.535  35.624  1.00  0.00     0.029 A 
ATOM     57  N   UNL A   1      41.457  29.655  33.786  1.00  0.00    -0.354 N 
ATOM     58  N   UNL A   1      39.225  30.594  32.158  1.00  0.00    -0.248 NA
ATOM     59  C   UNL A   1      37.184  31.713  31.968  1.00  0.00     0.031 C 
ATOM     60  C   UNL A   1      41.564  30.292  35.913  1.00  0.00     0.029 A 
ATOM     61  C   UNL A   1      40.805  30.394  34.759  1.00  0.00     0.049 A 
ATOM     62  H   UNL A   1      41.146  29.539  32.859  1.00  0.00     0.167 HD
ATOM     63  C   UNL A   1      38.899  31.165  33.383  1.00  0.00     0.074 A 
ATOM     64  C   UNL A   1      37.653  31.877  33.196  1.00  0.00     0.031 C 
ATOM     65  C   UNL A   1      39.571  31.108  34.559  1.00  0.00     0.031 A 
BRANCH  52  66
ATOM     66  C   UNL A   1      44.670  27.650  34.349  1.00  0.00    -0.014 A 
ATOM     67  C   UNL A   1      44.570  26.408  34.996  1.00  0.00     0.009 A 
ATOM     68  C   UNL A   1      45.905  28.318  34.348  1.00  0.00     0.009 A 
ATOM     69  C   UNL A   1      45.680  25.858  35.640  1.00  0.00     0.001 A 
ATOM     70  C   UNL A   1      47.019  27.752  34.969  1.00  0.00     0.001 A 
ATOM     71  C   UNL A   1      46.905  26.525  35.619  1.00  0.00     0.000 A 
ENDBRANCH  52  66
BRANCH  53  72
ATOM     72  C   UNL A   1      36.890  31.077  29.135  1.00  0.00    -0.014 A 
ATOM     73  C   UNL A   1      35.861  30.184  28.801  1.00  0.00     0.009 A 
ATOM     74  C   UNL A   1      36.790  32.411  28.708  1.00  0.00     0.009 A 
ATOM     75  C   UNL A   1      34.782  30.604  28.019  1.00  0.00     0.001 A 
ATOM     76  C   UNL A   1      35.692  32.838  27.958  1.00  0.00     0.001 A 
ATOM     77  C   UNL A   1      34.696  31.931  27.601  1.00  0.00     0.000 A 
ENDBRANCH  53  72
BRANCH  65  78
ATOM     78  C   UNL A   1      39.008  31.875  35.723  1.00  0.00    -0.014 A 
ATOM     79  C   UNL A   1      38.162  31.270  36.664  1.00  0.00     0.009 A 
ATOM     80  C   UNL A   1      39.371  33.221  35.904  1.00  0.00     0.009 A 
ATOM     81  C   UNL A   1      37.662  32.007  37.742  1.00  0.00     0.001 A 
ATOM     82  C   UNL A   1      38.899  33.944  37.000  1.00  0.00     0.001 A 
ATOM     83  C   UNL A   1      38.034  33.340  37.911  1.00  0.00     0.000 A 
ENDBRANCH  65  78
ENDBRANCH  39  40
ENDBRANCH  32  34
ENDBRANCH  31  32
ENDBRANCH  30  31
ENDBRANCH  29  30
ENDBRANCH  28  29
ENDBRANCH  27  28
ENDBRANCH   1  27
TORSDOF 21
ENDMDL
MODEL 3
REMARK VINA RESULT:      -8.1      5.297      8.636
REMARK SMILES COC(=O)N/N=C/c1ccc(-c2cccc(C(=O)OCCOCCOCCOC(=O)c3ccc(-c4c5nc(c(-c6ccccc6)c6ccc([nH]6)c(-c6ccccc6)c6nc(c(-c7ccccc7)c7ccc4[nH]7)C=C6)C=C5)cc3)c2)o1
REMARK SMILES IDX 23 1 22 2 21 3 20 4 19 5 17 6 18 7 16 8 12 9 13 10 79 11
REMARK SMILES IDX 14 12 15 13 11 14 8 15 9 16 80 17 10 18 7 19 6 20 5 21 3 22
REMARK SMILES IDX 4 23 2 25 1 26 24 27 25 28 26 29 27 30 28 31 29 32 30 33
REMARK SMILES IDX 31 34 32 35 78 36 33 37 77 38 34 39 35 40 36 41 71 42 37 43
REMARK SMILES IDX 76 44 70 45 72 46 38 47 75 48 69 49 68 50 39 52 61 53 46 54
REMARK SMILES IDX 60 55 47 56 50 57 59 58 73 59 48 60 49 61 58 63 74 64 51 65
REMARK SMILES IDX 40 66 41 67 45 68 42 69 44 70 43 71 62 72 63 73 67 74 64 75
REMARK SMILES IDX 66 76 65 77 52 78 53 79 57 80 54 81 56 82 55 83
REMARK H PARENT 5 24 72 51 50 62
REMARK Flexibility Score: inf
ROOT
ATOM      1  C   UNL A   1      40.033  21.806  26.118  1.00  0.00     0.188 C 
ENDROOT
BRANCH   1   2
ATOM      2  O   UNL A   1      38.680  21.396  26.202  1.00  0.00    -0.376 OA
BRANCH   2   3
ATOM      3  C   UNL A   1      37.838  21.475  25.060  1.00  0.00     0.202 C 
BRANCH   3   4
ATOM      4  C   UNL A   1      36.303  21.403  25.163  1.00  0.00     0.261 C 
BRANCH   4   5
ATOM      5  O   UNL A   1      35.684  22.391  25.999  1.00  0.00    -0.460 OA
BRANCH   5   6
ATOM      6  C   UNL A   1      34.505  22.031  26.569  1.00  0.00     0.338 C 
ATOM      7  O   UNL A   1      34.347  21.436  27.621  1.00  0.00    -0.246 OA
BRANCH   6   8
ATOM      8  C   UNL A   1      33.393  22.673  25.830  1.00  0.00     0.060 A 
ATOM      9  C   UNL A   1      32.489  24.469  24.466  1.00  0.00     0.018 A 
ATOM     10  C   UNL A   1      31.211  23.905  24.608  1.00  0.00     0.012 A 
ATOM     11  C   UNL A   1      33.579  23.854  25.102  1.00  0.00     0.027 A 
ATOM     12  C   UNL A   1      31.026  22.726  25.336  1.00  0.00     0.002 A 
ATOM     13  C   UNL A   1      32.119  22.101  25.933  1.00  0.00     0.016 A 
BRANCH   9  14
ATOM     14  C   UNL A   1      32.704  25.632  23.617  1.00  0.00     0.134 A 
ATOM     15  C   UNL A   1      32.370  27.722  23.006  1.00  0.00     0.147 A 
ATOM     16  C   UNL A   1      33.208  27.162  22.063  1.00  0.00     0.053 A 
ATOM     17  O   UNL A   1      32.059  26.789  23.960  1.00  0.00    -0.455 OA
ATOM     18  C   UNL A   1      33.434  25.827  22.462  1.00  0.00     0.051 A 
BRANCH  15  19
ATOM     19  C   UNL A   1      31.797  29.038  23.100  1.00  0.00     0.180 C 
ATOM     20  N   UNL A   1      30.804  29.238  23.908  1.00  0.00    -0.175 NA
BRANCH  20  21
ATOM     21  N   UNL A   1      30.237  30.481  23.992  1.00  0.00    -0.212 N 
ATOM     22  C   UNL A   1      29.036  30.936  23.495  1.00  0.00     0.427 C 
ATOM     23  O   UNL A   1      28.652  32.083  23.716  1.00  0.00    -0.223 OA
ATOM     24  H   UNL A   1      30.768  31.151  24.481  1.00  0.00     0.197 HD
BRANCH  22  25
ATOM     25  O   UNL A   1      28.325  30.014  22.794  1.00  0.00    -0.452 OA
ATOM     26  C   UNL A   1      28.184  30.324  21.408  1.00  0.00     0.284 C 
ENDBRANCH  22  25
ENDBRANCH  20  21
ENDBRANCH  15  19
ENDBRANCH   9  14
ENDBRANCH   6   8
ENDBRANCH   5   6
ENDBRANCH   4   5
ENDBRANCH   3   4
ENDBRANCH   2   3
ENDBRANCH   1   2
BRANCH   1  27
ATOM     27  C   UNL A   1      41.153  20.914  26.694  1.00  0.00     0.188 C 
BRANCH  27  28
ATOM     28  O   UNL A   1      41.297  19.650  26.096  1.00  0.00    -0.376 OA
BRANCH  28  29
ATOM     29  C   UNL A   1      42.442  18.861  26.366  1.00  0.00     0.202 C 
BRANCH  29  30
ATOM     30  C   UNL A   1      43.585  18.540  25.375  1.00  0.00     0.261 C 
BRANCH  30  31
ATOM     31  O   UNL A   1      43.843  19.444  24.298  1.00  0.00    -0.460 OA
BRANCH  31  32
ATOM     32  C   UNL A   1      45.100  19.945  24.228  1.00  0.00     0.338 C 
ATOM     33  O   UNL A   1      46.064  19.455  23.670  1.00  0.00    -0.246 OA
BRANCH  32  34
ATOM     34  C   UNL A   1      45.099  21.303  24.808  1.00  0.00     0.060 A 
ATOM     35  C   UNL A   1      44.938  22.404  23.957  1.00  0.00     0.016 A 
ATOM     36  C   UNL A   1      45.292  21.486  26.177  1.00  0.00     0.016 A 
ATOM     37  C   UNL A   1      44.987  23.699  24.473  1.00  0.00     0.010 A 
ATOM     38  C   UNL A   1      45.363  22.785  26.690  1.00  0.00     0.010 A 
ATOM     39  C   UNL A   1      45.237  23.899  25.837  1.00  0.00    -0.014 A 
BRANCH  39  40
ATOM     40  C   UNL A   1      45.518  25.262  26.351  1.00  0.00     0.031 A 
ATOM     41  C   UNL A   1      44.378  26.075  26.906  1.00  0.00     0.074 A 
ATOM     42  C   UNL A   1      46.762  25.775  26.327  1.00  0.00     0.049 A 
ATOM     43  N   UNL A   1      44.375  27.310  27.339  1.00  0.00    -0.248 NA
ATOM     44  C   UNL A   1      43.068  25.407  26.978  1.00  0.00     0.031 C 
ATOM     45  C   UNL A   1      47.957  25.080  25.854  1.00  0.00     0.029 A 
ATOM     46  N   UNL A   1      47.218  27.016  26.699  1.00  0.00    -0.354 N 
ATOM     47  C   UNL A   1      43.063  27.573  27.715  1.00  0.00     0.074 A 
ATOM     48  C   UNL A   1      42.295  26.377  27.444  1.00  0.00     0.031 C 
ATOM     49  C   UNL A   1      49.010  25.913  25.946  1.00  0.00     0.029 A 
ATOM     50  C   UNL A   1      48.555  27.208  26.446  1.00  0.00     0.049 A 
ATOM     51  H   UNL A   1      46.643  27.703  27.107  1.00  0.00     0.167 HD
ATOM     52  C   UNL A   1      42.544  28.708  28.237  1.00  0.00     0.031 A 
ATOM     53  C   UNL A   1      49.316  28.315  26.571  1.00  0.00     0.031 A 
ATOM     54  C   UNL A   1      43.304  29.899  28.503  1.00  0.00     0.049 A 
ATOM     55  C   UNL A   1      48.694  29.588  27.089  1.00  0.00     0.074 A 
ATOM     56  C   UNL A   1      42.870  31.088  29.064  1.00  0.00     0.029 A 
ATOM     57  N   UNL A   1      44.650  30.059  28.216  1.00  0.00    -0.354 N 
ATOM     58  N   UNL A   1      47.464  29.809  27.485  1.00  0.00    -0.248 NA
ATOM     59  C   UNL A   1      49.574  30.764  27.185  1.00  0.00     0.031 C 
ATOM     60  C   UNL A   1      43.937  31.992  29.052  1.00  0.00     0.029 A 
ATOM     61  C   UNL A   1      45.053  31.340  28.555  1.00  0.00     0.049 A 
ATOM     62  H   UNL A   1      45.232  29.366  27.829  1.00  0.00     0.167 HD
ATOM     63  C   UNL A   1      47.432  31.133  27.908  1.00  0.00     0.074 A 
ATOM     64  C   UNL A   1      48.769  31.659  27.739  1.00  0.00     0.031 C 
ATOM     65  C   UNL A   1      46.389  31.850  28.393  1.00  0.00     0.031 A 
BRANCH  52  66
ATOM     66  C   UNL A   1      41.068  28.741  28.524  1.00  0.00    -0.014 A 
ATOM     67  C   UNL A   1      40.145  29.194  27.569  1.00  0.00     0.009 A 
ATOM     68  C   UNL A   1      40.592  28.238  29.745  1.00  0.00     0.009 A 
ATOM     69  C   UNL A   1      38.775  29.158  27.841  1.00  0.00     0.001 A 
ATOM     70  C   UNL A   1      39.222  28.178  30.002  1.00  0.00     0.001 A 
ATOM     71  C   UNL A   1      38.315  28.643  29.052  1.00  0.00     0.000 A 
ENDBRANCH  52  66
BRANCH  53  72
ATOM     72  C   UNL A   1      50.746  28.299  26.156  1.00  0.00    -0.014 A 
ATOM     73  C   UNL A   1      51.761  27.982  27.073  1.00  0.00     0.009 A 
ATOM     74  C   UNL A   1      51.109  28.662  24.849  1.00  0.00     0.009 A 
ATOM     75  C   UNL A   1      53.105  28.073  26.704  1.00  0.00     0.001 A 
ATOM     76  C   UNL A   1      52.452  28.717  24.472  1.00  0.00     0.001 A 
ATOM     77  C   UNL A   1      53.450  28.437  25.403  1.00  0.00     0.000 A 
ENDBRANCH  53  72
BRANCH  65  78
ATOM     78  C   UNL A   1      46.659  33.264  28.829  1.00  0.00    -0.014 A 
ATOM     79  C   UNL A   1      47.073  33.566  30.136  1.00  0.00     0.009 A 
ATOM     80  C   UNL A   1      46.540  34.309  27.897  1.00  0.00     0.009 A 
ATOM     81  C   UNL A   1      47.326  34.890  30.509  1.00  0.00     0.001 A 
ATOM     82  C   UNL A   1      46.827  35.625  28.263  1.00  0.00     0.001 A 
ATOM     83  C   UNL A   1      47.208  35.916  29.572  1.00  0.00     0.000 A 
ENDBRANCH  65  78
ENDBRANCH  39  40
ENDBRANCH  32  34
ENDBRANCH  31  32
ENDBRANCH  30  31
ENDBRANCH  29  30
ENDBRANCH  28  29
ENDBRANCH  27  28
ENDBRANCH   1  27
TORSDOF 21
ENDMDL
