MODEL 1
REMARK VINA RESULT:      -9.3      0.000      0.000
REMARK SMILES CC(C)(C)OCC[C@@H]1CCC[C@]1([NH2+]C1CC1)C(=O)OCCOCCOCCOC(=O)c1ccc(-c2c3nc(c(-c4ccccc4)c4ccc([nH]4)c(-c4ccccc4)c4nc(c(-c5ccccc5)c5ccc2[nH]5)C=C4)C=C3)cc1
REMARK SMILES IDX 23 1 22 2 21 3 20 4 19 5 17 6 18 7 12 8 8 9 9 10 10 11 11 12
REMARK SMILES IDX 7 13 6 14 5 15 2 16 1 17 3 18 4 19 13 20 14 23 15 24 16 25
REMARK SMILES IDX 24 26 25 27 26 28 27 29 28 30 29 31 30 32 31 33 32 34 78 35
REMARK SMILES IDX 33 36 77 37 34 38 35 39 36 40 71 41 37 42 76 43 70 44 72 45
REMARK SMILES IDX 38 46 75 47 69 48 68 49 39 51 61 52 46 53 60 54 47 55 50 56
REMARK SMILES IDX 59 57 73 58 48 59 49 60 58 62 74 63 51 64 40 65 41 66 45 67
REMARK SMILES IDX 42 68 44 69 43 70 62 71 63 72 67 73 64 74 66 75 65 76 52 77
REMARK SMILES IDX 53 78 57 79 54 80 56 81 55 82
REMARK H PARENT 13 21 13 22 72 50 50 61
REMARK Flexibility Score: inf
ROOT
ATOM      1  C   UNL A   1      32.954  20.990  25.448  1.00  0.00     0.188 C 
ENDROOT
BRANCH   1   2
ATOM      2  O   UNL A   1      31.728  21.704  25.346  1.00  0.00    -0.376 OA
BRANCH   2   3
ATOM      3  C   UNL A   1      31.496  22.747  26.281  1.00  0.00     0.202 C 
BRANCH   3   4
ATOM      4  C   UNL A   1      30.634  23.901  25.770  1.00  0.00     0.261 C 
BRANCH   4   5
ATOM      5  O   UNL A   1      31.362  25.004  25.202  1.00  0.00    -0.459 OA
BRANCH   5   6
ATOM      6  C   UNL A   1      31.378  26.146  25.951  1.00  0.00     0.368 C 
ATOM      7  O   UNL A   1      30.510  26.435  26.770  1.00  0.00    -0.245 OA
BRANCH   6   8
ATOM      8  C   UNL A   1      32.545  27.100  25.560  1.00  0.00     0.197 C 
ATOM      9  C   UNL A   1      32.257  28.051  24.322  1.00  0.00     0.065 C 
ATOM     10  C   UNL A   1      33.212  27.562  23.219  1.00  0.00     0.011 C 
ATOM     11  C   UNL A   1      33.604  26.151  23.594  1.00  0.00     0.008 C 
ATOM     12  C   UNL A   1      33.772  26.271  25.090  1.00  0.00     0.081 C 
BRANCH   9  13
ATOM     13  C   UNL A   1      30.775  28.217  23.894  1.00  0.00     0.039 C 
BRANCH  13  14
ATOM     14  C   UNL A   1      30.481  29.276  22.811  1.00  0.00     0.161 C 
BRANCH  14  15
ATOM     15  O   UNL A   1      29.811  30.451  23.292  1.00  0.00    -0.376 OA
BRANCH  15  16
ATOM     16  C   UNL A   1      28.570  30.876  22.707  1.00  0.00     0.060 C 
ATOM     17  C   UNL A   1      28.823  32.280  22.115  1.00  0.00     0.042 C 
ATOM     18  C   UNL A   1      27.512  31.080  23.789  1.00  0.00     0.042 C 
ATOM     19  C   UNL A   1      28.089  29.994  21.545  1.00  0.00     0.042 C 
ENDBRANCH  15  16
ENDBRANCH  14  15
ENDBRANCH  13  14
ENDBRANCH   9  13
BRANCH   8  20
ATOM     20  N   UNL A   1      32.925  27.924  26.735  1.00  0.00    -0.329 N 
ATOM     21  H   UNL A   1      33.452  27.315  27.360  1.00  0.00     0.347 HD
ATOM     22  H   UNL A   1      32.027  28.283  27.059  1.00  0.00     0.347 HD
BRANCH  20  23
ATOM     23  C   UNL A   1      33.725  29.147  26.570  1.00  0.00     0.183 C 
ATOM     24  C   UNL A   1      33.715  30.374  27.435  1.00  0.00     0.071 C 
ATOM     25  C   UNL A   1      34.852  29.407  27.538  1.00  0.00     0.071 C 
ENDBRANCH  20  23
ENDBRANCH   8  20
ENDBRANCH   6   8
ENDBRANCH   5   6
ENDBRANCH   4   5
ENDBRANCH   3   4
ENDBRANCH   2   3
ENDBRANCH   1   2
BRANCH   1  26
ATOM     26  C   UNL A   1      34.169  21.577  24.718  1.00  0.00     0.188 C 
BRANCH  26  27
ATOM     27  O   UNL A   1      35.441  21.244  25.268  1.00  0.00    -0.376 OA
BRANCH  27  28
ATOM     28  C   UNL A   1      35.999  19.991  24.868  1.00  0.00     0.202 C 
BRANCH  28  29
ATOM     29  C   UNL A   1      37.527  19.977  24.802  1.00  0.00     0.261 C 
BRANCH  29  30
ATOM     30  O   UNL A   1      38.042  21.183  25.402  1.00  0.00    -0.460 OA
BRANCH  30  31
ATOM     31  C   UNL A   1      39.254  21.050  25.974  1.00  0.00     0.338 C 
ATOM     32  O   UNL A   1      39.965  20.054  25.956  1.00  0.00    -0.246 OA
BRANCH  31  33
ATOM     33  C   UNL A   1      39.640  22.294  26.670  1.00  0.00     0.060 A 
ATOM     34  C   UNL A   1      39.138  23.537  26.276  1.00  0.00     0.016 A 
ATOM     35  C   UNL A   1      40.652  22.230  27.625  1.00  0.00     0.016 A 
ATOM     36  C   UNL A   1      39.754  24.715  26.713  1.00  0.00     0.010 A 
ATOM     37  C   UNL A   1      41.196  23.409  28.138  1.00  0.00     0.010 A 
ATOM     38  C   UNL A   1      40.806  24.665  27.636  1.00  0.00    -0.014 A 
BRANCH  38  39
ATOM     39  C   UNL A   1      41.592  25.873  28.023  1.00  0.00     0.031 A 
ATOM     40  C   UNL A   1      40.932  26.938  28.865  1.00  0.00     0.074 A 
ATOM     41  C   UNL A   1      42.867  26.060  27.631  1.00  0.00     0.049 A 
ATOM     42  N   UNL A   1      41.274  28.190  29.044  1.00  0.00    -0.248 NA
ATOM     43  C   UNL A   1      39.715  26.539  29.591  1.00  0.00     0.031 C 
ATOM     44  C   UNL A   1      43.697  25.094  26.913  1.00  0.00     0.029 A 
ATOM     45  N   UNL A   1      43.682  27.159  27.774  1.00  0.00    -0.354 N 
ATOM     46  C   UNL A   1      40.276  28.744  29.838  1.00  0.00     0.074 A 
ATOM     47  C   UNL A   1      39.325  27.690  30.120  1.00  0.00     0.031 C 
ATOM     48  C   UNL A   1      44.903  25.640  26.684  1.00  0.00     0.029 A 
ATOM     49  C   UNL A   1      44.897  27.023  27.148  1.00  0.00     0.049 A 
ATOM     50  H   UNL A   1      43.420  27.965  28.277  1.00  0.00     0.167 HD
ATOM     51  C   UNL A   1      40.153  30.019  30.279  1.00  0.00     0.031 A 
ATOM     52  C   UNL A   1      45.867  27.925  26.906  1.00  0.00     0.031 A 
ATOM     53  C   UNL A   1      41.117  31.059  30.037  1.00  0.00     0.049 A 
ATOM     54  C   UNL A   1      45.677  29.357  27.323  1.00  0.00     0.074 A 
ATOM     55  C   UNL A   1      41.075  32.386  30.430  1.00  0.00     0.029 A 
ATOM     56  N   UNL A   1      42.308  30.881  29.354  1.00  0.00    -0.354 N 
ATOM     57  N   UNL A   1      44.682  29.904  27.979  1.00  0.00    -0.248 NA
ATOM     58  C   UNL A   1      46.735  30.304  26.938  1.00  0.00     0.031 C 
ATOM     59  C   UNL A   1      42.227  33.020  29.953  1.00  0.00     0.029 A 
ATOM     60  C   UNL A   1      43.005  32.077  29.303  1.00  0.00     0.049 A 
ATOM     61  H   UNL A   1      42.615  30.032  28.964  1.00  0.00     0.167 HD
ATOM     62  C   UNL A   1      45.000  31.252  28.095  1.00  0.00     0.074 A 
ATOM     63  C   UNL A   1      46.288  31.437  27.459  1.00  0.00     0.031 C 
ATOM     64  C   UNL A   1      44.286  32.248  28.671  1.00  0.00     0.031 A 
BRANCH  51  65
ATOM     65  C   UNL A   1      38.896  30.377  31.019  1.00  0.00    -0.014 A 
ATOM     66  C   UNL A   1      38.826  30.331  32.419  1.00  0.00     0.009 A 
ATOM     67  C   UNL A   1      37.770  30.799  30.294  1.00  0.00     0.009 A 
ATOM     68  C   UNL A   1      37.640  30.670  33.075  1.00  0.00     0.001 A 
ATOM     69  C   UNL A   1      36.595  31.161  30.953  1.00  0.00     0.001 A 
ATOM     70  C   UNL A   1      36.527  31.088  32.343  1.00  0.00     0.000 A 
ENDBRANCH  51  65
BRANCH  52  71
ATOM     71  C   UNL A   1      47.081  27.523  26.148  1.00  0.00    -0.014 A 
ATOM     72  C   UNL A   1      47.172  27.758  24.769  1.00  0.00     0.009 A 
ATOM     73  C   UNL A   1      48.148  26.883  26.801  1.00  0.00     0.009 A 
ATOM     74  C   UNL A   1      48.299  27.346  24.055  1.00  0.00     0.001 A 
ATOM     75  C   UNL A   1      49.286  26.500  26.090  1.00  0.00     0.001 A 
ATOM     76  C   UNL A   1      49.357  26.723  24.717  1.00  0.00     0.000 A 
ENDBRANCH  52  71
BRANCH  64  77
ATOM     77  C   UNL A   1      44.898  33.619  28.675  1.00  0.00    -0.014 A 
ATOM     78  C   UNL A   1      45.693  34.056  29.745  1.00  0.00     0.009 A 
ATOM     79  C   UNL A   1      44.705  34.470  27.575  1.00  0.00     0.009 A 
ATOM     80  C   UNL A   1      46.258  35.333  29.726  1.00  0.00     0.001 A 
ATOM     81  C   UNL A   1      45.290  35.736  27.549  1.00  0.00     0.001 A 
ATOM     82  C   UNL A   1      46.060  36.170  28.628  1.00  0.00     0.000 A 
ENDBRANCH  64  77
ENDBRANCH  38  39
ENDBRANCH  31  33
ENDBRANCH  30  31
ENDBRANCH  29  30
ENDBRANCH  28  29
ENDBRANCH  27  28
ENDBRANCH  26  27
ENDBRANCH   1  26
TORSDOF 23
ENDMDL
MODEL 2
REMARK VINA RESULT:      -9.2      3.835      6.748
REMARK SMILES CC(C)(C)OCC[C@@H]1CCC[C@]1([NH2+]C1CC1)C(=O)OCCOCCOCCOC(=O)c1ccc(-c2c3nc(c(-c4ccccc4)c4ccc([nH]4)c(-c4ccccc4)c4nc(c(-c5ccccc5)c5ccc2[nH]5)C=C4)C=C3)cc1
REMARK SMILES IDX 23 1 22 2 21 3 20 4 19 5 17 6 18 7 12 8 8 9 9 10 10 11 11 12
REMARK SMILES IDX 7 13 6 14 5 15 2 16 1 17 3 18 4 19 13 20 14 23 15 24 16 25
REMARK SMILES IDX 24 26 25 27 26 28 27 29 28 30 29 31 30 32 31 33 32 34 78 35
REMARK SMILES IDX 33 36 77 37 34 38 35 39 36 40 71 41 37 42 76 43 70 44 72 45
REMARK SMILES IDX 38 46 75 47 69 48 68 49 39 51 61 52 46 53 60 54 47 55 50 56
REMARK SMILES IDX 59 57 73 58 48 59 49 60 58 62 74 63 51 64 40 65 41 66 45 67
REMARK SMILES IDX 42 68 44 69 43 70 62 71 63 72 67 73 64 74 66 75 65 76 52 77
REMARK SMILES IDX 53 78 57 79 54 80 56 81 55 82
REMARK H PARENT 13 21 13 22 72 50 50 61
REMARK Flexibility Score: inf
ROOT
ATOM      1  C   UNL A   1      34.361  21.730  25.778  1.00  0.00     0.188 C 
ENDROOT
BRANCH   1   2
ATOM      2  O   UNL A   1      32.999  22.056  25.536  1.00  0.00    -0.376 OA
BRANCH   2   3
ATOM      3  C   UNL A   1      32.267  22.650  26.597  1.00  0.00     0.202 C 
BRANCH   3   4
ATOM      4  C   UNL A   1      31.074  23.505  26.171  1.00  0.00     0.261 C 
BRANCH   4   5
ATOM      5  O   UNL A   1      31.401  24.661  25.380  1.00  0.00    -0.459 OA
BRANCH   5   6
ATOM      6  C   UNL A   1      31.470  25.841  26.065  1.00  0.00     0.368 C 
ATOM      7  O   UNL A   1      30.624  26.208  26.875  1.00  0.00    -0.245 OA
BRANCH   6   8
ATOM      8  C   UNL A   1      32.669  26.725  25.612  1.00  0.00     0.197 C 
ATOM      9  C   UNL A   1      32.461  27.499  24.242  1.00  0.00     0.065 C 
ATOM     10  C   UNL A   1      33.466  26.857  23.270  1.00  0.00     0.011 C 
ATOM     11  C   UNL A   1      33.819  25.508  23.856  1.00  0.00     0.008 C 
ATOM     12  C   UNL A   1      33.908  25.832  25.328  1.00  0.00     0.081 C 
BRANCH   9  13
ATOM     13  C   UNL A   1      31.006  27.613  23.714  1.00  0.00     0.039 C 
BRANCH  13  14
ATOM     14  C   UNL A   1      30.747  28.668  22.618  1.00  0.00     0.161 C 
BRANCH  14  15
ATOM     15  O   UNL A   1      29.391  28.723  22.150  1.00  0.00    -0.376 OA
BRANCH  15  16
ATOM     16  C   UNL A   1      28.550  29.839  22.476  1.00  0.00     0.060 C 
ATOM     17  C   UNL A   1      27.272  29.253  23.116  1.00  0.00     0.042 C 
ATOM     18  C   UNL A   1      28.077  30.540  21.204  1.00  0.00     0.042 C 
ATOM     19  C   UNL A   1      29.155  30.800  23.511  1.00  0.00     0.042 C 
ENDBRANCH  15  16
ENDBRANCH  14  15
ENDBRANCH  13  14
ENDBRANCH   9  13
BRANCH   8  20
ATOM     20  N   UNL A   1      32.997  27.701  26.682  1.00  0.00    -0.329 N 
ATOM     21  H   UNL A   1      33.552  27.198  27.374  1.00  0.00     0.347 HD
ATOM     22  H   UNL A   1      32.079  28.045  26.962  1.00  0.00     0.347 HD
BRANCH  20  23
ATOM     23  C   UNL A   1      33.731  28.936  26.374  1.00  0.00     0.183 C 
ATOM     24  C   UNL A   1      33.233  30.350  26.478  1.00  0.00     0.071 C 
ATOM     25  C   UNL A   1      34.169  29.819  27.518  1.00  0.00     0.071 C 
ENDBRANCH  20  23
ENDBRANCH   8  20
ENDBRANCH   6   8
ENDBRANCH   5   6
ENDBRANCH   4   5
ENDBRANCH   3   4
ENDBRANCH   2   3
ENDBRANCH   1   2
BRANCH   1  26
ATOM     26  C   UNL A   1      34.943  20.536  25.008  1.00  0.00     0.188 C 
BRANCH  26  27
ATOM     27  O   UNL A   1      36.360  20.528  24.858  1.00  0.00    -0.376 OA
BRANCH  27  28
ATOM     28  C   UNL A   1      37.098  21.370  25.745  1.00  0.00     0.202 C 
BRANCH  28  29
ATOM     29  C   UNL A   1      38.601  21.415  25.461  1.00  0.00     0.261 C 
BRANCH  29  30
ATOM     30  O   UNL A   1      39.201  22.478  26.229  1.00  0.00    -0.460 OA
BRANCH  30  31
ATOM     31  C   UNL A   1      38.682  23.698  25.997  1.00  0.00     0.338 C 
ATOM     32  O   UNL A   1      37.880  23.997  25.121  1.00  0.00    -0.246 OA
BRANCH  31  33
ATOM     33  C   UNL A   1      39.226  24.685  26.952  1.00  0.00     0.060 A 
ATOM     34  C   UNL A   1      38.853  24.680  28.298  1.00  0.00     0.016 A 
ATOM     35  C   UNL A   1      39.992  25.735  26.451  1.00  0.00     0.016 A 
ATOM     36  C   UNL A   1      39.106  25.797  29.101  1.00  0.00     0.010 A 
ATOM     37  C   UNL A   1      40.332  26.803  27.284  1.00  0.00     0.010 A 
ATOM     38  C   UNL A   1      39.833  26.884  28.598  1.00  0.00    -0.014 A 
BRANCH  38  39
ATOM     39  C   UNL A   1      40.006  28.156  29.359  1.00  0.00     0.031 A 
ATOM     40  C   UNL A   1      41.154  28.278  30.331  1.00  0.00     0.074 A 
ATOM     41  C   UNL A   1      39.160  29.195  29.227  1.00  0.00     0.049 A 
ATOM     42  N   UNL A   1      41.320  29.116  31.324  1.00  0.00    -0.248 NA
ATOM     43  C   UNL A   1      42.257  27.317  30.167  1.00  0.00     0.031 C 
ATOM     44  C   UNL A   1      38.066  29.299  28.262  1.00  0.00     0.029 A 
ATOM     45  N   UNL A   1      39.087  30.370  29.941  1.00  0.00    -0.354 N 
ATOM     46  C   UNL A   1      42.503  28.735  31.946  1.00  0.00     0.074 A 
ATOM     47  C   UNL A   1      43.023  27.602  31.210  1.00  0.00     0.031 C 
ATOM     48  C   UNL A   1      37.437  30.472  28.438  1.00  0.00     0.029 A 
ATOM     49  C   UNL A   1      38.016  31.155  29.590  1.00  0.00     0.049 A 
ATOM     50  H   UNL A   1      39.739  30.622  30.634  1.00  0.00     0.167 HD
ATOM     51  C   UNL A   1      43.096  29.268  33.041  1.00  0.00     0.031 A 
ATOM     52  C   UNL A   1      37.509  32.259  30.171  1.00  0.00     0.031 A 
ATOM     53  C   UNL A   1      42.607  30.420  33.750  1.00  0.00     0.049 A 
ATOM     54  C   UNL A   1      38.124  32.788  31.437  1.00  0.00     0.074 A 
ATOM     55  C   UNL A   1      43.130  31.028  34.879  1.00  0.00     0.029 A 
ATOM     56  N   UNL A   1      41.489  31.151  33.383  1.00  0.00    -0.354 N 
ATOM     57  N   UNL A   1      39.180  32.360  32.086  1.00  0.00    -0.248 NA
ATOM     58  C   UNL A   1      37.456  33.937  32.067  1.00  0.00     0.031 C 
ATOM     59  C   UNL A   1      42.305  32.107  35.216  1.00  0.00     0.029 A 
ATOM     60  C   UNL A   1      41.297  32.196  34.271  1.00  0.00     0.049 A 
ATOM     61  H   UNL A   1      40.917  30.957  32.607  1.00  0.00     0.167 HD
ATOM     62  C   UNL A   1      39.308  33.194  33.190  1.00  0.00     0.074 A 
ATOM     63  C   UNL A   1      38.236  34.164  33.114  1.00  0.00     0.031 C 
ATOM     64  C   UNL A   1      40.230  33.155  34.183  1.00  0.00     0.031 A 
BRANCH  51  65
ATOM     65  C   UNL A   1      44.313  28.570  33.579  1.00  0.00    -0.014 A 
ATOM     66  C   UNL A   1      45.609  28.942  33.192  1.00  0.00     0.009 A 
ATOM     67  C   UNL A   1      44.152  27.539  34.518  1.00  0.00     0.009 A 
ATOM     68  C   UNL A   1      46.718  28.270  33.711  1.00  0.00     0.001 A 
ATOM     69  C   UNL A   1      45.262  26.886  35.054  1.00  0.00     0.001 A 
ATOM     70  C   UNL A   1      46.545  27.246  34.644  1.00  0.00     0.000 A 
ENDBRANCH  51  65
BRANCH  52  71
ATOM     71  C   UNL A   1      36.288  32.898  29.611  1.00  0.00    -0.014 A 
ATOM     72  C   UNL A   1      36.392  33.955  28.696  1.00  0.00     0.009 A 
ATOM     73  C   UNL A   1      35.012  32.464  30.008  1.00  0.00     0.009 A 
ATOM     74  C   UNL A   1      35.243  34.576  28.201  1.00  0.00     0.001 A 
ATOM     75  C   UNL A   1      33.866  33.067  29.488  1.00  0.00     0.001 A 
ATOM     76  C   UNL A   1      33.982  34.128  28.592  1.00  0.00     0.000 A 
ENDBRANCH  52  71
BRANCH  64  77
ATOM     77  C   UNL A   1      40.141  34.215  35.244  1.00  0.00    -0.014 A 
ATOM     78  C   UNL A   1      39.497  33.967  36.465  1.00  0.00     0.009 A 
ATOM     79  C   UNL A   1      40.743  35.465  35.030  1.00  0.00     0.009 A 
ATOM     80  C   UNL A   1      39.431  34.964  37.440  1.00  0.00     0.001 A 
ATOM     81  C   UNL A   1      40.696  36.451  36.016  1.00  0.00     0.001 A 
ATOM     82  C   UNL A   1      40.033  36.202  37.217  1.00  0.00     0.000 A 
ENDBRANCH  64  77
ENDBRANCH  38  39
ENDBRANCH  31  33
ENDBRANCH  30  31
ENDBRANCH  29  30
ENDBRANCH  28  29
ENDBRANCH  27  28
ENDBRANCH  26  27
ENDBRANCH   1  26
TORSDOF 23
ENDMDL
MODEL 3
REMARK VINA RESULT:      -8.9      3.916      7.311
REMARK SMILES CC(C)(C)OCC[C@@H]1CCC[C@]1([NH2+]C1CC1)C(=O)OCCOCCOCCOC(=O)c1ccc(-c2c3nc(c(-c4ccccc4)c4ccc([nH]4)c(-c4ccccc4)c4nc(c(-c5ccccc5)c5ccc2[nH]5)C=C4)C=C3)cc1
REMARK SMILES IDX 23 1 22 2 21 3 20 4 19 5 17 6 18 7 12 8 8 9 9 10 10 11 11 12
REMARK SMILES IDX 7 13 6 14 5 15 2 16 1 17 3 18 4 19 13 20 14 23 15 24 16 25
REMARK SMILES IDX 24 26 25 27 26 28 27 29 28 30 29 31 30 32 31 33 32 34 78 35
REMARK SMILES IDX 33 36 77 37 34 38 35 39 36 40 71 41 37 42 76 43 70 44 72 45
REMARK SMILES IDX 38 46 75 47 69 48 68 49 39 51 61 52 46 53 60 54 47 55 50 56
REMARK SMILES IDX 59 57 73 58 48 59 49 60 58 62 74 63 51 64 40 65 41 66 45 67
REMARK SMILES IDX 42 68 44 69 43 70 62 71 63 72 67 73 64 74 66 75 65 76 52 77
REMARK SMILES IDX 53 78 57 79 54 80 56 81 55 82
REMARK H PARENT 13 21 13 22 72 50 50 61
REMARK Flexibility Score: inf
ROOT
ATOM      1  C   UNL A   1      37.606  20.350  24.929  1.00  0.00     0.188 C 
ENDROOT
BRANCH   1   2
ATOM      2  O   UNL A   1      36.192  20.387  25.076  1.00  0.00    -0.376 OA
BRANCH   2   3
ATOM      3  C   UNL A   1      35.593  21.642  25.357  1.00  0.00     0.202 C 
BRANCH   3   4
ATOM      4  C   UNL A   1      34.761  21.697  26.638  1.00  0.00     0.261 C 
BRANCH   4   5
ATOM      5  O   UNL A   1      33.776  22.743  26.685  1.00  0.00    -0.459 OA
BRANCH   5   6
ATOM      6  C   UNL A   1      33.998  23.798  25.845  1.00  0.00     0.368 C 
ATOM      7  O   UNL A   1      34.947  24.568  25.957  1.00  0.00    -0.245 OA
BRANCH   6   8
ATOM      8  C   UNL A   1      32.849  23.990  24.813  1.00  0.00     0.197 C 
ATOM      9  C   UNL A   1      31.599  24.818  25.336  1.00  0.00     0.065 C 
ATOM     10  C   UNL A   1      30.445  23.801  25.385  1.00  0.00     0.011 C 
ATOM     11  C   UNL A   1      31.089  22.433  25.415  1.00  0.00     0.008 C 
ATOM     12  C   UNL A   1      32.231  22.614  24.444  1.00  0.00     0.081 C 
BRANCH   9  13
ATOM     13  C   UNL A   1      31.803  25.656  26.626  1.00  0.00     0.039 C 
BRANCH  13  14
ATOM     14  C   UNL A   1      31.719  27.189  26.477  1.00  0.00     0.161 C 
BRANCH  14  15
ATOM     15  O   UNL A   1      32.265  27.701  25.253  1.00  0.00    -0.376 OA
BRANCH  15  16
ATOM     16  C   UNL A   1      33.054  28.900  25.248  1.00  0.00     0.060 C 
ATOM     17  C   UNL A   1      32.124  30.040  25.718  1.00  0.00     0.042 C 
ATOM     18  C   UNL A   1      33.455  29.271  23.822  1.00  0.00     0.042 C 
ATOM     19  C   UNL A   1      34.240  28.875  26.226  1.00  0.00     0.042 C 
ENDBRANCH  15  16
ENDBRANCH  14  15
ENDBRANCH  13  14
ENDBRANCH   9  13
BRANCH   8  20
ATOM     20  N   UNL A   1      33.386  24.635  23.588  1.00  0.00    -0.329 N 
ATOM     21  H   UNL A   1      33.795  23.891  23.023  1.00  0.00     0.347 HD
ATOM     22  H   UNL A   1      34.010  25.349  23.964  1.00  0.00     0.347 HD
BRANCH  20  23
ATOM     23  C   UNL A   1      32.508  25.405  22.695  1.00  0.00     0.183 C 
ATOM     24  C   UNL A   1      32.869  26.601  21.861  1.00  0.00     0.071 C 
ATOM     25  C   UNL A   1      32.697  25.268  21.205  1.00  0.00     0.071 C 
ENDBRANCH  20  23
ENDBRANCH   8  20
ENDBRANCH   6   8
ENDBRANCH   5   6
ENDBRANCH   4   5
ENDBRANCH   3   4
ENDBRANCH   2   3
ENDBRANCH   1   2
BRANCH   1  26
ATOM     26  C   UNL A   1      38.306  19.015  25.215  1.00  0.00     0.188 C 
BRANCH  26  27
ATOM     27  O   UNL A   1      39.643  19.109  25.699  1.00  0.00    -0.376 OA
BRANCH  27  28
ATOM     28  C   UNL A   1      40.090  20.409  26.086  1.00  0.00     0.202 C 
BRANCH  28  29
ATOM     29  C   UNL A   1      41.603  20.609  25.983  1.00  0.00     0.261 C 
BRANCH  29  30
ATOM     30  O   UNL A   1      41.978  21.802  26.700  1.00  0.00    -0.460 OA
BRANCH  30  31
ATOM     31  C   UNL A   1      42.293  22.851  25.917  1.00  0.00     0.338 C 
ATOM     32  O   UNL A   1      42.901  22.813  24.855  1.00  0.00    -0.246 OA
BRANCH  31  33
ATOM     33  C   UNL A   1      41.816  24.112  26.519  1.00  0.00     0.060 A 
ATOM     34  C   UNL A   1      42.378  25.344  26.174  1.00  0.00     0.016 A 
ATOM     35  C   UNL A   1      40.905  24.039  27.570  1.00  0.00     0.016 A 
ATOM     36  C   UNL A   1      42.155  26.467  26.978  1.00  0.00     0.010 A 
ATOM     37  C   UNL A   1      40.605  25.186  28.308  1.00  0.00     0.010 A 
ATOM     38  C   UNL A   1      41.280  26.398  28.069  1.00  0.00    -0.014 A 
BRANCH  38  39
ATOM     39  C   UNL A   1      41.118  27.518  29.042  1.00  0.00     0.031 A 
ATOM     40  C   UNL A   1      42.018  27.572  30.253  1.00  0.00     0.074 A 
ATOM     41  C   UNL A   1      40.181  28.473  28.893  1.00  0.00     0.049 A 
ATOM     42  N   UNL A   1      41.862  28.223  31.379  1.00  0.00    -0.248 NA
ATOM     43  C   UNL A   1      43.253  26.774  30.188  1.00  0.00     0.031 C 
ATOM     44  C   UNL A   1      39.302  28.644  27.737  1.00  0.00     0.029 A 
ATOM     45  N   UNL A   1      39.804  29.481  29.750  1.00  0.00    -0.354 N 
ATOM     46  C   UNL A   1      42.936  27.853  32.180  1.00  0.00     0.074 A 
ATOM     47  C   UNL A   1      43.745  26.935  31.407  1.00  0.00     0.031 C 
ATOM     48  C   UNL A   1      38.494  29.694  27.953  1.00  0.00     0.029 A 
ATOM     49  C   UNL A   1      38.728  30.207  29.299  1.00  0.00     0.049 A 
ATOM     50  H   UNL A   1      40.261  29.665  30.603  1.00  0.00     0.167 HD
ATOM     51  C   UNL A   1      43.216  28.231  33.451  1.00  0.00     0.031 A 
ATOM     52  C   UNL A   1      37.966  31.127  29.921  1.00  0.00     0.031 A 
ATOM     53  C   UNL A   1      42.439  29.177  34.207  1.00  0.00     0.049 A 
ATOM     54  C   UNL A   1      38.234  31.470  31.361  1.00  0.00     0.074 A 
ATOM     55  C   UNL A   1      42.634  29.613  35.507  1.00  0.00     0.029 A 
ATOM     56  N   UNL A   1      41.329  29.847  33.722  1.00  0.00    -0.354 N 
ATOM     57  N   UNL A   1      39.185  31.038  32.152  1.00  0.00    -0.248 NA
ATOM     58  C   UNL A   1      37.300  32.409  32.000  1.00  0.00     0.031 C 
ATOM     59  C   UNL A   1      41.618  30.522  35.820  1.00  0.00     0.029 A 
ATOM     60  C   UNL A   1      40.819  30.684  34.700  1.00  0.00     0.049 A 
ATOM     61  H   UNL A   1      40.958  29.744  32.817  1.00  0.00     0.167 HD
ATOM     62  C   UNL A   1      38.971  31.660  33.376  1.00  0.00     0.074 A 
ATOM     63  C   UNL A   1      37.813  32.514  33.217  1.00  0.00     0.031 C 
ATOM     64  C   UNL A   1      39.669  31.531  34.529  1.00  0.00     0.031 A 
BRANCH  51  65
ATOM     65  C   UNL A   1      44.383  27.571  34.128  1.00  0.00    -0.014 A 
ATOM     66  C   UNL A   1      44.246  26.358  34.819  1.00  0.00     0.009 A 
ATOM     67  C   UNL A   1      45.652  28.167  34.043  1.00  0.00     0.009 A 
ATOM     68  C   UNL A   1      45.353  25.773  35.439  1.00  0.00     0.001 A 
ATOM     69  C   UNL A   1      46.760  27.568  34.642  1.00  0.00     0.001 A 
ATOM     70  C   UNL A   1      46.609  26.376  35.347  1.00  0.00     0.000 A 
ENDBRANCH  51  65
BRANCH  52  71
ATOM     71  C   UNL A   1      36.808  31.733  29.212  1.00  0.00    -0.014 A 
ATOM     72  C   UNL A   1      36.937  32.966  28.559  1.00  0.00     0.009 A 
ATOM     73  C   UNL A   1      35.561  31.086  29.205  1.00  0.00     0.009 A 
ATOM     74  C   UNL A   1      35.837  33.549  27.926  1.00  0.00     0.001 A 
ATOM     75  C   UNL A   1      34.471  31.656  28.545  1.00  0.00     0.001 A 
ATOM     76  C   UNL A   1      34.607  32.891  27.914  1.00  0.00     0.000 A 
ENDBRANCH  52  71
BRANCH  64  77
ATOM     77  C   UNL A   1      39.223  32.360  35.699  1.00  0.00    -0.014 A 
ATOM     78  C   UNL A   1      39.715  33.659  35.899  1.00  0.00     0.009 A 
ATOM     79  C   UNL A   1      38.270  31.846  36.592  1.00  0.00     0.009 A 
ATOM     80  C   UNL A   1      39.283  34.415  36.990  1.00  0.00     0.001 A 
ATOM     81  C   UNL A   1      37.822  32.614  37.668  1.00  0.00     0.001 A 
ATOM     82  C   UNL A   1      38.335  33.894  37.871  1.00  0.00     0.000 A 
ENDBRANCH  64  77
ENDBRANCH  38  39
ENDBRANCH  31  33
ENDBRANCH  30  31
ENDBRANCH  29  30
ENDBRANCH  28  29
ENDBRANCH  27  28
ENDBRANCH  26  27
ENDBRANCH   1  26
TORSDOF 23
ENDMDL
