MODEL 1
REMARK VINA RESULT:     -11.2      0.000      0.000
REMARK SMILES COc1ccc(-c2ccc(S(=O)(=O)NC(C)(C)C)cc2)c(C(=O)OCCOCCOCCOC(=O)c2ccc(-c3c4nc(c(-c5ccccc5)c5ccc([nH]5)c(-c5ccccc5)c5nc(c(-c6ccccc6)c6ccc3[nH]6)C=C5)C=C4)cc2)c1
REMARK SMILES IDX 28 1 27 2 26 3 25 4 24 5 22 6 23 7 21 8 3 9 4 10 84 11 5 12
REMARK SMILES IDX 6 13 2 14 1 15 7 16 8 17 20 18 9 19 19 20 10 21 11 22 12 23
REMARK SMILES IDX 13 24 14 25 15 27 16 28 17 29 18 30 29 31 30 32 31 33 32 34
REMARK SMILES IDX 33 35 34 36 35 37 36 38 37 39 83 40 38 41 82 42 39 43 40 44
REMARK SMILES IDX 41 45 76 46 42 47 81 48 75 49 77 50 43 51 80 52 74 53 73 54
REMARK SMILES IDX 44 56 66 57 51 58 65 59 52 60 55 61 64 62 78 63 53 64 54 65
REMARK SMILES IDX 63 67 79 68 56 69 45 70 46 71 50 72 47 73 49 74 48 75 67 76
REMARK SMILES IDX 68 77 72 78 69 79 71 80 70 81 57 82 58 83 62 84 59 85 61 86
REMARK SMILES IDX 60 87
REMARK H PARENT 14 26 77 55 55 66
REMARK Flexibility Score: inf
ROOT
ATOM      1  C   UNL A   1      40.448  21.098  26.729  1.00  0.00     0.188 C 
ENDROOT
BRANCH   1   2
ATOM      2  O   UNL A   1      39.147  21.520  26.330  1.00  0.00    -0.376 OA
BRANCH   2   3
ATOM      3  C   UNL A   1      38.983  22.940  26.336  1.00  0.00     0.202 C 
BRANCH   3   4
ATOM      4  C   UNL A   1      37.545  23.345  26.014  1.00  0.00     0.261 C 
BRANCH   4   5
ATOM      5  O   UNL A   1      36.679  22.225  25.753  1.00  0.00    -0.460 OA
BRANCH   5   6
ATOM      6  C   UNL A   1      36.148  22.092  24.513  1.00  0.00     0.338 C 
ATOM      7  O   UNL A   1      36.711  22.363  23.470  1.00  0.00    -0.246 OA
BRANCH   6   8
ATOM      8  C   UNL A   1      34.774  21.511  24.651  1.00  0.00     0.071 A 
ATOM      9  C   UNL A   1      33.419  19.518  25.021  1.00  0.00     0.119 A 
ATOM     10  C   UNL A   1      32.272  20.302  24.906  1.00  0.00     0.047 A 
ATOM     11  C   UNL A   1      34.667  20.125  24.907  1.00  0.00     0.062 A 
ATOM     12  C   UNL A   1      32.363  21.677  24.662  1.00  0.00     0.013 A 
ATOM     13  C   UNL A   1      33.611  22.307  24.509  1.00  0.00    -0.004 A 
BRANCH   9  14
ATOM     14  O   UNL A   1      33.185  18.186  25.221  1.00  0.00    -0.497 OA
ATOM     15  C   UNL A   1      34.043  17.265  24.556  1.00  0.00     0.278 C 
ENDBRANCH   9  14
BRANCH  13  16
ATOM     16  C   UNL A   1      33.650  23.713  24.071  1.00  0.00    -0.017 A 
ATOM     17  C   UNL A   1      33.644  24.102  22.726  1.00  0.00     0.010 A 
ATOM     18  C   UNL A   1      33.695  24.721  25.041  1.00  0.00     0.010 A 
ATOM     19  C   UNL A   1      33.640  25.464  22.378  1.00  0.00     0.022 A 
ATOM     20  C   UNL A   1      33.585  26.070  24.710  1.00  0.00     0.022 A 
ATOM     21  C   UNL A   1      33.599  26.448  23.377  1.00  0.00     0.082 A 
BRANCH  21  22
ATOM     22  S   UNL A   1      33.573  28.158  22.907  1.00  0.00     0.241 S 
ATOM     23  O   UNL A   1      33.937  28.941  24.069  1.00  0.00    -0.207 OA
ATOM     24  O   UNL A   1      34.335  28.246  21.689  1.00  0.00    -0.207 OA
BRANCH  22  25
ATOM     25  N   UNL A   1      32.007  28.563  22.453  1.00  0.00    -0.206 NA
ATOM     26  H   UNL A   1      31.804  27.951  21.663  1.00  0.00     0.141 HD
BRANCH  25  27
ATOM     27  C   UNL A   1      30.770  28.537  23.268  1.00  0.00     0.025 C 
ATOM     28  C   UNL A   1      30.138  27.157  23.436  1.00  0.00     0.028 C 
ATOM     29  C   UNL A   1      31.137  29.069  24.668  1.00  0.00     0.028 C 
ATOM     30  C   UNL A   1      29.747  29.505  22.700  1.00  0.00     0.028 C 
ENDBRANCH  25  27
ENDBRANCH  22  25
ENDBRANCH  21  22
ENDBRANCH  13  16
ENDBRANCH   6   8
ENDBRANCH   5   6
ENDBRANCH   4   5
ENDBRANCH   3   4
ENDBRANCH   2   3
ENDBRANCH   1   2
BRANCH   1  31
ATOM     31  C   UNL A   1      40.874  19.769  26.085  1.00  0.00     0.188 C 
BRANCH  31  32
ATOM     32  O   UNL A   1      42.130  19.672  25.423  1.00  0.00    -0.376 OA
BRANCH  32  33
ATOM     33  C   UNL A   1      43.222  20.407  25.946  1.00  0.00     0.202 C 
BRANCH  33  34
ATOM     34  C   UNL A   1      43.985  21.299  24.958  1.00  0.00     0.261 C 
BRANCH  34  35
ATOM     35  O   UNL A   1      43.342  22.541  24.630  1.00  0.00    -0.460 OA
BRANCH  35  36
ATOM     36  C   UNL A   1      44.152  23.629  24.658  1.00  0.00     0.338 C 
ATOM     37  O   UNL A   1      45.167  23.819  24.013  1.00  0.00    -0.246 OA
BRANCH  36  38
ATOM     38  C   UNL A   1      43.586  24.620  25.598  1.00  0.00     0.060 A 
ATOM     39  C   UNL A   1      44.260  25.823  25.841  1.00  0.00     0.016 A 
ATOM     40  C   UNL A   1      42.420  24.324  26.296  1.00  0.00     0.016 A 
ATOM     41  C   UNL A   1      43.764  26.739  26.785  1.00  0.00     0.010 A 
ATOM     42  C   UNL A   1      41.945  25.232  27.247  1.00  0.00     0.010 A 
ATOM     43  C   UNL A   1      42.599  26.456  27.511  1.00  0.00    -0.014 A 
BRANCH  43  44
ATOM     44  C   UNL A   1      42.081  27.352  28.601  1.00  0.00     0.031 A 
ATOM     45  C   UNL A   1      42.682  27.251  29.986  1.00  0.00     0.074 A 
ATOM     46  C   UNL A   1      41.041  28.201  28.430  1.00  0.00     0.049 A 
ATOM     47  N   UNL A   1      42.304  27.828  31.101  1.00  0.00    -0.248 NA
ATOM     48  C   UNL A   1      43.857  26.376  30.137  1.00  0.00     0.031 C 
ATOM     49  C   UNL A   1      40.328  28.460  27.181  1.00  0.00     0.029 A 
ATOM     50  N   UNL A   1      40.356  28.964  29.357  1.00  0.00    -0.354 N 
ATOM     51  C   UNL A   1      43.206  27.408  32.068  1.00  0.00     0.074 A 
ATOM     52  C   UNL A   1      44.073  26.435  31.440  1.00  0.00     0.031 C 
ATOM     53  C   UNL A   1      39.259  29.237  27.433  1.00  0.00     0.029 A 
ATOM     54  C   UNL A   1      39.209  29.543  28.858  1.00  0.00     0.049 A 
ATOM     55  H   UNL A   1      40.658  29.081  30.286  1.00  0.00     0.167 HD
ATOM     56  C   UNL A   1      43.364  27.838  33.343  1.00  0.00     0.031 A 
ATOM     57  C   UNL A   1      38.211  30.211  29.471  1.00  0.00     0.031 A 
ATOM     58  C   UNL A   1      42.548  28.828  33.988  1.00  0.00     0.049 A 
ATOM     59  C   UNL A   1      38.300  30.540  30.934  1.00  0.00     0.074 A 
ATOM     60  C   UNL A   1      42.734  29.430  35.222  1.00  0.00     0.029 A 
ATOM     61  N   UNL A   1      41.382  29.352  33.460  1.00  0.00    -0.354 N 
ATOM     62  N   UNL A   1      39.227  30.218  31.799  1.00  0.00    -0.248 NA
ATOM     63  C   UNL A   1      37.223  31.380  31.485  1.00  0.00     0.031 C 
ATOM     64  C   UNL A   1      41.651  30.283  35.463  1.00  0.00     0.029 A 
ATOM     65  C   UNL A   1      40.818  30.244  34.359  1.00  0.00     0.049 A 
ATOM     66  H   UNL A   1      41.008  29.125  32.579  1.00  0.00     0.167 HD
ATOM     67  C   UNL A   1      38.891  30.889  32.969  1.00  0.00     0.074 A 
ATOM     68  C   UNL A   1      37.652  31.592  32.720  1.00  0.00     0.031 C 
ATOM     69  C   UNL A   1      39.588  30.952  34.129  1.00  0.00     0.031 A 
BRANCH  56  70
ATOM     70  C   UNL A   1      44.526  27.273  34.110  1.00  0.00    -0.014 A 
ATOM     71  C   UNL A   1      44.370  26.111  34.887  1.00  0.00     0.009 A 
ATOM     72  C   UNL A   1      45.785  27.882  34.038  1.00  0.00     0.009 A 
ATOM     73  C   UNL A   1      45.443  25.599  35.616  1.00  0.00     0.001 A 
ATOM     74  C   UNL A   1      46.865  27.350  34.746  1.00  0.00     0.001 A 
ATOM     75  C   UNL A   1      46.689  26.217  35.542  1.00  0.00     0.000 A 
ENDBRANCH  56  70
BRANCH  57  76
ATOM     76  C   UNL A   1      36.993  30.639  28.734  1.00  0.00    -0.014 A 
ATOM     77  C   UNL A   1      36.748  31.990  28.453  1.00  0.00     0.009 A 
ATOM     78  C   UNL A   1      36.006  29.693  28.427  1.00  0.00     0.009 A 
ATOM     79  C   UNL A   1      35.532  32.382  27.882  1.00  0.00     0.001 A 
ATOM     80  C   UNL A   1      34.802  30.083  27.834  1.00  0.00     0.001 A 
ATOM     81  C   UNL A   1      34.563  31.429  27.570  1.00  0.00     0.000 A 
ENDBRANCH  57  76
BRANCH  69  82
ATOM     82  C   UNL A   1      39.087  31.895  35.183  1.00  0.00    -0.014 A 
ATOM     83  C   UNL A   1      38.255  31.467  36.228  1.00  0.00     0.009 A 
ATOM     84  C   UNL A   1      39.458  33.248  35.118  1.00  0.00     0.009 A 
ATOM     85  C   UNL A   1      37.776  32.386  37.167  1.00  0.00     0.001 A 
ATOM     86  C   UNL A   1      39.002  34.157  36.074  1.00  0.00     0.001 A 
ATOM     87  C   UNL A   1      38.154  33.727  37.092  1.00  0.00     0.000 A 
ENDBRANCH  69  82
ENDBRANCH  43  44
ENDBRANCH  36  38
ENDBRANCH  35  36
ENDBRANCH  34  35
ENDBRANCH  33  34
ENDBRANCH  32  33
ENDBRANCH  31  32
ENDBRANCH   1  31
TORSDOF 22
ENDMDL
MODEL 2
REMARK VINA RESULT:     -10.2      1.511      5.877
REMARK SMILES COc1ccc(-c2ccc(S(=O)(=O)NC(C)(C)C)cc2)c(C(=O)OCCOCCOCCOC(=O)c2ccc(-c3c4nc(c(-c5ccccc5)c5ccc([nH]5)c(-c5ccccc5)c5nc(c(-c6ccccc6)c6ccc3[nH]6)C=C5)C=C4)cc2)c1
REMARK SMILES IDX 28 1 27 2 26 3 25 4 24 5 22 6 23 7 21 8 3 9 4 10 84 11 5 12
REMARK SMILES IDX 6 13 2 14 1 15 7 16 8 17 20 18 9 19 19 20 10 21 11 22 12 23
REMARK SMILES IDX 13 24 14 25 15 27 16 28 17 29 18 30 29 31 30 32 31 33 32 34
REMARK SMILES IDX 33 35 34 36 35 37 36 38 37 39 83 40 38 41 82 42 39 43 40 44
REMARK SMILES IDX 41 45 76 46 42 47 81 48 75 49 77 50 43 51 80 52 74 53 73 54
REMARK SMILES IDX 44 56 66 57 51 58 65 59 52 60 55 61 64 62 78 63 53 64 54 65
REMARK SMILES IDX 63 67 79 68 56 69 45 70 46 71 50 72 47 73 49 74 48 75 67 76
REMARK SMILES IDX 68 77 72 78 69 79 71 80 70 81 57 82 58 83 62 84 59 85 61 86
REMARK SMILES IDX 60 87
REMARK H PARENT 14 26 77 55 55 66
REMARK Flexibility Score: inf
ROOT
ATOM      1  C   UNL A   1      39.664  22.268  26.512  1.00  0.00     0.188 C 
ENDROOT
BRANCH   1   2
ATOM      2  O   UNL A   1      38.413  22.078  25.857  1.00  0.00    -0.376 OA
BRANCH   2   3
ATOM      3  C   UNL A   1      37.732  23.301  25.566  1.00  0.00     0.202 C 
BRANCH   3   4
ATOM      4  C   UNL A   1      36.411  23.053  24.838  1.00  0.00     0.261 C 
BRANCH   4   5
ATOM      5  O   UNL A   1      36.035  21.665  24.789  1.00  0.00    -0.460 OA
BRANCH   5   6
ATOM      6  C   UNL A   1      35.029  21.238  25.591  1.00  0.00     0.338 C 
ATOM      7  O   UNL A   1      34.758  21.688  26.687  1.00  0.00    -0.246 OA
BRANCH   6   8
ATOM      8  C   UNL A   1      34.285  20.154  24.872  1.00  0.00     0.071 A 
ATOM      9  C   UNL A   1      34.238  17.822  24.163  1.00  0.00     0.119 A 
ATOM     10  C   UNL A   1      33.011  18.056  23.544  1.00  0.00     0.047 A 
ATOM     11  C   UNL A   1      34.865  18.866  24.837  1.00  0.00     0.062 A 
ATOM     12  C   UNL A   1      32.419  19.323  23.578  1.00  0.00     0.013 A 
ATOM     13  C   UNL A   1      33.050  20.403  24.222  1.00  0.00    -0.004 A 
BRANCH   9  14
ATOM     14  O   UNL A   1      34.719  16.550  24.020  1.00  0.00    -0.497 OA
ATOM     15  C   UNL A   1      35.039  15.835  25.209  1.00  0.00     0.278 C 
ENDBRANCH   9  14
BRANCH  13  16
ATOM     16  C   UNL A   1      32.480  21.753  24.072  1.00  0.00    -0.017 A 
ATOM     17  C   UNL A   1      31.519  22.286  24.939  1.00  0.00     0.010 A 
ATOM     18  C   UNL A   1      32.917  22.555  23.010  1.00  0.00     0.010 A 
ATOM     19  C   UNL A   1      31.049  23.599  24.761  1.00  0.00     0.022 A 
ATOM     20  C   UNL A   1      32.537  23.889  22.889  1.00  0.00     0.022 A 
ATOM     21  C   UNL A   1      31.572  24.404  23.739  1.00  0.00     0.082 A 
BRANCH  21  22
ATOM     22  S   UNL A   1      30.974  26.064  23.553  1.00  0.00     0.241 S 
ATOM     23  O   UNL A   1      31.399  26.543  22.255  1.00  0.00    -0.207 OA
ATOM     24  O   UNL A   1      29.579  26.025  23.906  1.00  0.00    -0.207 OA
BRANCH  22  25
ATOM     25  N   UNL A   1      31.681  27.020  24.739  1.00  0.00    -0.206 NA
ATOM     26  H   UNL A   1      31.739  26.413  25.556  1.00  0.00     0.141 HD
BRANCH  25  27
ATOM     27  C   UNL A   1      32.985  27.724  24.708  1.00  0.00     0.025 C 
ATOM     28  C   UNL A   1      33.641  27.801  23.330  1.00  0.00     0.028 C 
ATOM     29  C   UNL A   1      32.737  29.163  25.201  1.00  0.00     0.028 C 
ATOM     30  C   UNL A   1      33.946  27.093  25.700  1.00  0.00     0.028 C 
ENDBRANCH  25  27
ENDBRANCH  22  25
ENDBRANCH  21  22
ENDBRANCH  13  16
ENDBRANCH   6   8
ENDBRANCH   5   6
ENDBRANCH   4   5
ENDBRANCH   3   4
ENDBRANCH   2   3
ENDBRANCH   1   2
BRANCH   1  31
ATOM     31  C   UNL A   1      40.534  21.002  26.526  1.00  0.00     0.188 C 
BRANCH  31  32
ATOM     32  O   UNL A   1      41.597  20.861  25.590  1.00  0.00    -0.376 OA
BRANCH  32  33
ATOM     33  C   UNL A   1      42.920  21.097  26.038  1.00  0.00     0.202 C 
BRANCH  33  34
ATOM     34  C   UNL A   1      43.741  22.120  25.242  1.00  0.00     0.261 C 
BRANCH  34  35
ATOM     35  O   UNL A   1      43.113  23.398  25.054  1.00  0.00    -0.460 OA
BRANCH  35  36
ATOM     36  C   UNL A   1      43.927  24.468  25.237  1.00  0.00     0.338 C 
ATOM     37  O   UNL A   1      44.834  24.845  24.517  1.00  0.00    -0.246 OA
BRANCH  36  38
ATOM     38  C   UNL A   1      43.519  25.172  26.471  1.00  0.00     0.060 A 
ATOM     39  C   UNL A   1      42.589  24.586  27.338  1.00  0.00     0.016 A 
ATOM     40  C   UNL A   1      44.006  26.448  26.733  1.00  0.00     0.016 A 
ATOM     41  C   UNL A   1      42.144  25.280  28.478  1.00  0.00     0.010 A 
ATOM     42  C   UNL A   1      43.543  27.138  27.858  1.00  0.00     0.010 A 
ATOM     43  C   UNL A   1      42.608  26.572  28.754  1.00  0.00    -0.014 A 
BRANCH  43  44
ATOM     44  C   UNL A   1      42.092  27.395  29.902  1.00  0.00     0.031 A 
ATOM     45  C   UNL A   1      40.871  28.264  29.693  1.00  0.00     0.074 A 
ATOM     46  C   UNL A   1      42.711  27.462  31.103  1.00  0.00     0.049 A 
ATOM     47  N   UNL A   1      40.334  29.150  30.497  1.00  0.00    -0.248 NA
ATOM     48  C   UNL A   1      40.170  28.125  28.406  1.00  0.00     0.031 C 
ATOM     49  C   UNL A   1      43.890  26.702  31.517  1.00  0.00     0.029 A 
ATOM     50  N   UNL A   1      42.457  28.278  32.188  1.00  0.00    -0.354 N 
ATOM     51  C   UNL A   1      39.225  29.647  29.825  1.00  0.00     0.074 A 
ATOM     52  C   UNL A   1      39.237  29.058  28.504  1.00  0.00     0.031 C 
ATOM     53  C   UNL A   1      44.309  27.151  32.713  1.00  0.00     0.029 A 
ATOM     54  C   UNL A   1      43.430  28.224  33.163  1.00  0.00     0.049 A 
ATOM     55  H   UNL A   1      41.656  28.846  32.259  1.00  0.00     0.167 HD
ATOM     56  C   UNL A   1      38.237  30.456  30.275  1.00  0.00     0.031 A 
ATOM     57  C   UNL A   1      43.621  28.968  34.271  1.00  0.00     0.031 A 
ATOM     58  C   UNL A   1      38.173  31.029  31.590  1.00  0.00     0.049 A 
ATOM     59  C   UNL A   1      42.609  29.997  34.683  1.00  0.00     0.074 A 
ATOM     60  C   UNL A   1      37.133  31.734  32.175  1.00  0.00     0.029 A 
ATOM     61  N   UNL A   1      39.195  30.979  32.522  1.00  0.00    -0.354 N 
ATOM     62  N   UNL A   1      41.510  30.366  34.076  1.00  0.00    -0.248 NA
ATOM     63  C   UNL A   1      42.842  30.670  35.973  1.00  0.00     0.031 C 
ATOM     64  C   UNL A   1      37.546  32.154  33.445  1.00  0.00     0.029 A 
ATOM     65  C   UNL A   1      38.824  31.670  33.664  1.00  0.00     0.049 A 
ATOM     66  H   UNL A   1      40.056  30.521  32.392  1.00  0.00     0.167 HD
ATOM     67  C   UNL A   1      40.880  31.243  34.950  1.00  0.00     0.074 A 
ATOM     68  C   UNL A   1      41.740  31.392  36.102  1.00  0.00     0.031 C 
ATOM     69  C   UNL A   1      39.665  31.828  34.819  1.00  0.00     0.031 A 
BRANCH  56  70
ATOM     70  C   UNL A   1      37.094  30.717  29.336  1.00  0.00    -0.014 A 
ATOM     71  C   UNL A   1      36.193  29.690  29.006  1.00  0.00     0.009 A 
ATOM     72  C   UNL A   1      36.897  31.996  28.798  1.00  0.00     0.009 A 
ATOM     73  C   UNL A   1      35.145  29.925  28.117  1.00  0.00     0.001 A 
ATOM     74  C   UNL A   1      35.830  32.236  27.931  1.00  0.00     0.001 A 
ATOM     75  C   UNL A   1      34.963  31.199  27.584  1.00  0.00     0.000 A 
ENDBRANCH  56  70
BRANCH  57  76
ATOM     76  C   UNL A   1      44.833  28.806  35.117  1.00  0.00    -0.014 A 
ATOM     77  C   UNL A   1      44.843  27.938  36.218  1.00  0.00     0.009 A 
ATOM     78  C   UNL A   1      45.946  29.628  34.892  1.00  0.00     0.009 A 
ATOM     79  C   UNL A   1      45.944  27.905  37.080  1.00  0.00     0.001 A 
ATOM     80  C   UNL A   1      47.056  29.575  35.740  1.00  0.00     0.001 A 
ATOM     81  C   UNL A   1      47.050  28.720  36.838  1.00  0.00     0.000 A 
ENDBRANCH  57  76
BRANCH  69  82
ATOM     82  C   UNL A   1      39.142  32.598  35.996  1.00  0.00    -0.014 A 
ATOM     83  C   UNL A   1      39.460  33.949  36.202  1.00  0.00     0.009 A 
ATOM     84  C   UNL A   1      38.313  31.946  36.923  1.00  0.00     0.009 A 
ATOM     85  C   UNL A   1      38.985  34.619  37.333  1.00  0.00     0.001 A 
ATOM     86  C   UNL A   1      37.816  32.625  38.036  1.00  0.00     0.001 A 
ATOM     87  C   UNL A   1      38.161  33.959  38.245  1.00  0.00     0.000 A 
ENDBRANCH  69  82
ENDBRANCH  43  44
ENDBRANCH  36  38
ENDBRANCH  35  36
ENDBRANCH  34  35
ENDBRANCH  33  34
ENDBRANCH  32  33
ENDBRANCH  31  32
ENDBRANCH   1  31
TORSDOF 22
ENDMDL
MODEL 3
REMARK VINA RESULT:      -9.6      3.467      6.314
REMARK SMILES COc1ccc(-c2ccc(S(=O)(=O)NC(C)(C)C)cc2)c(C(=O)OCCOCCOCCOC(=O)c2ccc(-c3c4nc(c(-c5ccccc5)c5ccc([nH]5)c(-c5ccccc5)c5nc(c(-c6ccccc6)c6ccc3[nH]6)C=C5)C=C4)cc2)c1
REMARK SMILES IDX 28 1 27 2 26 3 25 4 24 5 22 6 23 7 21 8 3 9 4 10 84 11 5 12
REMARK SMILES IDX 6 13 2 14 1 15 7 16 8 17 20 18 9 19 19 20 10 21 11 22 12 23
REMARK SMILES IDX 13 24 14 25 15 27 16 28 17 29 18 30 29 31 30 32 31 33 32 34
REMARK SMILES IDX 33 35 34 36 35 37 36 38 37 39 83 40 38 41 82 42 39 43 40 44
REMARK SMILES IDX 41 45 76 46 42 47 81 48 75 49 77 50 43 51 80 52 74 53 73 54
REMARK SMILES IDX 44 56 66 57 51 58 65 59 52 60 55 61 64 62 78 63 53 64 54 65
REMARK SMILES IDX 63 67 79 68 56 69 45 70 46 71 50 72 47 73 49 74 48 75 67 76
REMARK SMILES IDX 68 77 72 78 69 79 71 80 70 81 57 82 58 83 62 84 59 85 61 86
REMARK SMILES IDX 60 87
REMARK H PARENT 14 26 77 55 55 66
REMARK Flexibility Score: inf
ROOT
ATOM      1  C   UNL A   1      39.450  21.153  25.993  1.00  0.00     0.188 C 
ENDROOT
BRANCH   1   2
ATOM      2  O   UNL A   1      38.120  21.273  25.494  1.00  0.00    -0.376 OA
BRANCH   2   3
ATOM      3  C   UNL A   1      37.509  22.527  25.804  1.00  0.00     0.202 C 
BRANCH   3   4
ATOM      4  C   UNL A   1      36.005  22.504  25.536  1.00  0.00     0.261 C 
BRANCH   4   5
ATOM      5  O   UNL A   1      35.446  21.177  25.514  1.00  0.00    -0.460 OA
BRANCH   5   6
ATOM      6  C   UNL A   1      34.140  21.020  25.842  1.00  0.00     0.338 C 
ATOM      7  O   UNL A   1      33.587  21.515  26.804  1.00  0.00    -0.246 OA
BRANCH   6   8
ATOM      8  C   UNL A   1      33.492  20.172  24.789  1.00  0.00     0.071 A 
ATOM      9  C   UNL A   1      33.091  17.929  23.924  1.00  0.00     0.119 A 
ATOM     10  C   UNL A   1      32.356  18.486  22.878  1.00  0.00     0.047 A 
ATOM     11  C   UNL A   1      33.646  18.770  24.883  1.00  0.00     0.062 A 
ATOM     12  C   UNL A   1      32.188  19.872  22.776  1.00  0.00     0.013 A 
ATOM     13  C   UNL A   1      32.767  20.745  23.715  1.00  0.00    -0.004 A 
BRANCH   9  14
ATOM     14  O   UNL A   1      33.208  16.568  23.880  1.00  0.00    -0.497 OA
ATOM     15  C   UNL A   1      33.924  15.939  24.937  1.00  0.00     0.278 C 
ENDBRANCH   9  14
BRANCH  13  16
ATOM     16  C   UNL A   1      32.719  22.195  23.462  1.00  0.00    -0.017 A 
ATOM     17  C   UNL A   1      31.633  23.004  23.819  1.00  0.00     0.010 A 
ATOM     18  C   UNL A   1      33.810  22.808  22.834  1.00  0.00     0.010 A 
ATOM     19  C   UNL A   1      31.672  24.391  23.587  1.00  0.00     0.022 A 
ATOM     20  C   UNL A   1      33.901  24.191  22.695  1.00  0.00     0.022 A 
ATOM     21  C   UNL A   1      32.816  24.982  23.033  1.00  0.00     0.082 A 
BRANCH  21  22
ATOM     22  S   UNL A   1      32.842  26.737  22.772  1.00  0.00     0.241 S 
ATOM     23  O   UNL A   1      33.616  26.993  21.576  1.00  0.00    -0.207 OA
ATOM     24  O   UNL A   1      31.473  27.173  22.873  1.00  0.00    -0.207 OA
BRANCH  22  25
ATOM     25  N   UNL A   1      33.611  27.460  24.078  1.00  0.00    -0.206 NA
ATOM     26  H   UNL A   1      33.482  28.460  23.929  1.00  0.00     0.141 HD
BRANCH  25  27
ATOM     27  C   UNL A   1      33.359  27.266  25.526  1.00  0.00     0.025 C 
ATOM     28  C   UNL A   1      31.885  27.179  25.916  1.00  0.00     0.028 C 
ATOM     29  C   UNL A   1      34.040  25.943  25.932  1.00  0.00     0.028 C 
ATOM     30  C   UNL A   1      34.040  28.360  26.329  1.00  0.00     0.028 C 
ENDBRANCH  25  27
ENDBRANCH  22  25
ENDBRANCH  21  22
ENDBRANCH  13  16
ENDBRANCH   6   8
ENDBRANCH   5   6
ENDBRANCH   4   5
ENDBRANCH   3   4
ENDBRANCH   2   3
ENDBRANCH   1   2
BRANCH   1  31
ATOM     31  C   UNL A   1      39.934  19.696  26.069  1.00  0.00     0.188 C 
BRANCH  31  32
ATOM     32  O   UNL A   1      41.079  19.290  25.328  1.00  0.00    -0.376 OA
BRANCH  32  33
ATOM     33  C   UNL A   1      42.331  19.265  25.990  1.00  0.00     0.202 C 
BRANCH  33  34
ATOM     34  C   UNL A   1      43.364  20.308  25.543  1.00  0.00     0.261 C 
BRANCH  34  35
ATOM     35  O   UNL A   1      42.856  21.641  25.374  1.00  0.00    -0.460 OA
BRANCH  35  36
ATOM     36  C   UNL A   1      43.696  22.497  24.738  1.00  0.00     0.338 C 
ATOM     37  O   UNL A   1      44.219  22.355  23.648  1.00  0.00    -0.246 OA
BRANCH  36  38
ATOM     38  C   UNL A   1      43.869  23.703  25.576  1.00  0.00     0.060 A 
ATOM     39  C   UNL A   1      43.820  23.602  26.971  1.00  0.00     0.016 A 
ATOM     40  C   UNL A   1      44.009  24.949  24.974  1.00  0.00     0.016 A 
ATOM     41  C   UNL A   1      43.914  24.754  27.772  1.00  0.00     0.010 A 
ATOM     42  C   UNL A   1      44.083  26.090  25.778  1.00  0.00     0.010 A 
ATOM     43  C   UNL A   1      44.041  26.021  27.188  1.00  0.00    -0.014 A 
BRANCH  43  44
ATOM     44  C   UNL A   1      44.047  27.291  27.992  1.00  0.00     0.031 A 
ATOM     45  C   UNL A   1      42.733  27.986  28.280  1.00  0.00     0.074 A 
ATOM     46  C   UNL A   1      45.181  27.897  28.412  1.00  0.00     0.049 A 
ATOM     47  N   UNL A   1      42.514  29.153  28.837  1.00  0.00    -0.248 NA
ATOM     48  C   UNL A   1      41.507  27.278  27.879  1.00  0.00     0.031 C 
ATOM     49  C   UNL A   1      46.544  27.396  28.252  1.00  0.00     0.029 A 
ATOM     50  N   UNL A   1      45.359  29.128  29.014  1.00  0.00    -0.354 N 
ATOM     51  C   UNL A   1      41.134  29.300  28.874  1.00  0.00     0.074 A 
ATOM     52  C   UNL A   1      40.572  28.165  28.176  1.00  0.00     0.031 C 
ATOM     53  C   UNL A   1      47.415  28.341  28.650  1.00  0.00     0.029 A 
ATOM     54  C   UNL A   1      46.679  29.515  29.105  1.00  0.00     0.049 A 
ATOM     55  H   UNL A   1      44.614  29.678  29.347  1.00  0.00     0.167 HD
ATOM     56  C   UNL A   1      40.386  30.243  29.495  1.00  0.00     0.031 A 
ATOM     57  C   UNL A   1      47.240  30.685  29.472  1.00  0.00     0.031 A 
ATOM     58  C   UNL A   1      40.908  31.362  30.228  1.00  0.00     0.049 A 
ATOM     59  C   UNL A   1      46.391  31.805  29.999  1.00  0.00     0.074 A 
ATOM     60  C   UNL A   1      40.223  32.276  31.012  1.00  0.00     0.029 A 
ATOM     61  N   UNL A   1      42.241  31.732  30.256  1.00  0.00    -0.354 N 
ATOM     62  N   UNL A   1      45.090  31.870  30.123  1.00  0.00    -0.248 NA
ATOM     63  C   UNL A   1      47.104  32.995  30.493  1.00  0.00     0.031 C 
ATOM     64  C   UNL A   1      41.137  33.230  31.476  1.00  0.00     0.029 A 
ATOM     65  C   UNL A   1      42.394  32.881  31.016  1.00  0.00     0.049 A 
ATOM     66  H   UNL A   1      42.971  31.251  29.804  1.00  0.00     0.167 HD
ATOM     67  C   UNL A   1      44.839  33.063  30.789  1.00  0.00     0.074 A 
ATOM     68  C   UNL A   1      46.113  33.715  30.995  1.00  0.00     0.031 C 
ATOM     69  C   UNL A   1      43.653  33.542  31.233  1.00  0.00     0.031 A 
BRANCH  56  70
ATOM     70  C   UNL A   1      38.895  30.058  29.457  1.00  0.00    -0.014 A 
ATOM     71  C   UNL A   1      38.223  29.463  30.539  1.00  0.00     0.009 A 
ATOM     72  C   UNL A   1      38.155  30.502  28.354  1.00  0.00     0.009 A 
ATOM     73  C   UNL A   1      36.843  29.272  30.495  1.00  0.00     0.001 A 
ATOM     74  C   UNL A   1      36.769  30.335  28.326  1.00  0.00     0.001 A 
ATOM     75  C   UNL A   1      36.117  29.711  29.390  1.00  0.00     0.000 A 
ENDBRANCH  56  70
BRANCH  57  76
ATOM     76  C   UNL A   1      48.705  30.913  29.365  1.00  0.00    -0.014 A 
ATOM     77  C   UNL A   1      49.566  30.633  30.436  1.00  0.00     0.009 A 
ATOM     78  C   UNL A   1      49.224  31.539  28.224  1.00  0.00     0.009 A 
ATOM     79  C   UNL A   1      50.919  30.983  30.363  1.00  0.00     0.001 A 
ATOM     80  C   UNL A   1      50.581  31.866  28.144  1.00  0.00     0.001 A 
ATOM     81  C   UNL A   1      51.425  31.595  29.217  1.00  0.00     0.000 A 
ENDBRANCH  57  76
BRANCH  69  82
ATOM     82  C   UNL A   1      43.683  34.780  32.081  1.00  0.00    -0.014 A 
ATOM     83  C   UNL A   1      43.643  36.065  31.522  1.00  0.00     0.009 A 
ATOM     84  C   UNL A   1      43.760  34.646  33.477  1.00  0.00     0.009 A 
ATOM     85  C   UNL A   1      43.714  37.193  32.346  1.00  0.00     0.001 A 
ATOM     86  C   UNL A   1      43.803  35.773  34.298  1.00  0.00     0.001 A 
ATOM     87  C   UNL A   1      43.790  37.046  33.731  1.00  0.00     0.000 A 
ENDBRANCH  69  82
ENDBRANCH  43  44
ENDBRANCH  36  38
ENDBRANCH  35  36
ENDBRANCH  34  35
ENDBRANCH  33  34
ENDBRANCH  32  33
ENDBRANCH  31  32
ENDBRANCH   1  31
TORSDOF 22
ENDMDL
