MODEL 1
REMARK VINA RESULT:     -10.3      0.000      0.000
REMARK SMILES Cc1cc(=O)cc(C)n1C[C@H]1CCCC[C@@H]1C(=O)OCCOCCOCCOC(=O)c1ccc(-c2c3nc(c(-c4ccccc4)c4ccc([nH]4)c(-c4ccccc4)c4nc(c(-c5ccccc5)c5ccc2[nH]5)C=C4)C=C3)cc1
REMARK SMILES IDX 23 1 22 2 21 3 20 4 19 5 17 6 18 7 16 8 11 9 12 10 13 11
REMARK SMILES IDX 15 12 14 13 10 14 9 15 1 16 2 17 3 18 4 19 7 20 5 21 6 22
REMARK SMILES IDX 8 23 24 24 25 25 26 26 27 27 28 28 29 29 30 30 31 31 32 32
REMARK SMILES IDX 78 33 33 34 77 35 34 36 35 37 36 38 71 39 37 40 76 41 70 42
REMARK SMILES IDX 72 43 38 44 75 45 69 46 68 47 39 49 61 50 46 51 60 52 47 53
REMARK SMILES IDX 50 54 59 55 73 56 48 57 49 58 58 60 74 61 51 62 40 63 41 64
REMARK SMILES IDX 45 65 42 66 44 67 43 68 62 69 63 70 67 71 64 72 66 73 65 74
REMARK SMILES IDX 52 75 53 76 57 77 54 78 56 79 55 80
REMARK H PARENT 72 48 50 59
REMARK Flexibility Score: inf
ROOT
ATOM      1  C   UNL A   1      33.677  35.521  28.925  1.00  0.00     0.188 C 
ENDROOT
BRANCH   1   2
ATOM      2  O   UNL A   1      34.409  34.379  28.511  1.00  0.00    -0.376 OA
BRANCH   2   3
ATOM      3  C   UNL A   1      33.651  33.301  27.990  1.00  0.00     0.202 C 
BRANCH   3   4
ATOM      4  C   UNL A   1      34.385  31.954  27.953  1.00  0.00     0.261 C 
BRANCH   4   5
ATOM      5  O   UNL A   1      33.709  30.878  27.258  1.00  0.00    -0.463 OA
BRANCH   5   6
ATOM      6  C   UNL A   1      34.330  29.673  27.250  1.00  0.00     0.309 C 
ATOM      7  O   UNL A   1      35.546  29.548  27.292  1.00  0.00    -0.252 OA
BRANCH   6   8
ATOM      8  C   UNL A   1      33.323  28.504  27.150  1.00  0.00     0.104 C 
ATOM      9  C   UNL A   1      33.624  27.401  26.058  1.00  0.00     0.023 C 
ATOM     10  C   UNL A   1      33.643  28.160  24.720  1.00  0.00     0.006 C 
ATOM     11  C   UNL A   1      32.297  28.799  24.380  1.00  0.00     0.000 C 
ATOM     12  C   UNL A   1      31.933  29.128  26.911  1.00  0.00     0.016 C 
ATOM     13  C   UNL A   1      31.745  29.685  25.494  1.00  0.00     0.001 C 
BRANCH   9  14
ATOM     14  C   UNL A   1      32.538  26.253  26.144  1.00  0.00     0.126 C 
BRANCH  14  15
ATOM     15  N   UNL A   1      32.427  25.187  25.069  1.00  0.00    -0.349 N 
ATOM     16  C   UNL A   1      34.415  23.947  26.140  1.00  0.00     0.064 C 
ATOM     17  C   UNL A   1      33.319  24.056  25.104  1.00  0.00     0.018 A 
ATOM     18  C   UNL A   1      33.194  22.988  24.290  1.00  0.00     0.073 A 
ATOM     19  C   UNL A   1      32.100  22.921  23.318  1.00  0.00     0.182 A 
ATOM     20  C   UNL A   1      31.278  25.033  24.231  1.00  0.00     0.018 A 
ATOM     21  O   UNL A   1      31.971  21.972  22.555  1.00  0.00    -0.290 OA
ATOM     22  C   UNL A   1      31.120  24.007  23.370  1.00  0.00     0.073 A 
ATOM     23  C   UNL A   1      30.074  25.922  24.328  1.00  0.00     0.064 C 
ENDBRANCH  14  15
ENDBRANCH   9  14
ENDBRANCH   6   8
ENDBRANCH   5   6
ENDBRANCH   4   5
ENDBRANCH   3   4
ENDBRANCH   2   3
ENDBRANCH   1   2
BRANCH   1  24
ATOM     24  C   UNL A   1      33.033  35.360  30.318  1.00  0.00     0.188 C 
BRANCH  24  25
ATOM     25  O   UNL A   1      33.406  36.274  31.343  1.00  0.00    -0.376 OA
BRANCH  25  26
ATOM     26  C   UNL A   1      34.274  35.808  32.372  1.00  0.00     0.202 C 
BRANCH  26  27
ATOM     27  C   UNL A   1      34.451  34.291  32.493  1.00  0.00     0.261 C 
BRANCH  27  28
ATOM     28  O   UNL A   1      35.777  33.841  32.144  1.00  0.00    -0.460 OA
BRANCH  28  29
ATOM     29  C   UNL A   1      36.278  32.831  32.889  1.00  0.00     0.338 C 
ATOM     30  O   UNL A   1      36.038  32.583  34.065  1.00  0.00    -0.246 OA
BRANCH  29  31
ATOM     31  C   UNL A   1      37.114  31.946  32.059  1.00  0.00     0.060 A 
ATOM     32  C   UNL A   1      38.056  31.125  32.684  1.00  0.00     0.016 A 
ATOM     33  C   UNL A   1      37.088  32.040  30.666  1.00  0.00     0.016 A 
ATOM     34  C   UNL A   1      38.976  30.413  31.917  1.00  0.00     0.010 A 
ATOM     35  C   UNL A   1      38.030  31.330  29.900  1.00  0.00     0.010 A 
ATOM     36  C   UNL A   1      39.003  30.531  30.525  1.00  0.00    -0.014 A 
BRANCH  36  37
ATOM     37  C   UNL A   1      40.181  29.990  29.786  1.00  0.00     0.031 A 
ATOM     38  C   UNL A   1      41.413  30.850  29.655  1.00  0.00     0.074 A 
ATOM     39  C   UNL A   1      40.244  28.710  29.366  1.00  0.00     0.049 A 
ATOM     40  N   UNL A   1      42.514  30.628  28.984  1.00  0.00    -0.248 NA
ATOM     41  C   UNL A   1      41.409  32.117  30.405  1.00  0.00     0.031 C 
ATOM     42  C   UNL A   1      39.212  27.694  29.574  1.00  0.00     0.029 A 
ATOM     43  N   UNL A   1      41.243  28.039  28.700  1.00  0.00    -0.354 N 
ATOM     44  C   UNL A   1      43.321  31.738  29.207  1.00  0.00     0.074 A 
ATOM     45  C   UNL A   1      42.585  32.631  30.074  1.00  0.00     0.031 C 
ATOM     46  C   UNL A   1      39.642  26.526  29.064  1.00  0.00     0.029 A 
ATOM     47  C   UNL A   1      40.945  26.724  28.429  1.00  0.00     0.049 A 
ATOM     48  H   UNL A   1      42.094  28.461  28.440  1.00  0.00     0.167 HD
ATOM     49  C   UNL A   1      44.562  31.996  28.732  1.00  0.00     0.031 A 
ATOM     50  C   UNL A   1      41.621  25.797  27.718  1.00  0.00     0.031 A 
ATOM     51  C   UNL A   1      45.315  31.111  27.886  1.00  0.00     0.049 A 
ATOM     52  C   UNL A   1      42.928  26.164  27.061  1.00  0.00     0.074 A 
ATOM     53  C   UNL A   1      46.554  31.323  27.306  1.00  0.00     0.029 A 
ATOM     54  N   UNL A   1      44.912  29.840  27.516  1.00  0.00    -0.354 N 
ATOM     55  N   UNL A   1      43.629  27.265  27.172  1.00  0.00    -0.248 NA
ATOM     56  C   UNL A   1      43.526  25.164  26.161  1.00  0.00     0.031 C 
ATOM     57  C   UNL A   1      46.878  30.198  26.543  1.00  0.00     0.029 A 
ATOM     58  C   UNL A   1      45.868  29.264  26.698  1.00  0.00     0.049 A 
ATOM     59  H   UNL A   1      44.071  29.410  27.793  1.00  0.00     0.167 HD
ATOM     60  C   UNL A   1      44.753  27.084  26.372  1.00  0.00     0.074 A 
ATOM     61  C   UNL A   1      44.654  25.761  25.797  1.00  0.00     0.031 C 
ATOM     62  C   UNL A   1      45.772  27.945  26.132  1.00  0.00     0.031 A 
BRANCH  49  63
ATOM     63  C   UNL A   1      45.172  33.326  29.068  1.00  0.00    -0.014 A 
ATOM     64  C   UNL A   1      45.115  34.406  28.175  1.00  0.00     0.009 A 
ATOM     65  C   UNL A   1      45.760  33.511  30.328  1.00  0.00     0.009 A 
ATOM     66  C   UNL A   1      45.649  35.644  28.537  1.00  0.00     0.001 A 
ATOM     67  C   UNL A   1      46.269  34.756  30.697  1.00  0.00     0.001 A 
ATOM     68  C   UNL A   1      46.216  35.821  29.799  1.00  0.00     0.000 A 
ENDBRANCH  49  63
BRANCH  50  69
ATOM     69  C   UNL A   1      41.049  24.436  27.517  1.00  0.00    -0.014 A 
ATOM     70  C   UNL A   1      41.596  23.321  28.169  1.00  0.00     0.009 A 
ATOM     71  C   UNL A   1      39.981  24.240  26.626  1.00  0.00     0.009 A 
ATOM     72  C   UNL A   1      41.097  22.039  27.921  1.00  0.00     0.001 A 
ATOM     73  C   UNL A   1      39.464  22.962  26.404  1.00  0.00     0.001 A 
ATOM     74  C   UNL A   1      40.029  21.861  27.044  1.00  0.00     0.000 A 
ENDBRANCH  50  69
BRANCH  62  75
ATOM     75  C   UNL A   1      46.886  27.489  25.232  1.00  0.00    -0.014 A 
ATOM     76  C   UNL A   1      46.896  27.818  23.868  1.00  0.00     0.009 A 
ATOM     77  C   UNL A   1      47.982  26.799  25.774  1.00  0.00     0.009 A 
ATOM     78  C   UNL A   1      47.975  27.448  23.061  1.00  0.00     0.001 A 
ATOM     79  C   UNL A   1      49.071  26.455  24.971  1.00  0.00     0.001 A 
ATOM     80  C   UNL A   1      49.065  26.775  23.615  1.00  0.00     0.000 A 
ENDBRANCH  62  75
ENDBRANCH  36  37
ENDBRANCH  29  31
ENDBRANCH  28  29
ENDBRANCH  27  28
ENDBRANCH  26  27
ENDBRANCH  25  26
ENDBRANCH  24  25
ENDBRANCH   1  24
TORSDOF 19
ENDMDL
MODEL 2
REMARK VINA RESULT:      -9.9      1.494      2.268
REMARK SMILES Cc1cc(=O)cc(C)n1C[C@H]1CCCC[C@@H]1C(=O)OCCOCCOCCOC(=O)c1ccc(-c2c3nc(c(-c4ccccc4)c4ccc([nH]4)c(-c4ccccc4)c4nc(c(-c5ccccc5)c5ccc2[nH]5)C=C4)C=C3)cc1
REMARK SMILES IDX 23 1 22 2 21 3 20 4 19 5 17 6 18 7 16 8 11 9 12 10 13 11
REMARK SMILES IDX 15 12 14 13 10 14 9 15 1 16 2 17 3 18 4 19 7 20 5 21 6 22
REMARK SMILES IDX 8 23 24 24 25 25 26 26 27 27 28 28 29 29 30 30 31 31 32 32
REMARK SMILES IDX 78 33 33 34 77 35 34 36 35 37 36 38 71 39 37 40 76 41 70 42
REMARK SMILES IDX 72 43 38 44 75 45 69 46 68 47 39 49 61 50 46 51 60 52 47 53
REMARK SMILES IDX 50 54 59 55 73 56 48 57 49 58 58 60 74 61 51 62 40 63 41 64
REMARK SMILES IDX 45 65 42 66 44 67 43 68 62 69 63 70 67 71 64 72 66 73 65 74
REMARK SMILES IDX 52 75 53 76 57 77 54 78 56 79 55 80
REMARK H PARENT 72 48 50 59
REMARK Flexibility Score: inf
ROOT
ATOM      1  C   UNL A   1      34.529  32.366  27.790  1.00  0.00     0.188 C 
ENDROOT
BRANCH   1   2
ATOM      2  O   UNL A   1      33.930  31.095  27.984  1.00  0.00    -0.376 OA
BRANCH   2   3
ATOM      3  C   UNL A   1      32.772  30.821  27.214  1.00  0.00     0.202 C 
BRANCH   3   4
ATOM      4  C   UNL A   1      33.034  30.071  25.901  1.00  0.00     0.261 C 
BRANCH   4   5
ATOM      5  O   UNL A   1      32.440  28.756  25.789  1.00  0.00    -0.463 OA
BRANCH   5   6
ATOM      6  C   UNL A   1      33.133  27.832  25.078  1.00  0.00     0.309 C 
ATOM      7  O   UNL A   1      33.569  28.043  23.955  1.00  0.00    -0.252 OA
BRANCH   6   8
ATOM      8  C   UNL A   1      33.270  26.496  25.844  1.00  0.00     0.104 C 
ATOM      9  C   UNL A   1      33.794  25.255  25.016  1.00  0.00     0.023 C 
ATOM     10  C   UNL A   1      32.776  25.077  23.877  1.00  0.00     0.006 C 
ATOM     11  C   UNL A   1      31.373  24.741  24.383  1.00  0.00     0.000 C 
ATOM     12  C   UNL A   1      31.888  26.186  26.455  1.00  0.00     0.016 C 
ATOM     13  C   UNL A   1      30.849  25.728  25.424  1.00  0.00     0.001 C 
BRANCH   9  14
ATOM     14  C   UNL A   1      33.939  24.000  25.969  1.00  0.00     0.126 C 
BRANCH  14  15
ATOM     15  N   UNL A   1      34.630  22.731  25.505  1.00  0.00    -0.349 N 
ATOM     16  C   UNL A   1      36.900  23.779  26.124  1.00  0.00     0.064 C 
ATOM     17  C   UNL A   1      36.062  22.625  25.623  1.00  0.00     0.018 A 
ATOM     18  C   UNL A   1      36.744  21.486  25.385  1.00  0.00     0.073 A 
ATOM     19  C   UNL A   1      36.033  20.262  25.003  1.00  0.00     0.182 A 
ATOM     20  C   UNL A   1      33.942  21.495  25.289  1.00  0.00     0.018 A 
ATOM     21  O   UNL A   1      36.625  19.218  24.765  1.00  0.00    -0.290 OA
ATOM     22  C   UNL A   1      34.571  20.335  25.009  1.00  0.00     0.073 A 
ATOM     23  C   UNL A   1      32.465  21.340  25.493  1.00  0.00     0.064 C 
ENDBRANCH  14  15
ENDBRANCH   9  14
ENDBRANCH   6   8
ENDBRANCH   5   6
ENDBRANCH   4   5
ENDBRANCH   3   4
ENDBRANCH   2   3
ENDBRANCH   1   2
BRANCH   1  24
ATOM     24  C   UNL A   1      34.072  33.419  28.822  1.00  0.00     0.188 C 
BRANCH  24  25
ATOM     25  O   UNL A   1      35.062  34.240  29.430  1.00  0.00    -0.376 OA
BRANCH  25  26
ATOM     26  C   UNL A   1      34.946  34.506  30.825  1.00  0.00     0.202 C 
BRANCH  26  27
ATOM     27  C   UNL A   1      34.166  33.485  31.661  1.00  0.00     0.261 C 
BRANCH  27  28
ATOM     28  O   UNL A   1      34.731  32.158  31.614  1.00  0.00    -0.460 OA
BRANCH  28  29
ATOM     29  C   UNL A   1      35.869  31.970  32.319  1.00  0.00     0.338 C 
ATOM     30  O   UNL A   1      36.106  32.341  33.462  1.00  0.00    -0.246 OA
BRANCH  29  31
ATOM     31  C   UNL A   1      36.813  31.133  31.558  1.00  0.00     0.060 A 
ATOM     32  C   UNL A   1      37.748  30.365  32.255  1.00  0.00     0.016 A 
ATOM     33  C   UNL A   1      36.887  31.227  30.166  1.00  0.00     0.016 A 
ATOM     34  C   UNL A   1      38.762  29.706  31.562  1.00  0.00     0.010 A 
ATOM     35  C   UNL A   1      37.922  30.571  29.476  1.00  0.00     0.010 A 
ATOM     36  C   UNL A   1      38.888  29.826  30.175  1.00  0.00    -0.014 A 
BRANCH  36  37
ATOM     37  C   UNL A   1      40.145  29.352  29.529  1.00  0.00     0.031 A 
ATOM     38  C   UNL A   1      41.321  30.294  29.452  1.00  0.00     0.074 A 
ATOM     39  C   UNL A   1      40.324  28.070  29.151  1.00  0.00     0.049 A 
ATOM     40  N   UNL A   1      42.477  30.134  28.859  1.00  0.00    -0.248 NA
ATOM     41  C   UNL A   1      41.181  31.575  30.163  1.00  0.00     0.031 C 
ATOM     42  C   UNL A   1      39.354  26.989  29.323  1.00  0.00     0.029 A 
ATOM     43  N   UNL A   1      41.409  27.455  28.570  1.00  0.00    -0.354 N 
ATOM     44  C   UNL A   1      43.189  31.302  29.100  1.00  0.00     0.074 A 
ATOM     45  C   UNL A   1      42.338  32.163  29.892  1.00  0.00     0.031 C 
ATOM     46  C   UNL A   1      39.896  25.841  28.876  1.00  0.00     0.029 A 
ATOM     47  C   UNL A   1      41.220  26.115  28.320  1.00  0.00     0.049 A 
ATOM     48  H   UNL A   1      42.244  27.929  28.353  1.00  0.00     0.167 HD
ATOM     49  C   UNL A   1      44.437  31.636  28.697  1.00  0.00     0.031 A 
ATOM     50  C   UNL A   1      42.004  25.222  27.681  1.00  0.00     0.031 A 
ATOM     51  C   UNL A   1      45.304  30.786  27.928  1.00  0.00     0.049 A 
ATOM     52  C   UNL A   1      43.323  25.663  27.098  1.00  0.00     0.074 A 
ATOM     53  C   UNL A   1      46.561  31.071  27.422  1.00  0.00     0.029 A 
ATOM     54  N   UNL A   1      45.014  29.480  27.571  1.00  0.00    -0.354 N 
ATOM     55  N   UNL A   1      43.938  26.814  27.221  1.00  0.00    -0.248 NA
ATOM     56  C   UNL A   1      44.047  24.686  26.267  1.00  0.00     0.031 C 
ATOM     57  C   UNL A   1      47.011  29.953  26.715  1.00  0.00     0.029 A 
ATOM     58  C   UNL A   1      46.060  28.954  26.832  1.00  0.00     0.049 A 
ATOM     59  H   UNL A   1      44.189  28.999  27.806  1.00  0.00     0.167 HD
ATOM     60  C   UNL A   1      45.121  26.693  26.500  1.00  0.00     0.074 A 
ATOM     61  C   UNL A   1      45.152  25.352  25.959  1.00  0.00     0.031 C 
ATOM     62  C   UNL A   1      46.092  27.617  26.300  1.00  0.00     0.031 A 
BRANCH  49  63
ATOM     63  C   UNL A   1      44.931  33.013  29.033  1.00  0.00    -0.014 A 
ATOM     64  C   UNL A   1      45.668  33.264  30.200  1.00  0.00     0.009 A 
ATOM     65  C   UNL A   1      44.704  34.062  28.128  1.00  0.00     0.009 A 
ATOM     66  C   UNL A   1      46.155  34.548  30.459  1.00  0.00     0.001 A 
ATOM     67  C   UNL A   1      45.214  35.336  28.377  1.00  0.00     0.001 A 
ATOM     68  C   UNL A   1      45.936  35.578  29.545  1.00  0.00     0.000 A 
ENDBRANCH  49  63
BRANCH  50  69
ATOM     69  C   UNL A   1      41.542  23.819  27.484  1.00  0.00    -0.014 A 
ATOM     70  C   UNL A   1      42.011  22.783  28.306  1.00  0.00     0.009 A 
ATOM     71  C   UNL A   1      40.666  23.502  26.433  1.00  0.00     0.009 A 
ATOM     72  C   UNL A   1      41.625  21.461  28.070  1.00  0.00     0.001 A 
ATOM     73  C   UNL A   1      40.258  22.183  26.219  1.00  0.00     0.001 A 
ATOM     74  C   UNL A   1      40.745  21.162  27.032  1.00  0.00     0.000 A 
ENDBRANCH  50  69
BRANCH  62  75
ATOM     75  C   UNL A   1      47.291  27.220  25.487  1.00  0.00    -0.014 A 
ATOM     76  C   UNL A   1      47.334  27.439  24.102  1.00  0.00     0.009 A 
ATOM     77  C   UNL A   1      48.428  26.701  26.128  1.00  0.00     0.009 A 
ATOM     78  C   UNL A   1      48.485  27.130  23.372  1.00  0.00     0.001 A 
ATOM     79  C   UNL A   1      49.586  26.418  25.401  1.00  0.00     0.001 A 
ATOM     80  C   UNL A   1      49.611  26.628  24.024  1.00  0.00     0.000 A 
ENDBRANCH  62  75
ENDBRANCH  36  37
ENDBRANCH  29  31
ENDBRANCH  28  29
ENDBRANCH  27  28
ENDBRANCH  26  27
ENDBRANCH  25  26
ENDBRANCH  24  25
ENDBRANCH   1  24
TORSDOF 19
ENDMDL
MODEL 3
REMARK VINA RESULT:      -9.9      5.911     11.151
REMARK SMILES Cc1cc(=O)cc(C)n1C[C@H]1CCCC[C@@H]1C(=O)OCCOCCOCCOC(=O)c1ccc(-c2c3nc(c(-c4ccccc4)c4ccc([nH]4)c(-c4ccccc4)c4nc(c(-c5ccccc5)c5ccc2[nH]5)C=C4)C=C3)cc1
REMARK SMILES IDX 23 1 22 2 21 3 20 4 19 5 17 6 18 7 16 8 11 9 12 10 13 11
REMARK SMILES IDX 15 12 14 13 10 14 9 15 1 16 2 17 3 18 4 19 7 20 5 21 6 22
REMARK SMILES IDX 8 23 24 24 25 25 26 26 27 27 28 28 29 29 30 30 31 31 32 32
REMARK SMILES IDX 78 33 33 34 77 35 34 36 35 37 36 38 71 39 37 40 76 41 70 42
REMARK SMILES IDX 72 43 38 44 75 45 69 46 68 47 39 49 61 50 46 51 60 52 47 53
REMARK SMILES IDX 50 54 59 55 73 56 48 57 49 58 58 60 74 61 51 62 40 63 41 64
REMARK SMILES IDX 45 65 42 66 44 67 43 68 62 69 63 70 67 71 64 72 66 73 65 74
REMARK SMILES IDX 52 75 53 76 57 77 54 78 56 79 55 80
REMARK H PARENT 72 48 50 59
REMARK Flexibility Score: inf
ROOT
ATOM      1  C   UNL A   1      45.666  23.870  33.882  1.00  0.00     0.188 C 
ENDROOT
BRANCH   1   2
ATOM      2  O   UNL A   1      44.631  24.357  33.045  1.00  0.00    -0.376 OA
BRANCH   2   3
ATOM      3  C   UNL A   1      45.039  25.091  31.903  1.00  0.00     0.202 C 
BRANCH   3   4
ATOM      4  C   UNL A   1      44.640  24.467  30.559  1.00  0.00     0.261 C 
BRANCH   4   5
ATOM      5  O   UNL A   1      44.975  25.233  29.376  1.00  0.00    -0.463 OA
BRANCH   5   6
ATOM      6  C   UNL A   1      45.777  24.629  28.466  1.00  0.00     0.309 C 
ATOM      7  O   UNL A   1      46.991  24.545  28.596  1.00  0.00    -0.252 OA
BRANCH   6   8
ATOM      8  C   UNL A   1      44.979  24.097  27.253  1.00  0.00     0.104 C 
ATOM      9  C   UNL A   1      45.800  23.314  26.152  1.00  0.00     0.023 C 
ATOM     10  C   UNL A   1      46.857  24.316  25.656  1.00  0.00     0.006 C 
ATOM     11  C   UNL A   1      46.241  25.547  24.991  1.00  0.00     0.000 C 
ATOM     12  C   UNL A   1      44.261  25.308  26.624  1.00  0.00     0.016 C 
ATOM     13  C   UNL A   1      45.199  26.249  25.858  1.00  0.00     0.001 C 
BRANCH   9  14
ATOM     14  C   UNL A   1      44.819  22.785  25.029  1.00  0.00     0.126 C 
BRANCH  14  15
ATOM     15  N   UNL A   1      44.148  21.429  25.140  1.00  0.00    -0.349 N 
ATOM     16  C   UNL A   1      46.409  20.304  24.629  1.00  0.00     0.064 C 
ATOM     17  C   UNL A   1      44.940  20.236  24.982  1.00  0.00     0.018 A 
ATOM     18  C   UNL A   1      44.467  18.995  25.217  1.00  0.00     0.073 A 
ATOM     19  C   UNL A   1      43.089  18.802  25.677  1.00  0.00     0.182 A 
ATOM     20  C   UNL A   1      42.864  21.234  25.740  1.00  0.00     0.018 A 
ATOM     21  O   UNL A   1      42.627  17.687  25.884  1.00  0.00    -0.290 OA
ATOM     22  C   UNL A   1      42.325  20.017  25.962  1.00  0.00     0.073 A 
ATOM     23  C   UNL A   1      42.052  22.359  26.309  1.00  0.00     0.064 C 
ENDBRANCH  14  15
ENDBRANCH   9  14
ENDBRANCH   6   8
ENDBRANCH   5   6
ENDBRANCH   4   5
ENDBRANCH   3   4
ENDBRANCH   2   3
ENDBRANCH   1   2
BRANCH   1  24
ATOM     24  C   UNL A   1      45.298  22.556  34.604  1.00  0.00     0.188 C 
BRANCH  24  25
ATOM     25  O   UNL A   1      44.862  22.628  35.956  1.00  0.00    -0.376 OA
BRANCH  25  26
ATOM     26  C   UNL A   1      45.842  22.511  36.983  1.00  0.00     0.202 C 
BRANCH  26  27
ATOM     27  C   UNL A   1      46.066  23.741  37.869  1.00  0.00     0.261 C 
BRANCH  27  28
ATOM     28  O   UNL A   1      44.970  24.679  37.831  1.00  0.00    -0.460 OA
BRANCH  28  29
ATOM     29  C   UNL A   1      45.282  25.945  37.476  1.00  0.00     0.338 C 
ATOM     30  O   UNL A   1      46.167  26.652  37.941  1.00  0.00    -0.246 OA
BRANCH  29  31
ATOM     31  C   UNL A   1      44.462  26.374  36.329  1.00  0.00     0.060 A 
ATOM     32  C   UNL A   1      44.863  27.489  35.591  1.00  0.00     0.016 A 
ATOM     33  C   UNL A   1      43.220  25.784  36.080  1.00  0.00     0.016 A 
ATOM     34  C   UNL A   1      44.018  28.020  34.618  1.00  0.00     0.010 A 
ATOM     35  C   UNL A   1      42.368  26.335  35.106  1.00  0.00     0.010 A 
ATOM     36  C   UNL A   1      42.750  27.479  34.386  1.00  0.00    -0.014 A 
BRANCH  36  37
ATOM     37  C   UNL A   1      41.784  28.255  33.557  1.00  0.00     0.031 A 
ATOM     38  C   UNL A   1      41.003  29.370  34.207  1.00  0.00     0.074 A 
ATOM     39  C   UNL A   1      41.694  28.103  32.220  1.00  0.00     0.049 A 
ATOM     40  N   UNL A   1      40.048  30.115  33.711  1.00  0.00    -0.248 NA
ATOM     41  C   UNL A   1      41.370  29.705  35.592  1.00  0.00     0.031 C 
ATOM     42  C   UNL A   1      42.508  27.197  31.410  1.00  0.00     0.029 A 
ATOM     43  N   UNL A   1      40.890  28.739  31.303  1.00  0.00    -0.354 N 
ATOM     44  C   UNL A   1      39.681  30.985  34.730  1.00  0.00     0.074 A 
ATOM     45  C   UNL A   1      40.514  30.678  35.872  1.00  0.00     0.031 C 
ATOM     46  C   UNL A   1      42.176  27.352  30.116  1.00  0.00     0.029 A 
ATOM     47  C   UNL A   1      41.076  28.311  30.009  1.00  0.00     0.049 A 
ATOM     48  H   UNL A   1      40.241  29.437  31.549  1.00  0.00     0.167 HD
ATOM     49  C   UNL A   1      38.734  31.952  34.723  1.00  0.00     0.031 A 
ATOM     50  C   UNL A   1      40.414  28.623  28.876  1.00  0.00     0.031 A 
ATOM     51  C   UNL A   1      37.911  32.284  33.592  1.00  0.00     0.049 A 
ATOM     52  C   UNL A   1      39.252  29.584  28.927  1.00  0.00     0.074 A 
ATOM     53  C   UNL A   1      36.882  33.207  33.518  1.00  0.00     0.029 A 
ATOM     54  N   UNL A   1      38.037  31.722  32.333  1.00  0.00    -0.354 N 
ATOM     55  N   UNL A   1      38.826  30.313  29.929  1.00  0.00    -0.248 NA
ATOM     56  C   UNL A   1      38.467  29.748  27.692  1.00  0.00     0.031 C 
ATOM     57  C   UNL A   1      36.351  33.167  32.226  1.00  0.00     0.029 A 
ATOM     58  C   UNL A   1      37.089  32.263  31.482  1.00  0.00     0.049 A 
ATOM     59  H   UNL A   1      38.700  31.040  32.082  1.00  0.00     0.167 HD
ATOM     60  C   UNL A   1      37.738  31.029  29.442  1.00  0.00     0.074 A 
ATOM     61  C   UNL A   1      37.579  30.666  28.051  1.00  0.00     0.031 C 
ATOM     62  C   UNL A   1      36.937  31.906  30.097  1.00  0.00     0.031 A 
BRANCH  49  63
ATOM     63  C   UNL A   1      38.487  32.693  36.005  1.00  0.00    -0.014 A 
ATOM     64  C   UNL A   1      37.695  32.149  37.026  1.00  0.00     0.009 A 
ATOM     65  C   UNL A   1      39.114  33.932  36.212  1.00  0.00     0.009 A 
ATOM     66  C   UNL A   1      37.525  32.843  38.227  1.00  0.00     0.001 A 
ATOM     67  C   UNL A   1      38.963  34.609  37.421  1.00  0.00     0.001 A 
ATOM     68  C   UNL A   1      38.165  34.065  38.426  1.00  0.00     0.000 A 
ENDBRANCH  49  63
BRANCH  50  69
ATOM     69  C   UNL A   1      40.774  27.968  27.587  1.00  0.00    -0.014 A 
ATOM     70  C   UNL A   1      40.378  26.650  27.312  1.00  0.00     0.009 A 
ATOM     71  C   UNL A   1      41.565  28.644  26.644  1.00  0.00     0.009 A 
ATOM     72  C   UNL A   1      40.779  26.020  26.131  1.00  0.00     0.001 A 
ATOM     73  C   UNL A   1      41.938  28.023  25.450  1.00  0.00     0.001 A 
ATOM     74  C   UNL A   1      41.553  26.708  25.198  1.00  0.00     0.000 A 
ENDBRANCH  50  69
BRANCH  62  75
ATOM     75  C   UNL A   1      35.829  32.565  29.325  1.00  0.00    -0.014 A 
ATOM     76  C   UNL A   1      34.666  31.859  28.979  1.00  0.00     0.009 A 
ATOM     77  C   UNL A   1      35.910  33.933  29.016  1.00  0.00     0.009 A 
ATOM     78  C   UNL A   1      33.615  32.506  28.325  1.00  0.00     0.001 A 
ATOM     79  C   UNL A   1      34.847  34.582  28.386  1.00  0.00     0.001 A 
ATOM     80  C   UNL A   1      33.703  33.868  28.037  1.00  0.00     0.000 A 
ENDBRANCH  62  75
ENDBRANCH  36  37
ENDBRANCH  29  31
ENDBRANCH  28  29
ENDBRANCH  27  28
ENDBRANCH  26  27
ENDBRANCH  25  26
ENDBRANCH  24  25
ENDBRANCH   1  24
TORSDOF 19
ENDMDL
