MODEL 1
REMARK VINA RESULT:     -10.7      0.000      0.000
REMARK SMILES CS(=O)(=O)c1ccc(C2=NN(c3ccc(C(=O)OCCOCCOCCOC(=O)c4ccc(-c5c6nc(c(-c7ccccc7)c7ccc([nH]7)c(-c7ccccc7)c7nc(c(-c8ccccc8)c8ccc5[nH]8)C=C7)C=C6)cc4)cc3)[C@H](c3ccc(F)cc3)C2)cc1
REMARK SMILES IDX 22 1 21 2 20 3 19 4 18 5 16 6 17 7 15 8 12 9 13 10 79 11
REMARK SMILES IDX 14 12 78 13 11 14 9 15 10 16 88 17 80 18 8 19 5 20 6 21
REMARK SMILES IDX 90 22 7 23 89 24 2 25 1 26 3 27 4 28 81 29 82 30 87 31 83 32
REMARK SMILES IDX 86 33 84 34 85 35 23 36 24 37 25 38 26 39 27 40 28 41 29 42
REMARK SMILES IDX 30 43 31 44 77 45 32 46 76 47 33 48 34 49 35 50 70 51 36 52
REMARK SMILES IDX 75 53 69 54 71 55 37 56 74 57 68 58 67 59 38 61 60 62 45 63
REMARK SMILES IDX 59 64 46 65 49 66 58 67 72 68 47 69 48 70 57 72 73 73 50 74
REMARK SMILES IDX 39 75 40 76 44 77 41 78 43 79 42 80 61 81 62 82 66 83 63 84
REMARK SMILES IDX 65 85 64 86 51 87 52 88 56 89 53 90 55 91 54 92
REMARK H PARENT 71 60 49 71
REMARK Flexibility Score: inf
ROOT
ATOM      1  C   UNL A   1      36.358  33.517  30.401  1.00  0.00     0.188 C 
ENDROOT
BRANCH   1   2
ATOM      2  O   UNL A   1      36.921  32.988  29.221  1.00  0.00    -0.376 OA
BRANCH   2   3
ATOM      3  C   UNL A   1      37.245  31.611  29.123  1.00  0.00     0.202 C 
BRANCH   3   4
ATOM      4  C   UNL A   1      36.274  30.465  29.452  1.00  0.00     0.261 C 
BRANCH   4   5
ATOM      5  O   UNL A   1      35.680  29.794  28.337  1.00  0.00    -0.460 OA
BRANCH   5   6
ATOM      6  C   UNL A   1      34.484  30.289  27.927  1.00  0.00     0.338 C 
ATOM      7  O   UNL A   1      34.055  31.414  28.127  1.00  0.00    -0.246 OA
BRANCH   6   8
ATOM      8  C   UNL A   1      33.803  29.319  27.035  1.00  0.00     0.060 A 
ATOM      9  C   UNL A   1      32.452  27.404  25.481  1.00  0.00     0.060 A 
ATOM     10  C   UNL A   1      31.759  28.151  26.440  1.00  0.00     0.029 A 
ATOM     11  C   UNL A   1      33.796  27.718  25.230  1.00  0.00     0.029 A 
ATOM     12  C   UNL A   1      32.431  29.099  27.219  1.00  0.00     0.018 A 
ATOM     13  C   UNL A   1      34.481  28.653  26.012  1.00  0.00     0.018 A 
BRANCH   9  14
ATOM     14  N   UNL A   1      31.887  26.271  24.881  1.00  0.00    -0.257 N 
ATOM     15  C   UNL A   1      32.120  24.249  24.229  1.00  0.00     0.071 C 
ATOM     16  N   UNL A   1      32.322  25.031  25.244  1.00  0.00    -0.176 NA
ATOM     17  C   UNL A   1      31.624  24.911  22.975  1.00  0.00     0.091 C 
ATOM     18  C   UNL A   1      31.486  26.361  23.460  1.00  0.00     0.144 C 
BRANCH  15  19
ATOM     19  C   UNL A   1      32.304  22.788  24.292  1.00  0.00    -0.002 A 
ATOM     20  C   UNL A   1      32.732  20.031  24.270  1.00  0.00     0.067 A 
ATOM     21  C   UNL A   1      32.212  20.657  23.134  1.00  0.00     0.021 A 
ATOM     22  C   UNL A   1      33.032  20.777  25.418  1.00  0.00     0.021 A 
ATOM     23  C   UNL A   1      31.985  22.035  23.154  1.00  0.00     0.011 A 
ATOM     24  C   UNL A   1      32.831  22.161  25.424  1.00  0.00     0.011 A 
BRANCH  20  25
ATOM     25  S   UNL A   1      33.029  18.276  24.289  1.00  0.00     0.175 S 
ATOM     26  C   UNL A   1      32.824  17.712  22.621  1.00  0.00     0.163 C 
ATOM     27  O   UNL A   1      31.963  17.679  25.073  1.00  0.00    -0.224 OA
ATOM     28  O   UNL A   1      34.420  18.102  24.660  1.00  0.00    -0.224 OA
ENDBRANCH  20  25
ENDBRANCH  15  19
BRANCH  18  29
ATOM     29  C   UNL A   1      30.131  27.048  23.308  1.00  0.00    -0.023 A 
ATOM     30  C   UNL A   1      28.930  26.552  23.840  1.00  0.00     0.009 A 
ATOM     31  C   UNL A   1      30.084  28.296  22.645  1.00  0.00     0.009 A 
ATOM     32  C   UNL A   1      27.742  27.285  23.735  1.00  0.00     0.039 A 
ATOM     33  C   UNL A   1      28.912  29.051  22.588  1.00  0.00     0.039 A 
ATOM     34  C   UNL A   1      27.749  28.536  23.134  1.00  0.00     0.123 A 
ATOM     35  F   UNL A   1      26.620  29.255  23.085  1.00  0.00    -0.207 F 
ENDBRANCH  18  29
ENDBRANCH   9  14
ENDBRANCH   6   8
ENDBRANCH   5   6
ENDBRANCH   4   5
ENDBRANCH   3   4
ENDBRANCH   2   3
ENDBRANCH   1   2
BRANCH   1  36
ATOM     36  C   UNL A   1      34.842  33.796  30.473  1.00  0.00     0.188 C 
BRANCH  36  37
ATOM     37  O   UNL A   1      34.082  33.305  31.553  1.00  0.00    -0.376 OA
BRANCH  37  38
ATOM     38  C   UNL A   1      34.073  33.997  32.789  1.00  0.00     0.202 C 
BRANCH  38  39
ATOM     39  C   UNL A   1      34.935  33.620  34.008  1.00  0.00     0.261 C 
BRANCH  39  40
ATOM     40  O   UNL A   1      35.975  32.660  33.802  1.00  0.00    -0.460 OA
BRANCH  40  41
ATOM     41  C   UNL A   1      37.000  32.714  34.687  1.00  0.00     0.338 C 
ATOM     42  O   UNL A   1      36.942  32.946  35.888  1.00  0.00    -0.246 OA
BRANCH  41  43
ATOM     43  C   UNL A   1      38.235  32.296  34.007  1.00  0.00     0.060 A 
ATOM     44  C   UNL A   1      38.182  31.299  33.020  1.00  0.00     0.016 A 
ATOM     45  C   UNL A   1      39.450  32.869  34.376  1.00  0.00     0.016 A 
ATOM     46  C   UNL A   1      39.353  30.868  32.398  1.00  0.00     0.010 A 
ATOM     47  C   UNL A   1      40.623  32.415  33.776  1.00  0.00     0.010 A 
ATOM     48  C   UNL A   1      40.584  31.399  32.802  1.00  0.00    -0.014 A 
BRANCH  48  49
ATOM     49  C   UNL A   1      41.862  30.783  32.375  1.00  0.00     0.031 A 
ATOM     50  C   UNL A   1      42.545  31.355  31.165  1.00  0.00     0.074 A 
ATOM     51  C   UNL A   1      42.361  29.698  32.993  1.00  0.00     0.049 A 
ATOM     52  N   UNL A   1      43.540  30.870  30.469  1.00  0.00    -0.248 NA
ATOM     53  C   UNL A   1      42.025  32.638  30.663  1.00  0.00     0.031 C 
ATOM     54  C   UNL A   1      41.824  29.086  34.206  1.00  0.00     0.029 A 
ATOM     55  N   UNL A   1      43.424  28.898  32.652  1.00  0.00    -0.354 N 
ATOM     56  C   UNL A   1      43.737  31.767  29.427  1.00  0.00     0.074 A 
ATOM     57  C   UNL A   1      42.763  32.825  29.580  1.00  0.00     0.031 C 
ATOM     58  C   UNL A   1      42.541  27.983  34.490  1.00  0.00     0.029 A 
ATOM     59  C   UNL A   1      43.549  27.785  33.450  1.00  0.00     0.049 A 
ATOM     60  H   UNL A   1      44.037  29.101  31.909  1.00  0.00     0.167 HD
ATOM     61  C   UNL A   1      44.643  31.706  28.424  1.00  0.00     0.031 A 
ATOM     62  C   UNL A   1      44.354  26.711  33.323  1.00  0.00     0.031 A 
ATOM     63  C   UNL A   1      45.610  30.653  28.278  1.00  0.00     0.049 A 
ATOM     64  C   UNL A   1      45.302  26.633  32.151  1.00  0.00     0.074 A 
ATOM     65  C   UNL A   1      46.594  30.521  27.315  1.00  0.00     0.029 A 
ATOM     66  N   UNL A   1      45.705  29.550  29.109  1.00  0.00    -0.354 N 
ATOM     67  N   UNL A   1      45.509  27.502  31.190  1.00  0.00    -0.248 NA
ATOM     68  C   UNL A   1      46.132  25.421  32.044  1.00  0.00     0.031 C 
ATOM     69  C   UNL A   1      47.243  29.302  27.524  1.00  0.00     0.029 A 
ATOM     70  C   UNL A   1      46.713  28.715  28.661  1.00  0.00     0.049 A 
ATOM     71  H   UNL A   1      45.142  29.385  29.899  1.00  0.00     0.167 HD
ATOM     72  C   UNL A   1      46.520  26.965  30.401  1.00  0.00     0.074 A 
ATOM     73  C   UNL A   1      46.889  25.698  30.992  1.00  0.00     0.031 C 
ATOM     74  C   UNL A   1      47.094  27.476  29.285  1.00  0.00     0.031 A 
BRANCH  61  75
ATOM     75  C   UNL A   1      44.611  32.779  27.376  1.00  0.00    -0.014 A 
ATOM     76  C   UNL A   1      45.304  33.988  27.540  1.00  0.00     0.009 A 
ATOM     77  C   UNL A   1      43.941  32.536  26.165  1.00  0.00     0.009 A 
ATOM     78  C   UNL A   1      45.315  34.937  26.517  1.00  0.00     0.001 A 
ATOM     79  C   UNL A   1      43.978  33.475  25.134  1.00  0.00     0.001 A 
ATOM     80  C   UNL A   1      44.662  34.676  25.312  1.00  0.00     0.000 A 
ENDBRANCH  61  75
BRANCH  62  81
ATOM     81  C   UNL A   1      44.275  25.580  34.290  1.00  0.00    -0.014 A 
ATOM     82  C   UNL A   1      44.955  25.638  35.517  1.00  0.00     0.009 A 
ATOM     83  C   UNL A   1      43.581  24.405  33.959  1.00  0.00     0.009 A 
ATOM     84  C   UNL A   1      44.983  24.529  36.367  1.00  0.00     0.001 A 
ATOM     85  C   UNL A   1      43.580  23.311  34.827  1.00  0.00     0.001 A 
ATOM     86  C   UNL A   1      44.295  23.368  36.022  1.00  0.00     0.000 A 
ENDBRANCH  62  81
BRANCH  74  87
ATOM     87  C   UNL A   1      48.241  26.722  28.672  1.00  0.00    -0.014 A 
ATOM     88  C   UNL A   1      49.505  26.682  29.276  1.00  0.00     0.009 A 
ATOM     89  C   UNL A   1      48.015  25.960  27.512  1.00  0.00     0.009 A 
ATOM     90  C   UNL A   1      50.527  25.910  28.719  1.00  0.00     0.001 A 
ATOM     91  C   UNL A   1      49.028  25.165  26.977  1.00  0.00     0.001 A 
ATOM     92  C   UNL A   1      50.285  25.146  27.577  1.00  0.00     0.000 A 
ENDBRANCH  74  87
ENDBRANCH  48  49
ENDBRANCH  41  43
ENDBRANCH  40  41
ENDBRANCH  39  40
ENDBRANCH  38  39
ENDBRANCH  37  38
ENDBRANCH  36  37
ENDBRANCH   1  36
TORSDOF 21
ENDMDL
MODEL 2
REMARK VINA RESULT:     -10.4      4.069      7.936
REMARK SMILES CS(=O)(=O)c1ccc(C2=NN(c3ccc(C(=O)OCCOCCOCCOC(=O)c4ccc(-c5c6nc(c(-c7ccccc7)c7ccc([nH]7)c(-c7ccccc7)c7nc(c(-c8ccccc8)c8ccc5[nH]8)C=C7)C=C6)cc4)cc3)[C@H](c3ccc(F)cc3)C2)cc1
REMARK SMILES IDX 22 1 21 2 20 3 19 4 18 5 16 6 17 7 15 8 12 9 13 10 79 11
REMARK SMILES IDX 14 12 78 13 11 14 9 15 10 16 88 17 80 18 8 19 5 20 6 21
REMARK SMILES IDX 90 22 7 23 89 24 2 25 1 26 3 27 4 28 81 29 82 30 87 31 83 32
REMARK SMILES IDX 86 33 84 34 85 35 23 36 24 37 25 38 26 39 27 40 28 41 29 42
REMARK SMILES IDX 30 43 31 44 77 45 32 46 76 47 33 48 34 49 35 50 70 51 36 52
REMARK SMILES IDX 75 53 69 54 71 55 37 56 74 57 68 58 67 59 38 61 60 62 45 63
REMARK SMILES IDX 59 64 46 65 49 66 58 67 72 68 47 69 48 70 57 72 73 73 50 74
REMARK SMILES IDX 39 75 40 76 44 77 41 78 43 79 42 80 61 81 62 82 66 83 63 84
REMARK SMILES IDX 65 85 64 86 51 87 52 88 56 89 53 90 55 91 54 92
REMARK H PARENT 71 60 49 71
REMARK Flexibility Score: inf
ROOT
ATOM      1  C   UNL A   1      39.384  26.842  28.180  1.00  0.00     0.188 C 
ENDROOT
BRANCH   1   2
ATOM      2  O   UNL A   1      38.338  27.762  28.401  1.00  0.00    -0.376 OA
BRANCH   2   3
ATOM      3  C   UNL A   1      38.493  29.133  28.073  1.00  0.00     0.202 C 
BRANCH   3   4
ATOM      4  C   UNL A   1      37.327  30.113  27.862  1.00  0.00     0.261 C 
BRANCH   4   5
ATOM      5  O   UNL A   1      36.055  29.709  28.376  1.00  0.00    -0.460 OA
BRANCH   5   6
ATOM      6  C   UNL A   1      34.976  30.266  27.769  1.00  0.00     0.338 C 
ATOM      7  O   UNL A   1      34.700  31.454  27.722  1.00  0.00    -0.246 OA
BRANCH   6   8
ATOM      8  C   UNL A   1      34.231  29.240  26.999  1.00  0.00     0.060 A 
ATOM      9  C   UNL A   1      32.841  27.188  25.671  1.00  0.00     0.060 A 
ATOM     10  C   UNL A   1      32.463  27.575  26.961  1.00  0.00     0.029 A 
ATOM     11  C   UNL A   1      33.839  27.925  25.015  1.00  0.00     0.029 A 
ATOM     12  C   UNL A   1      33.158  28.591  27.626  1.00  0.00     0.018 A 
ATOM     13  C   UNL A   1      34.549  28.931  25.676  1.00  0.00     0.018 A 
BRANCH   9  14
ATOM     14  N   UNL A   1      32.359  26.010  25.084  1.00  0.00    -0.257 N 
ATOM     15  C   UNL A   1      32.735  24.002  24.458  1.00  0.00     0.071 C 
ATOM     16  N   UNL A   1      32.880  24.809  25.464  1.00  0.00    -0.176 NA
ATOM     17  C   UNL A   1      32.197  24.612  23.195  1.00  0.00     0.091 C 
ATOM     18  C   UNL A   1      31.956  26.054  23.661  1.00  0.00     0.144 C 
BRANCH  15  19
ATOM     19  C   UNL A   1      33.023  22.558  24.540  1.00  0.00    -0.002 A 
ATOM     20  C   UNL A   1      33.449  19.801  24.587  1.00  0.00     0.067 A 
ATOM     21  C   UNL A   1      32.153  20.302  24.743  1.00  0.00     0.021 A 
ATOM     22  C   UNL A   1      34.531  20.674  24.415  1.00  0.00     0.021 A 
ATOM     23  C   UNL A   1      31.946  21.683  24.734  1.00  0.00     0.011 A 
ATOM     24  C   UNL A   1      34.316  22.056  24.377  1.00  0.00     0.011 A 
BRANCH  20  25
ATOM     25  S   UNL A   1      33.757  18.049  24.601  1.00  0.00     0.175 S 
ATOM     26  C   UNL A   1      33.096  17.408  23.086  1.00  0.00     0.163 C 
ATOM     27  O   UNL A   1      32.962  17.491  25.680  1.00  0.00    -0.224 OA
ATOM     28  O   UNL A   1      35.198  17.888  24.571  1.00  0.00    -0.224 OA
ENDBRANCH  20  25
ENDBRANCH  15  19
BRANCH  18  29
ATOM     29  C   UNL A   1      30.556  26.642  23.499  1.00  0.00    -0.023 A 
ATOM     30  C   UNL A   1      29.391  26.063  24.027  1.00  0.00     0.009 A 
ATOM     31  C   UNL A   1      30.424  27.880  22.829  1.00  0.00     0.009 A 
ATOM     32  C   UNL A   1      28.154  26.709  23.913  1.00  0.00     0.039 A 
ATOM     33  C   UNL A   1      29.201  28.549  22.763  1.00  0.00     0.039 A 
ATOM     34  C   UNL A   1      28.075  27.954  23.304  1.00  0.00     0.123 A 
ATOM     35  F   UNL A   1      26.898  28.591  23.246  1.00  0.00    -0.207 F 
ENDBRANCH  18  29
ENDBRANCH   9  14
ENDBRANCH   6   8
ENDBRANCH   5   6
ENDBRANCH   4   5
ENDBRANCH   3   4
ENDBRANCH   2   3
ENDBRANCH   1   2
BRANCH   1  36
ATOM     36  C   UNL A   1      39.064  25.416  27.686  1.00  0.00     0.188 C 
BRANCH  36  37
ATOM     37  O   UNL A   1      39.899  24.789  26.741  1.00  0.00    -0.376 OA
BRANCH  37  38
ATOM     38  C   UNL A   1      40.215  23.414  26.872  1.00  0.00     0.202 C 
BRANCH  38  39
ATOM     39  C   UNL A   1      41.611  22.811  26.633  1.00  0.00     0.261 C 
BRANCH  39  40
ATOM     40  O   UNL A   1      42.557  23.613  25.920  1.00  0.00    -0.460 OA
BRANCH  40  41
ATOM     41  C   UNL A   1      43.855  23.415  26.253  1.00  0.00     0.338 C 
ATOM     42  O   UNL A   1      44.447  22.349  26.364  1.00  0.00    -0.246 OA
BRANCH  41  43
ATOM     43  C   UNL A   1      44.529  24.721  26.325  1.00  0.00     0.060 A 
ATOM     44  C   UNL A   1      44.777  25.442  25.147  1.00  0.00     0.016 A 
ATOM     45  C   UNL A   1      44.947  25.210  27.561  1.00  0.00     0.016 A 
ATOM     46  C   UNL A   1      45.450  26.662  25.202  1.00  0.00     0.010 A 
ATOM     47  C   UNL A   1      45.648  26.414  27.611  1.00  0.00     0.010 A 
ATOM     48  C   UNL A   1      45.923  27.134  26.433  1.00  0.00    -0.014 A 
BRANCH  48  49
ATOM     49  C   UNL A   1      46.872  28.268  26.505  1.00  0.00     0.031 A 
ATOM     50  C   UNL A   1      46.300  29.654  26.621  1.00  0.00     0.074 A 
ATOM     51  C   UNL A   1      48.199  28.084  26.392  1.00  0.00     0.049 A 
ATOM     52  N   UNL A   1      46.896  30.810  26.485  1.00  0.00    -0.248 NA
ATOM     53  C   UNL A   1      44.860  29.746  26.914  1.00  0.00     0.031 C 
ATOM     54  C   UNL A   1      48.878  26.791  26.331  1.00  0.00     0.029 A 
ATOM     55  N   UNL A   1      49.212  29.004  26.272  1.00  0.00    -0.354 N 
ATOM     56  C   UNL A   1      45.896  31.763  26.635  1.00  0.00     0.074 A 
ATOM     57  C   UNL A   1      44.658  31.054  26.874  1.00  0.00     0.031 C 
ATOM     58  C   UNL A   1      50.194  27.000  26.150  1.00  0.00     0.029 A 
ATOM     59  C   UNL A   1      50.440  28.437  26.029  1.00  0.00     0.049 A 
ATOM     60  H   UNL A   1      49.072  29.975  26.351  1.00  0.00     0.167 HD
ATOM     61  C   UNL A   1      46.002  33.109  26.567  1.00  0.00     0.031 A 
ATOM     62  C   UNL A   1      51.614  29.013  25.700  1.00  0.00     0.031 A 
ATOM     63  C   UNL A   1      47.235  33.808  26.330  1.00  0.00     0.049 A 
ATOM     64  C   UNL A   1      51.685  30.514  25.555  1.00  0.00     0.074 A 
ATOM     65  C   UNL A   1      47.450  35.174  26.279  1.00  0.00     0.029 A 
ATOM     66  N   UNL A   1      48.454  33.196  26.095  1.00  0.00    -0.354 N 
ATOM     67  N   UNL A   1      50.745  31.411  25.735  1.00  0.00    -0.248 NA
ATOM     68  C   UNL A   1      52.984  31.084  25.160  1.00  0.00     0.031 C 
ATOM     69  C   UNL A   1      48.789  35.388  25.946  1.00  0.00     0.029 A 
ATOM     70  C   UNL A   1      49.422  34.158  25.867  1.00  0.00     0.049 A 
ATOM     71  H   UNL A   1      48.610  32.225  26.091  1.00  0.00     0.167 HD
ATOM     72  C   UNL A   1      51.350  32.645  25.524  1.00  0.00     0.074 A 
ATOM     73  C   UNL A   1      52.737  32.386  25.207  1.00  0.00     0.031 C 
ATOM     74  C   UNL A   1      50.807  33.884  25.590  1.00  0.00     0.031 A 
BRANCH  61  75
ATOM     75  C   UNL A   1      44.749  33.924  26.704  1.00  0.00    -0.014 A 
ATOM     76  C   UNL A   1      44.355  34.464  27.937  1.00  0.00     0.009 A 
ATOM     77  C   UNL A   1      43.998  34.226  25.556  1.00  0.00     0.009 A 
ATOM     78  C   UNL A   1      43.224  35.278  28.019  1.00  0.00     0.001 A 
ATOM     79  C   UNL A   1      42.885  35.064  25.636  1.00  0.00     0.001 A 
ATOM     80  C   UNL A   1      42.497  35.586  26.869  1.00  0.00     0.000 A 
ENDBRANCH  61  75
BRANCH  62  81
ATOM     81  C   UNL A   1      52.820  28.183  25.423  1.00  0.00    -0.014 A 
ATOM     82  C   UNL A   1      53.131  27.785  24.113  1.00  0.00     0.009 A 
ATOM     83  C   UNL A   1      53.625  27.720  26.476  1.00  0.00     0.009 A 
ATOM     84  C   UNL A   1      54.189  26.905  23.869  1.00  0.00     0.001 A 
ATOM     85  C   UNL A   1      54.705  26.870  26.226  1.00  0.00     0.001 A 
ATOM     86  C   UNL A   1      54.975  26.449  24.925  1.00  0.00     0.000 A 
ENDBRANCH  62  81
BRANCH  74  87
ATOM     87  C   UNL A   1      51.717  35.066  25.403  1.00  0.00    -0.014 A 
ATOM     88  C   UNL A   1      52.411  35.640  26.478  1.00  0.00     0.009 A 
ATOM     89  C   UNL A   1      51.952  35.549  24.105  1.00  0.00     0.009 A 
ATOM     90  C   UNL A   1      53.307  36.689  26.257  1.00  0.00     0.001 A 
ATOM     91  C   UNL A   1      52.872  36.574  23.883  1.00  0.00     0.001 A 
ATOM     92  C   UNL A   1      53.543  37.147  24.961  1.00  0.00     0.000 A 
ENDBRANCH  74  87
ENDBRANCH  48  49
ENDBRANCH  41  43
ENDBRANCH  40  41
ENDBRANCH  39  40
ENDBRANCH  38  39
ENDBRANCH  37  38
ENDBRANCH  36  37
ENDBRANCH   1  36
TORSDOF 21
ENDMDL
MODEL 3
REMARK VINA RESULT:     -10.2      2.666      5.377
REMARK SMILES CS(=O)(=O)c1ccc(C2=NN(c3ccc(C(=O)OCCOCCOCCOC(=O)c4ccc(-c5c6nc(c(-c7ccccc7)c7ccc([nH]7)c(-c7ccccc7)c7nc(c(-c8ccccc8)c8ccc5[nH]8)C=C7)C=C6)cc4)cc3)[C@H](c3ccc(F)cc3)C2)cc1
REMARK SMILES IDX 22 1 21 2 20 3 19 4 18 5 16 6 17 7 15 8 12 9 13 10 79 11
REMARK SMILES IDX 14 12 78 13 11 14 9 15 10 16 88 17 80 18 8 19 5 20 6 21
REMARK SMILES IDX 90 22 7 23 89 24 2 25 1 26 3 27 4 28 81 29 82 30 87 31 83 32
REMARK SMILES IDX 86 33 84 34 85 35 23 36 24 37 25 38 26 39 27 40 28 41 29 42
REMARK SMILES IDX 30 43 31 44 77 45 32 46 76 47 33 48 34 49 35 50 70 51 36 52
REMARK SMILES IDX 75 53 69 54 71 55 37 56 74 57 68 58 67 59 38 61 60 62 45 63
REMARK SMILES IDX 59 64 46 65 49 66 58 67 72 68 47 69 48 70 57 72 73 73 50 74
REMARK SMILES IDX 39 75 40 76 44 77 41 78 43 79 42 80 61 81 62 82 66 83 63 84
REMARK SMILES IDX 65 85 64 86 51 87 52 88 56 89 53 90 55 91 54 92
REMARK H PARENT 71 60 49 71
REMARK Flexibility Score: inf
ROOT
ATOM      1  C   UNL A   1      36.903  33.953  30.621  1.00  0.00     0.188 C 
ENDROOT
BRANCH   1   2
ATOM      2  O   UNL A   1      37.039  33.649  29.250  1.00  0.00    -0.376 OA
BRANCH   2   3
ATOM      3  C   UNL A   1      37.441  32.357  28.828  1.00  0.00     0.202 C 
BRANCH   3   4
ATOM      4  C   UNL A   1      36.630  31.073  29.068  1.00  0.00     0.261 C 
BRANCH   4   5
ATOM      5  O   UNL A   1      35.957  30.523  27.932  1.00  0.00    -0.460 OA
BRANCH   5   6
ATOM      6  C   UNL A   1      34.613  30.706  27.904  1.00  0.00     0.338 C 
ATOM      7  O   UNL A   1      33.996  31.645  28.384  1.00  0.00    -0.246 OA
BRANCH   6   8
ATOM      8  C   UNL A   1      33.969  29.680  27.049  1.00  0.00     0.060 A 
ATOM      9  C   UNL A   1      32.688  27.661  25.568  1.00  0.00     0.060 A 
ATOM     10  C   UNL A   1      31.962  28.437  26.477  1.00  0.00     0.029 A 
ATOM     11  C   UNL A   1      34.029  27.993  25.325  1.00  0.00     0.029 A 
ATOM     12  C   UNL A   1      32.600  29.437  27.220  1.00  0.00     0.018 A 
ATOM     13  C   UNL A   1      34.679  28.980  26.071  1.00  0.00     0.018 A 
BRANCH   9  14
ATOM     14  N   UNL A   1      32.159  26.487  25.015  1.00  0.00    -0.257 N 
ATOM     15  C   UNL A   1      32.479  24.480  24.356  1.00  0.00     0.071 C 
ATOM     16  N   UNL A   1      32.701  25.283  25.351  1.00  0.00    -0.176 NA
ATOM     17  C   UNL A   1      31.853  25.096  23.138  1.00  0.00     0.091 C 
ATOM     18  C   UNL A   1      31.653  26.538  23.625  1.00  0.00     0.144 C 
BRANCH  15  19
ATOM     19  C   UNL A   1      32.766  23.034  24.412  1.00  0.00    -0.002 A 
ATOM     20  C   UNL A   1      33.284  20.294  24.358  1.00  0.00     0.067 A 
ATOM     21  C   UNL A   1      32.144  20.792  23.723  1.00  0.00     0.021 A 
ATOM     22  C   UNL A   1      34.161  21.159  25.025  1.00  0.00     0.021 A 
ATOM     23  C   UNL A   1      31.880  22.163  23.765  1.00  0.00     0.011 A 
ATOM     24  C   UNL A   1      33.909  22.535  25.040  1.00  0.00     0.011 A 
BRANCH  20  25
ATOM     25  S   UNL A   1      33.654  18.553  24.334  1.00  0.00     0.175 S 
ATOM     26  C   UNL A   1      32.786  17.834  25.702  1.00  0.00     0.163 C 
ATOM     27  O   UNL A   1      35.072  18.421  24.615  1.00  0.00    -0.224 OA
ATOM     28  O   UNL A   1      33.081  18.031  23.109  1.00  0.00    -0.224 OA
ENDBRANCH  20  25
ENDBRANCH  15  19
BRANCH  18  29
ATOM     29  C   UNL A   1      30.248  27.132  23.568  1.00  0.00    -0.023 A 
ATOM     30  C   UNL A   1      29.945  28.391  23.024  1.00  0.00     0.009 A 
ATOM     31  C   UNL A   1      29.169  26.346  24.032  1.00  0.00     0.009 A 
ATOM     32  C   UNL A   1      28.620  28.830  22.926  1.00  0.00     0.039 A 
ATOM     33  C   UNL A   1      27.844  26.761  23.885  1.00  0.00     0.039 A 
ATOM     34  C   UNL A   1      27.582  28.003  23.334  1.00  0.00     0.123 A 
ATOM     35  F   UNL A   1      26.314  28.407  23.187  1.00  0.00    -0.207 F 
ENDBRANCH  18  29
ENDBRANCH   9  14
ENDBRANCH   6   8
ENDBRANCH   5   6
ENDBRANCH   4   5
ENDBRANCH   3   4
ENDBRANCH   2   3
ENDBRANCH   1   2
BRANCH   1  36
ATOM     36  C   UNL A   1      35.512  33.895  31.288  1.00  0.00     0.188 C 
BRANCH  36  37
ATOM     37  O   UNL A   1      35.156  32.792  32.090  1.00  0.00    -0.376 OA
BRANCH  37  38
ATOM     38  C   UNL A   1      35.517  32.764  33.461  1.00  0.00     0.202 C 
BRANCH  38  39
ATOM     39  C   UNL A   1      36.895  32.332  33.993  1.00  0.00     0.261 C 
BRANCH  39  40
ATOM     40  O   UNL A   1      37.747  31.611  33.097  1.00  0.00    -0.460 OA
BRANCH  40  41
ATOM     41  C   UNL A   1      38.466  30.609  33.658  1.00  0.00     0.338 C 
ATOM     42  O   UNL A   1      38.293  30.082  34.748  1.00  0.00    -0.246 OA
BRANCH  41  43
ATOM     43  C   UNL A   1      39.442  30.120  32.672  1.00  0.00     0.060 A 
ATOM     44  C   UNL A   1      40.572  29.409  33.107  1.00  0.00     0.016 A 
ATOM     45  C   UNL A   1      39.253  30.400  31.321  1.00  0.00     0.016 A 
ATOM     46  C   UNL A   1      41.523  28.975  32.183  1.00  0.00     0.010 A 
ATOM     47  C   UNL A   1      40.220  29.993  30.403  1.00  0.00     0.010 A 
ATOM     48  C   UNL A   1      41.369  29.300  30.830  1.00  0.00    -0.014 A 
BRANCH  48  49
ATOM     49  C   UNL A   1      42.475  29.106  29.865  1.00  0.00     0.031 A 
ATOM     50  C   UNL A   1      42.562  27.785  29.154  1.00  0.00     0.074 A 
ATOM     51  C   UNL A   1      43.422  30.044  29.682  1.00  0.00     0.049 A 
ATOM     52  N   UNL A   1      43.538  27.291  28.439  1.00  0.00    -0.248 NA
ATOM     53  C   UNL A   1      41.396  26.894  29.282  1.00  0.00     0.031 C 
ATOM     54  C   UNL A   1      43.419  31.383  30.268  1.00  0.00     0.029 A 
ATOM     55  N   UNL A   1      44.594  29.988  28.969  1.00  0.00    -0.354 N 
ATOM     56  C   UNL A   1      43.121  26.019  28.066  1.00  0.00     0.074 A 
ATOM     57  C   UNL A   1      41.805  25.816  28.631  1.00  0.00     0.031 C 
ATOM     58  C   UNL A   1      44.556  32.011  29.918  1.00  0.00     0.029 A 
ATOM     59  C   UNL A   1      45.386  31.100  29.131  1.00  0.00     0.049 A 
ATOM     60  H   UNL A   1      44.845  29.226  28.398  1.00  0.00     0.167 HD
ATOM     61  C   UNL A   1      43.783  25.100  27.329  1.00  0.00     0.031 A 
ATOM     62  C   UNL A   1      46.652  31.332  28.729  1.00  0.00     0.031 A 
ATOM     63  C   UNL A   1      45.090  25.308  26.769  1.00  0.00     0.049 A 
ATOM     64  C   UNL A   1      47.395  30.257  27.973  1.00  0.00     0.074 A 
ATOM     65  C   UNL A   1      45.830  24.448  25.977  1.00  0.00     0.029 A 
ATOM     66  N   UNL A   1      45.853  26.448  26.952  1.00  0.00    -0.354 N 
ATOM     67  N   UNL A   1      46.981  29.072  27.593  1.00  0.00    -0.248 NA
ATOM     68  C   UNL A   1      48.786  30.552  27.590  1.00  0.00     0.031 C 
ATOM     69  C   UNL A   1      47.070  25.043  25.735  1.00  0.00     0.029 A 
ATOM     70  C   UNL A   1      47.071  26.302  26.313  1.00  0.00     0.049 A 
ATOM     71  H   UNL A   1      45.572  27.243  27.460  1.00  0.00     0.167 HD
ATOM     72  C   UNL A   1      48.039  28.506  26.888  1.00  0.00     0.074 A 
ATOM     73  C   UNL A   1      49.112  29.475  26.888  1.00  0.00     0.031 C 
ATOM     74  C   UNL A   1      48.113  27.293  26.291  1.00  0.00     0.031 A 
BRANCH  61  75
ATOM     75  C   UNL A   1      43.134  23.763  27.116  1.00  0.00    -0.014 A 
ATOM     76  C   UNL A   1      42.558  23.413  25.886  1.00  0.00     0.009 A 
ATOM     77  C   UNL A   1      43.178  22.808  28.145  1.00  0.00     0.009 A 
ATOM     78  C   UNL A   1      42.027  22.137  25.696  1.00  0.00     0.001 A 
ATOM     79  C   UNL A   1      42.671  21.524  27.943  1.00  0.00     0.001 A 
ATOM     80  C   UNL A   1      42.092  21.191  26.719  1.00  0.00     0.000 A 
ENDBRANCH  61  75
BRANCH  62  81
ATOM     81  C   UNL A   1      47.340  32.608  29.072  1.00  0.00    -0.014 A 
ATOM     82  C   UNL A   1      47.149  33.758  28.290  1.00  0.00     0.009 A 
ATOM     83  C   UNL A   1      48.251  32.663  30.139  1.00  0.00     0.009 A 
ATOM     84  C   UNL A   1      47.889  34.917  28.537  1.00  0.00     0.001 A 
ATOM     85  C   UNL A   1      48.963  33.834  30.407  1.00  0.00     0.001 A 
ATOM     86  C   UNL A   1      48.794  34.955  29.596  1.00  0.00     0.000 A 
ENDBRANCH  62  81
BRANCH  74  87
ATOM     87  C   UNL A   1      49.356  26.965  25.511  1.00  0.00    -0.014 A 
ATOM     88  C   UNL A   1      49.484  27.295  24.153  1.00  0.00     0.009 A 
ATOM     89  C   UNL A   1      50.454  26.398  26.181  1.00  0.00     0.009 A 
ATOM     90  C   UNL A   1      50.681  27.044  23.479  1.00  0.00     0.001 A 
ATOM     91  C   UNL A   1      51.658  26.179  25.512  1.00  0.00     0.001 A 
ATOM     92  C   UNL A   1      51.768  26.496  24.160  1.00  0.00     0.000 A 
ENDBRANCH  74  87
ENDBRANCH  48  49
ENDBRANCH  41  43
ENDBRANCH  40  41
ENDBRANCH  39  40
ENDBRANCH  38  39
ENDBRANCH  37  38
ENDBRANCH  36  37
ENDBRANCH   1  36
TORSDOF 21
ENDMDL
