MODEL 1
REMARK VINA RESULT:     -10.1      0.000      0.000
REMARK SMILES O=C(OCCOCCOCCOC(=O)c1cncc(Oc2cc(F)ccc2F)n1)c1ccc(-c2c3nc(c(-c4ccccc4)c4ccc([nH]4)c(-c4ccccc4)c4nc(c(-c5ccccc5)c5ccc2[nH]5)C=C4)C=C3)cc1
REMARK SMILES IDX 7 1 6 2 5 3 4 4 3 5 2 6 1 7 30 8 31 9 77 10 32 11 76 12
REMARK SMILES IDX 33 13 34 14 35 15 70 16 36 17 75 18 69 19 71 20 37 21 74 22
REMARK SMILES IDX 68 23 67 24 38 26 60 27 45 28 59 29 46 30 49 31 58 32 72 33
REMARK SMILES IDX 47 34 48 35 57 37 73 38 50 39 39 40 40 41 44 42 41 43 43 44
REMARK SMILES IDX 42 45 61 46 62 47 66 48 63 49 65 50 64 51 51 52 52 53 56 54
REMARK SMILES IDX 53 55 55 56 54 57 8 58 9 59 10 60 11 61 12 62 13 63 14 64
REMARK SMILES IDX 15 65 16 66 29 67 17 68 19 69 18 70 20 71 21 72 22 73 27 74
REMARK SMILES IDX 23 75 26 76 28 77 24 78 25 79
REMARK H PARENT 71 25 49 36
REMARK Flexibility Score: inf
ROOT
ATOM      1  C   UNL A   1      46.179  19.227  25.370  1.00  0.00     0.188 C 
ENDROOT
BRANCH   1   2
ATOM      2  O   UNL A   1      46.397  20.417  24.594  1.00  0.00    -0.376 OA
BRANCH   2   3
ATOM      3  C   UNL A   1      45.607  21.533  25.016  1.00  0.00     0.202 C 
BRANCH   3   4
ATOM      4  C   UNL A   1      45.938  22.841  24.292  1.00  0.00     0.261 C 
BRANCH   4   5
ATOM      5  O   UNL A   1      45.003  23.874  24.630  1.00  0.00    -0.460 OA
BRANCH   5   6
ATOM      6  C   UNL A   1      45.269  25.144  25.024  1.00  0.00     0.338 C 
ATOM      7  O   UNL A   1      46.241  25.709  24.527  1.00  0.00    -0.246 OA
BRANCH   6   8
ATOM      8  C   UNL A   1      44.420  25.916  25.989  1.00  0.00     0.060 A 
ATOM      9  C   UNL A   1      44.326  27.307  26.059  1.00  0.00     0.016 A 
ATOM     10  C   UNL A   1      43.613  25.169  26.864  1.00  0.00     0.016 A 
ATOM     11  C   UNL A   1      43.575  27.935  27.053  1.00  0.00     0.010 A 
ATOM     12  C   UNL A   1      42.778  25.794  27.798  1.00  0.00     0.010 A 
ATOM     13  C   UNL A   1      42.804  27.185  27.940  1.00  0.00    -0.014 A 
BRANCH  13  14
ATOM     14  C   UNL A   1      42.151  27.857  29.091  1.00  0.00     0.031 A 
ATOM     15  C   UNL A   1      42.889  27.934  30.398  1.00  0.00     0.074 A 
ATOM     16  C   UNL A   1      40.964  28.477  28.948  1.00  0.00     0.049 A 
ATOM     17  N   UNL A   1      42.504  28.448  31.537  1.00  0.00    -0.248 NA
ATOM     18  C   UNL A   1      44.243  27.358  30.427  1.00  0.00     0.031 C 
ATOM     19  C   UNL A   1      40.192  28.544  27.709  1.00  0.00     0.029 A 
ATOM     20  N   UNL A   1      40.216  29.198  29.845  1.00  0.00    -0.354 N 
ATOM     21  C   UNL A   1      43.552  28.225  32.421  1.00  0.00     0.074 A 
ATOM     22  C   UNL A   1      44.577  27.509  31.697  1.00  0.00     0.031 C 
ATOM     23  C   UNL A   1      39.102  29.302  27.913  1.00  0.00     0.029 A 
ATOM     24  C   UNL A   1      39.066  29.723  29.306  1.00  0.00     0.049 A 
ATOM     25  H   UNL A   1      40.479  29.326  30.785  1.00  0.00     0.167 HD
ATOM     26  C   UNL A   1      43.659  28.590  33.719  1.00  0.00     0.031 A 
ATOM     27  C   UNL A   1      38.086  30.451  29.872  1.00  0.00     0.031 A 
ATOM     28  C   UNL A   1      42.650  29.321  34.432  1.00  0.00     0.049 A 
ATOM     29  C   UNL A   1      38.200  30.801  31.329  1.00  0.00     0.074 A 
ATOM     30  C   UNL A   1      42.636  29.709  35.760  1.00  0.00     0.029 A 
ATOM     31  N   UNL A   1      41.474  29.784  33.862  1.00  0.00    -0.354 N 
ATOM     32  N   UNL A   1      39.177  30.537  32.163  1.00  0.00    -0.248 NA
ATOM     33  C   UNL A   1      37.078  31.540  31.923  1.00  0.00     0.031 C 
ATOM     34  C   UNL A   1      41.436  30.389  35.998  1.00  0.00     0.029 A 
ATOM     35  C   UNL A   1      40.723  30.453  34.810  1.00  0.00     0.049 A 
ATOM     36  H   UNL A   1      41.213  29.658  32.921  1.00  0.00     0.167 HD
ATOM     37  C   UNL A   1      38.797  31.093  33.376  1.00  0.00     0.074 A 
ATOM     38  C   UNL A   1      37.509  31.723  33.163  1.00  0.00     0.031 C 
ATOM     39  C   UNL A   1      39.449  31.076  34.564  1.00  0.00     0.031 A 
BRANCH  26  40
ATOM     40  C   UNL A   1      44.901  28.151  34.439  1.00  0.00    -0.014 A 
ATOM     41  C   UNL A   1      44.992  26.878  35.025  1.00  0.00     0.009 A 
ATOM     42  C   UNL A   1      45.971  29.046  34.580  1.00  0.00     0.009 A 
ATOM     43  C   UNL A   1      46.114  26.529  35.780  1.00  0.00     0.001 A 
ATOM     44  C   UNL A   1      47.101  28.685  35.316  1.00  0.00     0.001 A 
ATOM     45  C   UNL A   1      47.166  27.434  35.926  1.00  0.00     0.000 A 
ENDBRANCH  26  40
BRANCH  27  46
ATOM     46  C   UNL A   1      36.907  30.880  29.070  1.00  0.00    -0.014 A 
ATOM     47  C   UNL A   1      36.780  32.208  28.633  1.00  0.00     0.009 A 
ATOM     48  C   UNL A   1      35.898  29.961  28.741  1.00  0.00     0.009 A 
ATOM     49  C   UNL A   1      35.658  32.608  27.900  1.00  0.00     0.001 A 
ATOM     50  C   UNL A   1      34.792  30.357  27.985  1.00  0.00     0.001 A 
ATOM     51  C   UNL A   1      34.669  31.682  27.573  1.00  0.00     0.000 A 
ENDBRANCH  27  46
BRANCH  39  52
ATOM     52  C   UNL A   1      38.791  31.785  35.708  1.00  0.00    -0.014 A 
ATOM     53  C   UNL A   1      38.105  31.070  36.701  1.00  0.00     0.009 A 
ATOM     54  C   UNL A   1      38.901  33.180  35.816  1.00  0.00     0.009 A 
ATOM     55  C   UNL A   1      37.520  31.745  37.773  1.00  0.00     0.001 A 
ATOM     56  C   UNL A   1      38.332  33.848  36.900  1.00  0.00     0.001 A 
ATOM     57  C   UNL A   1      37.637  33.131  37.874  1.00  0.00     0.000 A 
ENDBRANCH  39  52
ENDBRANCH  13  14
ENDBRANCH   6   8
ENDBRANCH   5   6
ENDBRANCH   4   5
ENDBRANCH   3   4
ENDBRANCH   2   3
ENDBRANCH   1   2
BRANCH   1  58
ATOM     58  C   UNL A   1      44.809  18.617  25.057  1.00  0.00     0.188 C 
BRANCH  58  59
ATOM     59  O   UNL A   1      44.088  18.123  26.191  1.00  0.00    -0.376 OA
BRANCH  59  60
ATOM     60  C   UNL A   1      42.672  18.257  26.167  1.00  0.00     0.202 C 
BRANCH  60  61
ATOM     61  C   UNL A   1      42.063  19.300  27.109  1.00  0.00     0.261 C 
BRANCH  61  62
ATOM     62  O   UNL A   1      41.042  20.129  26.525  1.00  0.00    -0.458 OA
BRANCH  62  63
ATOM     63  C   UNL A   1      41.092  21.431  26.893  1.00  0.00     0.358 C 
ATOM     64  O   UNL A   1      41.989  21.987  27.532  1.00  0.00    -0.244 OA
BRANCH  63  65
ATOM     65  C   UNL A   1      39.814  22.097  26.617  1.00  0.00     0.170 A 
ATOM     66  C   UNL A   1      39.679  23.381  27.134  1.00  0.00     0.147 A 
ATOM     67  N   UNL A   1      38.928  21.544  25.729  1.00  0.00    -0.203 NA
ATOM     68  N   UNL A   1      38.644  24.187  26.809  1.00  0.00    -0.257 NA
ATOM     69  C   UNL A   1      37.909  22.372  25.392  1.00  0.00     0.238 A 
ATOM     70  C   UNL A   1      37.777  23.658  25.915  1.00  0.00     0.179 A 
BRANCH  69  71
ATOM     71  O   UNL A   1      37.023  22.084  24.363  1.00  0.00    -0.434 OA
BRANCH  71  72
ATOM     72  C   UNL A   1      35.722  21.760  24.641  1.00  0.00     0.168 A 
ATOM     73  C   UNL A   1      34.677  22.655  24.429  1.00  0.00     0.089 A 
ATOM     74  C   UNL A   1      35.439  20.410  24.870  1.00  0.00     0.166 A 
ATOM     75  C   UNL A   1      33.369  22.174  24.444  1.00  0.00     0.127 A 
ATOM     76  C   UNL A   1      34.128  19.942  24.909  1.00  0.00     0.046 A 
ATOM     77  F   UNL A   1      36.442  19.528  24.993  1.00  0.00    -0.203 F 
ATOM     78  F   UNL A   1      32.359  22.994  24.139  1.00  0.00    -0.207 F 
ATOM     79  C   UNL A   1      33.082  20.833  24.689  1.00  0.00     0.042 A 
ENDBRANCH  71  72
ENDBRANCH  69  71
ENDBRANCH  63  65
ENDBRANCH  62  63
ENDBRANCH  61  62
ENDBRANCH  60  61
ENDBRANCH  59  60
ENDBRANCH  58  59
ENDBRANCH   1  58
TORSDOF 19
ENDMDL
MODEL 2
REMARK VINA RESULT:     -10.0      1.646      2.960
REMARK SMILES O=C(OCCOCCOCCOC(=O)c1cncc(Oc2cc(F)ccc2F)n1)c1ccc(-c2c3nc(c(-c4ccccc4)c4ccc([nH]4)c(-c4ccccc4)c4nc(c(-c5ccccc5)c5ccc2[nH]5)C=C4)C=C3)cc1
REMARK SMILES IDX 7 1 6 2 5 3 4 4 3 5 2 6 1 7 30 8 31 9 77 10 32 11 76 12
REMARK SMILES IDX 33 13 34 14 35 15 70 16 36 17 75 18 69 19 71 20 37 21 74 22
REMARK SMILES IDX 68 23 67 24 38 26 60 27 45 28 59 29 46 30 49 31 58 32 72 33
REMARK SMILES IDX 47 34 48 35 57 37 73 38 50 39 39 40 40 41 44 42 41 43 43 44
REMARK SMILES IDX 42 45 61 46 62 47 66 48 63 49 65 50 64 51 51 52 52 53 56 54
REMARK SMILES IDX 53 55 55 56 54 57 8 58 9 59 10 60 11 61 12 62 13 63 14 64
REMARK SMILES IDX 15 65 16 66 29 67 17 68 19 69 18 70 20 71 21 72 22 73 27 74
REMARK SMILES IDX 23 75 26 76 28 77 24 78 25 79
REMARK H PARENT 71 25 49 36
REMARK Flexibility Score: inf
ROOT
ATOM      1  C   UNL A   1      42.099  19.500  26.295  1.00  0.00     0.188 C 
ENDROOT
BRANCH   1   2
ATOM      2  O   UNL A   1      42.781  20.409  25.416  1.00  0.00    -0.376 OA
BRANCH   2   3
ATOM      3  C   UNL A   1      44.185  20.156  25.301  1.00  0.00     0.202 C 
BRANCH   3   4
ATOM      4  C   UNL A   1      45.002  21.367  24.843  1.00  0.00     0.261 C 
BRANCH   4   5
ATOM      5  O   UNL A   1      44.823  22.481  25.728  1.00  0.00    -0.460 OA
BRANCH   5   6
ATOM      6  C   UNL A   1      44.541  23.767  25.404  1.00  0.00     0.338 C 
ATOM      7  O   UNL A   1      44.853  24.160  24.282  1.00  0.00    -0.246 OA
BRANCH   6   8
ATOM      8  C   UNL A   1      43.826  24.722  26.313  1.00  0.00     0.060 A 
ATOM      9  C   UNL A   1      43.989  26.108  26.329  1.00  0.00     0.016 A 
ATOM     10  C   UNL A   1      42.873  24.173  27.188  1.00  0.00     0.016 A 
ATOM     11  C   UNL A   1      43.344  26.904  27.275  1.00  0.00     0.010 A 
ATOM     12  C   UNL A   1      42.145  24.979  28.072  1.00  0.00     0.010 A 
ATOM     13  C   UNL A   1      42.425  26.347  28.164  1.00  0.00    -0.014 A 
BRANCH  13  14
ATOM     14  C   UNL A   1      41.880  27.174  29.268  1.00  0.00     0.031 A 
ATOM     15  C   UNL A   1      42.666  27.287  30.545  1.00  0.00     0.074 A 
ATOM     16  C   UNL A   1      40.755  27.895  29.103  1.00  0.00     0.049 A 
ATOM     17  N   UNL A   1      42.371  27.930  31.645  1.00  0.00    -0.248 NA
ATOM     18  C   UNL A   1      43.958  26.582  30.589  1.00  0.00     0.031 C 
ATOM     19  C   UNL A   1      39.951  27.935  27.882  1.00  0.00     0.029 A 
ATOM     20  N   UNL A   1      40.111  28.760  29.952  1.00  0.00    -0.354 N 
ATOM     21  C   UNL A   1      43.421  27.678  32.518  1.00  0.00     0.074 A 
ATOM     22  C   UNL A   1      44.347  26.806  31.833  1.00  0.00     0.031 C 
ATOM     23  C   UNL A   1      38.948  28.813  28.047  1.00  0.00     0.029 A 
ATOM     24  C   UNL A   1      39.000  29.350  29.398  1.00  0.00     0.049 A 
ATOM     25  H   UNL A   1      40.416  28.940  30.871  1.00  0.00     0.167 HD
ATOM     26  C   UNL A   1      43.607  28.139  33.776  1.00  0.00     0.031 A 
ATOM     27  C   UNL A   1      38.115  30.217  29.924  1.00  0.00     0.031 A 
ATOM     28  C   UNL A   1      42.699  29.023  34.448  1.00  0.00     0.049 A 
ATOM     29  C   UNL A   1      38.312  30.675  31.341  1.00  0.00     0.074 A 
ATOM     30  C   UNL A   1      42.767  29.521  35.737  1.00  0.00     0.029 A 
ATOM     31  N   UNL A   1      41.555  29.552  33.870  1.00  0.00    -0.354 N 
ATOM     32  N   UNL A   1      39.286  30.386  32.170  1.00  0.00    -0.248 NA
ATOM     33  C   UNL A   1      37.288  31.569  31.897  1.00  0.00     0.031 C 
ATOM     34  C   UNL A   1      41.647  30.335  35.946  1.00  0.00     0.029 A 
ATOM     35  C   UNL A   1      40.904  30.370  34.775  1.00  0.00     0.049 A 
ATOM     36  H   UNL A   1      41.251  29.374  32.950  1.00  0.00     0.167 HD
ATOM     37  C   UNL A   1      39.002  31.076  33.340  1.00  0.00     0.074 A 
ATOM     38  C   UNL A   1      37.776  31.812  33.106  1.00  0.00     0.031 C 
ATOM     39  C   UNL A   1      39.690  31.095  34.508  1.00  0.00     0.031 A 
BRANCH  26  40
ATOM     40  C   UNL A   1      44.824  27.639  34.500  1.00  0.00    -0.014 A 
ATOM     41  C   UNL A   1      46.038  28.344  34.458  1.00  0.00     0.009 A 
ATOM     42  C   UNL A   1      44.767  26.418  35.185  1.00  0.00     0.009 A 
ATOM     43  C   UNL A   1      47.184  27.808  35.049  1.00  0.00     0.001 A 
ATOM     44  C   UNL A   1      45.910  25.896  35.795  1.00  0.00     0.001 A 
ATOM     45  C   UNL A   1      47.119  26.585  35.715  1.00  0.00     0.000 A 
ENDBRANCH  26  40
BRANCH  27  46
ATOM     46  C   UNL A   1      36.957  30.694  29.118  1.00  0.00    -0.014 A 
ATOM     47  C   UNL A   1      35.914  29.821  28.773  1.00  0.00     0.009 A 
ATOM     48  C   UNL A   1      36.892  32.028  28.686  1.00  0.00     0.009 A 
ATOM     49  C   UNL A   1      34.842  30.270  27.996  1.00  0.00     0.001 A 
ATOM     50  C   UNL A   1      35.806  32.481  27.934  1.00  0.00     0.001 A 
ATOM     51  C   UNL A   1      34.787  31.601  27.581  1.00  0.00     0.000 A 
ENDBRANCH  27  46
BRANCH  39  52
ATOM     52  C   UNL A   1      39.143  31.959  35.603  1.00  0.00    -0.014 A 
ATOM     53  C   UNL A   1      38.243  31.443  36.547  1.00  0.00     0.009 A 
ATOM     54  C   UNL A   1      39.571  33.291  35.715  1.00  0.00     0.009 A 
ATOM     55  C   UNL A   1      37.764  32.256  37.575  1.00  0.00     0.001 A 
ATOM     56  C   UNL A   1      39.104  34.093  36.755  1.00  0.00     0.001 A 
ATOM     57  C   UNL A   1      38.197  33.578  37.681  1.00  0.00     0.000 A 
ENDBRANCH  39  52
ENDBRANCH  13  14
ENDBRANCH   6   8
ENDBRANCH   5   6
ENDBRANCH   4   5
ENDBRANCH   3   4
ENDBRANCH   2   3
ENDBRANCH   1   2
BRANCH   1  58
ATOM     58  C   UNL A   1      41.050  20.240  27.133  1.00  0.00     0.188 C 
BRANCH  58  59
ATOM     59  O   UNL A   1      40.028  20.906  26.383  1.00  0.00    -0.376 OA
BRANCH  59  60
ATOM     60  C   UNL A   1      39.685  22.225  26.789  1.00  0.00     0.202 C 
BRANCH  60  61
ATOM     61  C   UNL A   1      38.565  22.917  26.004  1.00  0.00     0.261 C 
BRANCH  61  62
ATOM     62  O   UNL A   1      37.372  22.134  25.823  1.00  0.00    -0.458 OA
BRANCH  62  63
ATOM     63  C   UNL A   1      36.477  22.659  24.953  1.00  0.00     0.358 C 
ATOM     64  O   UNL A   1      36.726  23.337  23.953  1.00  0.00    -0.244 OA
BRANCH  63  65
ATOM     65  C   UNL A   1      35.109  22.505  25.462  1.00  0.00     0.170 A 
ATOM     66  C   UNL A   1      34.453  23.686  25.794  1.00  0.00     0.147 A 
ATOM     67  N   UNL A   1      34.484  21.287  25.396  1.00  0.00    -0.203 NA
ATOM     68  N   UNL A   1      33.137  23.722  26.096  1.00  0.00    -0.257 NA
ATOM     69  C   UNL A   1      33.158  21.342  25.676  1.00  0.00     0.238 A 
ATOM     70  C   UNL A   1      32.506  22.528  26.011  1.00  0.00     0.179 A 
BRANCH  69  71
ATOM     71  O   UNL A   1      32.308  20.264  25.471  1.00  0.00    -0.434 OA
BRANCH  71  72
ATOM     72  C   UNL A   1      32.777  19.111  24.903  1.00  0.00     0.168 A 
ATOM     73  C   UNL A   1      33.166  18.016  25.671  1.00  0.00     0.089 A 
ATOM     74  C   UNL A   1      32.585  18.957  23.527  1.00  0.00     0.166 A 
ATOM     75  C   UNL A   1      33.346  16.786  25.039  1.00  0.00     0.127 A 
ATOM     76  C   UNL A   1      32.792  17.730  22.901  1.00  0.00     0.046 A 
ATOM     77  F   UNL A   1      32.131  19.985  22.796  1.00  0.00    -0.203 F 
ATOM     78  F   UNL A   1      33.615  15.701  25.772  1.00  0.00    -0.207 F 
ATOM     79  C   UNL A   1      33.172  16.632  23.666  1.00  0.00     0.042 A 
ENDBRANCH  71  72
ENDBRANCH  69  71
ENDBRANCH  63  65
ENDBRANCH  62  63
ENDBRANCH  61  62
ENDBRANCH  60  61
ENDBRANCH  59  60
ENDBRANCH  58  59
ENDBRANCH   1  58
TORSDOF 19
ENDMDL
MODEL 3
REMARK VINA RESULT:      -9.9      5.866     11.515
REMARK SMILES O=C(OCCOCCOCCOC(=O)c1cncc(Oc2cc(F)ccc2F)n1)c1ccc(-c2c3nc(c(-c4ccccc4)c4ccc([nH]4)c(-c4ccccc4)c4nc(c(-c5ccccc5)c5ccc2[nH]5)C=C4)C=C3)cc1
REMARK SMILES IDX 7 1 6 2 5 3 4 4 3 5 2 6 1 7 30 8 31 9 77 10 32 11 76 12
REMARK SMILES IDX 33 13 34 14 35 15 70 16 36 17 75 18 69 19 71 20 37 21 74 22
REMARK SMILES IDX 68 23 67 24 38 26 60 27 45 28 59 29 46 30 49 31 58 32 72 33
REMARK SMILES IDX 47 34 48 35 57 37 73 38 50 39 39 40 40 41 44 42 41 43 43 44
REMARK SMILES IDX 42 45 61 46 62 47 66 48 63 49 65 50 64 51 51 52 52 53 56 54
REMARK SMILES IDX 53 55 55 56 54 57 8 58 9 59 10 60 11 61 12 62 13 63 14 64
REMARK SMILES IDX 15 65 16 66 29 67 17 68 19 69 18 70 20 71 21 72 22 73 27 74
REMARK SMILES IDX 23 75 26 76 28 77 24 78 25 79
REMARK H PARENT 71 25 49 36
REMARK Flexibility Score: inf
ROOT
ATOM      1  C   UNL A   1      32.903  36.390  30.542  1.00  0.00     0.188 C 
ENDROOT
BRANCH   1   2
ATOM      2  O   UNL A   1      33.021  35.558  31.708  1.00  0.00    -0.376 OA
BRANCH   2   3
ATOM      3  C   UNL A   1      33.942  36.059  32.682  1.00  0.00     0.202 C 
BRANCH   3   4
ATOM      4  C   UNL A   1      34.899  35.001  33.239  1.00  0.00     0.261 C 
BRANCH   4   5
ATOM      5  O   UNL A   1      35.557  34.287  32.183  1.00  0.00    -0.460 OA
BRANCH   5   6
ATOM      6  C   UNL A   1      35.457  32.971  31.878  1.00  0.00     0.338 C 
ATOM      7  O   UNL A   1      34.360  32.432  32.005  1.00  0.00    -0.246 OA
BRANCH   6   8
ATOM      8  C   UNL A   1      36.592  32.147  31.347  1.00  0.00     0.060 A 
ATOM      9  C   UNL A   1      37.361  31.247  32.086  1.00  0.00     0.016 A 
ATOM     10  C   UNL A   1      36.869  32.256  29.973  1.00  0.00     0.016 A 
ATOM     11  C   UNL A   1      38.456  30.592  31.522  1.00  0.00     0.010 A 
ATOM     12  C   UNL A   1      37.902  31.524  29.376  1.00  0.00     0.010 A 
ATOM     13  C   UNL A   1      38.746  30.734  30.164  1.00  0.00    -0.014 A 
BRANCH  13  14
ATOM     14  C   UNL A   1      40.006  30.169  29.622  1.00  0.00     0.031 A 
ATOM     15  C   UNL A   1      41.260  30.994  29.697  1.00  0.00     0.074 A 
ATOM     16  C   UNL A   1      40.056  28.904  29.161  1.00  0.00     0.049 A 
ATOM     17  N   UNL A   1      42.462  30.714  29.265  1.00  0.00    -0.248 NA
ATOM     18  C   UNL A   1      41.147  32.309  30.348  1.00  0.00     0.031 C 
ATOM     19  C   UNL A   1      38.925  27.978  29.116  1.00  0.00     0.029 A 
ATOM     20  N   UNL A   1      41.107  28.168  28.675  1.00  0.00    -0.354 N 
ATOM     21  C   UNL A   1      43.234  31.829  29.560  1.00  0.00     0.074 A 
ATOM     22  C   UNL A   1      42.365  32.799  30.185  1.00  0.00     0.031 C 
ATOM     23  C   UNL A   1      39.354  26.786  28.671  1.00  0.00     0.029 A 
ATOM     24  C   UNL A   1      40.769  26.879  28.342  1.00  0.00     0.049 A 
ATOM     25  H   UNL A   1      42.017  28.531  28.575  1.00  0.00     0.167 HD
ATOM     26  C   UNL A   1      44.555  32.029  29.341  1.00  0.00     0.031 A 
ATOM     27  C   UNL A   1      41.512  25.886  27.819  1.00  0.00     0.031 A 
ATOM     28  C   UNL A   1      45.423  31.058  28.742  1.00  0.00     0.049 A 
ATOM     29  C   UNL A   1      42.964  26.147  27.535  1.00  0.00     0.074 A 
ATOM     30  C   UNL A   1      46.768  31.168  28.436  1.00  0.00     0.029 A 
ATOM     31  N   UNL A   1      45.027  29.783  28.367  1.00  0.00    -0.354 N 
ATOM     32  N   UNL A   1      43.667  27.228  27.776  1.00  0.00    -0.248 NA
ATOM     33  C   UNL A   1      43.722  25.058  26.903  1.00  0.00     0.031 C 
ATOM     34  C   UNL A   1      47.179  29.964  27.852  1.00  0.00     0.029 A 
ATOM     35  C   UNL A   1      46.099  29.095  27.829  1.00  0.00     0.049 A 
ATOM     36  H   UNL A   1      44.117  29.420  28.470  1.00  0.00     0.167 HD
ATOM     37  C   UNL A   1      44.954  26.944  27.341  1.00  0.00     0.074 A 
ATOM     38  C   UNL A   1      44.937  25.584  26.840  1.00  0.00     0.031 C 
ATOM     39  C   UNL A   1      46.051  27.739  27.347  1.00  0.00     0.031 A 
BRANCH  26  40
ATOM     40  C   UNL A   1      45.101  33.375  29.720  1.00  0.00    -0.014 A 
ATOM     41  C   UNL A   1      45.178  34.420  28.785  1.00  0.00     0.009 A 
ATOM     42  C   UNL A   1      45.596  33.581  31.015  1.00  0.00     0.009 A 
ATOM     43  C   UNL A   1      45.787  35.629  29.128  1.00  0.00     0.001 A 
ATOM     44  C   UNL A   1      46.182  34.799  31.363  1.00  0.00     0.001 A 
ATOM     45  C   UNL A   1      46.289  35.817  30.416  1.00  0.00     0.000 A 
ENDBRANCH  26  40
BRANCH  27  46
ATOM     46  C   UNL A   1      40.895  24.565  27.512  1.00  0.00    -0.014 A 
ATOM     47  C   UNL A   1      41.381  23.390  28.105  1.00  0.00     0.009 A 
ATOM     48  C   UNL A   1      39.816  24.475  26.618  1.00  0.00     0.009 A 
ATOM     49  C   UNL A   1      40.811  22.152  27.794  1.00  0.00     0.001 A 
ATOM     50  C   UNL A   1      39.232  23.239  26.331  1.00  0.00     0.001 A 
ATOM     51  C   UNL A   1      39.735  22.078  26.911  1.00  0.00     0.000 A 
ENDBRANCH  27  46
BRANCH  39  52
ATOM     52  C   UNL A   1      47.322  27.144  26.824  1.00  0.00    -0.014 A 
ATOM     53  C   UNL A   1      48.184  26.429  27.669  1.00  0.00     0.009 A 
ATOM     54  C   UNL A   1      47.635  27.262  25.462  1.00  0.00     0.009 A 
ATOM     55  C   UNL A   1      49.352  25.860  27.160  1.00  0.00     0.001 A 
ATOM     56  C   UNL A   1      48.793  26.675  24.953  1.00  0.00     0.001 A 
ATOM     57  C   UNL A   1      49.653  25.980  25.802  1.00  0.00     0.000 A 
ENDBRANCH  39  52
ENDBRANCH  13  14
ENDBRANCH   6   8
ENDBRANCH   5   6
ENDBRANCH   4   5
ENDBRANCH   3   4
ENDBRANCH   2   3
ENDBRANCH   1   2
BRANCH   1  58
ATOM     58  C   UNL A   1      33.363  35.638  29.289  1.00  0.00     0.188 C 
BRANCH  58  59
ATOM     59  O   UNL A   1      33.040  34.243  29.260  1.00  0.00    -0.376 OA
BRANCH  59  60
ATOM     60  C   UNL A   1      32.984  33.618  27.984  1.00  0.00     0.202 C 
BRANCH  60  61
ATOM     61  C   UNL A   1      33.612  32.225  27.871  1.00  0.00     0.261 C 
BRANCH  61  62
ATOM     62  O   UNL A   1      32.790  31.234  27.230  1.00  0.00    -0.458 OA
BRANCH  62  63
ATOM     63  C   UNL A   1      33.474  30.212  26.663  1.00  0.00     0.358 C 
ATOM     64  O   UNL A   1      34.602  29.816  26.968  1.00  0.00    -0.244 OA
BRANCH  63  65
ATOM     65  C   UNL A   1      32.787  29.736  25.457  1.00  0.00     0.170 A 
ATOM     66  C   UNL A   1      33.467  28.774  24.716  1.00  0.00     0.147 A 
ATOM     67  N   UNL A   1      31.481  30.080  25.228  1.00  0.00    -0.203 NA
ATOM     68  N   UNL A   1      32.890  28.108  23.693  1.00  0.00    -0.257 NA
ATOM     69  C   UNL A   1      30.906  29.386  24.214  1.00  0.00     0.238 A 
ATOM     70  C   UNL A   1      31.592  28.425  23.474  1.00  0.00     0.179 A 
BRANCH  69  71
ATOM     71  O   UNL A   1      29.543  29.437  23.954  1.00  0.00    -0.434 OA
BRANCH  71  72
ATOM     72  C   UNL A   1      28.995  30.538  23.354  1.00  0.00     0.168 A 
ATOM     73  C   UNL A   1      29.215  31.827  23.835  1.00  0.00     0.089 A 
ATOM     74  C   UNL A   1      28.446  30.360  22.081  1.00  0.00     0.166 A 
ATOM     75  C   UNL A   1      28.885  32.910  23.021  1.00  0.00     0.127 A 
ATOM     76  C   UNL A   1      28.095  31.449  21.285  1.00  0.00     0.046 A 
ATOM     77  F   UNL A   1      28.308  29.124  21.579  1.00  0.00    -0.203 F 
ATOM     78  F   UNL A   1      29.185  34.150  23.419  1.00  0.00    -0.207 F 
ATOM     79  C   UNL A   1      28.322  32.737  21.759  1.00  0.00     0.042 A 
ENDBRANCH  71  72
ENDBRANCH  69  71
ENDBRANCH  63  65
ENDBRANCH  62  63
ENDBRANCH  61  62
ENDBRANCH  60  61
ENDBRANCH  59  60
ENDBRANCH  58  59
ENDBRANCH   1  58
TORSDOF 19
ENDMDL
