MODEL 1
REMARK VINA RESULT:      -8.6      0.000      0.000
REMARK SMILES CSC[C@H](C(=O)OCCOCCOCCOC(=O)c1ccc(-c2c3nc(c(-c4ccccc4)c4ccc([nH]4)c(-c4ccccc4)c4nc(c(-c5ccccc5)c5ccc2[nH]5)C=C4)C=C3)cc1)c1ccccc1
REMARK SMILES IDX 11 1 10 2 9 3 8 4 7 5 5 6 6 7 4 8 3 9 2 10 1 11 67 12 68 13
REMARK SMILES IDX 72 14 69 15 71 16 70 17 12 18 13 19 14 20 15 21 16 22 17 23
REMARK SMILES IDX 18 24 19 25 20 26 66 27 21 28 65 29 22 30 23 31 24 32 59 33
REMARK SMILES IDX 25 34 64 35 58 36 60 37 26 38 63 39 57 40 56 41 27 43 49 44
REMARK SMILES IDX 34 45 48 46 35 47 38 48 47 49 61 50 36 51 37 52 46 54 62 55
REMARK SMILES IDX 39 56 28 57 29 58 33 59 30 60 32 61 31 62 50 63 51 64 55 65
REMARK SMILES IDX 52 66 54 67 53 68 40 69 41 70 45 71 42 72 44 73 43 74
REMARK H PARENT 60 42 38 53
REMARK Flexibility Score: inf
ROOT
ATOM      1  C   UNL A   1      33.828  29.314  27.121  1.00  0.00     0.188 C 
ENDROOT
BRANCH   1   2
ATOM      2  O   UNL A   1      33.120  28.327  26.376  1.00  0.00    -0.376 OA
BRANCH   2   3
ATOM      3  C   UNL A   1      33.858  27.415  25.561  1.00  0.00     0.202 C 
BRANCH   3   4
ATOM      4  C   UNL A   1      33.091  26.408  24.683  1.00  0.00     0.261 C 
BRANCH   4   5
ATOM      5  O   UNL A   1      33.831  26.016  23.519  1.00  0.00    -0.463 OA
BRANCH   5   6
ATOM      6  C   UNL A   1      33.694  24.732  23.088  1.00  0.00     0.314 C 
ATOM      7  O   UNL A   1      33.652  24.398  21.912  1.00  0.00    -0.252 OA
BRANCH   6   8
ATOM      8  C   UNL A   1      33.704  23.772  24.289  1.00  0.00     0.139 C 
BRANCH   8   9
ATOM      9  C   UNL A   1      32.736  22.598  24.045  1.00  0.00     0.089 C 
BRANCH   9  10
ATOM     10  S   UNL A   1      31.936  21.865  25.528  1.00  0.00    -0.164 SA
ATOM     11  C   UNL A   1      31.862  23.299  26.631  1.00  0.00     0.085 C 
ENDBRANCH   9  10
ENDBRANCH   8   9
BRANCH   8  12
ATOM     12  C   UNL A   1      35.145  23.385  24.657  1.00  0.00    -0.033 A 
ATOM     13  C   UNL A   1      35.726  22.247  24.055  1.00  0.00     0.004 A 
ATOM     14  C   UNL A   1      35.925  24.108  25.569  1.00  0.00     0.004 A 
ATOM     15  C   UNL A   1      36.999  21.806  24.416  1.00  0.00     0.000 A 
ATOM     16  C   UNL A   1      37.203  23.668  25.924  1.00  0.00     0.000 A 
ATOM     17  C   UNL A   1      37.733  22.509  25.363  1.00  0.00     0.000 A 
ENDBRANCH   8  12
ENDBRANCH   6   8
ENDBRANCH   5   6
ENDBRANCH   4   5
ENDBRANCH   3   4
ENDBRANCH   2   3
ENDBRANCH   1   2
BRANCH   1  18
ATOM     18  C   UNL A   1      33.239  30.732  27.255  1.00  0.00     0.188 C 
BRANCH  18  19
ATOM     19  O   UNL A   1      31.987  30.900  26.636  1.00  0.00    -0.376 OA
BRANCH  19  20
ATOM     20  C   UNL A   1      31.404  32.191  26.648  1.00  0.00     0.202 C 
BRANCH  20  21
ATOM     21  C   UNL A   1      32.268  33.423  26.982  1.00  0.00     0.261 C 
BRANCH  21  22
ATOM     22  O   UNL A   1      32.069  34.048  28.261  1.00  0.00    -0.460 OA
BRANCH  22  23
ATOM     23  C   UNL A   1      32.957  34.991  28.643  1.00  0.00     0.338 C 
ATOM     24  O   UNL A   1      32.754  36.193  28.754  1.00  0.00    -0.246 OA
BRANCH  23  25
ATOM     25  C   UNL A   1      34.166  34.295  29.137  1.00  0.00     0.060 A 
ATOM     26  C   UNL A   1      34.044  33.346  30.164  1.00  0.00     0.016 A 
ATOM     27  C   UNL A   1      35.414  34.567  28.575  1.00  0.00     0.016 A 
ATOM     28  C   UNL A   1      35.175  32.676  30.640  1.00  0.00     0.010 A 
ATOM     29  C   UNL A   1      36.546  33.915  29.070  1.00  0.00     0.010 A 
ATOM     30  C   UNL A   1      36.438  32.984  30.120  1.00  0.00    -0.014 A 
BRANCH  30  31
ATOM     31  C   UNL A   1      37.670  32.487  30.780  1.00  0.00     0.031 A 
ATOM     32  C   UNL A   1      38.351  31.278  30.200  1.00  0.00     0.074 A 
ATOM     33  C   UNL A   1      38.165  33.073  31.885  1.00  0.00     0.049 A 
ATOM     34  N   UNL A   1      39.359  30.586  30.666  1.00  0.00    -0.248 NA
ATOM     35  C   UNL A   1      37.815  30.778  28.924  1.00  0.00     0.031 C 
ATOM     36  C   UNL A   1      37.638  34.279  32.518  1.00  0.00     0.029 A 
ATOM     37  N   UNL A   1      39.224  32.708  32.682  1.00  0.00    -0.354 N 
ATOM     38  C   UNL A   1      39.565  29.561  29.752  1.00  0.00     0.074 A 
ATOM     39  C   UNL A   1      38.563  29.706  28.718  1.00  0.00     0.031 C 
ATOM     40  C   UNL A   1      38.365  34.546  33.618  1.00  0.00     0.029 A 
ATOM     41  C   UNL A   1      39.377  33.505  33.791  1.00  0.00     0.049 A 
ATOM     42  H   UNL A   1      39.816  31.948  32.479  1.00  0.00     0.167 HD
ATOM     43  C   UNL A   1      40.501  28.584  29.771  1.00  0.00     0.031 A 
ATOM     44  C   UNL A   1      40.214  33.386  34.841  1.00  0.00     0.031 A 
ATOM     45  C   UNL A   1      41.486  28.428  30.808  1.00  0.00     0.049 A 
ATOM     46  C   UNL A   1      41.186  32.234  34.889  1.00  0.00     0.074 A 
ATOM     47  C   UNL A   1      42.487  27.478  30.909  1.00  0.00     0.029 A 
ATOM     48  N   UNL A   1      41.585  29.236  31.929  1.00  0.00    -0.354 N 
ATOM     49  N   UNL A   1      41.386  31.280  34.011  1.00  0.00    -0.248 NA
ATOM     50  C   UNL A   1      42.050  32.143  36.076  1.00  0.00     0.031 C 
ATOM     51  C   UNL A   1      43.149  27.671  32.125  1.00  0.00     0.029 A 
ATOM     52  C   UNL A   1      42.610  28.787  32.743  1.00  0.00     0.049 A 
ATOM     53  H   UNL A   1      41.012  30.015  32.118  1.00  0.00     0.167 HD
ATOM     54  C   UNL A   1      42.420  30.503  34.521  1.00  0.00     0.074 A 
ATOM     55  C   UNL A   1      42.812  31.101  35.780  1.00  0.00     0.031 C 
ATOM     56  C   UNL A   1      42.995  29.395  33.992  1.00  0.00     0.031 A 
BRANCH  43  57
ATOM     57  C   UNL A   1      40.474  27.577  28.654  1.00  0.00    -0.014 A 
ATOM     58  C   UNL A   1      39.728  26.391  28.752  1.00  0.00     0.009 A 
ATOM     59  C   UNL A   1      41.183  27.835  27.471  1.00  0.00     0.009 A 
ATOM     60  C   UNL A   1      39.724  25.470  27.703  1.00  0.00     0.001 A 
ATOM     61  C   UNL A   1      41.150  26.928  26.410  1.00  0.00     0.001 A 
ATOM     62  C   UNL A   1      40.430  25.742  26.532  1.00  0.00     0.000 A 
ENDBRANCH  43  57
BRANCH  44  63
ATOM     63  C   UNL A   1      40.157  34.367  35.958  1.00  0.00    -0.014 A 
ATOM     64  C   UNL A   1      40.967  35.513  35.948  1.00  0.00     0.009 A 
ATOM     65  C   UNL A   1      39.315  34.146  37.060  1.00  0.00     0.009 A 
ATOM     66  C   UNL A   1      40.956  36.401  37.027  1.00  0.00     0.001 A 
ATOM     67  C   UNL A   1      39.282  35.051  38.123  1.00  0.00     0.001 A 
ATOM     68  C   UNL A   1      40.109  36.173  38.110  1.00  0.00     0.000 A 
ENDBRANCH  44  63
BRANCH  56  69
ATOM     69  C   UNL A   1      44.148  28.780  34.740  1.00  0.00    -0.014 A 
ATOM     70  C   UNL A   1      45.468  29.213  34.543  1.00  0.00     0.009 A 
ATOM     71  C   UNL A   1      43.896  27.789  35.703  1.00  0.00     0.009 A 
ATOM     72  C   UNL A   1      46.514  28.645  35.275  1.00  0.00     0.001 A 
ATOM     73  C   UNL A   1      44.938  27.248  36.457  1.00  0.00     0.001 A 
ATOM     74  C   UNL A   1      46.247  27.669  36.236  1.00  0.00     0.000 A 
ENDBRANCH  56  69
ENDBRANCH  30  31
ENDBRANCH  23  25
ENDBRANCH  22  23
ENDBRANCH  21  22
ENDBRANCH  20  21
ENDBRANCH  19  20
ENDBRANCH  18  19
ENDBRANCH   1  18
TORSDOF 20
ENDMDL
MODEL 2
REMARK VINA RESULT:      -8.3      6.191     10.765
REMARK SMILES CSC[C@H](C(=O)OCCOCCOCCOC(=O)c1ccc(-c2c3nc(c(-c4ccccc4)c4ccc([nH]4)c(-c4ccccc4)c4nc(c(-c5ccccc5)c5ccc2[nH]5)C=C4)C=C3)cc1)c1ccccc1
REMARK SMILES IDX 11 1 10 2 9 3 8 4 7 5 5 6 6 7 4 8 3 9 2 10 1 11 67 12 68 13
REMARK SMILES IDX 72 14 69 15 71 16 70 17 12 18 13 19 14 20 15 21 16 22 17 23
REMARK SMILES IDX 18 24 19 25 20 26 66 27 21 28 65 29 22 30 23 31 24 32 59 33
REMARK SMILES IDX 25 34 64 35 58 36 60 37 26 38 63 39 57 40 56 41 27 43 49 44
REMARK SMILES IDX 34 45 48 46 35 47 38 48 47 49 61 50 36 51 37 52 46 54 62 55
REMARK SMILES IDX 39 56 28 57 29 58 33 59 30 60 32 61 31 62 50 63 51 64 55 65
REMARK SMILES IDX 52 66 54 67 53 68 40 69 41 70 45 71 42 72 44 73 43 74
REMARK H PARENT 60 42 38 53
REMARK Flexibility Score: inf
ROOT
ATOM      1  C   UNL A   1      39.620  22.183  26.462  1.00  0.00     0.188 C 
ENDROOT
BRANCH   1   2
ATOM      2  O   UNL A   1      38.786  21.635  25.446  1.00  0.00    -0.376 OA
BRANCH   2   3
ATOM      3  C   UNL A   1      37.373  21.594  25.658  1.00  0.00     0.202 C 
BRANCH   3   4
ATOM      4  C   UNL A   1      36.490  22.684  25.021  1.00  0.00     0.261 C 
BRANCH   4   5
ATOM      5  O   UNL A   1      35.596  22.158  24.030  1.00  0.00    -0.463 OA
BRANCH   5   6
ATOM      6  C   UNL A   1      34.598  22.971  23.587  1.00  0.00     0.314 C 
ATOM      7  O   UNL A   1      34.741  23.841  22.740  1.00  0.00    -0.252 OA
BRANCH   6   8
ATOM      8  C   UNL A   1      33.264  22.563  24.233  1.00  0.00     0.139 C 
BRANCH   8   9
ATOM      9  C   UNL A   1      32.216  23.678  24.050  1.00  0.00     0.089 C 
BRANCH   9  10
ATOM     10  S   UNL A   1      32.303  25.095  25.217  1.00  0.00    -0.164 SA
ATOM     11  C   UNL A   1      30.598  25.151  25.825  1.00  0.00     0.085 C 
ENDBRANCH   9  10
ENDBRANCH   8   9
BRANCH   8  12
ATOM     12  C   UNL A   1      32.841  21.164  23.758  1.00  0.00    -0.033 A 
ATOM     13  C   UNL A   1      33.043  20.058  24.613  1.00  0.00     0.004 A 
ATOM     14  C   UNL A   1      32.259  20.922  22.506  1.00  0.00     0.004 A 
ATOM     15  C   UNL A   1      32.752  18.758  24.197  1.00  0.00     0.000 A 
ATOM     16  C   UNL A   1      31.963  19.620  22.095  1.00  0.00     0.000 A 
ATOM     17  C   UNL A   1      32.226  18.537  22.931  1.00  0.00     0.000 A 
ENDBRANCH   8  12
ENDBRANCH   6   8
ENDBRANCH   5   6
ENDBRANCH   4   5
ENDBRANCH   3   4
ENDBRANCH   2   3
ENDBRANCH   1   2
BRANCH   1  18
ATOM     18  C   UNL A   1      40.767  21.333  27.045  1.00  0.00     0.188 C 
BRANCH  18  19
ATOM     19  O   UNL A   1      41.245  20.334  26.177  1.00  0.00    -0.376 OA
BRANCH  19  20
ATOM     20  C   UNL A   1      42.233  19.444  26.665  1.00  0.00     0.202 C 
BRANCH  20  21
ATOM     21  C   UNL A   1      43.139  18.682  25.677  1.00  0.00     0.261 C 
BRANCH  21  22
ATOM     22  O   UNL A   1      43.514  19.356  24.465  1.00  0.00    -0.460 OA
BRANCH  22  23
ATOM     23  C   UNL A   1      44.827  19.601  24.264  1.00  0.00     0.338 C 
ATOM     24  O   UNL A   1      45.636  18.875  23.700  1.00  0.00    -0.246 OA
BRANCH  23  25
ATOM     25  C   UNL A   1      45.082  21.011  24.636  1.00  0.00     0.060 A 
ATOM     26  C   UNL A   1      45.543  21.311  25.928  1.00  0.00     0.016 A 
ATOM     27  C   UNL A   1      44.881  22.032  23.706  1.00  0.00     0.016 A 
ATOM     28  C   UNL A   1      45.792  22.637  26.295  1.00  0.00     0.010 A 
ATOM     29  C   UNL A   1      45.106  23.358  24.084  1.00  0.00     0.010 A 
ATOM     30  C   UNL A   1      45.540  23.671  25.386  1.00  0.00    -0.014 A 
BRANCH  30  31
ATOM     31  C   UNL A   1      45.544  25.087  25.829  1.00  0.00     0.031 A 
ATOM     32  C   UNL A   1      46.851  25.831  25.826  1.00  0.00     0.074 A 
ATOM     33  C   UNL A   1      44.422  25.698  26.252  1.00  0.00     0.049 A 
ATOM     34  N   UNL A   1      47.130  27.025  26.283  1.00  0.00    -0.248 NA
ATOM     35  C   UNL A   1      47.999  25.128  25.232  1.00  0.00     0.031 C 
ATOM     36  C   UNL A   1      43.084  25.113  26.255  1.00  0.00     0.029 A 
ATOM     37  N   UNL A   1      44.245  26.953  26.782  1.00  0.00    -0.354 N 
ATOM     38  C   UNL A   1      48.487  27.206  26.050  1.00  0.00     0.074 A 
ATOM     39  C   UNL A   1      48.979  25.993  25.434  1.00  0.00     0.031 C 
ATOM     40  C   UNL A   1      42.223  26.003  26.781  1.00  0.00     0.029 A 
ATOM     41  C   UNL A   1      42.956  27.199  27.192  1.00  0.00     0.049 A 
ATOM     42  H   UNL A   1      44.970  27.613  26.862  1.00  0.00     0.167 HD
ATOM     43  C   UNL A   1      49.257  28.285  26.326  1.00  0.00     0.031 A 
ATOM     44  C   UNL A   1      42.438  28.253  27.853  1.00  0.00     0.031 A 
ATOM     45  C   UNL A   1      48.773  29.484  26.955  1.00  0.00     0.049 A 
ATOM     46  C   UNL A   1      43.334  29.403  28.237  1.00  0.00     0.074 A 
ATOM     47  C   UNL A   1      49.473  30.638  27.263  1.00  0.00     0.029 A 
ATOM     48  N   UNL A   1      47.470  29.679  27.383  1.00  0.00    -0.354 N 
ATOM     49  N   UNL A   1      44.612  29.575  27.995  1.00  0.00    -0.248 NA
ATOM     50  C   UNL A   1      42.714  30.508  28.984  1.00  0.00     0.031 C 
ATOM     51  C   UNL A   1      48.608  31.504  27.938  1.00  0.00     0.029 A 
ATOM     52  C   UNL A   1      47.352  30.921  27.982  1.00  0.00     0.049 A 
ATOM     53  H   UNL A   1      46.736  29.030  27.276  1.00  0.00     0.167 HD
ATOM     54  C   UNL A   1      44.937  30.818  28.525  1.00  0.00     0.074 A 
ATOM     55  C   UNL A   1      43.721  31.362  29.093  1.00  0.00     0.031 C 
ATOM     56  C   UNL A   1      46.134  31.454  28.539  1.00  0.00     0.031 A 
BRANCH  43  57
ATOM     57  C   UNL A   1      50.720  28.196  25.987  1.00  0.00    -0.014 A 
ATOM     58  C   UNL A   1      51.208  28.591  24.731  1.00  0.00     0.009 A 
ATOM     59  C   UNL A   1      51.629  27.739  26.955  1.00  0.00     0.009 A 
ATOM     60  C   UNL A   1      52.570  28.492  24.440  1.00  0.00     0.001 A 
ATOM     61  C   UNL A   1      52.994  27.674  26.672  1.00  0.00     0.001 A 
ATOM     62  C   UNL A   1      53.462  28.039  25.412  1.00  0.00     0.000 A 
ENDBRANCH  43  57
BRANCH  44  63
ATOM     63  C   UNL A   1      40.998  28.266  28.230  1.00  0.00    -0.014 A 
ATOM     64  C   UNL A   1      40.066  28.997  27.476  1.00  0.00     0.009 A 
ATOM     65  C   UNL A   1      40.551  27.573  29.367  1.00  0.00     0.009 A 
ATOM     66  C   UNL A   1      38.726  29.056  27.867  1.00  0.00     0.001 A 
ATOM     67  C   UNL A   1      39.205  27.607  29.737  1.00  0.00     0.001 A 
ATOM     68  C   UNL A   1      38.296  28.357  28.993  1.00  0.00     0.000 A 
ENDBRANCH  44  63
BRANCH  56  69
ATOM     69  C   UNL A   1      46.187  32.834  29.138  1.00  0.00    -0.014 A 
ATOM     70  C   UNL A   1      45.923  33.980  28.371  1.00  0.00     0.009 A 
ATOM     71  C   UNL A   1      46.448  32.981  30.510  1.00  0.00     0.009 A 
ATOM     72  C   UNL A   1      45.949  35.246  28.963  1.00  0.00     0.001 A 
ATOM     73  C   UNL A   1      46.440  34.244  31.105  1.00  0.00     0.001 A 
ATOM     74  C   UNL A   1      46.200  35.375  30.329  1.00  0.00     0.000 A 
ENDBRANCH  56  69
ENDBRANCH  30  31
ENDBRANCH  23  25
ENDBRANCH  22  23
ENDBRANCH  21  22
ENDBRANCH  20  21
ENDBRANCH  19  20
ENDBRANCH  18  19
ENDBRANCH   1  18
TORSDOF 20
ENDMDL
MODEL 3
REMARK VINA RESULT:      -8.2      6.156     10.741
REMARK SMILES CSC[C@H](C(=O)OCCOCCOCCOC(=O)c1ccc(-c2c3nc(c(-c4ccccc4)c4ccc([nH]4)c(-c4ccccc4)c4nc(c(-c5ccccc5)c5ccc2[nH]5)C=C4)C=C3)cc1)c1ccccc1
REMARK SMILES IDX 11 1 10 2 9 3 8 4 7 5 5 6 6 7 4 8 3 9 2 10 1 11 67 12 68 13
REMARK SMILES IDX 72 14 69 15 71 16 70 17 12 18 13 19 14 20 15 21 16 22 17 23
REMARK SMILES IDX 18 24 19 25 20 26 66 27 21 28 65 29 22 30 23 31 24 32 59 33
REMARK SMILES IDX 25 34 64 35 58 36 60 37 26 38 63 39 57 40 56 41 27 43 49 44
REMARK SMILES IDX 34 45 48 46 35 47 38 48 47 49 61 50 36 51 37 52 46 54 62 55
REMARK SMILES IDX 39 56 28 57 29 58 33 59 30 60 32 61 31 62 50 63 51 64 55 65
REMARK SMILES IDX 52 66 54 67 53 68 40 69 41 70 45 71 42 72 44 73 43 74
REMARK H PARENT 60 42 38 53
REMARK Flexibility Score: inf
ROOT
ATOM      1  C   UNL A   1      39.707  22.425  26.577  1.00  0.00     0.188 C 
ENDROOT
BRANCH   1   2
ATOM      2  O   UNL A   1      38.839  22.019  25.523  1.00  0.00    -0.376 OA
BRANCH   2   3
ATOM      3  C   UNL A   1      37.429  22.006  25.755  1.00  0.00     0.202 C 
BRANCH   3   4
ATOM      4  C   UNL A   1      36.535  22.991  24.978  1.00  0.00     0.261 C 
BRANCH   4   5
ATOM      5  O   UNL A   1      35.904  22.383  23.842  1.00  0.00    -0.463 OA
BRANCH   5   6
ATOM      6  C   UNL A   1      34.793  22.989  23.340  1.00  0.00     0.314 C 
ATOM      7  O   UNL A   1      34.812  23.962  22.598  1.00  0.00    -0.252 OA
BRANCH   6   8
ATOM      8  C   UNL A   1      33.536  22.210  23.760  1.00  0.00     0.139 C 
BRANCH   8   9
ATOM      9  C   UNL A   1      33.928  20.870  24.412  1.00  0.00     0.089 C 
BRANCH   9  10
ATOM     10  S   UNL A   1      32.553  19.743  24.877  1.00  0.00    -0.164 SA
ATOM     11  C   UNL A   1      33.312  18.125  24.585  1.00  0.00     0.085 C 
ENDBRANCH   9  10
ENDBRANCH   8   9
BRANCH   8  12
ATOM     12  C   UNL A   1      32.599  23.106  24.587  1.00  0.00    -0.033 A 
ATOM     13  C   UNL A   1      31.409  23.584  23.996  1.00  0.00     0.004 A 
ATOM     14  C   UNL A   1      32.865  23.479  25.911  1.00  0.00     0.004 A 
ATOM     15  C   UNL A   1      30.566  24.465  24.675  1.00  0.00     0.000 A 
ATOM     16  C   UNL A   1      32.016  24.357  26.591  1.00  0.00     0.000 A 
ATOM     17  C   UNL A   1      30.879  24.865  25.968  1.00  0.00     0.000 A 
ENDBRANCH   8  12
ENDBRANCH   6   8
ENDBRANCH   5   6
ENDBRANCH   4   5
ENDBRANCH   3   4
ENDBRANCH   2   3
ENDBRANCH   1   2
BRANCH   1  18
ATOM     18  C   UNL A   1      40.714  21.416  27.164  1.00  0.00     0.188 C 
BRANCH  18  19
ATOM     19  O   UNL A   1      41.215  20.490  26.231  1.00  0.00    -0.376 OA
BRANCH  19  20
ATOM     20  C   UNL A   1      42.194  19.564  26.670  1.00  0.00     0.202 C 
BRANCH  20  21
ATOM     21  C   UNL A   1      42.995  18.744  25.639  1.00  0.00     0.261 C 
BRANCH  21  22
ATOM     22  O   UNL A   1      43.433  19.419  24.448  1.00  0.00    -0.460 OA
BRANCH  22  23
ATOM     23  C   UNL A   1      44.758  19.633  24.299  1.00  0.00     0.338 C 
ATOM     24  O   UNL A   1      45.572  18.883  23.775  1.00  0.00    -0.246 OA
BRANCH  23  25
ATOM     25  C   UNL A   1      45.030  21.040  24.667  1.00  0.00     0.060 A 
ATOM     26  C   UNL A   1      45.508  21.336  25.954  1.00  0.00     0.016 A 
ATOM     27  C   UNL A   1      44.828  22.062  23.739  1.00  0.00     0.016 A 
ATOM     28  C   UNL A   1      45.773  22.660  26.318  1.00  0.00     0.010 A 
ATOM     29  C   UNL A   1      45.069  23.387  24.114  1.00  0.00     0.010 A 
ATOM     30  C   UNL A   1      45.520  23.696  25.410  1.00  0.00    -0.014 A 
BRANCH  30  31
ATOM     31  C   UNL A   1      45.542  25.112  25.853  1.00  0.00     0.031 A 
ATOM     32  C   UNL A   1      46.856  25.842  25.841  1.00  0.00     0.074 A 
ATOM     33  C   UNL A   1      44.430  25.735  26.283  1.00  0.00     0.049 A 
ATOM     34  N   UNL A   1      47.151  27.033  26.295  1.00  0.00    -0.248 NA
ATOM     35  C   UNL A   1      47.993  25.127  25.240  1.00  0.00     0.031 C 
ATOM     36  C   UNL A   1      43.085  25.164  26.296  1.00  0.00     0.029 A 
ATOM     37  N   UNL A   1      44.268  26.992  26.814  1.00  0.00    -0.354 N 
ATOM     38  C   UNL A   1      48.509  27.201  26.054  1.00  0.00     0.074 A 
ATOM     39  C   UNL A   1      48.984  25.982  25.435  1.00  0.00     0.031 C 
ATOM     40  C   UNL A   1      42.237  26.063  26.826  1.00  0.00     0.029 A 
ATOM     41  C   UNL A   1      42.985  27.251  27.232  1.00  0.00     0.049 A 
ATOM     42  H   UNL A   1      45.002  27.645  26.889  1.00  0.00     0.167 HD
ATOM     43  C   UNL A   1      49.291  28.272  26.324  1.00  0.00     0.031 A 
ATOM     44  C   UNL A   1      42.482  28.311  27.896  1.00  0.00     0.031 A 
ATOM     45  C   UNL A   1      48.824  29.476  26.955  1.00  0.00     0.049 A 
ATOM     46  C   UNL A   1      43.393  29.452  28.273  1.00  0.00     0.074 A 
ATOM     47  C   UNL A   1      49.538  30.623  27.258  1.00  0.00     0.029 A 
ATOM     48  N   UNL A   1      47.526  29.684  27.392  1.00  0.00    -0.354 N 
ATOM     49  N   UNL A   1      44.671  29.610  28.023  1.00  0.00    -0.248 NA
ATOM     50  C   UNL A   1      42.790  30.563  29.025  1.00  0.00     0.031 C 
ATOM     51  C   UNL A   1      48.686  31.497  27.938  1.00  0.00     0.029 A 
ATOM     52  C   UNL A   1      47.425  30.928  27.991  1.00  0.00     0.049 A 
ATOM     53  H   UNL A   1      46.784  29.043  27.291  1.00  0.00     0.167 HD
ATOM     54  C   UNL A   1      45.012  30.850  28.551  1.00  0.00     0.074 A 
ATOM     55  C   UNL A   1      43.806  31.407  29.126  1.00  0.00     0.031 C 
ATOM     56  C   UNL A   1      46.217  31.474  28.556  1.00  0.00     0.031 A 
BRANCH  43  57
ATOM     57  C   UNL A   1      50.751  28.167  25.975  1.00  0.00    -0.014 A 
ATOM     58  C   UNL A   1      51.231  28.533  24.708  1.00  0.00     0.009 A 
ATOM     59  C   UNL A   1      51.665  27.725  26.945  1.00  0.00     0.009 A 
ATOM     60  C   UNL A   1      52.590  28.421  24.408  1.00  0.00     0.001 A 
ATOM     61  C   UNL A   1      53.027  27.646  26.653  1.00  0.00     0.001 A 
ATOM     62  C   UNL A   1      53.487  27.983  25.382  1.00  0.00     0.000 A 
ENDBRANCH  43  57
BRANCH  44  63
ATOM     63  C   UNL A   1      41.045  28.339  28.282  1.00  0.00    -0.014 A 
ATOM     64  C   UNL A   1      40.611  27.735  29.472  1.00  0.00     0.009 A 
ATOM     65  C   UNL A   1      40.093  28.943  27.445  1.00  0.00     0.009 A 
ATOM     66  C   UNL A   1      39.253  27.711  29.801  1.00  0.00     0.001 A 
ATOM     67  C   UNL A   1      38.740  28.945  27.792  1.00  0.00     0.001 A 
ATOM     68  C   UNL A   1      38.320  28.320  28.964  1.00  0.00     0.000 A 
ENDBRANCH  44  63
BRANCH  56  69
ATOM     69  C   UNL A   1      46.288  32.854  29.154  1.00  0.00    -0.014 A 
ATOM     70  C   UNL A   1      46.026  34.001  28.390  1.00  0.00     0.009 A 
ATOM     71  C   UNL A   1      46.565  32.999  30.523  1.00  0.00     0.009 A 
ATOM     72  C   UNL A   1      46.069  35.267  28.980  1.00  0.00     0.001 A 
ATOM     73  C   UNL A   1      46.574  34.262  31.117  1.00  0.00     0.001 A 
ATOM     74  C   UNL A   1      46.335  35.395  30.344  1.00  0.00     0.000 A 
ENDBRANCH  56  69
ENDBRANCH  30  31
ENDBRANCH  23  25
ENDBRANCH  22  23
ENDBRANCH  21  22
ENDBRANCH  20  21
ENDBRANCH  19  20
ENDBRANCH  18  19
ENDBRANCH   1  18
TORSDOF 20
ENDMDL
