MODEL 1
REMARK VINA RESULT:     -11.0      0.000      0.000
REMARK SMILES Cc1cc(=O)c(Oc2ccc(C(=O)OCCOCCOCCOC(=O)c3ccc(-c4c5nc(c(-c6ccccc6)c6ccc([nH]6)c(-c6ccccc6)c6nc(c(-c7ccccc7)c7ccc4[nH]7)C=C6)C=C5)cc3)cc2)c(-c2ccc(S(C)(=O)=O)cc2)o1
REMARK SMILES IDX 18 1 17 2 16 3 15 4 14 5 12 6 13 7 11 8 8 9 9 10 75 11 10 12
REMARK SMILES IDX 74 13 7 14 6 15 1 16 2 17 3 18 87 19 4 20 76 21 5 22 77 23
REMARK SMILES IDX 78 24 86 25 79 26 85 27 80 28 81 29 82 30 83 31 84 32 19 33
REMARK SMILES IDX 20 34 21 35 22 36 23 37 24 38 25 39 26 40 27 41 73 42 28 43
REMARK SMILES IDX 72 44 29 45 30 46 31 47 66 48 32 49 71 50 65 51 67 52 33 53
REMARK SMILES IDX 70 54 64 55 63 56 34 58 56 59 41 60 55 61 42 62 45 63 54 64
REMARK SMILES IDX 68 65 43 66 44 67 53 69 69 70 46 71 35 72 36 73 40 74 37 75
REMARK SMILES IDX 39 76 38 77 57 78 58 79 62 80 59 81 61 82 60 83 47 84 48 85
REMARK SMILES IDX 52 86 49 87 51 88 50 89
REMARK H PARENT 67 57 45 68
REMARK Flexibility Score: inf
ROOT
ATOM      1  C   UNL A   1      39.426  21.321  25.813  1.00  0.00     0.188 C 
ENDROOT
BRANCH   1   2
ATOM      2  O   UNL A   1      38.528  22.416  25.755  1.00  0.00    -0.376 OA
BRANCH   2   3
ATOM      3  C   UNL A   1      37.330  22.194  25.048  1.00  0.00     0.202 C 
BRANCH   3   4
ATOM      4  C   UNL A   1      36.148  21.811  25.950  1.00  0.00     0.261 C 
BRANCH   4   5
ATOM      5  O   UNL A   1      34.919  21.647  25.217  1.00  0.00    -0.460 OA
BRANCH   5   6
ATOM      6  C   UNL A   1      33.835  22.265  25.759  1.00  0.00     0.338 C 
ATOM      7  O   UNL A   1      33.084  21.791  26.597  1.00  0.00    -0.246 OA
BRANCH   6   8
ATOM      8  C   UNL A   1      33.703  23.664  25.247  1.00  0.00     0.060 A 
ATOM      9  C   UNL A   1      33.625  26.364  24.464  1.00  0.00     0.127 A 
ATOM     10  C   UNL A   1      33.167  25.989  25.724  1.00  0.00     0.048 A 
ATOM     11  C   UNL A   1      34.036  25.383  23.558  1.00  0.00     0.048 A 
ATOM     12  C   UNL A   1      33.246  24.652  26.130  1.00  0.00     0.019 A 
ATOM     13  C   UNL A   1      34.065  24.035  23.943  1.00  0.00     0.019 A 
BRANCH   9  14
ATOM     14  O   UNL A   1      33.508  27.650  24.020  1.00  0.00    -0.449 OA
BRANCH  14  15
ATOM     15  C   UNL A   1      32.324  28.377  24.011  1.00  0.00     0.217 A 
ATOM     16  C   UNL A   1      28.640  30.561  23.367  1.00  0.00     0.088 C 
ATOM     17  C   UNL A   1      29.854  29.702  23.535  1.00  0.00     0.105 A 
ATOM     18  C   UNL A   1      30.157  28.708  22.698  1.00  0.00     0.098 A 
ATOM     19  O   UNL A   1      30.655  30.032  24.611  1.00  0.00    -0.457 OA
ATOM     20  C   UNL A   1      31.390  27.937  22.922  1.00  0.00     0.228 A 
ATOM     21  C   UNL A   1      31.884  29.400  24.789  1.00  0.00     0.180 A 
ATOM     22  O   UNL A   1      31.635  26.981  22.191  1.00  0.00    -0.285 OA
BRANCH  21  23
ATOM     23  C   UNL A   1      32.631  30.050  25.874  1.00  0.00     0.021 A 
ATOM     24  C   UNL A   1      33.864  29.572  26.336  1.00  0.00     0.013 A 
ATOM     25  C   UNL A   1      32.086  31.173  26.485  1.00  0.00     0.013 A 
ATOM     26  C   UNL A   1      34.577  30.265  27.337  1.00  0.00     0.021 A 
ATOM     27  C   UNL A   1      32.768  31.796  27.537  1.00  0.00     0.021 A 
ATOM     28  C   UNL A   1      34.011  31.358  27.996  1.00  0.00     0.067 A 
BRANCH  28  29
ATOM     29  S   UNL A   1      34.957  32.365  29.158  1.00  0.00     0.175 S 
ATOM     30  C   UNL A   1      35.537  33.884  28.515  1.00  0.00     0.163 C 
ATOM     31  O   UNL A   1      34.035  32.692  30.239  1.00  0.00    -0.224 OA
ATOM     32  O   UNL A   1      36.189  31.679  29.401  1.00  0.00    -0.224 OA
ENDBRANCH  28  29
ENDBRANCH  21  23
ENDBRANCH  14  15
ENDBRANCH   9  14
ENDBRANCH   6   8
ENDBRANCH   5   6
ENDBRANCH   4   5
ENDBRANCH   3   4
ENDBRANCH   2   3
ENDBRANCH   1   2
BRANCH   1  33
ATOM     33  C   UNL A   1      40.791  21.696  26.374  1.00  0.00     0.188 C 
BRANCH  33  34
ATOM     34  O   UNL A   1      41.928  21.087  25.784  1.00  0.00    -0.376 OA
BRANCH  34  35
ATOM     35  C   UNL A   1      42.065  19.752  26.301  1.00  0.00     0.202 C 
BRANCH  35  36
ATOM     36  C   UNL A   1      43.114  18.813  25.643  1.00  0.00     0.261 C 
BRANCH  36  37
ATOM     37  O   UNL A   1      43.598  19.028  24.284  1.00  0.00    -0.460 OA
BRANCH  37  38
ATOM     38  C   UNL A   1      44.902  19.341  24.039  1.00  0.00     0.338 C 
ATOM     39  O   UNL A   1      45.710  18.619  23.482  1.00  0.00    -0.246 OA
BRANCH  38  40
ATOM     40  C   UNL A   1      45.167  20.769  24.470  1.00  0.00     0.060 A 
ATOM     41  C   UNL A   1      45.653  21.071  25.744  1.00  0.00     0.016 A 
ATOM     42  C   UNL A   1      44.866  21.849  23.635  1.00  0.00     0.016 A 
ATOM     43  C   UNL A   1      45.622  22.402  26.238  1.00  0.00     0.010 A 
ATOM     44  C   UNL A   1      44.784  23.174  24.146  1.00  0.00     0.010 A 
ATOM     45  C   UNL A   1      45.078  23.466  25.488  1.00  0.00    -0.014 A 
BRANCH  45  46
ATOM     46  C   UNL A   1      45.104  24.883  26.007  1.00  0.00     0.031 A 
ATOM     47  C   UNL A   1      43.936  25.702  26.561  1.00  0.00     0.074 A 
ATOM     48  C   UNL A   1      46.305  25.484  25.978  1.00  0.00     0.049 A 
ATOM     49  N   UNL A   1      43.917  26.922  27.063  1.00  0.00    -0.248 NA
ATOM     50  C   UNL A   1      42.612  25.096  26.553  1.00  0.00     0.031 C 
ATOM     51  C   UNL A   1      47.531  24.854  25.493  1.00  0.00     0.029 A 
ATOM     52  N   UNL A   1      46.691  26.740  26.366  1.00  0.00    -0.354 N 
ATOM     53  C   UNL A   1      42.588  27.198  27.419  1.00  0.00     0.074 A 
ATOM     54  C   UNL A   1      41.823  26.033  27.062  1.00  0.00     0.031 C 
ATOM     55  C   UNL A   1      48.540  25.720  25.627  1.00  0.00     0.029 A 
ATOM     56  C   UNL A   1      48.026  26.975  26.170  1.00  0.00     0.049 A 
ATOM     57  H   UNL A   1      46.073  27.404  26.748  1.00  0.00     0.167 HD
ATOM     58  C   UNL A   1      42.045  28.307  27.991  1.00  0.00     0.031 A 
ATOM     59  C   UNL A   1      48.775  28.070  26.392  1.00  0.00     0.031 A 
ATOM     60  C   UNL A   1      42.801  29.475  28.371  1.00  0.00     0.049 A 
ATOM     61  C   UNL A   1      48.171  29.288  27.019  1.00  0.00     0.074 A 
ATOM     62  C   UNL A   1      42.356  30.605  29.041  1.00  0.00     0.029 A 
ATOM     63  N   UNL A   1      44.145  29.670  28.116  1.00  0.00    -0.354 N 
ATOM     64  N   UNL A   1      46.936  29.490  27.405  1.00  0.00    -0.248 NA
ATOM     65  C   UNL A   1      49.074  30.418  27.268  1.00  0.00     0.031 C 
ATOM     66  C   UNL A   1      43.410  31.516  29.117  1.00  0.00     0.029 A 
ATOM     67  C   UNL A   1      44.535  30.915  28.580  1.00  0.00     0.049 A 
ATOM     68  H   UNL A   1      44.737  29.020  27.671  1.00  0.00     0.167 HD
ATOM     69  C   UNL A   1      46.919  30.763  27.962  1.00  0.00     0.074 A 
ATOM     70  C   UNL A   1      48.270  31.275  27.884  1.00  0.00     0.031 C 
ATOM     71  C   UNL A   1      45.872  31.440  28.492  1.00  0.00     0.031 A 
BRANCH  58  72
ATOM     72  C   UNL A   1      40.555  28.363  28.286  1.00  0.00    -0.014 A 
ATOM     73  C   UNL A   1      39.690  29.028  27.393  1.00  0.00     0.009 A 
ATOM     74  C   UNL A   1      40.042  27.965  29.530  1.00  0.00     0.009 A 
ATOM     75  C   UNL A   1      38.371  29.327  27.752  1.00  0.00     0.001 A 
ATOM     76  C   UNL A   1      38.710  28.235  29.874  1.00  0.00     0.001 A 
ATOM     77  C   UNL A   1      37.883  28.931  28.994  1.00  0.00     0.000 A 
ENDBRANCH  58  72
BRANCH  59  78
ATOM     78  C   UNL A   1      50.216  27.994  26.051  1.00  0.00    -0.014 A 
ATOM     79  C   UNL A   1      51.156  27.634  27.032  1.00  0.00     0.009 A 
ATOM     80  C   UNL A   1      50.664  28.424  24.796  1.00  0.00     0.009 A 
ATOM     81  C   UNL A   1      52.521  27.758  26.778  1.00  0.00     0.001 A 
ATOM     82  C   UNL A   1      52.031  28.509  24.533  1.00  0.00     0.001 A 
ATOM     83  C   UNL A   1      52.957  28.194  25.529  1.00  0.00     0.000 A 
ENDBRANCH  59  78
BRANCH  71  84
ATOM     84  C   UNL A   1      46.119  32.820  29.037  1.00  0.00    -0.014 A 
ATOM     85  C   UNL A   1      46.019  33.936  28.189  1.00  0.00     0.009 A 
ATOM     86  C   UNL A   1      46.543  33.011  30.360  1.00  0.00     0.009 A 
ATOM     87  C   UNL A   1      46.353  35.211  28.651  1.00  0.00     0.001 A 
ATOM     88  C   UNL A   1      46.843  34.292  30.830  1.00  0.00     0.001 A 
ATOM     89  C   UNL A   1      46.757  35.389  29.973  1.00  0.00     0.000 A 
ENDBRANCH  71  84
ENDBRANCH  45  46
ENDBRANCH  38  40
ENDBRANCH  37  38
ENDBRANCH  36  37
ENDBRANCH  35  36
ENDBRANCH  34  35
ENDBRANCH  33  34
ENDBRANCH   1  33
TORSDOF 21
ENDMDL
MODEL 2
REMARK VINA RESULT:      -9.9      2.734      5.671
REMARK SMILES Cc1cc(=O)c(Oc2ccc(C(=O)OCCOCCOCCOC(=O)c3ccc(-c4c5nc(c(-c6ccccc6)c6ccc([nH]6)c(-c6ccccc6)c6nc(c(-c7ccccc7)c7ccc4[nH]7)C=C6)C=C5)cc3)cc2)c(-c2ccc(S(C)(=O)=O)cc2)o1
REMARK SMILES IDX 18 1 17 2 16 3 15 4 14 5 12 6 13 7 11 8 8 9 9 10 75 11 10 12
REMARK SMILES IDX 74 13 7 14 6 15 1 16 2 17 3 18 87 19 4 20 76 21 5 22 77 23
REMARK SMILES IDX 78 24 86 25 79 26 85 27 80 28 81 29 82 30 83 31 84 32 19 33
REMARK SMILES IDX 20 34 21 35 22 36 23 37 24 38 25 39 26 40 27 41 73 42 28 43
REMARK SMILES IDX 72 44 29 45 30 46 31 47 66 48 32 49 71 50 65 51 67 52 33 53
REMARK SMILES IDX 70 54 64 55 63 56 34 58 56 59 41 60 55 61 42 62 45 63 54 64
REMARK SMILES IDX 68 65 43 66 44 67 53 69 69 70 46 71 35 72 36 73 40 74 37 75
REMARK SMILES IDX 39 76 38 77 57 78 58 79 62 80 59 81 61 82 60 83 47 84 48 85
REMARK SMILES IDX 52 86 49 87 51 88 50 89
REMARK H PARENT 67 57 45 68
REMARK Flexibility Score: inf
ROOT
ATOM      1  C   UNL A   1      41.248  26.260  27.442  1.00  0.00     0.188 C 
ENDROOT
BRANCH   1   2
ATOM      2  O   UNL A   1      41.096  27.657  27.627  1.00  0.00    -0.376 OA
BRANCH   2   3
ATOM      3  C   UNL A   1      40.180  28.050  28.623  1.00  0.00     0.202 C 
BRANCH   3   4
ATOM      4  C   UNL A   1      39.724  29.510  28.494  1.00  0.00     0.261 C 
BRANCH   4   5
ATOM      5  O   UNL A   1      38.429  29.635  27.877  1.00  0.00    -0.460 OA
BRANCH   5   6
ATOM      6  C   UNL A   1      37.664  30.663  28.337  1.00  0.00     0.338 C 
ATOM      7  O   UNL A   1      38.079  31.695  28.842  1.00  0.00    -0.246 OA
BRANCH   6   8
ATOM      8  C   UNL A   1      36.214  30.409  28.080  1.00  0.00     0.060 A 
ATOM      9  C   UNL A   1      33.507  30.085  27.391  1.00  0.00     0.127 A 
ATOM     10  C   UNL A   1      33.983  31.335  27.776  1.00  0.00     0.048 A 
ATOM     11  C   UNL A   1      34.355  28.976  27.438  1.00  0.00     0.048 A 
ATOM     12  C   UNL A   1      35.340  31.505  28.076  1.00  0.00     0.019 A 
ATOM     13  C   UNL A   1      35.702  29.134  27.793  1.00  0.00     0.019 A 
BRANCH   9  14
ATOM     14  O   UNL A   1      32.179  29.876  27.147  1.00  0.00    -0.449 OA
BRANCH  14  15
ATOM     15  C   UNL A   1      31.632  29.662  25.888  1.00  0.00     0.217 A 
ATOM     16  C   UNL A   1      29.478  29.386  22.141  1.00  0.00     0.088 C 
ATOM     17  C   UNL A   1      30.233  29.611  23.413  1.00  0.00     0.105 A 
ATOM     18  C   UNL A   1      30.167  30.753  24.101  1.00  0.00     0.098 A 
ATOM     19  O   UNL A   1      30.988  28.535  23.838  1.00  0.00    -0.457 OA
ATOM     20  C   UNL A   1      30.917  30.872  25.360  1.00  0.00     0.228 A 
ATOM     21  C   UNL A   1      31.621  28.570  25.079  1.00  0.00     0.180 A 
ATOM     22  O   UNL A   1      30.909  31.944  25.959  1.00  0.00    -0.285 OA
BRANCH  21  23
ATOM     23  C   UNL A   1      32.191  27.253  25.391  1.00  0.00     0.021 A 
ATOM     24  C   UNL A   1      31.635  26.393  26.346  1.00  0.00     0.013 A 
ATOM     25  C   UNL A   1      33.344  26.847  24.728  1.00  0.00     0.013 A 
ATOM     26  C   UNL A   1      32.179  25.111  26.567  1.00  0.00     0.021 A 
ATOM     27  C   UNL A   1      33.920  25.606  25.024  1.00  0.00     0.021 A 
ATOM     28  C   UNL A   1      33.369  24.719  25.950  1.00  0.00     0.067 A 
BRANCH  28  29
ATOM     29  S   UNL A   1      34.000  23.033  26.079  1.00  0.00     0.175 S 
ATOM     30  C   UNL A   1      32.857  21.783  25.646  1.00  0.00     0.163 C 
ATOM     31  O   UNL A   1      35.096  22.947  25.123  1.00  0.00    -0.224 OA
ATOM     32  O   UNL A   1      34.191  22.762  27.471  1.00  0.00    -0.224 OA
ENDBRANCH  28  29
ENDBRANCH  21  23
ENDBRANCH  14  15
ENDBRANCH   9  14
ENDBRANCH   6   8
ENDBRANCH   5   6
ENDBRANCH   4   5
ENDBRANCH   3   4
ENDBRANCH   2   3
ENDBRANCH   1   2
BRANCH   1  33
ATOM     33  C   UNL A   1      39.940  25.492  27.582  1.00  0.00     0.188 C 
BRANCH  33  34
ATOM     34  O   UNL A   1      39.442  24.838  26.427  1.00  0.00    -0.376 OA
BRANCH  34  35
ATOM     35  C   UNL A   1      39.490  23.415  26.637  1.00  0.00     0.202 C 
BRANCH  35  36
ATOM     36  C   UNL A   1      40.399  22.872  27.775  1.00  0.00     0.261 C 
BRANCH  36  37
ATOM     37  O   UNL A   1      41.837  22.704  27.601  1.00  0.00    -0.460 OA
BRANCH  37  38
ATOM     38  C   UNL A   1      42.403  22.692  26.360  1.00  0.00     0.338 C 
ATOM     39  O   UNL A   1      42.060  21.981  25.433  1.00  0.00    -0.246 OA
BRANCH  38  40
ATOM     40  C   UNL A   1      43.457  23.777  26.278  1.00  0.00     0.060 A 
ATOM     41  C   UNL A   1      44.308  24.054  27.350  1.00  0.00     0.016 A 
ATOM     42  C   UNL A   1      43.573  24.595  25.150  1.00  0.00     0.016 A 
ATOM     43  C   UNL A   1      45.082  25.244  27.376  1.00  0.00     0.010 A 
ATOM     44  C   UNL A   1      44.307  25.812  25.197  1.00  0.00     0.010 A 
ATOM     45  C   UNL A   1      45.009  26.207  26.347  1.00  0.00    -0.014 A 
BRANCH  45  46
ATOM     46  C   UNL A   1      45.881  27.439  26.364  1.00  0.00     0.031 A 
ATOM     47  C   UNL A   1      45.448  28.894  26.555  1.00  0.00     0.074 A 
ATOM     48  C   UNL A   1      47.195  27.216  26.196  1.00  0.00     0.049 A 
ATOM     49  N   UNL A   1      46.172  29.994  26.621  1.00  0.00    -0.248 NA
ATOM     50  C   UNL A   1      44.024  29.171  26.685  1.00  0.00     0.031 C 
ATOM     51  C   UNL A   1      47.790  25.894  26.010  1.00  0.00     0.029 A 
ATOM     52  N   UNL A   1      48.256  28.081  26.162  1.00  0.00    -0.354 N 
ATOM     53  C   UNL A   1      45.280  31.063  26.798  1.00  0.00     0.074 A 
ATOM     54  C   UNL A   1      43.959  30.490  26.813  1.00  0.00     0.031 C 
ATOM     55  C   UNL A   1      49.114  26.032  25.897  1.00  0.00     0.029 A 
ATOM     56  C   UNL A   1      49.456  27.451  25.964  1.00  0.00     0.049 A 
ATOM     57  H   UNL A   1      48.165  29.055  26.269  1.00  0.00     0.167 HD
ATOM     58  C   UNL A   1      45.522  32.394  26.940  1.00  0.00     0.031 A 
ATOM     59  C   UNL A   1      50.704  27.939  25.845  1.00  0.00     0.031 A 
ATOM     60  C   UNL A   1      46.840  32.982  26.946  1.00  0.00     0.049 A 
ATOM     61  C   UNL A   1      50.964  29.405  26.000  1.00  0.00     0.074 A 
ATOM     62  C   UNL A   1      47.189  34.303  27.178  1.00  0.00     0.029 A 
ATOM     63  N   UNL A   1      48.016  32.297  26.707  1.00  0.00    -0.354 N 
ATOM     64  N   UNL A   1      50.113  30.372  26.235  1.00  0.00    -0.248 NA
ATOM     65  C   UNL A   1      52.362  29.840  25.902  1.00  0.00     0.031 C 
ATOM     66  C   UNL A   1      48.566  34.433  26.997  1.00  0.00     0.029 A 
ATOM     67  C   UNL A   1      49.086  33.175  26.748  1.00  0.00     0.049 A 
ATOM     68  H   UNL A   1      48.083  31.330  26.534  1.00  0.00     0.167 HD
ATOM     69  C   UNL A   1      50.876  31.529  26.334  1.00  0.00     0.074 A 
ATOM     70  C   UNL A   1      52.258  31.138  26.156  1.00  0.00     0.031 C 
ATOM     71  C   UNL A   1      50.462  32.799  26.555  1.00  0.00     0.031 A 
BRANCH  58  72
ATOM     72  C   UNL A   1      44.368  33.365  27.125  1.00  0.00    -0.014 A 
ATOM     73  C   UNL A   1      43.913  34.129  26.031  1.00  0.00     0.009 A 
ATOM     74  C   UNL A   1      43.884  33.689  28.402  1.00  0.00     0.009 A 
ATOM     75  C   UNL A   1      43.043  35.209  26.215  1.00  0.00     0.001 A 
ATOM     76  C   UNL A   1      42.985  34.749  28.580  1.00  0.00     0.001 A 
ATOM     77  C   UNL A   1      42.581  35.520  27.490  1.00  0.00     0.000 A 
ENDBRANCH  58  72
BRANCH  59  78
ATOM     78  C   UNL A   1      51.800  26.965  25.620  1.00  0.00    -0.014 A 
ATOM     79  C   UNL A   1      52.221  26.665  24.313  1.00  0.00     0.009 A 
ATOM     80  C   UNL A   1      52.316  26.229  26.693  1.00  0.00     0.009 A 
ATOM     81  C   UNL A   1      53.100  25.609  24.082  1.00  0.00     0.001 A 
ATOM     82  C   UNL A   1      53.227  25.199  26.461  1.00  0.00     0.001 A 
ATOM     83  C   UNL A   1      53.603  24.878  25.156  1.00  0.00     0.000 A 
ENDBRANCH  59  78
BRANCH  71  84
ATOM     84  C   UNL A   1      51.499  33.886  26.620  1.00  0.00    -0.014 A 
ATOM     85  C   UNL A   1      52.177  34.138  27.825  1.00  0.00     0.009 A 
ATOM     86  C   UNL A   1      51.738  34.726  25.522  1.00  0.00     0.009 A 
ATOM     87  C   UNL A   1      53.061  35.214  27.932  1.00  0.00     0.001 A 
ATOM     88  C   UNL A   1      52.648  35.780  25.621  1.00  0.00     0.001 A 
ATOM     89  C   UNL A   1      53.302  36.029  26.828  1.00  0.00     0.000 A 
ENDBRANCH  71  84
ENDBRANCH  45  46
ENDBRANCH  38  40
ENDBRANCH  37  38
ENDBRANCH  36  37
ENDBRANCH  35  36
ENDBRANCH  34  35
ENDBRANCH  33  34
ENDBRANCH   1  33
TORSDOF 21
ENDMDL
MODEL 3
REMARK VINA RESULT:      -9.8      4.290      7.792
REMARK SMILES Cc1cc(=O)c(Oc2ccc(C(=O)OCCOCCOCCOC(=O)c3ccc(-c4c5nc(c(-c6ccccc6)c6ccc([nH]6)c(-c6ccccc6)c6nc(c(-c7ccccc7)c7ccc4[nH]7)C=C6)C=C5)cc3)cc2)c(-c2ccc(S(C)(=O)=O)cc2)o1
REMARK SMILES IDX 18 1 17 2 16 3 15 4 14 5 12 6 13 7 11 8 8 9 9 10 75 11 10 12
REMARK SMILES IDX 74 13 7 14 6 15 1 16 2 17 3 18 87 19 4 20 76 21 5 22 77 23
REMARK SMILES IDX 78 24 86 25 79 26 85 27 80 28 81 29 82 30 83 31 84 32 19 33
REMARK SMILES IDX 20 34 21 35 22 36 23 37 24 38 25 39 26 40 27 41 73 42 28 43
REMARK SMILES IDX 72 44 29 45 30 46 31 47 66 48 32 49 71 50 65 51 67 52 33 53
REMARK SMILES IDX 70 54 64 55 63 56 34 58 56 59 41 60 55 61 42 62 45 63 54 64
REMARK SMILES IDX 68 65 43 66 44 67 53 69 69 70 46 71 35 72 36 73 40 74 37 75
REMARK SMILES IDX 39 76 38 77 57 78 58 79 62 80 59 81 61 82 60 83 47 84 48 85
REMARK SMILES IDX 52 86 49 87 51 88 50 89
REMARK H PARENT 67 57 45 68
REMARK Flexibility Score: inf
ROOT
ATOM      1  C   UNL A   1      42.424  23.913  26.005  1.00  0.00     0.188 C 
ENDROOT
BRANCH   1   2
ATOM      2  O   UNL A   1      41.342  23.535  26.840  1.00  0.00    -0.376 OA
BRANCH   2   3
ATOM      3  C   UNL A   1      40.988  24.458  27.844  1.00  0.00     0.202 C 
BRANCH   3   4
ATOM      4  C   UNL A   1      40.765  25.882  27.316  1.00  0.00     0.261 C 
BRANCH   4   5
ATOM      5  O   UNL A   1      41.195  26.894  28.246  1.00  0.00    -0.460 OA
BRANCH   5   6
ATOM      6  C   UNL A   1      40.969  28.177  27.853  1.00  0.00     0.338 C 
ATOM      7  O   UNL A   1      41.689  28.841  27.124  1.00  0.00    -0.246 OA
BRANCH   6   8
ATOM      8  C   UNL A   1      39.658  28.673  28.374  1.00  0.00     0.060 A 
ATOM      9  C   UNL A   1      37.081  29.475  29.163  1.00  0.00     0.127 A 
ATOM     10  C   UNL A   1      37.593  29.883  27.935  1.00  0.00     0.048 A 
ATOM     11  C   UNL A   1      37.887  28.745  30.040  1.00  0.00     0.048 A 
ATOM     12  C   UNL A   1      38.858  29.448  27.523  1.00  0.00     0.019 A 
ATOM     13  C   UNL A   1      39.176  28.354  29.652  1.00  0.00     0.019 A 
BRANCH   9  14
ATOM     14  O   UNL A   1      35.875  29.930  29.616  1.00  0.00    -0.449 OA
BRANCH  14  15
ATOM     15  C   UNL A   1      35.262  31.101  29.188  1.00  0.00     0.217 A 
ATOM     16  C   UNL A   1      33.387  34.934  28.448  1.00  0.00     0.088 C 
ATOM     17  C   UNL A   1      34.140  33.676  28.748  1.00  0.00     0.105 A 
ATOM     18  C   UNL A   1      35.036  33.588  29.732  1.00  0.00     0.098 A 
ATOM     19  O   UNL A   1      33.818  32.601  27.941  1.00  0.00    -0.457 OA
ATOM     20  C   UNL A   1      35.704  32.300  29.976  1.00  0.00     0.228 A 
ATOM     21  C   UNL A   1      34.346  31.340  28.214  1.00  0.00     0.180 A 
ATOM     22  O   UNL A   1      36.576  32.235  30.838  1.00  0.00    -0.285 OA
BRANCH  21  23
ATOM     23  C   UNL A   1      33.713  30.333  27.351  1.00  0.00     0.021 A 
ATOM     24  C   UNL A   1      34.247  29.052  27.165  1.00  0.00     0.013 A 
ATOM     25  C   UNL A   1      32.547  30.668  26.673  1.00  0.00     0.013 A 
ATOM     26  C   UNL A   1      33.571  28.096  26.378  1.00  0.00     0.021 A 
ATOM     27  C   UNL A   1      31.938  29.734  25.826  1.00  0.00     0.021 A 
ATOM     28  C   UNL A   1      32.433  28.442  25.647  1.00  0.00     0.067 A 
BRANCH  28  29
ATOM     29  S   UNL A   1      31.453  27.208  24.767  1.00  0.00     0.175 S 
ATOM     30  C   UNL A   1      30.116  27.850  23.842  1.00  0.00     0.163 C 
ATOM     31  O   UNL A   1      32.363  26.587  23.813  1.00  0.00    -0.224 OA
ATOM     32  O   UNL A   1      30.761  26.440  25.756  1.00  0.00    -0.224 OA
ENDBRANCH  28  29
ENDBRANCH  21  23
ENDBRANCH  14  15
ENDBRANCH   9  14
ENDBRANCH   6   8
ENDBRANCH   5   6
ENDBRANCH   4   5
ENDBRANCH   3   4
ENDBRANCH   2   3
ENDBRANCH   1   2
BRANCH   1  33
ATOM     33  C   UNL A   1      43.128  22.724  25.364  1.00  0.00     0.188 C 
BRANCH  33  34
ATOM     34  O   UNL A   1      43.580  22.876  24.029  1.00  0.00    -0.376 OA
BRANCH  34  35
ATOM     35  C   UNL A   1      44.916  22.352  23.925  1.00  0.00     0.202 C 
BRANCH  35  36
ATOM     36  C   UNL A   1      46.086  23.209  24.482  1.00  0.00     0.261 C 
BRANCH  36  37
ATOM     37  O   UNL A   1      46.033  24.667  24.504  1.00  0.00    -0.460 OA
BRANCH  37  38
ATOM     38  C   UNL A   1      46.990  25.400  25.140  1.00  0.00     0.338 C 
ATOM     39  O   UNL A   1      48.137  25.551  24.759  1.00  0.00    -0.246 OA
BRANCH  38  40
ATOM     40  C   UNL A   1      46.379  26.090  26.343  1.00  0.00     0.060 A 
ATOM     41  C   UNL A   1      45.009  26.022  26.608  1.00  0.00     0.016 A 
ATOM     42  C   UNL A   1      47.150  26.884  27.197  1.00  0.00     0.016 A 
ATOM     43  C   UNL A   1      44.406  26.895  27.551  1.00  0.00     0.010 A 
ATOM     44  C   UNL A   1      46.541  27.795  28.103  1.00  0.00     0.010 A 
ATOM     45  C   UNL A   1      45.146  27.882  28.236  1.00  0.00    -0.014 A 
BRANCH  45  46
ATOM     46  C   UNL A   1      44.498  28.764  29.276  1.00  0.00     0.031 A 
ATOM     47  C   UNL A   1      44.131  30.245  29.155  1.00  0.00     0.074 A 
ATOM     48  C   UNL A   1      44.211  28.163  30.443  1.00  0.00     0.049 A 
ATOM     49  N   UNL A   1      43.528  31.043  30.014  1.00  0.00    -0.248 NA
ATOM     50  C   UNL A   1      44.480  30.937  27.922  1.00  0.00     0.031 C 
ATOM     51  C   UNL A   1      44.481  26.757  30.734  1.00  0.00     0.029 A 
ATOM     52  N   UNL A   1      43.629  28.648  31.584  1.00  0.00    -0.354 N 
ATOM     53  C   UNL A   1      43.440  32.307  29.409  1.00  0.00     0.074 A 
ATOM     54  C   UNL A   1      44.064  32.181  28.118  1.00  0.00     0.031 C 
ATOM     55  C   UNL A   1      44.051  26.484  31.969  1.00  0.00     0.029 A 
ATOM     56  C   UNL A   1      43.512  27.703  32.569  1.00  0.00     0.049 A 
ATOM     57  H   UNL A   1      43.327  29.579  31.686  1.00  0.00     0.167 HD
ATOM     58  C   UNL A   1      42.893  33.464  29.869  1.00  0.00     0.031 A 
ATOM     59  C   UNL A   1      43.029  27.784  33.822  1.00  0.00     0.031 A 
ATOM     60  C   UNL A   1      42.248  33.602  31.152  1.00  0.00     0.049 A 
ATOM     61  C   UNL A   1      42.431  29.062  34.323  1.00  0.00     0.074 A 
ATOM     62  C   UNL A   1      41.583  34.705  31.665  1.00  0.00     0.029 A 
ATOM     63  N   UNL A   1      42.190  32.618  32.122  1.00  0.00    -0.354 N 
ATOM     64  N   UNL A   1      42.301  30.209  33.706  1.00  0.00    -0.248 NA
ATOM     65  C   UNL A   1      41.887  29.044  35.686  1.00  0.00     0.031 C 
ATOM     66  C   UNL A   1      41.196  34.417  32.974  1.00  0.00     0.029 A 
ATOM     67  C   UNL A   1      41.535  33.102  33.242  1.00  0.00     0.049 A 
ATOM     68  H   UNL A   1      42.558  31.709  32.029  1.00  0.00     0.167 HD
ATOM     69  C   UNL A   1      41.640  31.044  34.598  1.00  0.00     0.074 A 
ATOM     70  C   UNL A   1      41.377  30.265  35.788  1.00  0.00     0.031 C 
ATOM     71  C   UNL A   1      41.283  32.341  34.436  1.00  0.00     0.031 A 
BRANCH  58  72
ATOM     72  C   UNL A   1      42.920  34.717  29.009  1.00  0.00    -0.014 A 
ATOM     73  C   UNL A   1      43.955  35.659  29.178  1.00  0.00     0.009 A 
ATOM     74  C   UNL A   1      41.827  35.074  28.205  1.00  0.00     0.009 A 
ATOM     75  C   UNL A   1      43.875  36.932  28.602  1.00  0.00     0.001 A 
ATOM     76  C   UNL A   1      41.765  36.337  27.600  1.00  0.00     0.001 A 
ATOM     77  C   UNL A   1      42.778  37.270  27.814  1.00  0.00     0.000 A 
ENDBRANCH  58  72
BRANCH  59  78
ATOM     78  C   UNL A   1      43.060  26.553  34.647  1.00  0.00    -0.014 A 
ATOM     79  C   UNL A   1      44.284  26.053  35.125  1.00  0.00     0.009 A 
ATOM     80  C   UNL A   1      41.893  25.800  34.830  1.00  0.00     0.009 A 
ATOM     81  C   UNL A   1      44.345  24.795  35.721  1.00  0.00     0.001 A 
ATOM     82  C   UNL A   1      41.953  24.559  35.464  1.00  0.00     0.001 A 
ATOM     83  C   UNL A   1      43.180  24.051  35.892  1.00  0.00     0.000 A 
ENDBRANCH  59  78
BRANCH  71  84
ATOM     84  C   UNL A   1      40.568  33.029  35.566  1.00  0.00    -0.014 A 
ATOM     85  C   UNL A   1      39.163  33.019  35.616  1.00  0.00     0.009 A 
ATOM     86  C   UNL A   1      41.273  33.768  36.528  1.00  0.00     0.009 A 
ATOM     87  C   UNL A   1      38.482  33.746  36.594  1.00  0.00     0.001 A 
ATOM     88  C   UNL A   1      40.590  34.465  37.526  1.00  0.00     0.001 A 
ATOM     89  C   UNL A   1      39.196  34.462  37.553  1.00  0.00     0.000 A 
ENDBRANCH  71  84
ENDBRANCH  45  46
ENDBRANCH  38  40
ENDBRANCH  37  38
ENDBRANCH  36  37
ENDBRANCH  35  36
ENDBRANCH  34  35
ENDBRANCH  33  34
ENDBRANCH   1  33
TORSDOF 21
ENDMDL
