MODEL 1
REMARK VINA RESULT:     -10.8      0.000      0.000
REMARK SMILES CC(=O)Oc1ccc([C@H]2Nc3c(C(=O)OCCOCCOCCOC(=O)c4ccc(-c5c6nc(c(-c7ccccc7)c7ccc([nH]7)c(-c7ccccc7)c7nc(c(-c8ccccc8)c8ccc5[nH]8)C=C7)C=C6)cc4)ccc([N+](=O)[O-])c3[C@H]3C=CC[C@@H]32)cc1
REMARK SMILES IDX 19 1 18 2 17 3 16 4 15 5 13 6 14 7 12 8 9 9 10 10 86 11
REMARK SMILES IDX 11 12 82 14 85 15 81 16 83 17 84 18 75 19 77 20 76 21 8 22
REMARK SMILES IDX 5 23 6 24 88 25 7 26 87 27 4 28 2 29 1 30 3 31 78 32 79 33
REMARK SMILES IDX 80 34 20 35 21 36 22 37 23 38 24 39 25 40 26 41 27 42 28 43
REMARK SMILES IDX 74 44 29 45 73 46 30 47 31 48 32 49 67 50 33 51 72 52 66 53
REMARK SMILES IDX 68 54 34 55 71 56 65 57 64 58 35 60 57 61 42 62 56 63 43 64
REMARK SMILES IDX 46 65 55 66 69 67 44 68 45 69 54 71 70 72 47 73 36 74 37 75
REMARK SMILES IDX 41 76 38 77 40 78 39 79 58 80 59 81 63 82 60 83 62 84 61 85
REMARK SMILES IDX 48 86 49 87 53 88 50 89 52 90 51 91
REMARK H PARENT 10 13 68 59 46 70
REMARK Flexibility Score: inf
ROOT
ATOM      1  C   UNL A   1      33.816  33.922  29.702  1.00  0.00     0.188 C 
ENDROOT
BRANCH   1   2
ATOM      2  O   UNL A   1      34.695  33.881  28.596  1.00  0.00    -0.376 OA
BRANCH   2   3
ATOM      3  C   UNL A   1      34.476  32.946  27.558  1.00  0.00     0.202 C 
BRANCH   3   4
ATOM      4  C   UNL A   1      34.521  31.453  27.881  1.00  0.00     0.261 C 
BRANCH   4   5
ATOM      5  O   UNL A   1      33.597  30.652  27.132  1.00  0.00    -0.460 OA
BRANCH   5   6
ATOM      6  C   UNL A   1      33.903  29.348  26.879  1.00  0.00     0.340 C 
ATOM      7  O   UNL A   1      34.856  28.712  27.295  1.00  0.00    -0.246 OA
BRANCH   6   8
ATOM      8  C   UNL A   1      32.863  28.844  25.954  1.00  0.00     0.084 A 
ATOM      9  C   UNL A   1      32.731  25.014  26.090  1.00  0.00     0.114 C 
ATOM     10  N   UNL A   1      33.207  26.387  26.366  1.00  0.00    -0.377 N 
ATOM     11  C   UNL A   1      32.250  25.002  24.638  1.00  0.00     0.031 C 
ATOM     12  C   UNL A   1      32.522  27.479  25.746  1.00  0.00     0.060 A 
ATOM     13  H   UNL A   1      33.974  26.546  26.962  1.00  0.00     0.161 HD
ATOM     14  C   UNL A   1      30.942  25.777  24.722  1.00  0.00     0.056 C 
ATOM     15  C   UNL A   1      31.987  23.723  23.846  1.00  0.00     0.034 C 
ATOM     16  C   UNL A   1      31.396  27.215  24.865  1.00  0.00     0.061 A 
ATOM     17  C   UNL A   1      30.187  25.201  23.573  1.00  0.00    -0.022 C 
ATOM     18  C   UNL A   1      30.742  24.075  23.112  1.00  0.00    -0.030 C 
ATOM     19  C   UNL A   1      32.200  29.878  25.253  1.00  0.00     0.025 A 
ATOM     20  C   UNL A   1      30.777  28.286  24.194  1.00  0.00     0.275 A 
ATOM     21  C   UNL A   1      31.172  29.605  24.368  1.00  0.00     0.087 A 
BRANCH   9  22
ATOM     22  C   UNL A   1      33.598  23.790  26.329  1.00  0.00    -0.025 A 
ATOM     23  C   UNL A   1      34.582  21.258  25.723  1.00  0.00     0.130 A 
ATOM     24  C   UNL A   1      33.410  21.349  26.459  1.00  0.00     0.047 A 
ATOM     25  C   UNL A   1      35.338  22.390  25.411  1.00  0.00     0.047 A 
ATOM     26  C   UNL A   1      32.917  22.614  26.749  1.00  0.00     0.010 A 
ATOM     27  C   UNL A   1      34.866  23.661  25.749  1.00  0.00     0.010 A 
BRANCH  23  28
ATOM     28  O   UNL A   1      34.866  20.041  25.112  1.00  0.00    -0.427 OA
BRANCH  28  29
ATOM     29  C   UNL A   1      33.677  19.428  24.812  1.00  0.00     0.308 C 
ATOM     30  C   UNL A   1      32.909  20.252  23.840  1.00  0.00     0.139 C 
ATOM     31  O   UNL A   1      33.367  18.311  25.204  1.00  0.00    -0.252 OA
ENDBRANCH  28  29
ENDBRANCH  23  28
ENDBRANCH   9  22
BRANCH  20  32
ATOM     32  N   UNL A   1      29.729  28.074  23.225  1.00  0.00     0.063 N 
ATOM     33  O   UNL A   1      30.066  28.062  22.034  1.00  0.00    -0.258 OA
ATOM     34  O   UNL A   1      28.578  27.956  23.662  1.00  0.00    -0.258 OA
ENDBRANCH  20  32
ENDBRANCH   6   8
ENDBRANCH   5   6
ENDBRANCH   4   5
ENDBRANCH   3   4
ENDBRANCH   2   3
ENDBRANCH   1   2
BRANCH   1  35
ATOM     35  C   UNL A   1      34.336  34.163  31.139  1.00  0.00     0.188 C 
BRANCH  35  36
ATOM     36  O   UNL A   1      34.329  35.462  31.699  1.00  0.00    -0.376 OA
BRANCH  36  37
ATOM     37  C   UNL A   1      34.671  35.615  33.068  1.00  0.00     0.202 C 
BRANCH  37  38
ATOM     38  C   UNL A   1      35.288  34.434  33.834  1.00  0.00     0.261 C 
BRANCH  38  39
ATOM     39  O   UNL A   1      36.516  33.932  33.269  1.00  0.00    -0.460 OA
BRANCH  39  40
ATOM     40  C   UNL A   1      37.040  32.827  33.858  1.00  0.00     0.338 C 
ATOM     41  O   UNL A   1      36.779  32.386  34.963  1.00  0.00    -0.246 OA
BRANCH  40  42
ATOM     42  C   UNL A   1      37.880  32.081  32.893  1.00  0.00     0.060 A 
ATOM     43  C   UNL A   1      38.850  31.211  33.392  1.00  0.00     0.016 A 
ATOM     44  C   UNL A   1      37.784  32.283  31.515  1.00  0.00     0.016 A 
ATOM     45  C   UNL A   1      39.712  30.555  32.516  1.00  0.00     0.010 A 
ATOM     46  C   UNL A   1      38.706  31.660  30.647  1.00  0.00     0.010 A 
ATOM     47  C   UNL A   1      39.715  30.816  31.143  1.00  0.00    -0.014 A 
BRANCH  47  48
ATOM     48  C   UNL A   1      40.882  30.368  30.311  1.00  0.00     0.031 A 
ATOM     49  C   UNL A   1      40.842  29.000  29.661  1.00  0.00     0.074 A 
ATOM     50  C   UNL A   1      41.888  31.193  29.949  1.00  0.00     0.049 A 
ATOM     51  N   UNL A   1      41.763  28.359  28.979  1.00  0.00    -0.248 NA
ATOM     52  C   UNL A   1      39.567  28.274  29.767  1.00  0.00     0.031 C 
ATOM     53  C   UNL A   1      41.993  32.611  30.289  1.00  0.00     0.029 A 
ATOM     54  N   UNL A   1      43.004  30.956  29.173  1.00  0.00    -0.354 N 
ATOM     55  C   UNL A   1      41.175  27.168  28.563  1.00  0.00     0.074 A 
ATOM     56  C   UNL A   1      39.845  27.141  29.139  1.00  0.00     0.031 C 
ATOM     57  C   UNL A   1      43.090  33.121  29.704  1.00  0.00     0.029 A 
ATOM     58  C   UNL A   1      43.807  32.058  28.997  1.00  0.00     0.049 A 
ATOM     59  H   UNL A   1      43.207  30.075  28.780  1.00  0.00     0.167 HD
ATOM     60  C   UNL A   1      41.645  26.216  27.717  1.00  0.00     0.031 A 
ATOM     61  C   UNL A   1      44.986  32.212  28.358  1.00  0.00     0.031 A 
ATOM     62  C   UNL A   1      42.917  26.249  27.033  1.00  0.00     0.049 A 
ATOM     63  C   UNL A   1      45.603  31.063  27.591  1.00  0.00     0.074 A 
ATOM     64  C   UNL A   1      43.327  25.458  25.972  1.00  0.00     0.029 A 
ATOM     65  N   UNL A   1      43.967  27.122  27.299  1.00  0.00    -0.354 N 
ATOM     66  N   UNL A   1      45.235  29.804  27.537  1.00  0.00    -0.248 NA
ATOM     67  C   UNL A   1      46.781  31.372  26.766  1.00  0.00     0.031 C 
ATOM     68  C   UNL A   1      44.589  25.894  25.553  1.00  0.00     0.029 A 
ATOM     69  C   UNL A   1      44.928  27.014  26.298  1.00  0.00     0.049 A 
ATOM     70  H   UNL A   1      44.022  27.723  28.076  1.00  0.00     0.167 HD
ATOM     71  C   UNL A   1      46.072  29.197  26.605  1.00  0.00     0.074 A 
ATOM     72  C   UNL A   1      47.021  30.207  26.182  1.00  0.00     0.031 C 
ATOM     73  C   UNL A   1      46.004  27.952  26.062  1.00  0.00     0.031 A 
BRANCH  60  74
ATOM     74  C   UNL A   1      40.715  25.071  27.393  1.00  0.00    -0.014 A 
ATOM     75  C   UNL A   1      40.969  23.765  27.849  1.00  0.00     0.009 A 
ATOM     76  C   UNL A   1      39.547  25.313  26.656  1.00  0.00     0.009 A 
ATOM     77  C   UNL A   1      40.106  22.716  27.518  1.00  0.00     0.001 A 
ATOM     78  C   UNL A   1      38.671  24.268  26.354  1.00  0.00     0.001 A 
ATOM     79  C   UNL A   1      38.959  22.969  26.770  1.00  0.00     0.000 A 
ENDBRANCH  60  74
BRANCH  61  80
ATOM     80  C   UNL A   1      45.672  33.537  28.415  1.00  0.00    -0.014 A 
ATOM     81  C   UNL A   1      45.363  34.569  27.515  1.00  0.00     0.009 A 
ATOM     82  C   UNL A   1      46.647  33.776  29.400  1.00  0.00     0.009 A 
ATOM     83  C   UNL A   1      46.040  35.792  27.576  1.00  0.00     0.001 A 
ATOM     84  C   UNL A   1      47.291  35.013  29.485  1.00  0.00     0.001 A 
ATOM     85  C   UNL A   1      46.997  36.015  28.564  1.00  0.00     0.000 A 
ENDBRANCH  61  80
BRANCH  73  86
ATOM     86  C   UNL A   1      47.017  27.635  24.988  1.00  0.00    -0.014 A 
ATOM     87  C   UNL A   1      46.875  28.131  23.683  1.00  0.00     0.009 A 
ATOM     88  C   UNL A   1      48.113  26.802  25.276  1.00  0.00     0.009 A 
ATOM     89  C   UNL A   1      47.798  27.787  22.689  1.00  0.00     0.001 A 
ATOM     90  C   UNL A   1      49.052  26.488  24.290  1.00  0.00     0.001 A 
ATOM     91  C   UNL A   1      48.889  26.974  22.995  1.00  0.00     0.000 A 
ENDBRANCH  73  86
ENDBRANCH  47  48
ENDBRANCH  40  42
ENDBRANCH  39  40
ENDBRANCH  38  39
ENDBRANCH  37  38
ENDBRANCH  36  37
ENDBRANCH  35  36
ENDBRANCH   1  35
TORSDOF 21
ENDMDL
MODEL 2
REMARK VINA RESULT:      -9.8      4.601     10.455
REMARK SMILES CC(=O)Oc1ccc([C@H]2Nc3c(C(=O)OCCOCCOCCOC(=O)c4ccc(-c5c6nc(c(-c7ccccc7)c7ccc([nH]7)c(-c7ccccc7)c7nc(c(-c8ccccc8)c8ccc5[nH]8)C=C7)C=C6)cc4)ccc([N+](=O)[O-])c3[C@H]3C=CC[C@@H]32)cc1
REMARK SMILES IDX 19 1 18 2 17 3 16 4 15 5 13 6 14 7 12 8 9 9 10 10 86 11
REMARK SMILES IDX 11 12 82 14 85 15 81 16 83 17 84 18 75 19 77 20 76 21 8 22
REMARK SMILES IDX 5 23 6 24 88 25 7 26 87 27 4 28 2 29 1 30 3 31 78 32 79 33
REMARK SMILES IDX 80 34 20 35 21 36 22 37 23 38 24 39 25 40 26 41 27 42 28 43
REMARK SMILES IDX 74 44 29 45 73 46 30 47 31 48 32 49 67 50 33 51 72 52 66 53
REMARK SMILES IDX 68 54 34 55 71 56 65 57 64 58 35 60 57 61 42 62 56 63 43 64
REMARK SMILES IDX 46 65 55 66 69 67 44 68 45 69 54 71 70 72 47 73 36 74 37 75
REMARK SMILES IDX 41 76 38 77 40 78 39 79 58 80 59 81 63 82 60 83 62 84 61 85
REMARK SMILES IDX 48 86 49 87 53 88 50 89 52 90 51 91
REMARK H PARENT 10 13 68 59 46 70
REMARK Flexibility Score: inf
ROOT
ATOM      1  C   UNL A   1      42.867  24.658  25.018  1.00  0.00     0.188 C 
ENDROOT
BRANCH   1   2
ATOM      2  O   UNL A   1      43.297  26.000  25.120  1.00  0.00    -0.376 OA
BRANCH   2   3
ATOM      3  C   UNL A   1      42.408  26.988  25.602  1.00  0.00     0.202 C 
BRANCH   3   4
ATOM      4  C   UNL A   1      40.995  26.579  26.017  1.00  0.00     0.261 C 
BRANCH   4   5
ATOM      5  O   UNL A   1      40.799  26.459  27.432  1.00  0.00    -0.460 OA
BRANCH   5   6
ATOM      6  C   UNL A   1      39.709  25.786  27.896  1.00  0.00     0.340 C 
ATOM      7  O   UNL A   1      38.783  26.229  28.554  1.00  0.00    -0.246 OA
BRANCH   6   8
ATOM      8  C   UNL A   1      39.876  24.375  27.477  1.00  0.00     0.084 A 
ATOM      9  C   UNL A   1      36.972  23.328  25.203  1.00  0.00     0.114 C 
ATOM     10  N   UNL A   1      37.777  24.179  26.106  1.00  0.00    -0.377 N 
ATOM     11  C   UNL A   1      37.134  21.891  25.696  1.00  0.00     0.031 C 
ATOM     12  C   UNL A   1      39.000  23.649  26.625  1.00  0.00     0.060 A 
ATOM     13  H   UNL A   1      37.479  25.086  26.345  1.00  0.00     0.161 HD
ATOM     14  C   UNL A   1      38.555  21.555  25.261  1.00  0.00     0.056 C 
ATOM     15  C   UNL A   1      36.228  20.740  25.262  1.00  0.00     0.034 C 
ATOM     16  C   UNL A   1      39.412  22.303  26.261  1.00  0.00     0.061 A 
ATOM     17  C   UNL A   1      38.471  20.075  25.105  1.00  0.00    -0.022 C 
ATOM     18  C   UNL A   1      37.208  19.636  25.083  1.00  0.00    -0.030 C 
ATOM     19  C   UNL A   1      41.033  23.772  28.021  1.00  0.00     0.025 A 
ATOM     20  C   UNL A   1      40.574  21.756  26.836  1.00  0.00     0.275 A 
ATOM     21  C   UNL A   1      41.378  22.468  27.716  1.00  0.00     0.087 A 
BRANCH   9  22
ATOM     22  C   UNL A   1      35.500  23.592  24.936  1.00  0.00    -0.025 A 
ATOM     23  C   UNL A   1      33.233  25.196  24.753  1.00  0.00     0.130 A 
ATOM     24  C   UNL A   1      33.560  24.658  25.988  1.00  0.00     0.047 A 
ATOM     25  C   UNL A   1      33.926  24.837  23.594  1.00  0.00     0.047 A 
ATOM     26  C   UNL A   1      34.697  23.868  26.077  1.00  0.00     0.010 A 
ATOM     27  C   UNL A   1      35.040  24.000  23.677  1.00  0.00     0.010 A 
BRANCH  23  28
ATOM     28  O   UNL A   1      32.349  26.270  24.731  1.00  0.00    -0.427 OA
BRANCH  28  29
ATOM     29  C   UNL A   1      33.083  27.427  24.789  1.00  0.00     0.308 C 
ATOM     30  C   UNL A   1      32.210  28.565  25.181  1.00  0.00     0.139 C 
ATOM     31  O   UNL A   1      34.298  27.471  24.651  1.00  0.00    -0.252 OA
ENDBRANCH  28  29
ENDBRANCH  23  28
ENDBRANCH   9  22
BRANCH  20  32
ATOM     32  N   UNL A   1      40.971  20.389  26.598  1.00  0.00     0.063 N 
ATOM     33  O   UNL A   1      40.604  19.550  27.432  1.00  0.00    -0.258 OA
ATOM     34  O   UNL A   1      41.672  20.175  25.602  1.00  0.00    -0.258 OA
ENDBRANCH  20  32
ENDBRANCH   6   8
ENDBRANCH   5   6
ENDBRANCH   4   5
ENDBRANCH   3   4
ENDBRANCH   2   3
ENDBRANCH   1   2
BRANCH   1  35
ATOM     35  C   UNL A   1      43.876  23.495  24.872  1.00  0.00     0.188 C 
BRANCH  35  36
ATOM     36  O   UNL A   1      44.976  23.601  23.989  1.00  0.00    -0.376 OA
BRANCH  36  37
ATOM     37  C   UNL A   1      46.286  23.439  24.510  1.00  0.00     0.202 C 
BRANCH  37  38
ATOM     38  C   UNL A   1      47.010  24.643  25.132  1.00  0.00     0.261 C 
BRANCH  38  39
ATOM     39  O   UNL A   1      46.201  25.429  26.028  1.00  0.00    -0.460 OA
BRANCH  39  40
ATOM     40  C   UNL A   1      46.065  24.951  27.291  1.00  0.00     0.338 C 
ATOM     41  O   UNL A   1      46.648  24.003  27.788  1.00  0.00    -0.246 OA
BRANCH  40  42
ATOM     42  C   UNL A   1      45.214  25.858  28.095  1.00  0.00     0.060 A 
ATOM     43  C   UNL A   1      45.466  27.229  28.037  1.00  0.00     0.016 A 
ATOM     44  C   UNL A   1      44.232  25.378  28.963  1.00  0.00     0.016 A 
ATOM     45  C   UNL A   1      44.739  28.105  28.842  1.00  0.00     0.010 A 
ATOM     46  C   UNL A   1      43.549  26.270  29.816  1.00  0.00     0.010 A 
ATOM     47  C   UNL A   1      43.826  27.649  29.796  1.00  0.00    -0.014 A 
BRANCH  47  48
ATOM     48  C   UNL A   1      43.351  28.589  30.867  1.00  0.00     0.031 A 
ATOM     49  C   UNL A   1      42.109  29.422  30.618  1.00  0.00     0.074 A 
ATOM     50  C   UNL A   1      43.856  28.595  32.119  1.00  0.00     0.049 A 
ATOM     51  N   UNL A   1      41.563  30.366  31.350  1.00  0.00    -0.248 NA
ATOM     52  C   UNL A   1      41.364  29.116  29.387  1.00  0.00     0.031 C 
ATOM     53  C   UNL A   1      44.906  27.709  32.620  1.00  0.00     0.029 A 
ATOM     54  N   UNL A   1      43.518  29.359  33.216  1.00  0.00    -0.354 N 
ATOM     55  C   UNL A   1      40.406  30.752  30.678  1.00  0.00     0.074 A 
ATOM     56  C   UNL A   1      40.376  29.995  29.441  1.00  0.00     0.031 C 
ATOM     57  C   UNL A   1      45.104  27.960  33.925  1.00  0.00     0.029 A 
ATOM     58  C   UNL A   1      44.244  29.066  34.347  1.00  0.00     0.049 A 
ATOM     59  H   UNL A   1      42.819  30.053  33.192  1.00  0.00     0.167 HD
ATOM     60  C   UNL A   1      39.411  31.587  31.071  1.00  0.00     0.031 A 
ATOM     61  C   UNL A   1      44.240  29.618  35.579  1.00  0.00     0.031 A 
ATOM     62  C   UNL A   1      39.341  32.279  32.337  1.00  0.00     0.049 A 
ATOM     63  C   UNL A   1      43.253  30.709  35.933  1.00  0.00     0.074 A 
ATOM     64  C   UNL A   1      38.244  32.917  32.892  1.00  0.00     0.029 A 
ATOM     65  N   UNL A   1      40.374  32.401  33.261  1.00  0.00    -0.354 N 
ATOM     66  N   UNL A   1      42.418  31.360  35.158  1.00  0.00    -0.248 NA
ATOM     67  C   UNL A   1      43.187  31.112  37.346  1.00  0.00     0.031 C 
ATOM     68  C   UNL A   1      38.589  33.363  34.173  1.00  0.00     0.029 A 
ATOM     69  C   UNL A   1      39.876  32.926  34.450  1.00  0.00     0.049 A 
ATOM     70  H   UNL A   1      41.313  32.155  33.099  1.00  0.00     0.167 HD
ATOM     71  C   UNL A   1      41.666  32.175  36.000  1.00  0.00     0.074 A 
ATOM     72  C   UNL A   1      42.202  31.998  37.334  1.00  0.00     0.031 C 
ATOM     73  C   UNL A   1      40.564  32.921  35.723  1.00  0.00     0.031 A 
BRANCH  60  74
ATOM     74  C   UNL A   1      38.231  31.729  30.139  1.00  0.00    -0.014 A 
ATOM     75  C   UNL A   1      37.246  30.730  30.043  1.00  0.00     0.009 A 
ATOM     76  C   UNL A   1      38.085  32.897  29.377  1.00  0.00     0.009 A 
ATOM     77  C   UNL A   1      36.174  30.872  29.156  1.00  0.00     0.001 A 
ATOM     78  C   UNL A   1      36.996  33.049  28.515  1.00  0.00     0.001 A 
ATOM     79  C   UNL A   1      36.052  32.031  28.393  1.00  0.00     0.000 A 
ENDBRANCH  60  74
BRANCH  61  80
ATOM     80  C   UNL A   1      45.224  29.132  36.592  1.00  0.00    -0.014 A 
ATOM     81  C   UNL A   1      44.925  28.073  37.464  1.00  0.00     0.009 A 
ATOM     82  C   UNL A   1      46.492  29.733  36.677  1.00  0.00     0.009 A 
ATOM     83  C   UNL A   1      45.857  27.655  38.421  1.00  0.00     0.001 A 
ATOM     84  C   UNL A   1      47.436  29.284  37.604  1.00  0.00     0.001 A 
ATOM     85  C   UNL A   1      47.113  28.256  38.485  1.00  0.00     0.000 A 
ENDBRANCH  61  80
BRANCH  73  86
ATOM     86  C   UNL A   1      39.916  33.618  36.897  1.00  0.00    -0.014 A 
ATOM     87  C   UNL A   1      39.084  32.923  37.788  1.00  0.00     0.009 A 
ATOM     88  C   UNL A   1      40.116  34.995  37.098  1.00  0.00     0.009 A 
ATOM     89  C   UNL A   1      38.454  33.595  38.841  1.00  0.00     0.001 A 
ATOM     90  C   UNL A   1      39.514  35.658  38.171  1.00  0.00     0.001 A 
ATOM     91  C   UNL A   1      38.677  34.958  39.037  1.00  0.00     0.000 A 
ENDBRANCH  73  86
ENDBRANCH  47  48
ENDBRANCH  40  42
ENDBRANCH  39  40
ENDBRANCH  38  39
ENDBRANCH  37  38
ENDBRANCH  36  37
ENDBRANCH  35  36
ENDBRANCH   1  35
TORSDOF 21
ENDMDL
MODEL 3
REMARK VINA RESULT:      -9.8      3.966     10.574
REMARK SMILES CC(=O)Oc1ccc([C@H]2Nc3c(C(=O)OCCOCCOCCOC(=O)c4ccc(-c5c6nc(c(-c7ccccc7)c7ccc([nH]7)c(-c7ccccc7)c7nc(c(-c8ccccc8)c8ccc5[nH]8)C=C7)C=C6)cc4)ccc([N+](=O)[O-])c3[C@H]3C=CC[C@@H]32)cc1
REMARK SMILES IDX 19 1 18 2 17 3 16 4 15 5 13 6 14 7 12 8 9 9 10 10 86 11
REMARK SMILES IDX 11 12 82 14 85 15 81 16 83 17 84 18 75 19 77 20 76 21 8 22
REMARK SMILES IDX 5 23 6 24 88 25 7 26 87 27 4 28 2 29 1 30 3 31 78 32 79 33
REMARK SMILES IDX 80 34 20 35 21 36 22 37 23 38 24 39 25 40 26 41 27 42 28 43
REMARK SMILES IDX 74 44 29 45 73 46 30 47 31 48 32 49 67 50 33 51 72 52 66 53
REMARK SMILES IDX 68 54 34 55 71 56 65 57 64 58 35 60 57 61 42 62 56 63 43 64
REMARK SMILES IDX 46 65 55 66 69 67 44 68 45 69 54 71 70 72 47 73 36 74 37 75
REMARK SMILES IDX 41 76 38 77 40 78 39 79 58 80 59 81 63 82 60 83 62 84 61 85
REMARK SMILES IDX 48 86 49 87 53 88 50 89 52 90 51 91
REMARK H PARENT 10 13 68 59 46 70
REMARK Flexibility Score: inf
ROOT
ATOM      1  C   UNL A   1      40.928  23.292  26.850  1.00  0.00     0.188 C 
ENDROOT
BRANCH   1   2
ATOM      2  O   UNL A   1      39.528  23.488  26.890  1.00  0.00    -0.376 OA
BRANCH   2   3
ATOM      3  C   UNL A   1      39.007  24.775  27.158  1.00  0.00     0.202 C 
BRANCH   3   4
ATOM      4  C   UNL A   1      39.712  25.665  28.180  1.00  0.00     0.261 C 
BRANCH   4   5
ATOM      5  O   UNL A   1      39.102  26.948  28.376  1.00  0.00    -0.460 OA
BRANCH   5   6
ATOM      6  C   UNL A   1      39.622  28.034  27.737  1.00  0.00     0.340 C 
ATOM      7  O   UNL A   1      40.347  28.047  26.757  1.00  0.00    -0.246 OA
BRANCH   6   8
ATOM      8  C   UNL A   1      39.168  29.224  28.493  1.00  0.00     0.084 A 
ATOM      9  C   UNL A   1      35.363  29.594  28.194  1.00  0.00     0.114 C 
ATOM     10  N   UNL A   1      36.717  29.051  27.954  1.00  0.00    -0.377 N 
ATOM     11  C   UNL A   1      35.520  31.106  28.355  1.00  0.00     0.031 C 
ATOM     12  C   UNL A   1      37.823  29.669  28.618  1.00  0.00     0.060 A 
ATOM     13  H   UNL A   1      36.855  28.283  27.353  1.00  0.00     0.161 HD
ATOM     14  C   UNL A   1      36.155  31.223  29.734  1.00  0.00     0.056 C 
ATOM     15  C   UNL A   1      34.353  32.089  28.292  1.00  0.00     0.034 C 
ATOM     16  C   UNL A   1      37.591  30.806  29.495  1.00  0.00     0.061 A 
ATOM     17  C   UNL A   1      35.689  32.573  30.158  1.00  0.00    -0.022 C 
ATOM     18  C   UNL A   1      34.696  33.034  29.389  1.00  0.00    -0.030 C 
ATOM     19  C   UNL A   1      40.230  29.923  29.112  1.00  0.00     0.025 A 
ATOM     20  C   UNL A   1      38.689  31.461  30.082  1.00  0.00     0.275 A 
ATOM     21  C   UNL A   1      39.999  31.042  29.892  1.00  0.00     0.087 A 
BRANCH   9  22
ATOM     22  C   UNL A   1      34.199  29.319  27.257  1.00  0.00    -0.025 A 
ATOM     23  C   UNL A   1      32.603  27.703  25.648  1.00  0.00     0.130 A 
ATOM     24  C   UNL A   1      33.737  28.272  25.089  1.00  0.00     0.047 A 
ATOM     25  C   UNL A   1      32.179  28.035  26.937  1.00  0.00     0.047 A 
ATOM     26  C   UNL A   1      34.536  29.069  25.898  1.00  0.00     0.010 A 
ATOM     27  C   UNL A   1      32.958  28.878  27.734  1.00  0.00     0.010 A 
BRANCH  23  28
ATOM     28  O   UNL A   1      32.028  26.626  24.982  1.00  0.00    -0.427 OA
BRANCH  28  29
ATOM     29  C   UNL A   1      32.728  25.496  25.316  1.00  0.00     0.308 C 
ATOM     30  C   UNL A   1      31.921  24.649  26.236  1.00  0.00     0.139 C 
ATOM     31  O   UNL A   1      33.806  25.190  24.824  1.00  0.00    -0.252 OA
ENDBRANCH  28  29
ENDBRANCH  23  28
ENDBRANCH   9  22
BRANCH  20  32
ATOM     32  N   UNL A   1      38.529  32.659  30.871  1.00  0.00     0.063 N 
ATOM     33  O   UNL A   1      38.261  32.505  32.070  1.00  0.00    -0.258 OA
ATOM     34  O   UNL A   1      38.637  33.738  30.277  1.00  0.00    -0.258 OA
ENDBRANCH  20  32
ENDBRANCH   6   8
ENDBRANCH   5   6
ENDBRANCH   4   5
ENDBRANCH   3   4
ENDBRANCH   2   3
ENDBRANCH   1   2
BRANCH   1  35
ATOM     35  C   UNL A   1      41.545  21.979  26.314  1.00  0.00     0.188 C 
BRANCH  35  36
ATOM     36  O   UNL A   1      42.560  22.009  25.329  1.00  0.00    -0.376 OA
BRANCH  36  37
ATOM     37  C   UNL A   1      43.772  22.686  25.620  1.00  0.00     0.202 C 
BRANCH  37  38
ATOM     38  C   UNL A   1      44.566  23.347  24.482  1.00  0.00     0.261 C 
BRANCH  38  39
ATOM     39  O   UNL A   1      44.612  24.786  24.544  1.00  0.00    -0.460 OA
BRANCH  39  40
ATOM     40  C   UNL A   1      45.695  25.327  25.158  1.00  0.00     0.338 C 
ATOM     41  O   UNL A   1      46.868  25.113  24.909  1.00  0.00    -0.246 OA
BRANCH  40  42
ATOM     42  C   UNL A   1      45.274  26.390  26.100  1.00  0.00     0.060 A 
ATOM     43  C   UNL A   1      46.245  26.983  26.907  1.00  0.00     0.016 A 
ATOM     44  C   UNL A   1      43.935  26.751  26.260  1.00  0.00     0.016 A 
ATOM     45  C   UNL A   1      45.873  27.928  27.862  1.00  0.00     0.010 A 
ATOM     46  C   UNL A   1      43.569  27.662  27.274  1.00  0.00     0.010 A 
ATOM     47  C   UNL A   1      44.535  28.233  28.121  1.00  0.00    -0.014 A 
BRANCH  47  48
ATOM     48  C   UNL A   1      44.178  28.966  29.382  1.00  0.00     0.031 A 
ATOM     49  C   UNL A   1      43.930  30.461  29.320  1.00  0.00     0.074 A 
ATOM     50  C   UNL A   1      43.875  28.339  30.539  1.00  0.00     0.049 A 
ATOM     51  N   UNL A   1      43.703  31.322  30.285  1.00  0.00    -0.248 NA
ATOM     52  C   UNL A   1      43.901  31.053  27.974  1.00  0.00     0.031 C 
ATOM     53  C   UNL A   1      43.837  26.892  30.739  1.00  0.00     0.029 A 
ATOM     54  N   UNL A   1      43.501  28.853  31.763  1.00  0.00    -0.354 N 
ATOM     55  C   UNL A   1      43.487  32.548  29.663  1.00  0.00     0.074 A 
ATOM     56  C   UNL A   1      43.691  32.333  28.244  1.00  0.00     0.031 C 
ATOM     57  C   UNL A   1      43.435  26.635  31.996  1.00  0.00     0.029 A 
ATOM     58  C   UNL A   1      43.245  27.895  32.716  1.00  0.00     0.049 A 
ATOM     59  H   UNL A   1      43.424  29.819  31.939  1.00  0.00     0.167 HD
ATOM     60  C   UNL A   1      43.075  33.729  30.191  1.00  0.00     0.031 A 
ATOM     61  C   UNL A   1      42.909  27.998  34.019  1.00  0.00     0.031 A 
ATOM     62  C   UNL A   1      42.753  33.966  31.579  1.00  0.00     0.049 A 
ATOM     63  C   UNL A   1      42.662  29.353  34.647  1.00  0.00     0.074 A 
ATOM     64  C   UNL A   1      42.084  35.053  32.118  1.00  0.00     0.029 A 
ATOM     65  N   UNL A   1      43.033  33.113  32.641  1.00  0.00    -0.354 N 
ATOM     66  N   UNL A   1      42.856  30.551  34.147  1.00  0.00    -0.248 NA
ATOM     67  C   UNL A   1      42.110  29.362  36.011  1.00  0.00     0.031 C 
ATOM     68  C   UNL A   1      41.897  34.827  33.487  1.00  0.00     0.029 A 
ATOM     69  C   UNL A   1      42.375  33.559  33.784  1.00  0.00     0.049 A 
ATOM     70  H   UNL A   1      43.608  32.316  32.593  1.00  0.00     0.167 HD
ATOM     71  C   UNL A   1      42.365  31.448  35.092  1.00  0.00     0.074 A 
ATOM     72  C   UNL A   1      41.941  30.658  36.230  1.00  0.00     0.031 C 
ATOM     73  C   UNL A   1      42.177  32.791  34.994  1.00  0.00     0.031 A 
BRANCH  60  74
ATOM     74  C   UNL A   1      42.845  34.866  29.224  1.00  0.00    -0.014 A 
ATOM     75  C   UNL A   1      41.561  35.167  28.735  1.00  0.00     0.009 A 
ATOM     76  C   UNL A   1      43.923  35.670  28.828  1.00  0.00     0.009 A 
ATOM     77  C   UNL A   1      41.374  36.209  27.822  1.00  0.00     0.001 A 
ATOM     78  C   UNL A   1      43.728  36.730  27.940  1.00  0.00     0.001 A 
ATOM     79  C   UNL A   1      42.459  36.988  27.425  1.00  0.00     0.000 A 
ENDBRANCH  60  74
BRANCH  61  80
ATOM     80  C   UNL A   1      42.781  26.754  34.835  1.00  0.00    -0.014 A 
ATOM     81  C   UNL A   1      41.542  26.122  35.028  1.00  0.00     0.009 A 
ATOM     82  C   UNL A   1      43.925  26.181  35.418  1.00  0.00     0.009 A 
ATOM     83  C   UNL A   1      41.448  24.970  35.818  1.00  0.00     0.001 A 
ATOM     84  C   UNL A   1      43.833  25.008  36.171  1.00  0.00     0.001 A 
ATOM     85  C   UNL A   1      42.593  24.411  36.382  1.00  0.00     0.000 A 
ENDBRANCH  61  80
BRANCH  73  86
ATOM     86  C   UNL A   1      41.522  33.462  36.178  1.00  0.00    -0.014 A 
ATOM     87  C   UNL A   1      40.126  33.579  36.268  1.00  0.00     0.009 A 
ATOM     88  C   UNL A   1      42.310  34.013  37.203  1.00  0.00     0.009 A 
ATOM     89  C   UNL A   1      39.538  34.247  37.348  1.00  0.00     0.001 A 
ATOM     90  C   UNL A   1      41.720  34.649  38.298  1.00  0.00     0.001 A 
ATOM     91  C   UNL A   1      40.335  34.773  38.365  1.00  0.00     0.000 A 
ENDBRANCH  73  86
ENDBRANCH  47  48
ENDBRANCH  40  42
ENDBRANCH  39  40
ENDBRANCH  38  39
ENDBRANCH  37  38
ENDBRANCH  36  37
ENDBRANCH  35  36
ENDBRANCH   1  35
TORSDOF 21
ENDMDL
