MODEL 1
REMARK VINA RESULT:     -10.1      0.000      0.000
REMARK SMILES C[NH+]1CCC(NC(=O)N[C@H]2C=C[C@H](C(=O)OCCOCCOCCOC(=O)c3ccc(-c4c5nc(c(-c6ccccc6)c6ccc([nH]6)c(-c6ccccc6)c6nc(c(-c7ccccc7)c7ccc4[nH]7)C=C6)C=C5)cc3)C2)CC1
REMARK SMILES IDX 20 1 19 2 18 3 17 4 16 5 14 6 15 7 13 8 10 9 11 10 76 11
REMARK SMILES IDX 12 12 9 13 6 14 7 15 8 17 5 19 1 20 2 21 3 22 78 23 4 25
REMARK SMILES IDX 77 26 21 27 22 28 23 29 24 30 25 31 26 32 27 33 28 34 29 35
REMARK SMILES IDX 75 36 30 37 74 38 31 39 32 40 33 41 68 42 34 43 73 44 67 45
REMARK SMILES IDX 69 46 35 47 72 48 66 49 65 50 36 52 58 53 43 54 57 55 44 56
REMARK SMILES IDX 47 57 56 58 70 59 45 60 46 61 55 63 71 64 48 65 37 66 38 67
REMARK SMILES IDX 42 68 39 69 41 70 40 71 59 72 60 73 64 74 61 75 63 76 62 77
REMARK SMILES IDX 49 78 50 79 54 80 51 81 53 82 52 83
REMARK H PARENT 6 16 9 18 2 24 69 51 47 62
REMARK Flexibility Score: inf
ROOT
ATOM      1  C   UNL A   1      40.066  22.093  26.345  1.00  0.00     0.188 C 
ENDROOT
BRANCH   1   2
ATOM      2  O   UNL A   1      39.003  21.531  25.603  1.00  0.00    -0.376 OA
BRANCH   2   3
ATOM      3  C   UNL A   1      37.717  22.103  25.773  1.00  0.00     0.202 C 
BRANCH   3   4
ATOM      4  C   UNL A   1      37.444  23.445  25.087  1.00  0.00     0.261 C 
BRANCH   4   5
ATOM      5  O   UNL A   1      36.059  23.800  24.956  1.00  0.00    -0.463 OA
BRANCH   5   6
ATOM      6  C   UNL A   1      35.321  23.372  23.890  1.00  0.00     0.312 C 
ATOM      7  O   UNL A   1      35.752  23.155  22.769  1.00  0.00    -0.252 OA
BRANCH   6   8
ATOM      8  C   UNL A   1      33.888  23.191  24.388  1.00  0.00     0.124 C 
ATOM      9  C   UNL A   1      32.587  22.023  26.119  1.00  0.00     0.107 C 
ATOM     10  C   UNL A   1      32.330  21.471  24.761  1.00  0.00    -0.006 C 
ATOM     11  C   UNL A   1      33.700  23.059  25.915  1.00  0.00     0.048 C 
ATOM     12  C   UNL A   1      33.101  22.047  23.829  1.00  0.00    -0.014 C 
BRANCH   9  13
ATOM     13  N   UNL A   1      31.367  22.387  26.836  1.00  0.00    -0.332 N 
ATOM     14  N   UNL A   1      30.085  24.210  25.983  1.00  0.00    -0.335 N 
ATOM     15  C   UNL A   1      30.306  23.193  26.817  1.00  0.00     0.315 C 
ATOM     16  H   UNL A   1      29.171  24.573  26.034  1.00  0.00     0.165 HD
ATOM     17  O   UNL A   1      29.434  22.968  27.663  1.00  0.00    -0.249 OA
ATOM     18  H   UNL A   1      31.307  21.822  27.640  1.00  0.00     0.165 HD
BRANCH  14  19
ATOM     19  C   UNL A   1      30.920  24.881  25.021  1.00  0.00     0.095 C 
ATOM     20  C   UNL A   1      33.045  27.095  22.163  1.00  0.00     0.332 C 
ATOM     21  N   UNL A   1      31.870  26.718  22.964  1.00  0.00    -0.337 N 
ATOM     22  C   UNL A   1      32.172  26.935  24.386  1.00  0.00     0.264 C 
ATOM     23  C   UNL A   1      31.459  25.348  22.624  1.00  0.00     0.264 C 
ATOM     24  H   UNL A   1      31.064  27.306  22.751  1.00  0.00     0.347 HD
ATOM     25  C   UNL A   1      31.126  26.356  25.340  1.00  0.00     0.086 C 
ATOM     26  C   UNL A   1      30.433  24.743  23.587  1.00  0.00     0.086 C 
ENDBRANCH  14  19
ENDBRANCH   9  13
ENDBRANCH   6   8
ENDBRANCH   5   6
ENDBRANCH   4   5
ENDBRANCH   3   4
ENDBRANCH   2   3
ENDBRANCH   1   2
BRANCH   1  27
ATOM     27  C   UNL A   1      40.754  21.082  27.284  1.00  0.00     0.188 C 
BRANCH  27  28
ATOM     28  O   UNL A   1      41.993  20.493  26.923  1.00  0.00    -0.376 OA
BRANCH  28  29
ATOM     29  C   UNL A   1      42.034  19.577  25.838  1.00  0.00     0.202 C 
BRANCH  29  30
ATOM     30  C   UNL A   1      43.161  18.528  25.748  1.00  0.00     0.261 C 
BRANCH  30  31
ATOM     31  O   UNL A   1      44.493  19.030  25.523  1.00  0.00    -0.460 OA
BRANCH  31  32
ATOM     32  C   UNL A   1      44.684  19.746  24.385  1.00  0.00     0.338 C 
ATOM     33  O   UNL A   1      44.484  19.377  23.244  1.00  0.00    -0.246 OA
BRANCH  32  34
ATOM     34  C   UNL A   1      45.002  21.156  24.725  1.00  0.00     0.060 A 
ATOM     35  C   UNL A   1      45.427  21.450  26.030  1.00  0.00     0.016 A 
ATOM     36  C   UNL A   1      44.847  22.185  23.795  1.00  0.00     0.016 A 
ATOM     37  C   UNL A   1      45.680  22.771  26.415  1.00  0.00     0.010 A 
ATOM     38  C   UNL A   1      45.074  23.512  24.190  1.00  0.00     0.010 A 
ATOM     39  C   UNL A   1      45.467  23.816  25.509  1.00  0.00    -0.014 A 
BRANCH  39  40
ATOM     40  C   UNL A   1      45.480  25.228  25.980  1.00  0.00     0.031 A 
ATOM     41  C   UNL A   1      46.787  25.975  25.987  1.00  0.00     0.074 A 
ATOM     42  C   UNL A   1      44.358  25.846  26.396  1.00  0.00     0.049 A 
ATOM     43  N   UNL A   1      47.055  27.178  26.431  1.00  0.00    -0.248 NA
ATOM     44  C   UNL A   1      47.948  25.271  25.420  1.00  0.00     0.031 C 
ATOM     45  C   UNL A   1      43.018  25.263  26.398  1.00  0.00     0.029 A 
ATOM     46  N   UNL A   1      44.179  27.105  26.918  1.00  0.00    -0.354 N 
ATOM     47  C   UNL A   1      48.416  27.364  26.218  1.00  0.00     0.074 A 
ATOM     48  C   UNL A   1      48.920  26.148  25.618  1.00  0.00     0.031 C 
ATOM     49  C   UNL A   1      42.157  26.156  26.919  1.00  0.00     0.029 A 
ATOM     50  C   UNL A   1      42.890  27.355  27.324  1.00  0.00     0.049 A 
ATOM     51  H   UNL A   1      44.906  27.764  26.995  1.00  0.00     0.167 HD
ATOM     52  C   UNL A   1      49.180  28.447  26.497  1.00  0.00     0.031 A 
ATOM     53  C   UNL A   1      42.368  28.414  27.978  1.00  0.00     0.031 A 
ATOM     54  C   UNL A   1      48.688  29.657  27.100  1.00  0.00     0.049 A 
ATOM     55  C   UNL A   1      43.257  29.575  28.351  1.00  0.00     0.074 A 
ATOM     56  C   UNL A   1      49.385  30.817  27.393  1.00  0.00     0.029 A 
ATOM     57  N   UNL A   1      47.382  29.858  27.517  1.00  0.00    -0.354 N 
ATOM     58  N   UNL A   1      44.533  29.753  28.109  1.00  0.00    -0.248 NA
ATOM     59  C   UNL A   1      42.628  30.685  29.086  1.00  0.00     0.031 C 
ATOM     60  C   UNL A   1      48.518  31.693  28.052  1.00  0.00     0.029 A 
ATOM     61  C   UNL A   1      47.263  31.108  28.101  1.00  0.00     0.049 A 
ATOM     62  H   UNL A   1      46.649  29.210  27.413  1.00  0.00     0.167 HD
ATOM     63  C   UNL A   1      44.849  31.004  28.631  1.00  0.00     0.074 A 
ATOM     64  C   UNL A   1      43.630  31.548  29.187  1.00  0.00     0.031 C 
ATOM     65  C   UNL A   1      46.043  31.645  28.647  1.00  0.00     0.031 A 
BRANCH  52  66
ATOM     66  C   UNL A   1      50.652  28.359  26.200  1.00  0.00    -0.014 A 
ATOM     67  C   UNL A   1      51.179  28.771  24.966  1.00  0.00     0.009 A 
ATOM     68  C   UNL A   1      51.531  27.909  27.198  1.00  0.00     0.009 A 
ATOM     69  C   UNL A   1      52.555  28.704  24.730  1.00  0.00     0.001 A 
ATOM     70  C   UNL A   1      52.906  27.872  26.970  1.00  0.00     0.001 A 
ATOM     71  C   UNL A   1      53.417  28.263  25.734  1.00  0.00     0.000 A 
ENDBRANCH  52  66
BRANCH  53  72
ATOM     72  C   UNL A   1      40.934  28.416  28.380  1.00  0.00    -0.014 A 
ATOM     73  C   UNL A   1      39.961  29.035  27.579  1.00  0.00     0.009 A 
ATOM     74  C   UNL A   1      40.539  27.845  29.601  1.00  0.00     0.009 A 
ATOM     75  C   UNL A   1      38.632  29.113  28.009  1.00  0.00     0.001 A 
ATOM     76  C   UNL A   1      39.204  27.892  30.010  1.00  0.00     0.001 A 
ATOM     77  C   UNL A   1      38.255  28.538  29.221  1.00  0.00     0.000 A 
ENDBRANCH  53  72
BRANCH  65  78
ATOM     78  C   UNL A   1      46.089  33.028  29.241  1.00  0.00    -0.014 A 
ATOM     79  C   UNL A   1      46.403  33.238  30.592  1.00  0.00     0.009 A 
ATOM     80  C   UNL A   1      45.867  34.143  28.416  1.00  0.00     0.009 A 
ATOM     81  C   UNL A   1      46.462  34.534  31.111  1.00  0.00     0.001 A 
ATOM     82  C   UNL A   1      45.958  35.437  28.930  1.00  0.00     0.001 A 
ATOM     83  C   UNL A   1      46.245  35.632  30.280  1.00  0.00     0.000 A 
ENDBRANCH  65  78
ENDBRANCH  39  40
ENDBRANCH  32  34
ENDBRANCH  31  32
ENDBRANCH  30  31
ENDBRANCH  29  30
ENDBRANCH  28  29
ENDBRANCH  27  28
ENDBRANCH   1  27
TORSDOF 19
ENDMDL
MODEL 2
REMARK VINA RESULT:     -10.0      2.158      6.625
REMARK SMILES C[NH+]1CCC(NC(=O)N[C@H]2C=C[C@H](C(=O)OCCOCCOCCOC(=O)c3ccc(-c4c5nc(c(-c6ccccc6)c6ccc([nH]6)c(-c6ccccc6)c6nc(c(-c7ccccc7)c7ccc4[nH]7)C=C6)C=C5)cc3)C2)CC1
REMARK SMILES IDX 20 1 19 2 18 3 17 4 16 5 14 6 15 7 13 8 10 9 11 10 76 11
REMARK SMILES IDX 12 12 9 13 6 14 7 15 8 17 5 19 1 20 2 21 3 22 78 23 4 25
REMARK SMILES IDX 77 26 21 27 22 28 23 29 24 30 25 31 26 32 27 33 28 34 29 35
REMARK SMILES IDX 75 36 30 37 74 38 31 39 32 40 33 41 68 42 34 43 73 44 67 45
REMARK SMILES IDX 69 46 35 47 72 48 66 49 65 50 36 52 58 53 43 54 57 55 44 56
REMARK SMILES IDX 47 57 56 58 70 59 45 60 46 61 55 63 71 64 48 65 37 66 38 67
REMARK SMILES IDX 42 68 39 69 41 70 40 71 59 72 60 73 64 74 61 75 63 76 62 77
REMARK SMILES IDX 49 78 50 79 54 80 51 81 53 82 52 83
REMARK H PARENT 6 16 9 18 2 24 69 51 47 62
REMARK Flexibility Score: inf
ROOT
ATOM      1  C   UNL A   1      35.569  21.475  24.761  1.00  0.00     0.188 C 
ENDROOT
BRANCH   1   2
ATOM      2  O   UNL A   1      35.273  21.075  26.083  1.00  0.00    -0.376 OA
BRANCH   2   3
ATOM      3  C   UNL A   1      34.440  21.930  26.850  1.00  0.00     0.202 C 
BRANCH   3   4
ATOM      4  C   UNL A   1      33.398  22.762  26.100  1.00  0.00     0.261 C 
BRANCH   4   5
ATOM      5  O   UNL A   1      33.314  24.142  26.488  1.00  0.00    -0.463 OA
BRANCH   5   6
ATOM      6  C   UNL A   1      34.006  25.106  25.814  1.00  0.00     0.312 C 
ATOM      7  O   UNL A   1      35.104  24.964  25.300  1.00  0.00    -0.252 OA
BRANCH   6   8
ATOM      8  C   UNL A   1      33.128  26.357  25.804  1.00  0.00     0.124 C 
ATOM      9  C   UNL A   1      32.565  28.321  27.175  1.00  0.00     0.107 C 
ATOM     10  C   UNL A   1      31.433  27.360  27.087  1.00  0.00    -0.006 C 
ATOM     11  C   UNL A   1      33.726  27.624  26.454  1.00  0.00     0.048 C 
ATOM     12  C   UNL A   1      31.765  26.250  26.414  1.00  0.00    -0.014 C 
BRANCH   9  13
ATOM     13  N   UNL A   1      32.193  29.688  26.816  1.00  0.00    -0.332 N 
ATOM     14  N   UNL A   1      31.384  30.070  24.603  1.00  0.00    -0.335 N 
ATOM     15  C   UNL A   1      31.672  30.444  25.850  1.00  0.00     0.315 C 
ATOM     16  H   UNL A   1      30.860  30.734  24.100  1.00  0.00     0.165 HD
ATOM     17  O   UNL A   1      31.428  31.618  26.149  1.00  0.00    -0.249 OA
ATOM     18  H   UNL A   1      32.410  30.272  27.578  1.00  0.00     0.165 HD
BRANCH  14  19
ATOM     19  C   UNL A   1      31.691  28.883  23.847  1.00  0.00     0.095 C 
ATOM     20  C   UNL A   1      32.552  25.657  21.309  1.00  0.00     0.332 C 
ATOM     21  N   UNL A   1      32.163  27.038  21.638  1.00  0.00    -0.337 N 
ATOM     22  C   UNL A   1      33.273  27.692  22.342  1.00  0.00     0.264 C 
ATOM     23  C   UNL A   1      30.888  27.030  22.371  1.00  0.00     0.264 C 
ATOM     24  H   UNL A   1      31.991  27.591  20.798  1.00  0.00     0.347 HD
ATOM     25  C   UNL A   1      32.912  29.047  22.952  1.00  0.00     0.086 C 
ATOM     26  C   UNL A   1      30.525  28.373  23.013  1.00  0.00     0.086 C 
ENDBRANCH  14  19
ENDBRANCH   9  13
ENDBRANCH   6   8
ENDBRANCH   5   6
ENDBRANCH   4   5
ENDBRANCH   3   4
ENDBRANCH   2   3
ENDBRANCH   1   2
BRANCH   1  27
ATOM     27  C   UNL A   1      36.944  22.159  24.626  1.00  0.00     0.188 C 
BRANCH  27  28
ATOM     28  O   UNL A   1      37.638  22.612  25.778  1.00  0.00    -0.376 OA
BRANCH  28  29
ATOM     29  C   UNL A   1      38.895  22.035  26.100  1.00  0.00     0.202 C 
BRANCH  29  30
ATOM     30  C   UNL A   1      39.192  20.566  25.739  1.00  0.00     0.261 C 
BRANCH  30  31
ATOM     31  O   UNL A   1      40.138  19.873  26.577  1.00  0.00    -0.460 OA
BRANCH  31  32
ATOM     32  C   UNL A   1      41.424  19.847  26.141  1.00  0.00     0.338 C 
ATOM     33  O   UNL A   1      41.929  19.031  25.395  1.00  0.00    -0.246 OA
BRANCH  32  34
ATOM     34  C   UNL A   1      42.120  21.093  26.552  1.00  0.00     0.060 A 
ATOM     35  C   UNL A   1      42.241  21.370  27.922  1.00  0.00     0.016 A 
ATOM     36  C   UNL A   1      42.612  21.999  25.612  1.00  0.00     0.016 A 
ATOM     37  C   UNL A   1      42.835  22.559  28.357  1.00  0.00     0.010 A 
ATOM     38  C   UNL A   1      43.182  23.204  26.049  1.00  0.00     0.010 A 
ATOM     39  C   UNL A   1      43.275  23.504  27.422  1.00  0.00    -0.014 A 
BRANCH  39  40
ATOM     40  C   UNL A   1      43.663  24.870  27.866  1.00  0.00     0.031 A 
ATOM     41  C   UNL A   1      42.577  25.862  28.188  1.00  0.00     0.074 A 
ATOM     42  C   UNL A   1      44.954  25.235  27.986  1.00  0.00     0.049 A 
ATOM     43  N   UNL A   1      42.675  27.128  28.511  1.00  0.00    -0.248 NA
ATOM     44  C   UNL A   1      41.194  25.359  28.137  1.00  0.00     0.031 C 
ATOM     45  C   UNL A   1      46.107  24.368  27.755  1.00  0.00     0.029 A 
ATOM     46  N   UNL A   1      45.507  26.450  28.315  1.00  0.00    -0.354 N 
ATOM     47  C   UNL A   1      41.370  27.576  28.678  1.00  0.00     0.074 A 
ATOM     48  C   UNL A   1      40.499  26.453  28.409  1.00  0.00     0.031 C 
ATOM     49  C   UNL A   1      47.232  25.086  27.928  1.00  0.00     0.029 A 
ATOM     50  C   UNL A   1      46.879  26.470  28.242  1.00  0.00     0.049 A 
ATOM     51  H   UNL A   1      44.970  27.233  28.579  1.00  0.00     0.167 HD
ATOM     52  C   UNL A   1      40.933  28.811  29.023  1.00  0.00     0.031 A 
ATOM     53  C   UNL A   1      47.748  27.493  28.377  1.00  0.00     0.031 A 
ATOM     54  C   UNL A   1      41.792  29.935  29.285  1.00  0.00     0.049 A 
ATOM     55  C   UNL A   1      47.232  28.879  28.681  1.00  0.00     0.074 A 
ATOM     56  C   UNL A   1      41.438  31.217  29.669  1.00  0.00     0.029 A 
ATOM     57  N   UNL A   1      43.173  29.917  29.176  1.00  0.00    -0.354 N 
ATOM     58  N   UNL A   1      45.999  29.280  28.874  1.00  0.00    -0.248 NA
ATOM     59  C   UNL A   1      48.232  29.953  28.789  1.00  0.00     0.031 C 
ATOM     60  C   UNL A   1      42.599  31.994  29.721  1.00  0.00     0.029 A 
ATOM     61  C   UNL A   1      43.682  31.176  29.445  1.00  0.00     0.049 A 
ATOM     62  H   UNL A   1      43.712  29.127  28.941  1.00  0.00     0.167 HD
ATOM     63  C   UNL A   1      46.079  30.639  29.158  1.00  0.00     0.074 A 
ATOM     64  C   UNL A   1      47.482  30.992  29.129  1.00  0.00     0.031 C 
ATOM     65  C   UNL A   1      45.081  31.517  29.420  1.00  0.00     0.031 A 
BRANCH  52  66
ATOM     66  C   UNL A   1      39.447  29.034  29.088  1.00  0.00    -0.014 A 
ATOM     67  C   UNL A   1      38.710  29.415  27.957  1.00  0.00     0.009 A 
ATOM     68  C   UNL A   1      38.768  28.801  30.295  1.00  0.00     0.009 A 
ATOM     69  C   UNL A   1      37.326  29.586  28.042  1.00  0.00     0.001 A 
ATOM     70  C   UNL A   1      37.382  28.943  30.370  1.00  0.00     0.001 A 
ATOM     71  C   UNL A   1      36.663  29.343  29.246  1.00  0.00     0.000 A 
ENDBRANCH  52  66
BRANCH  53  72
ATOM     72  C   UNL A   1      49.207  27.272  28.174  1.00  0.00    -0.014 A 
ATOM     73  C   UNL A   1      49.783  27.376  26.899  1.00  0.00     0.009 A 
ATOM     74  C   UNL A   1      50.023  26.896  29.254  1.00  0.00     0.009 A 
ATOM     75  C   UNL A   1      51.135  27.076  26.703  1.00  0.00     0.001 A 
ATOM     76  C   UNL A   1      51.381  26.633  29.062  1.00  0.00     0.001 A 
ATOM     77  C   UNL A   1      51.933  26.709  27.786  1.00  0.00     0.000 A 
ENDBRANCH  53  72
BRANCH  65  78
ATOM     78  C   UNL A   1      45.463  32.937  29.746  1.00  0.00    -0.014 A 
ATOM     79  C   UNL A   1      45.772  33.334  31.057  1.00  0.00     0.009 A 
ATOM     80  C   UNL A   1      45.570  33.881  28.711  1.00  0.00     0.009 A 
ATOM     81  C   UNL A   1      46.146  34.653  31.327  1.00  0.00     0.001 A 
ATOM     82  C   UNL A   1      45.975  35.189  28.980  1.00  0.00     0.001 A 
ATOM     83  C   UNL A   1      46.253  35.577  30.289  1.00  0.00     0.000 A 
ENDBRANCH  65  78
ENDBRANCH  39  40
ENDBRANCH  32  34
ENDBRANCH  31  32
ENDBRANCH  30  31
ENDBRANCH  29  30
ENDBRANCH  28  29
ENDBRANCH  27  28
ENDBRANCH   1  27
TORSDOF 19
ENDMDL
MODEL 3
REMARK VINA RESULT:      -9.8      4.440      6.436
REMARK SMILES C[NH+]1CCC(NC(=O)N[C@H]2C=C[C@H](C(=O)OCCOCCOCCOC(=O)c3ccc(-c4c5nc(c(-c6ccccc6)c6ccc([nH]6)c(-c6ccccc6)c6nc(c(-c7ccccc7)c7ccc4[nH]7)C=C6)C=C5)cc3)C2)CC1
REMARK SMILES IDX 20 1 19 2 18 3 17 4 16 5 14 6 15 7 13 8 10 9 11 10 76 11
REMARK SMILES IDX 12 12 9 13 6 14 7 15 8 17 5 19 1 20 2 21 3 22 78 23 4 25
REMARK SMILES IDX 77 26 21 27 22 28 23 29 24 30 25 31 26 32 27 33 28 34 29 35
REMARK SMILES IDX 75 36 30 37 74 38 31 39 32 40 33 41 68 42 34 43 73 44 67 45
REMARK SMILES IDX 69 46 35 47 72 48 66 49 65 50 36 52 58 53 43 54 57 55 44 56
REMARK SMILES IDX 47 57 56 58 70 59 45 60 46 61 55 63 71 64 48 65 37 66 38 67
REMARK SMILES IDX 42 68 39 69 41 70 40 71 59 72 60 73 64 74 61 75 63 76 62 77
REMARK SMILES IDX 49 78 50 79 54 80 51 81 53 82 52 83
REMARK H PARENT 6 16 9 18 2 24 69 51 47 62
REMARK Flexibility Score: inf
ROOT
ATOM      1  C   UNL A   1      41.021  20.262  26.863  1.00  0.00     0.188 C 
ENDROOT
BRANCH   1   2
ATOM      2  O   UNL A   1      40.361  21.173  26.009  1.00  0.00    -0.376 OA
BRANCH   2   3
ATOM      3  C   UNL A   1      38.943  21.145  25.998  1.00  0.00     0.202 C 
BRANCH   3   4
ATOM      4  C   UNL A   1      38.212  22.435  25.616  1.00  0.00     0.261 C 
BRANCH   4   5
ATOM      5  O   UNL A   1      36.839  22.275  25.229  1.00  0.00    -0.463 OA
BRANCH   5   6
ATOM      6  C   UNL A   1      36.370  22.805  24.062  1.00  0.00     0.312 C 
ATOM      7  O   UNL A   1      36.898  22.688  22.967  1.00  0.00    -0.252 OA
BRANCH   6   8
ATOM      8  C   UNL A   1      35.064  23.524  24.395  1.00  0.00     0.124 C 
ATOM      9  C   UNL A   1      33.942  25.697  24.121  1.00  0.00     0.107 C 
ATOM     10  C   UNL A   1      34.320  25.439  25.537  1.00  0.00    -0.006 C 
ATOM     11  C   UNL A   1      34.537  24.520  23.338  1.00  0.00     0.048 C 
ATOM     12  C   UNL A   1      35.007  24.297  25.675  1.00  0.00    -0.014 C 
BRANCH   9  13
ATOM     13  N   UNL A   1      32.537  26.056  23.953  1.00  0.00    -0.332 N 
ATOM     14  N   UNL A   1      30.908  24.349  24.315  1.00  0.00    -0.335 N 
ATOM     15  C   UNL A   1      31.288  25.602  24.063  1.00  0.00     0.315 C 
ATOM     16  H   UNL A   1      29.948  24.258  24.515  1.00  0.00     0.165 HD
ATOM     17  O   UNL A   1      30.389  26.437  23.920  1.00  0.00    -0.249 OA
ATOM     18  H   UNL A   1      32.496  26.987  23.638  1.00  0.00     0.165 HD
BRANCH  14  19
ATOM     19  C   UNL A   1      31.627  23.101  24.351  1.00  0.00     0.095 C 
ATOM     20  C   UNL A   1      33.363  19.284  24.397  1.00  0.00     0.332 C 
ATOM     21  N   UNL A   1      32.256  20.253  24.353  1.00  0.00    -0.337 N 
ATOM     22  C   UNL A   1      32.382  21.067  23.136  1.00  0.00     0.264 C 
ATOM     23  C   UNL A   1      32.224  21.022  25.607  1.00  0.00     0.264 C 
ATOM     24  H   UNL A   1      31.351  19.788  24.294  1.00  0.00     0.347 HD
ATOM     25  C   UNL A   1      31.438  22.269  23.090  1.00  0.00     0.086 C 
ATOM     26  C   UNL A   1      31.304  22.247  25.568  1.00  0.00     0.086 C 
ENDBRANCH  14  19
ENDBRANCH   9  13
ENDBRANCH   6   8
ENDBRANCH   5   6
ENDBRANCH   4   5
ENDBRANCH   3   4
ENDBRANCH   2   3
ENDBRANCH   1   2
BRANCH   1  27
ATOM     27  C   UNL A   1      41.834  19.195  26.102  1.00  0.00     0.188 C 
BRANCH  27  28
ATOM     28  O   UNL A   1      42.653  19.564  25.003  1.00  0.00    -0.376 OA
BRANCH  28  29
ATOM     29  C   UNL A   1      44.059  19.642  25.184  1.00  0.00     0.202 C 
BRANCH  29  30
ATOM     30  C   UNL A   1      44.738  21.005  25.422  1.00  0.00     0.261 C 
BRANCH  30  31
ATOM     31  O   UNL A   1      43.940  22.022  26.061  1.00  0.00    -0.460 OA
BRANCH  31  32
ATOM     32  C   UNL A   1      43.638  23.112  25.308  1.00  0.00     0.338 C 
ATOM     33  O   UNL A   1      43.684  23.203  24.097  1.00  0.00    -0.246 OA
BRANCH  32  34
ATOM     34  C   UNL A   1      43.040  24.166  26.167  1.00  0.00     0.060 A 
ATOM     35  C   UNL A   1      43.576  25.462  26.106  1.00  0.00     0.016 A 
ATOM     36  C   UNL A   1      41.999  23.884  27.052  1.00  0.00     0.016 A 
ATOM     37  C   UNL A   1      43.086  26.473  26.939  1.00  0.00     0.010 A 
ATOM     38  C   UNL A   1      41.529  24.892  27.907  1.00  0.00     0.010 A 
ATOM     39  C   UNL A   1      42.085  26.185  27.875  1.00  0.00    -0.014 A 
BRANCH  39  40
ATOM     40  C   UNL A   1      41.745  27.174  28.933  1.00  0.00     0.031 A 
ATOM     41  C   UNL A   1      42.538  27.164  30.214  1.00  0.00     0.074 A 
ATOM     42  C   UNL A   1      40.753  28.070  28.773  1.00  0.00     0.049 A 
ATOM     43  N   UNL A   1      42.368  27.871  31.303  1.00  0.00    -0.248 NA
ATOM     44  C   UNL A   1      43.673  26.229  30.274  1.00  0.00     0.031 C 
ATOM     45  C   UNL A   1      39.936  28.227  27.571  1.00  0.00     0.029 A 
ATOM     46  N   UNL A   1      40.253  29.008  29.644  1.00  0.00    -0.354 N 
ATOM     47  C   UNL A   1      43.357  27.451  32.183  1.00  0.00     0.074 A 
ATOM     48  C   UNL A   1      44.114  26.419  31.508  1.00  0.00     0.031 C 
ATOM     49  C   UNL A   1      39.021  29.189  27.790  1.00  0.00     0.029 A 
ATOM     50  C   UNL A   1      39.161  29.687  29.158  1.00  0.00     0.049 A 
ATOM     51  H   UNL A   1      40.641  29.178  30.533  1.00  0.00     0.167 HD
ATOM     52  C   UNL A   1      43.614  27.881  33.442  1.00  0.00     0.031 A 
ATOM     53  C   UNL A   1      38.347  30.580  29.758  1.00  0.00     0.031 A 
ATOM     54  C   UNL A   1      42.861  28.900  34.123  1.00  0.00     0.049 A 
ATOM     55  C   UNL A   1      38.604  30.983  31.189  1.00  0.00     0.074 A 
ATOM     56  C   UNL A   1      43.068  29.420  35.390  1.00  0.00     0.029 A 
ATOM     57  N   UNL A   1      41.750  29.543  33.603  1.00  0.00    -0.354 N 
ATOM     58  N   UNL A   1      39.566  30.606  31.997  1.00  0.00    -0.248 NA
ATOM     59  C   UNL A   1      37.662  31.942  31.791  1.00  0.00     0.031 C 
ATOM     60  C   UNL A   1      42.039  30.325  35.664  1.00  0.00     0.029 A 
ATOM     61  C   UNL A   1      41.236  30.425  34.539  1.00  0.00     0.049 A 
ATOM     62  H   UNL A   1      41.380  29.395  32.703  1.00  0.00     0.167 HD
ATOM     63  C   UNL A   1      39.364  31.304  33.183  1.00  0.00     0.074 A 
ATOM     64  C   UNL A   1      38.199  32.139  32.987  1.00  0.00     0.031 C 
ATOM     65  C   UNL A   1      40.079  31.258  34.333  1.00  0.00     0.031 A 
BRANCH  52  66
ATOM     66  C   UNL A   1      44.732  27.213  34.195  1.00  0.00    -0.014 A 
ATOM     67  C   UNL A   1      44.516  26.053  34.954  1.00  0.00     0.009 A 
ATOM     68  C   UNL A   1      46.035  27.726  34.092  1.00  0.00     0.009 A 
ATOM     69  C   UNL A   1      45.580  25.438  35.620  1.00  0.00     0.001 A 
ATOM     70  C   UNL A   1      47.100  27.093  34.733  1.00  0.00     0.001 A 
ATOM     71  C   UNL A   1      46.871  25.954  35.502  1.00  0.00     0.000 A 
ENDBRANCH  52  66
BRANCH  53  72
ATOM     72  C   UNL A   1      37.166  31.126  29.033  1.00  0.00    -0.014 A 
ATOM     73  C   UNL A   1      37.147  32.455  28.582  1.00  0.00     0.009 A 
ATOM     74  C   UNL A   1      36.025  30.332  28.838  1.00  0.00     0.009 A 
ATOM     75  C   UNL A   1      36.000  32.986  27.984  1.00  0.00     0.001 A 
ATOM     76  C   UNL A   1      34.893  30.854  28.207  1.00  0.00     0.001 A 
ATOM     77  C   UNL A   1      34.876  32.183  27.793  1.00  0.00     0.000 A 
ENDBRANCH  53  72
BRANCH  65  78
ATOM     78  C   UNL A   1      39.660  32.167  35.458  1.00  0.00    -0.014 A 
ATOM     79  C   UNL A   1      40.142  33.482  35.560  1.00  0.00     0.009 A 
ATOM     80  C   UNL A   1      38.722  31.716  36.400  1.00  0.00     0.009 A 
ATOM     81  C   UNL A   1      39.717  34.312  36.601  1.00  0.00     0.001 A 
ATOM     82  C   UNL A   1      38.275  32.558  37.420  1.00  0.00     0.001 A 
ATOM     83  C   UNL A   1      38.781  33.852  37.526  1.00  0.00     0.000 A 
ENDBRANCH  65  78
ENDBRANCH  39  40
ENDBRANCH  32  34
ENDBRANCH  31  32
ENDBRANCH  30  31
ENDBRANCH  29  30
ENDBRANCH  28  29
ENDBRANCH  27  28
ENDBRANCH   1  27
TORSDOF 19
ENDMDL
