MODEL 1
REMARK VINA RESULT:     -10.5      0.000      0.000
REMARK SMILES O=C(N[C@@H](Cc1c[nH]c2ccccc12)C(=O)N[C@@H](CS)C(=O)N[C@@H](CO)C(=O)OCCOCCOCCOC(=O)c1ccc(-c2c3nc(c(-c4ccccc4)c4ccc([nH]4)c(-c4ccccc4)c4nc(c(-c5ccccc5)c5ccc2[nH]5)C=C4)C=C3)cc1)c1ccc(F)cc1
REMARK SMILES IDX 31 1 30 2 29 3 27 4 28 5 24 6 23 7 21 8 22 9 18 11 17 12
REMARK SMILES IDX 15 13 16 14 4 16 3 17 1 18 2 19 89 21 90 22 95 23 91 24
REMARK SMILES IDX 94 25 92 26 93 27 5 28 6 29 7 30 14 31 8 32 9 33 13 34 10 36
REMARK SMILES IDX 12 37 11 38 19 39 20 40 25 42 26 43 32 45 33 46 34 47 35 48
REMARK SMILES IDX 36 49 37 50 38 51 39 52 40 53 41 54 42 55 88 56 43 57 87 58
REMARK SMILES IDX 44 59 45 60 46 61 81 62 47 63 86 64 80 65 82 66 48 67 85 68
REMARK SMILES IDX 79 69 78 70 49 72 71 73 56 74 70 75 57 76 60 77 69 78 83 79
REMARK SMILES IDX 58 80 59 81 68 83 84 84 61 85 50 86 51 87 55 88 52 89 54 90
REMARK SMILES IDX 53 91 72 92 73 93 77 94 74 95 76 96 75 97 62 98 63 99 67 100
REMARK SMILES IDX 64 101 66 102 65 103
REMARK H PARENT 23 10 17 15 3 20 8 35 20 41 26 44 82 71 60 82
REMARK Flexibility Score: inf
ROOT
ATOM      1  C   UNL A   1      35.948  21.309  25.420  1.00  0.00     0.202 C 
ENDROOT
BRANCH   1   2
ATOM      2  C   UNL A   1      34.474  20.953  25.660  1.00  0.00     0.261 C 
BRANCH   2   3
ATOM      3  O   UNL A   1      33.776  20.410  24.506  1.00  0.00    -0.462 OA
BRANCH   3   4
ATOM      4  C   UNL A   1      32.519  20.936  24.341  1.00  0.00     0.331 C 
ATOM      5  O   UNL A   1      31.600  20.727  25.132  1.00  0.00    -0.250 OA
BRANCH   4   6
ATOM      6  C   UNL A   1      32.331  21.887  23.117  1.00  0.00     0.218 C 
BRANCH   6   7
ATOM      7  N   UNL A   1      33.473  22.688  22.603  1.00  0.00    -0.339 N 
ATOM      8  C   UNL A   1      33.605  24.063  22.618  1.00  0.00     0.244 C 
ATOM      9  O   UNL A   1      33.605  24.572  21.483  1.00  0.00    -0.273 OA
ATOM     10  H   UNL A   1      34.219  22.182  22.208  1.00  0.00     0.164 HD
BRANCH   8  11
ATOM     11  C   UNL A   1      33.895  25.156  24.025  1.00  0.00     0.181 C 
BRANCH  11  12
ATOM     12  N   UNL A   1      34.197  26.598  23.094  1.00  0.00    -0.342 N 
ATOM     13  C   UNL A   1      34.131  27.983  23.211  1.00  0.00     0.243 C 
ATOM     14  O   UNL A   1      34.375  28.592  22.153  1.00  0.00    -0.273 OA
ATOM     15  H   UNL A   1      34.518  26.355  22.195  1.00  0.00     0.164 HD
BRANCH  13  16
ATOM     16  C   UNL A   1      33.659  28.891  24.479  1.00  0.00     0.176 C 
BRANCH  16  17
ATOM     17  N   UNL A   1      32.316  29.550  24.483  1.00  0.00    -0.340 N 
ATOM     18  O   UNL A   1      30.168  30.048  24.181  1.00  0.00    -0.269 OA
ATOM     19  C   UNL A   1      31.034  29.183  24.250  1.00  0.00     0.251 C 
ATOM     20  H   UNL A   1      32.382  30.505  24.718  1.00  0.00     0.164 HD
BRANCH  19  21
ATOM     21  C   UNL A   1      30.702  27.793  23.981  1.00  0.00     0.040 A 
ATOM     22  C   UNL A   1      30.279  26.949  25.006  1.00  0.00     0.017 A 
ATOM     23  C   UNL A   1      30.817  27.348  22.660  1.00  0.00     0.017 A 
ATOM     24  C   UNL A   1      30.036  25.613  24.712  1.00  0.00     0.040 A 
ATOM     25  C   UNL A   1      30.576  26.011  22.373  1.00  0.00     0.040 A 
ATOM     26  C   UNL A   1      30.201  25.154  23.405  1.00  0.00     0.123 A 
ATOM     27  F   UNL A   1      30.000  23.858  23.136  1.00  0.00    -0.207 F 
ENDBRANCH  19  21
ENDBRANCH  16  17
BRANCH  16  28
ATOM     28  C   UNL A   1      33.810  28.180  25.818  1.00  0.00     0.072 C 
BRANCH  28  29
ATOM     29  C   UNL A   1      33.732  29.146  26.954  1.00  0.00    -0.020 A 
ATOM     30  C   UNL A   1      32.692  30.053  27.138  1.00  0.00     0.087 A 
ATOM     31  C   UNL A   1      34.850  29.520  27.774  1.00  0.00     0.003 A 
ATOM     32  N   UNL A   1      33.082  31.199  27.808  1.00  0.00    -0.361 N 
ATOM     33  C   UNL A   1      34.438  31.187  27.999  1.00  0.00     0.046 A 
ATOM     34  C   UNL A   1      36.594  28.978  27.963  1.00  0.00     0.010 A 
ATOM     35  H   UNL A   1      32.475  31.916  28.105  1.00  0.00     0.166 HD
ATOM     36  C   UNL A   1      35.707  32.389  28.274  1.00  0.00     0.026 A 
ATOM     37  C   UNL A   1      37.891  30.174  28.189  1.00  0.00     0.001 A 
ATOM     38  C   UNL A   1      37.419  31.863  28.429  1.00  0.00     0.002 A 
ENDBRANCH  28  29
ENDBRANCH  16  28
ENDBRANCH  13  16
ENDBRANCH  11  12
BRANCH  11  39
ATOM     39  C   UNL A   1      33.227  25.054  26.118  1.00  0.00     0.101 C 
BRANCH  39  40
ATOM     40  S   UNL A   1      32.174  23.594  27.345  1.00  0.00    -0.177 SA
ATOM     41  H   UNL A   1      30.913  24.038  27.599  1.00  0.00     0.102 HD
ENDBRANCH  39  40
ENDBRANCH  11  39
ENDBRANCH   8  11
ENDBRANCH   6   7
BRANCH   6  42
ATOM     42  C   UNL A   1      31.781  21.025  21.973  1.00  0.00     0.193 C 
BRANCH  42  43
ATOM     43  O   UNL A   1      32.044  19.646  22.237  1.00  0.00    -0.394 OA
ATOM     44  H   UNL A   1      31.977  19.480  23.190  1.00  0.00     0.210 HD
ENDBRANCH  42  43
ENDBRANCH   6  42
ENDBRANCH   4   6
ENDBRANCH   3   4
ENDBRANCH   2   3
ENDBRANCH   1   2
BRANCH   1  45
ATOM     45  O   UNL A   1      36.224  22.104  24.269  1.00  0.00    -0.376 OA
BRANCH  45  46
ATOM     46  C   UNL A   1      36.950  23.310  24.443  1.00  0.00     0.188 C 
BRANCH  46  47
ATOM     47  C   UNL A   1      37.258  23.743  25.875  1.00  0.00     0.188 C 
BRANCH  47  48
ATOM     48  O   UNL A   1      38.544  23.545  26.442  1.00  0.00    -0.376 OA
BRANCH  48  49
ATOM     49  C   UNL A   1      38.992  24.513  27.377  1.00  0.00     0.202 C 
BRANCH  49  50
ATOM     50  C   UNL A   1      40.490  24.819  27.316  1.00  0.00     0.261 C 
BRANCH  50  51
ATOM     51  O   UNL A   1      41.193  24.004  26.360  1.00  0.00    -0.460 OA
BRANCH  51  52
ATOM     52  C   UNL A   1      42.473  23.719  26.732  1.00  0.00     0.338 C 
ATOM     53  O   UNL A   1      42.940  22.612  26.937  1.00  0.00    -0.246 OA
BRANCH  52  54
ATOM     54  C   UNL A   1      43.294  24.947  26.777  1.00  0.00     0.060 A 
ATOM     55  C   UNL A   1      43.586  25.580  25.579  1.00  0.00     0.016 A 
ATOM     56  C   UNL A   1      43.928  25.380  27.943  1.00  0.00     0.016 A 
ATOM     57  C   UNL A   1      44.479  26.656  25.544  1.00  0.00     0.010 A 
ATOM     58  C   UNL A   1      44.795  26.495  27.910  1.00  0.00     0.010 A 
ATOM     59  C   UNL A   1      45.071  27.159  26.703  1.00  0.00    -0.014 A 
BRANCH  59  60
ATOM     60  C   UNL A   1      46.095  28.240  26.546  1.00  0.00     0.031 A 
ATOM     61  C   UNL A   1      45.678  29.670  26.730  1.00  0.00     0.074 A 
ATOM     62  C   UNL A   1      47.417  27.983  26.436  1.00  0.00     0.049 A 
ATOM     63  N   UNL A   1      46.374  30.766  26.572  1.00  0.00    -0.248 NA
ATOM     64  C   UNL A   1      44.288  29.887  27.152  1.00  0.00     0.031 C 
ATOM     65  C   UNL A   1      48.017  26.655  26.393  1.00  0.00     0.029 A 
ATOM     66  N   UNL A   1      48.501  28.833  26.398  1.00  0.00    -0.354 N 
ATOM     67  C   UNL A   1      45.489  31.807  26.808  1.00  0.00     0.074 A 
ATOM     68  C   UNL A   1      44.214  31.207  27.145  1.00  0.00     0.031 C 
ATOM     69  C   UNL A   1      49.356  26.773  26.426  1.00  0.00     0.029 A 
ATOM     70  C   UNL A   1      49.717  28.188  26.370  1.00  0.00     0.049 A 
ATOM     71  H   UNL A   1      48.414  29.814  26.392  1.00  0.00     0.167 HD
ATOM     72  C   UNL A   1      45.707  33.142  26.721  1.00  0.00     0.031 A 
ATOM     73  C   UNL A   1      50.975  28.670  26.266  1.00  0.00     0.031 A 
ATOM     74  C   UNL A   1      46.974  33.751  26.414  1.00  0.00     0.049 A 
ATOM     75  C   UNL A   1      51.189  30.153  26.092  1.00  0.00     0.074 A 
ATOM     76  C   UNL A   1      47.264  35.091  26.223  1.00  0.00     0.029 A 
ATOM     77  N   UNL A   1      48.168  33.062  26.274  1.00  0.00    -0.354 N 
ATOM     78  N   UNL A   1      50.317  31.129  26.140  1.00  0.00    -0.248 NA
ATOM     79  C   UNL A   1      52.563  30.595  25.797  1.00  0.00     0.031 C 
ATOM     80  C   UNL A   1      48.624  35.207  25.912  1.00  0.00     0.029 A 
ATOM     81  C   UNL A   1      49.193  33.946  25.972  1.00  0.00     0.049 A 
ATOM     82  H   UNL A   1      48.274  32.088  26.374  1.00  0.00     0.167 HD
ATOM     83  C   UNL A   1      51.030  32.293  25.881  1.00  0.00     0.074 A 
ATOM     84  C   UNL A   1      52.414  31.910  25.710  1.00  0.00     0.031 C 
ATOM     85  C   UNL A   1      50.570  33.565  25.777  1.00  0.00     0.031 A 
BRANCH  72  86
ATOM     86  C   UNL A   1      44.490  34.014  26.825  1.00  0.00    -0.014 A 
ATOM     87  C   UNL A   1      43.753  34.414  25.701  1.00  0.00     0.009 A 
ATOM     88  C   UNL A   1      44.118  34.495  28.091  1.00  0.00     0.009 A 
ATOM     89  C   UNL A   1      42.706  35.329  25.838  1.00  0.00     0.001 A 
ATOM     90  C   UNL A   1      43.051  35.382  28.229  1.00  0.00     0.001 A 
ATOM     91  C   UNL A   1      42.357  35.811  27.100  1.00  0.00     0.000 A 
ENDBRANCH  72  86
BRANCH  73  92
ATOM     92  C   UNL A   1      52.141  27.740  26.198  1.00  0.00    -0.014 A 
ATOM     93  C   UNL A   1      52.560  27.183  24.979  1.00  0.00     0.009 A 
ATOM     94  C   UNL A   1      52.808  27.357  27.373  1.00  0.00     0.009 A 
ATOM     95  C   UNL A   1      53.609  26.257  24.944  1.00  0.00     0.001 A 
ATOM     96  C   UNL A   1      53.880  26.463  27.331  1.00  0.00     0.001 A 
ATOM     97  C   UNL A   1      54.273  25.906  26.117  1.00  0.00     0.000 A 
ENDBRANCH  73  92
BRANCH  85  98
ATOM     98  C   UNL A   1      51.576  34.641  25.467  1.00  0.00    -0.014 A 
ATOM     99  C   UNL A   1      51.833  35.043  24.145  1.00  0.00     0.009 A 
ATOM    100  C   UNL A   1      52.265  35.277  26.511  1.00  0.00     0.009 A 
ATOM    101  C   UNL A   1      52.785  36.029  23.875  1.00  0.00     0.001 A 
ATOM    102  C   UNL A   1      53.196  36.283  26.240  1.00  0.00     0.001 A 
ATOM    103  C   UNL A   1      53.463  36.651  24.923  1.00  0.00     0.000 A 
ENDBRANCH  85  98
ENDBRANCH  59  60
ENDBRANCH  52  54
ENDBRANCH  51  52
ENDBRANCH  50  51
ENDBRANCH  49  50
ENDBRANCH  48  49
ENDBRANCH  47  48
ENDBRANCH  46  47
ENDBRANCH  45  46
ENDBRANCH   1  45
TORSDOF 29
ENDMDL
MODEL 2
REMARK VINA RESULT:      -9.8      3.414      5.116
REMARK SMILES O=C(N[C@@H](Cc1c[nH]c2ccccc12)C(=O)N[C@@H](CS)C(=O)N[C@@H](CO)C(=O)OCCOCCOCCOC(=O)c1ccc(-c2c3nc(c(-c4ccccc4)c4ccc([nH]4)c(-c4ccccc4)c4nc(c(-c5ccccc5)c5ccc2[nH]5)C=C4)C=C3)cc1)c1ccc(F)cc1
REMARK SMILES IDX 31 1 30 2 29 3 27 4 28 5 24 6 23 7 21 8 22 9 18 11 17 12
REMARK SMILES IDX 15 13 16 14 4 16 3 17 1 18 2 19 89 21 90 22 95 23 91 24
REMARK SMILES IDX 94 25 92 26 93 27 5 28 6 29 7 30 14 31 8 32 9 33 13 34 10 36
REMARK SMILES IDX 12 37 11 38 19 39 20 40 25 42 26 43 32 45 33 46 34 47 35 48
REMARK SMILES IDX 36 49 37 50 38 51 39 52 40 53 41 54 42 55 88 56 43 57 87 58
REMARK SMILES IDX 44 59 45 60 46 61 81 62 47 63 86 64 80 65 82 66 48 67 85 68
REMARK SMILES IDX 79 69 78 70 49 72 71 73 56 74 70 75 57 76 60 77 69 78 83 79
REMARK SMILES IDX 58 80 59 81 68 83 84 84 61 85 50 86 51 87 55 88 52 89 54 90
REMARK SMILES IDX 53 91 72 92 73 93 77 94 74 95 76 96 75 97 62 98 63 99 67 100
REMARK SMILES IDX 64 101 66 102 65 103
REMARK H PARENT 23 10 17 15 3 20 8 35 20 41 26 44 82 71 60 82
REMARK Flexibility Score: inf
ROOT
ATOM      1  C   UNL A   1      36.065  21.323  25.480  1.00  0.00     0.202 C 
ENDROOT
BRANCH   1   2
ATOM      2  C   UNL A   1      34.660  20.725  25.645  1.00  0.00     0.261 C 
BRANCH   2   3
ATOM      3  O   UNL A   1      34.022  20.303  24.410  1.00  0.00    -0.462 OA
BRANCH   3   4
ATOM      4  C   UNL A   1      32.730  20.751  24.290  1.00  0.00     0.331 C 
ATOM      5  O   UNL A   1      31.821  20.370  25.026  1.00  0.00    -0.250 OA
BRANCH   4   6
ATOM      6  C   UNL A   1      32.483  21.843  23.201  1.00  0.00     0.218 C 
BRANCH   6   7
ATOM      7  N   UNL A   1      33.605  22.686  22.712  1.00  0.00    -0.339 N 
ATOM      8  C   UNL A   1      33.672  24.065  22.696  1.00  0.00     0.244 C 
ATOM      9  O   UNL A   1      33.693  24.546  21.549  1.00  0.00    -0.273 OA
ATOM     10  H   UNL A   1      34.389  22.207  22.359  1.00  0.00     0.164 HD
BRANCH   8  11
ATOM     11  C   UNL A   1      33.854  25.205  24.084  1.00  0.00     0.181 C 
BRANCH  11  12
ATOM     12  N   UNL A   1      34.160  26.630  23.129  1.00  0.00    -0.342 N 
ATOM     13  C   UNL A   1      34.071  28.016  23.213  1.00  0.00     0.243 C 
ATOM     14  O   UNL A   1      34.334  28.605  22.149  1.00  0.00    -0.273 OA
ATOM     15  H   UNL A   1      34.508  26.372  22.245  1.00  0.00     0.164 HD
BRANCH  13  16
ATOM     16  C   UNL A   1      33.553  28.944  24.448  1.00  0.00     0.176 C 
BRANCH  16  17
ATOM     17  N   UNL A   1      32.196  29.574  24.408  1.00  0.00    -0.340 N 
ATOM     18  O   UNL A   1      30.048  30.021  24.038  1.00  0.00    -0.269 OA
ATOM     19  C   UNL A   1      30.931  29.176  24.137  1.00  0.00     0.251 C 
ATOM     20  H   UNL A   1      32.233  30.530  24.641  1.00  0.00     0.164 HD
BRANCH  19  21
ATOM     21  C   UNL A   1      30.638  27.778  23.864  1.00  0.00     0.040 A 
ATOM     22  C   UNL A   1      30.181  26.934  24.874  1.00  0.00     0.017 A 
ATOM     23  C   UNL A   1      30.828  27.325  22.554  1.00  0.00     0.017 A 
ATOM     24  C   UNL A   1      29.978  25.591  24.580  1.00  0.00     0.040 A 
ATOM     25  C   UNL A   1      30.626  25.981  22.267  1.00  0.00     0.040 A 
ATOM     26  C   UNL A   1      30.217  25.125  23.287  1.00  0.00     0.123 A 
ATOM     27  F   UNL A   1      30.054  23.824  23.020  1.00  0.00    -0.207 F 
ENDBRANCH  19  21
ENDBRANCH  16  17
BRANCH  16  28
ATOM     28  C   UNL A   1      33.692  28.271  25.808  1.00  0.00     0.072 C 
BRANCH  28  29
ATOM     29  C   UNL A   1      33.633  29.272  26.914  1.00  0.00    -0.020 A 
ATOM     30  C   UNL A   1      32.625  30.221  27.057  1.00  0.00     0.087 A 
ATOM     31  C   UNL A   1      34.753  29.629  27.740  1.00  0.00     0.003 A 
ATOM     32  N   UNL A   1      33.047  31.371  27.700  1.00  0.00    -0.361 N 
ATOM     33  C   UNL A   1      34.399  31.315  27.911  1.00  0.00     0.046 A 
ATOM     34  C   UNL A   1      36.472  29.030  27.972  1.00  0.00     0.010 A 
ATOM     35  H   UNL A   1      32.463  32.117  27.967  1.00  0.00     0.166 HD
ATOM     36  C   UNL A   1      35.707  32.478  28.172  1.00  0.00     0.026 A 
ATOM     37  C   UNL A   1      37.809  30.184  28.183  1.00  0.00     0.001 A 
ATOM     38  C   UNL A   1      37.396  31.895  28.369  1.00  0.00     0.002 A 
ENDBRANCH  28  29
ENDBRANCH  16  28
ENDBRANCH  13  16
ENDBRANCH  11  12
BRANCH  11  39
ATOM     39  C   UNL A   1      33.081  25.137  26.142  1.00  0.00     0.101 C 
BRANCH  39  40
ATOM     40  S   UNL A   1      31.944  23.708  27.331  1.00  0.00    -0.177 SA
ATOM     41  H   UNL A   1      32.214  22.445  26.903  1.00  0.00     0.102 HD
ENDBRANCH  39  40
ENDBRANCH  11  39
ENDBRANCH   8  11
ENDBRANCH   6   7
BRANCH   6  42
ATOM     42  C   UNL A   1      31.843  21.130  22.003  1.00  0.00     0.193 C 
BRANCH  42  43
ATOM     43  O   UNL A   1      31.940  19.715  22.175  1.00  0.00    -0.394 OA
ATOM     44  H   UNL A   1      31.416  19.446  22.945  1.00  0.00     0.210 HD
ENDBRANCH  42  43
ENDBRANCH   6  42
ENDBRANCH   4   6
ENDBRANCH   3   4
ENDBRANCH   2   3
ENDBRANCH   1   2
BRANCH   1  45
ATOM     45  O   UNL A   1      36.147  22.547  24.754  1.00  0.00    -0.376 OA
BRANCH  45  46
ATOM     46  C   UNL A   1      37.275  23.380  24.964  1.00  0.00     0.188 C 
BRANCH  46  47
ATOM     47  C   UNL A   1      38.174  23.055  26.156  1.00  0.00     0.188 C 
BRANCH  47  48
ATOM     48  O   UNL A   1      39.542  23.434  26.168  1.00  0.00    -0.376 OA
BRANCH  48  49
ATOM     49  C   UNL A   1      40.482  22.442  26.551  1.00  0.00     0.202 C 
BRANCH  49  50
ATOM     50  C   UNL A   1      41.893  22.967  26.823  1.00  0.00     0.261 C 
BRANCH  50  51
ATOM     51  O   UNL A   1      42.316  23.962  25.872  1.00  0.00    -0.460 OA
BRANCH  51  52
ATOM     52  C   UNL A   1      43.238  23.500  24.981  1.00  0.00     0.338 C 
ATOM     53  O   UNL A   1      43.095  22.572  24.203  1.00  0.00    -0.246 OA
BRANCH  52  54
ATOM     54  C   UNL A   1      44.455  24.339  24.998  1.00  0.00     0.060 A 
ATOM     55  C   UNL A   1      45.673  23.726  24.754  1.00  0.00     0.016 A 
ATOM     56  C   UNL A   1      44.439  25.669  25.425  1.00  0.00     0.016 A 
ATOM     57  C   UNL A   1      46.868  24.437  24.904  1.00  0.00     0.010 A 
ATOM     58  C   UNL A   1      45.646  26.396  25.533  1.00  0.00     0.010 A 
ATOM     59  C   UNL A   1      46.882  25.787  25.256  1.00  0.00    -0.014 A 
BRANCH  59  60
ATOM     60  C   UNL A   1      48.214  26.426  25.499  1.00  0.00     0.031 A 
ATOM     61  C   UNL A   1      48.881  26.237  26.829  1.00  0.00     0.074 A 
ATOM     62  C   UNL A   1      48.935  27.007  24.514  1.00  0.00     0.049 A 
ATOM     63  N   UNL A   1      49.994  26.753  27.284  1.00  0.00    -0.248 NA
ATOM     64  C   UNL A   1      48.198  25.339  27.771  1.00  0.00     0.031 C 
ATOM     65  C   UNL A   1      48.510  27.146  23.128  1.00  0.00     0.029 A 
ATOM     66  N   UNL A   1      50.208  27.538  24.521  1.00  0.00    -0.354 N 
ATOM     67  C   UNL A   1      50.111  26.299  28.589  1.00  0.00     0.074 A 
ATOM     68  C   UNL A   1      48.968  25.445  28.841  1.00  0.00     0.031 C 
ATOM     69  C   UNL A   1      49.527  27.638  22.399  1.00  0.00     0.029 A 
ATOM     70  C   UNL A   1      50.642  27.964  23.287  1.00  0.00     0.049 A 
ATOM     71  H   UNL A   1      50.756  27.605  25.336  1.00  0.00     0.167 HD
ATOM     72  C   UNL A   1      51.064  26.591  29.506  1.00  0.00     0.031 A 
ATOM     73  C   UNL A   1      51.782  28.586  22.914  1.00  0.00     0.031 A 
ATOM     74  C   UNL A   1      52.218  27.416  29.261  1.00  0.00     0.049 A 
ATOM     75  C   UNL A   1      52.795  28.971  23.963  1.00  0.00     0.074 A 
ATOM     76  C   UNL A   1      53.189  27.831  30.156  1.00  0.00     0.029 A 
ATOM     77  N   UNL A   1      52.570  27.933  28.024  1.00  0.00    -0.354 N 
ATOM     78  N   UNL A   1      52.813  28.689  25.242  1.00  0.00    -0.248 NA
ATOM     79  C   UNL A   1      53.923  29.809  23.521  1.00  0.00     0.031 C 
ATOM     80  C   UNL A   1      54.098  28.647  29.472  1.00  0.00     0.029 A 
ATOM     81  C   UNL A   1      53.729  28.687  28.138  1.00  0.00     0.049 A 
ATOM     82  H   UNL A   1      52.072  27.787  27.188  1.00  0.00     0.167 HD
ATOM     83  C   UNL A   1      53.944  29.311  25.756  1.00  0.00     0.074 A 
ATOM     84  C   UNL A   1      54.609  29.959  24.646  1.00  0.00     0.031 C 
ATOM     85  C   UNL A   1      54.380  29.354  27.039  1.00  0.00     0.031 A 
BRANCH  72  86
ATOM     86  C   UNL A   1      50.797  26.116  30.904  1.00  0.00    -0.014 A 
ATOM     87  C   UNL A   1      49.972  26.820  31.793  1.00  0.00     0.009 A 
ATOM     88  C   UNL A   1      51.452  24.958  31.354  1.00  0.00     0.009 A 
ATOM     89  C   UNL A   1      49.858  26.405  33.123  1.00  0.00     0.001 A 
ATOM     90  C   UNL A   1      51.310  24.527  32.672  1.00  0.00     0.001 A 
ATOM     91  C   UNL A   1      50.526  25.261  33.559  1.00  0.00     0.000 A 
ENDBRANCH  72  86
BRANCH  73  92
ATOM     92  C   UNL A   1      51.990  29.004  21.495  1.00  0.00    -0.014 A 
ATOM     93  C   UNL A   1      51.546  30.251  21.028  1.00  0.00     0.009 A 
ATOM     94  C   UNL A   1      52.587  28.120  20.580  1.00  0.00     0.009 A 
ATOM     95  C   UNL A   1      51.684  30.596  19.679  1.00  0.00     0.001 A 
ATOM     96  C   UNL A   1      52.760  28.483  19.243  1.00  0.00     0.001 A 
ATOM     97  C   UNL A   1      52.299  29.716  18.791  1.00  0.00     0.000 A 
ENDBRANCH  73  92
BRANCH  85  98
ATOM     98  C   UNL A   1      55.643  30.128  27.315  1.00  0.00    -0.014 A 
ATOM     99  C   UNL A   1      56.905  29.515  27.246  1.00  0.00     0.009 A 
ATOM    100  C   UNL A   1      55.572  31.493  27.632  1.00  0.00     0.009 A 
ATOM    101  C   UNL A   1      58.064  30.244  27.526  1.00  0.00     0.001 A 
ATOM    102  C   UNL A   1      56.734  32.226  27.883  1.00  0.00     0.001 A 
ATOM    103  C   UNL A   1      57.978  31.599  27.841  1.00  0.00     0.000 A 
ENDBRANCH  85  98
ENDBRANCH  59  60
ENDBRANCH  52  54
ENDBRANCH  51  52
ENDBRANCH  50  51
ENDBRANCH  49  50
ENDBRANCH  48  49
ENDBRANCH  47  48
ENDBRANCH  46  47
ENDBRANCH  45  46
ENDBRANCH   1  45
TORSDOF 29
ENDMDL
MODEL 3
REMARK VINA RESULT:      -9.8      3.678      5.391
REMARK SMILES O=C(N[C@@H](Cc1c[nH]c2ccccc12)C(=O)N[C@@H](CS)C(=O)N[C@@H](CO)C(=O)OCCOCCOCCOC(=O)c1ccc(-c2c3nc(c(-c4ccccc4)c4ccc([nH]4)c(-c4ccccc4)c4nc(c(-c5ccccc5)c5ccc2[nH]5)C=C4)C=C3)cc1)c1ccc(F)cc1
REMARK SMILES IDX 31 1 30 2 29 3 27 4 28 5 24 6 23 7 21 8 22 9 18 11 17 12
REMARK SMILES IDX 15 13 16 14 4 16 3 17 1 18 2 19 89 21 90 22 95 23 91 24
REMARK SMILES IDX 94 25 92 26 93 27 5 28 6 29 7 30 14 31 8 32 9 33 13 34 10 36
REMARK SMILES IDX 12 37 11 38 19 39 20 40 25 42 26 43 32 45 33 46 34 47 35 48
REMARK SMILES IDX 36 49 37 50 38 51 39 52 40 53 41 54 42 55 88 56 43 57 87 58
REMARK SMILES IDX 44 59 45 60 46 61 81 62 47 63 86 64 80 65 82 66 48 67 85 68
REMARK SMILES IDX 79 69 78 70 49 72 71 73 56 74 70 75 57 76 60 77 69 78 83 79
REMARK SMILES IDX 58 80 59 81 68 83 84 84 61 85 50 86 51 87 55 88 52 89 54 90
REMARK SMILES IDX 53 91 72 92 73 93 77 94 74 95 76 96 75 97 62 98 63 99 67 100
REMARK SMILES IDX 64 101 66 102 65 103
REMARK H PARENT 23 10 17 15 3 20 8 35 20 41 26 44 82 71 60 82
REMARK Flexibility Score: inf
ROOT
ATOM      1  C   UNL A   1      36.078  21.335  25.487  1.00  0.00     0.202 C 
ENDROOT
BRANCH   1   2
ATOM      2  C   UNL A   1      34.668  20.751  25.662  1.00  0.00     0.261 C 
BRANCH   2   3
ATOM      3  O   UNL A   1      34.025  20.316  24.433  1.00  0.00    -0.462 OA
BRANCH   3   4
ATOM      4  C   UNL A   1      32.735  20.767  24.311  1.00  0.00     0.331 C 
ATOM      5  O   UNL A   1      31.826  20.396  25.052  1.00  0.00    -0.250 OA
BRANCH   4   6
ATOM      6  C   UNL A   1      32.490  21.848  23.211  1.00  0.00     0.218 C 
BRANCH   6   7
ATOM      7  N   UNL A   1      33.613  22.689  22.719  1.00  0.00    -0.339 N 
ATOM      8  C   UNL A   1      33.683  24.068  22.704  1.00  0.00     0.244 C 
ATOM      9  O   UNL A   1      33.701  24.550  21.557  1.00  0.00    -0.273 OA
ATOM     10  H   UNL A   1      34.394  22.208  22.363  1.00  0.00     0.164 HD
BRANCH   8  11
ATOM     11  C   UNL A   1      33.872  25.206  24.093  1.00  0.00     0.181 C 
BRANCH  11  12
ATOM     12  N   UNL A   1      34.172  26.633  23.138  1.00  0.00    -0.342 N 
ATOM     13  C   UNL A   1      34.082  28.019  23.224  1.00  0.00     0.243 C 
ATOM     14  O   UNL A   1      34.339  28.609  22.158  1.00  0.00    -0.273 OA
ATOM     15  H   UNL A   1      34.516  26.376  22.251  1.00  0.00     0.164 HD
BRANCH  13  16
ATOM     16  C   UNL A   1      33.569  28.945  24.462  1.00  0.00     0.176 C 
BRANCH  16  17
ATOM     17  N   UNL A   1      32.212  29.576  24.427  1.00  0.00    -0.340 N 
ATOM     18  O   UNL A   1      30.065  30.029  24.062  1.00  0.00    -0.269 OA
ATOM     19  C   UNL A   1      30.946  29.182  24.156  1.00  0.00     0.251 C 
ATOM     20  H   UNL A   1      32.251  30.531  24.665  1.00  0.00     0.164 HD
BRANCH  19  21
ATOM     21  C   UNL A   1      30.651  27.786  23.875  1.00  0.00     0.040 A 
ATOM     22  C   UNL A   1      30.200  26.935  24.883  1.00  0.00     0.017 A 
ATOM     23  C   UNL A   1      30.832  27.341  22.561  1.00  0.00     0.017 A 
ATOM     24  C   UNL A   1      29.995  25.594  24.581  1.00  0.00     0.040 A 
ATOM     25  C   UNL A   1      30.628  25.999  22.267  1.00  0.00     0.040 A 
ATOM     26  C   UNL A   1      30.225  25.137  23.284  1.00  0.00     0.123 A 
ATOM     27  F   UNL A   1      30.060  23.837  23.009  1.00  0.00    -0.207 F 
ENDBRANCH  19  21
ENDBRANCH  16  17
BRANCH  16  28
ATOM     28  C   UNL A   1      33.710  28.269  25.819  1.00  0.00     0.072 C 
BRANCH  28  29
ATOM     29  C   UNL A   1      33.652  29.267  26.928  1.00  0.00    -0.020 A 
ATOM     30  C   UNL A   1      32.641  30.212  27.078  1.00  0.00     0.087 A 
ATOM     31  C   UNL A   1      34.774  29.626  27.751  1.00  0.00     0.003 A 
ATOM     32  N   UNL A   1      33.061  31.361  27.722  1.00  0.00    -0.361 N 
ATOM     33  C   UNL A   1      34.414  31.311  27.927  1.00  0.00     0.046 A 
ATOM     34  C   UNL A   1      36.497  29.033  27.973  1.00  0.00     0.010 A 
ATOM     35  H   UNL A   1      32.475  32.105  27.992  1.00  0.00     0.166 HD
ATOM     36  C   UNL A   1      35.719  32.478  28.184  1.00  0.00     0.026 A 
ATOM     37  C   UNL A   1      37.830  30.192  28.181  1.00  0.00     0.001 A 
ATOM     38  C   UNL A   1      37.412  31.902  28.372  1.00  0.00     0.002 A 
ENDBRANCH  28  29
ENDBRANCH  16  28
ENDBRANCH  13  16
ENDBRANCH  11  12
BRANCH  11  39
ATOM     39  C   UNL A   1      33.110  25.136  26.154  1.00  0.00     0.101 C 
BRANCH  39  40
ATOM     40  S   UNL A   1      31.981  23.704  27.348  1.00  0.00    -0.177 SA
ATOM     41  H   UNL A   1      32.250  22.442  26.918  1.00  0.00     0.102 HD
ENDBRANCH  39  40
ENDBRANCH  11  39
ENDBRANCH   8  11
ENDBRANCH   6   7
BRANCH   6  42
ATOM     42  C   UNL A   1      31.857  21.123  22.017  1.00  0.00     0.193 C 
BRANCH  42  43
ATOM     43  O   UNL A   1      31.955  19.710  22.202  1.00  0.00    -0.394 OA
ATOM     44  H   UNL A   1      31.428  19.447  22.972  1.00  0.00     0.210 HD
ENDBRANCH  42  43
ENDBRANCH   6  42
ENDBRANCH   4   6
ENDBRANCH   3   4
ENDBRANCH   2   3
ENDBRANCH   1   2
BRANCH   1  45
ATOM     45  O   UNL A   1      36.167  22.555  24.754  1.00  0.00    -0.376 OA
BRANCH  45  46
ATOM     46  C   UNL A   1      37.297  23.385  24.964  1.00  0.00     0.188 C 
BRANCH  46  47
ATOM     47  C   UNL A   1      38.182  23.073  26.170  1.00  0.00     0.188 C 
BRANCH  47  48
ATOM     48  O   UNL A   1      39.555  23.432  26.185  1.00  0.00    -0.376 OA
BRANCH  48  49
ATOM     49  C   UNL A   1      40.479  22.430  26.578  1.00  0.00     0.202 C 
BRANCH  49  50
ATOM     50  C   UNL A   1      41.887  22.942  26.888  1.00  0.00     0.261 C 
BRANCH  50  51
ATOM     51  O   UNL A   1      42.339  23.945  25.959  1.00  0.00    -0.460 OA
BRANCH  51  52
ATOM     52  C   UNL A   1      43.232  23.472  25.045  1.00  0.00     0.338 C 
ATOM     53  O   UNL A   1      43.020  22.627  24.192  1.00  0.00    -0.246 OA
BRANCH  52  54
ATOM     54  C   UNL A   1      44.521  24.189  25.148  1.00  0.00     0.060 A 
ATOM     55  C   UNL A   1      45.678  23.497  24.833  1.00  0.00     0.016 A 
ATOM     56  C   UNL A   1      44.625  25.460  25.717  1.00  0.00     0.016 A 
ATOM     57  C   UNL A   1      46.933  24.074  25.054  1.00  0.00     0.010 A 
ATOM     58  C   UNL A   1      45.893  26.056  25.897  1.00  0.00     0.010 A 
ATOM     59  C   UNL A   1      47.070  25.370  25.551  1.00  0.00    -0.014 A 
BRANCH  59  60
ATOM     60  C   UNL A   1      48.453  25.854  25.855  1.00  0.00     0.031 A 
ATOM     61  C   UNL A   1      49.222  26.576  24.788  1.00  0.00     0.074 A 
ATOM     62  C   UNL A   1      48.973  25.844  27.103  1.00  0.00     0.049 A 
ATOM     63  N   UNL A   1      50.454  27.018  24.804  1.00  0.00    -0.248 NA
ATOM     64  C   UNL A   1      48.499  26.837  23.536  1.00  0.00     0.031 C 
ATOM     65  C   UNL A   1      48.308  25.319  28.288  1.00  0.00     0.029 A 
ATOM     66  N   UNL A   1      50.163  26.343  27.588  1.00  0.00    -0.354 N 
ATOM     67  C   UNL A   1      50.677  27.547  23.542  1.00  0.00     0.074 A 
ATOM     68  C   UNL A   1      49.444  27.394  22.797  1.00  0.00     0.031 C 
ATOM     69  C   UNL A   1      49.051  25.600  29.374  1.00  0.00     0.029 A 
ATOM     70  C   UNL A   1      50.305  26.221  28.952  1.00  0.00     0.049 A 
ATOM     71  H   UNL A   1      50.849  26.750  27.012  1.00  0.00     0.167 HD
ATOM     72  C   UNL A   1      51.814  28.082  23.036  1.00  0.00     0.031 A 
ATOM     73  C   UNL A   1      51.338  26.527  29.767  1.00  0.00     0.031 A 
ATOM     74  C   UNL A   1      53.037  28.265  23.772  1.00  0.00     0.049 A 
ATOM     75  C   UNL A   1      52.623  27.049  29.173  1.00  0.00     0.074 A 
ATOM     76  C   UNL A   1      54.261  28.723  23.314  1.00  0.00     0.029 A 
ATOM     77  N   UNL A   1      53.186  28.021  25.129  1.00  0.00    -0.354 N 
ATOM     78  N   UNL A   1      52.888  27.385  27.935  1.00  0.00    -0.248 NA
ATOM     79  C   UNL A   1      53.770  27.187  30.087  1.00  0.00     0.031 C 
ATOM     80  C   UNL A   1      55.166  28.701  24.382  1.00  0.00     0.029 A 
ATOM     81  C   UNL A   1      54.489  28.292  25.518  1.00  0.00     0.049 A 
ATOM     82  H   UNL A   1      52.472  27.703  25.727  1.00  0.00     0.167 HD
ATOM     83  C   UNL A   1      54.224  27.768  27.920  1.00  0.00     0.074 A 
ATOM     84  C   UNL A   1      54.708  27.659  29.279  1.00  0.00     0.031 C 
ATOM     85  C   UNL A   1      54.983  28.160  26.867  1.00  0.00     0.031 A 
BRANCH  72  86
ATOM     86  C   UNL A   1      51.805  28.371  21.563  1.00  0.00    -0.014 A 
ATOM     87  C   UNL A   1      52.055  27.381  20.601  1.00  0.00     0.009 A 
ATOM     88  C   UNL A   1      51.603  29.695  21.141  1.00  0.00     0.009 A 
ATOM     89  C   UNL A   1      52.162  27.725  19.252  1.00  0.00     0.001 A 
ATOM     90  C   UNL A   1      51.676  30.030  19.791  1.00  0.00     0.001 A 
ATOM     91  C   UNL A   1      51.973  29.048  18.849  1.00  0.00     0.000 A 
ENDBRANCH  72  86
BRANCH  73  92
ATOM     92  C   UNL A   1      51.263  26.238  31.230  1.00  0.00    -0.014 A 
ATOM     93  C   UNL A   1      51.636  24.986  31.747  1.00  0.00     0.009 A 
ATOM     94  C   UNL A   1      50.756  27.204  32.115  1.00  0.00     0.009 A 
ATOM     95  C   UNL A   1      51.490  24.708  33.111  1.00  0.00     0.001 A 
ATOM     96  C   UNL A   1      50.648  26.938  33.481  1.00  0.00     0.001 A 
ATOM     97  C   UNL A   1      51.005  25.686  33.977  1.00  0.00     0.000 A 
ENDBRANCH  73  92
BRANCH  85  98
ATOM     98  C   UNL A   1      56.423  28.504  27.141  1.00  0.00    -0.014 A 
ATOM     99  C   UNL A   1      56.809  29.808  27.491  1.00  0.00     0.009 A 
ATOM    100  C   UNL A   1      57.407  27.506  27.066  1.00  0.00     0.009 A 
ATOM    101  C   UNL A   1      58.153  30.112  27.722  1.00  0.00     0.001 A 
ATOM    102  C   UNL A   1      58.746  27.806  27.326  1.00  0.00     0.001 A 
ATOM    103  C   UNL A   1      59.120  29.111  27.642  1.00  0.00     0.000 A 
ENDBRANCH  85  98
ENDBRANCH  59  60
ENDBRANCH  52  54
ENDBRANCH  51  52
ENDBRANCH  50  51
ENDBRANCH  49  50
ENDBRANCH  48  49
ENDBRANCH  47  48
ENDBRANCH  46  47
ENDBRANCH  45  46
ENDBRANCH   1  45
TORSDOF 29
ENDMDL
