MODEL 1
REMARK VINA RESULT:     -10.2      0.000      0.000
REMARK SMILES CC[C@H](Oc1cccc(/C=C2\SC(=S)N(NC(=O)c3cccc(O)c3)C2=O)c1)C(=O)OCCOCCOCCOC(=O)c1ccc(-c2c3nc(c(-c4ccccc4)c4ccc([nH]4)c(-c4ccccc4)c4nc(c(-c5ccccc5)c5ccc2[nH]5)C=C4)C=C3)cc1
REMARK SMILES IDX 33 1 32 2 31 3 29 4 30 5 3 6 2 7 1 8 4 9 5 10 6 11 28 12
REMARK SMILES IDX 7 13 9 14 8 15 10 16 11 17 12 18 26 19 13 20 15 21 27 22
REMARK SMILES IDX 14 23 16 24 17 25 18 27 19 28 20 29 25 30 21 31 23 32 22 33
REMARK SMILES IDX 24 34 34 36 35 37 36 38 37 39 38 40 39 41 40 42 41 43 42 44
REMARK SMILES IDX 43 45 44 46 90 47 45 48 89 49 46 50 47 51 48 52 83 53 49 54
REMARK SMILES IDX 88 55 82 56 84 57 50 58 87 59 81 60 80 61 51 63 73 64 58 65
REMARK SMILES IDX 72 66 59 67 62 68 71 69 85 70 60 71 61 72 70 74 86 75 63 76
REMARK SMILES IDX 52 77 53 78 57 79 54 80 56 81 55 82 74 83 75 84 79 85 76 86
REMARK SMILES IDX 78 87 77 88 64 89 65 90 69 91 66 92 68 93 67 94
REMARK H PARENT 16 26 24 35 84 62 62 73
REMARK Flexibility Score: inf
ROOT
ATOM      1  C   UNL A   1      34.670  22.288  24.293  1.00  0.00     0.202 C 
ENDROOT
BRANCH   1   2
ATOM      2  C   UNL A   1      34.943  23.618  23.570  1.00  0.00     0.261 C 
BRANCH   2   3
ATOM      3  O   UNL A   1      34.130  23.889  22.411  1.00  0.00    -0.461 OA
BRANCH   3   4
ATOM      4  C   UNL A   1      33.513  25.100  22.382  1.00  0.00     0.347 C 
ATOM      5  O   UNL A   1      33.644  25.922  21.478  1.00  0.00    -0.248 OA
BRANCH   4   6
ATOM      6  C   UNL A   1      32.630  25.395  23.617  1.00  0.00     0.282 C 
BRANCH   6   7
ATOM      7  C   UNL A   1      31.342  24.562  23.428  1.00  0.00     0.054 C 
ATOM      8  C   UNL A   1      31.008  23.522  24.487  1.00  0.00     0.008 C 
ENDBRANCH   6   7
BRANCH   6   9
ATOM      9  O   UNL A   1      32.398  26.774  23.892  1.00  0.00    -0.479 OA
BRANCH   9  10
ATOM     10  C   UNL A   1      32.416  27.203  25.198  1.00  0.00     0.121 A 
ATOM     11  C   UNL A   1      31.330  27.178  26.073  1.00  0.00     0.046 A 
ATOM     12  C   UNL A   1      33.612  27.815  25.598  1.00  0.00     0.054 A 
ATOM     13  C   UNL A   1      31.406  27.842  27.295  1.00  0.00     0.004 A 
ATOM     14  C   UNL A   1      33.678  28.551  26.789  1.00  0.00    -0.021 A 
ATOM     15  C   UNL A   1      32.564  28.537  27.640  1.00  0.00     0.008 A 
BRANCH  14  16
ATOM     16  C   UNL A   1      34.797  29.420  27.203  1.00  0.00     0.029 C 
ATOM     17  C   UNL A   1      34.797  30.686  27.644  1.00  0.00     0.082 C 
ATOM     18  S   UNL A   1      33.536  31.848  27.705  1.00  0.00    -0.052 SA
ATOM     19  C   UNL A   1      36.043  31.280  28.208  1.00  0.00     0.285 C 
ATOM     20  C   UNL A   1      34.649  33.167  28.042  1.00  0.00     0.168 C 
ATOM     21  N   UNL A   1      35.929  32.660  28.174  1.00  0.00    -0.198 N 
ATOM     22  O   UNL A   1      36.946  30.611  28.688  1.00  0.00    -0.266 OA
ATOM     23  S   UNL A   1      34.168  34.756  28.196  1.00  0.00    -0.050 S 
BRANCH  21  24
ATOM     24  N   UNL A   1      36.995  33.515  28.506  1.00  0.00    -0.255 N 
ATOM     25  C   UNL A   1      37.470  33.836  29.762  1.00  0.00     0.270 C 
ATOM     26  H   UNL A   1      37.460  33.939  27.749  1.00  0.00     0.192 HD
ATOM     27  O   UNL A   1      38.481  34.527  29.870  1.00  0.00    -0.267 OA
BRANCH  25  28
ATOM     28  C   UNL A   1      36.752  33.439  30.990  1.00  0.00     0.045 A 
ATOM     29  C   UNL A   1      37.348  32.442  31.778  1.00  0.00     0.014 A 
ATOM     30  C   UNL A   1      35.567  34.058  31.402  1.00  0.00     0.060 A 
ATOM     31  C   UNL A   1      36.803  32.118  33.019  1.00  0.00     0.005 A 
ATOM     32  C   UNL A   1      35.052  33.738  32.655  1.00  0.00     0.116 A 
ATOM     33  C   UNL A   1      35.662  32.782  33.465  1.00  0.00     0.046 A 
BRANCH  32  34
ATOM     34  O   UNL A   1      33.953  34.371  33.157  1.00  0.00    -0.508 OA
ATOM     35  H   UNL A   1      33.719  35.223  32.846  1.00  0.00     0.293 HD
ENDBRANCH  32  34
ENDBRANCH  25  28
ENDBRANCH  21  24
ENDBRANCH  14  16
ENDBRANCH   9  10
ENDBRANCH   6   9
ENDBRANCH   4   6
ENDBRANCH   3   4
ENDBRANCH   2   3
ENDBRANCH   1   2
BRANCH   1  36
ATOM     36  O   UNL A   1      35.748  21.466  24.722  1.00  0.00    -0.376 OA
BRANCH  36  37
ATOM     37  C   UNL A   1      37.079  21.951  24.614  1.00  0.00     0.188 C 
BRANCH  37  38
ATOM     38  C   UNL A   1      38.007  21.911  25.842  1.00  0.00     0.188 C 
BRANCH  38  39
ATOM     39  O   UNL A   1      39.223  21.235  25.655  1.00  0.00    -0.376 OA
BRANCH  39  40
ATOM     40  C   UNL A   1      40.212  21.276  26.666  1.00  0.00     0.202 C 
BRANCH  40  41
ATOM     41  C   UNL A   1      41.140  22.478  26.946  1.00  0.00     0.261 C 
BRANCH  41  42
ATOM     42  O   UNL A   1      40.865  23.725  26.297  1.00  0.00    -0.460 OA
BRANCH  42  43
ATOM     43  C   UNL A   1      40.772  24.818  27.087  1.00  0.00     0.338 C 
ATOM     44  O   UNL A   1      39.868  25.095  27.864  1.00  0.00    -0.246 OA
BRANCH  43  45
ATOM     45  C   UNL A   1      42.056  25.545  27.023  1.00  0.00     0.060 A 
ATOM     46  C   UNL A   1      42.738  25.833  28.215  1.00  0.00     0.016 A 
ATOM     47  C   UNL A   1      42.583  25.946  25.794  1.00  0.00     0.016 A 
ATOM     48  C   UNL A   1      43.942  26.538  28.183  1.00  0.00     0.010 A 
ATOM     49  C   UNL A   1      43.774  26.677  25.766  1.00  0.00     0.010 A 
ATOM     50  C   UNL A   1      44.445  27.001  26.960  1.00  0.00    -0.014 A 
BRANCH  50  51
ATOM     51  C   UNL A   1      45.562  27.978  26.936  1.00  0.00     0.031 A 
ATOM     52  C   UNL A   1      45.229  29.444  26.943  1.00  0.00     0.074 A 
ATOM     53  C   UNL A   1      46.846  27.580  26.904  1.00  0.00     0.049 A 
ATOM     54  N   UNL A   1      46.024  30.478  26.838  1.00  0.00    -0.248 NA
ATOM     55  C   UNL A   1      43.805  29.789  27.084  1.00  0.00     0.031 C 
ATOM     56  C   UNL A   1      47.309  26.194  26.946  1.00  0.00     0.029 A 
ATOM     57  N   UNL A   1      48.001  28.319  26.815  1.00  0.00    -0.354 N 
ATOM     58  C   UNL A   1      45.197  31.593  26.887  1.00  0.00     0.074 A 
ATOM     59  C   UNL A   1      43.838  31.110  27.001  1.00  0.00     0.031 C 
ATOM     60  C   UNL A   1      48.652  26.182  26.866  1.00  0.00     0.029 A 
ATOM     61  C   UNL A   1      49.138  27.554  26.726  1.00  0.00     0.049 A 
ATOM     62  H   UNL A   1      48.012  29.303  26.816  1.00  0.00     0.167 HD
ATOM     63  C   UNL A   1      45.536  32.903  26.842  1.00  0.00     0.031 A 
ATOM     64  C   UNL A   1      50.419  27.919  26.523  1.00  0.00     0.031 A 
ATOM     65  C   UNL A   1      46.883  33.386  26.705  1.00  0.00     0.049 A 
ATOM     66  C   UNL A   1      50.763  29.380  26.381  1.00  0.00     0.074 A 
ATOM     67  C   UNL A   1      47.328  34.696  26.657  1.00  0.00     0.029 A 
ATOM     68  N   UNL A   1      48.002  32.578  26.582  1.00  0.00    -0.354 N 
ATOM     69  N   UNL A   1      49.977  30.427  26.450  1.00  0.00    -0.248 NA
ATOM     70  C   UNL A   1      52.177  29.709  26.140  1.00  0.00     0.031 C 
ATOM     71  C   UNL A   1      48.710  34.681  26.441  1.00  0.00     0.029 A 
ATOM     72  C   UNL A   1      49.134  33.361  26.429  1.00  0.00     0.049 A 
ATOM     73  H   UNL A   1      47.994  31.594  26.600  1.00  0.00     0.167 HD
ATOM     74  C   UNL A   1      50.803  31.536  26.295  1.00  0.00     0.074 A 
ATOM     75  C   UNL A   1      52.152  31.034  26.144  1.00  0.00     0.031 C 
ATOM     76  C   UNL A   1      50.473  32.851  26.281  1.00  0.00     0.031 A 
BRANCH  63  77
ATOM     77  C   UNL A   1      44.418  33.908  26.901  1.00  0.00    -0.014 A 
ATOM     78  C   UNL A   1      43.769  34.350  25.736  1.00  0.00     0.009 A 
ATOM     79  C   UNL A   1      43.990  34.400  28.143  1.00  0.00     0.009 A 
ATOM     80  C   UNL A   1      42.740  35.291  25.814  1.00  0.00     0.001 A 
ATOM     81  C   UNL A   1      42.940  35.315  28.221  1.00  0.00     0.001 A 
ATOM     82  C   UNL A   1      42.323  35.768  27.057  1.00  0.00     0.000 A 
ENDBRANCH  63  77
BRANCH  64  83
ATOM     83  C   UNL A   1      51.483  26.884  26.410  1.00  0.00    -0.014 A 
ATOM     84  C   UNL A   1      52.466  26.751  27.403  1.00  0.00     0.009 A 
ATOM     85  C   UNL A   1      51.539  26.042  25.287  1.00  0.00     0.009 A 
ATOM     86  C   UNL A   1      53.498  25.820  27.259  1.00  0.00     0.001 A 
ATOM     87  C   UNL A   1      52.551  25.088  25.163  1.00  0.00     0.001 A 
ATOM     88  C   UNL A   1      53.536  24.986  26.143  1.00  0.00     0.000 A 
ENDBRANCH  64  83
BRANCH  76  89
ATOM     89  C   UNL A   1      51.594  33.848  26.148  1.00  0.00    -0.014 A 
ATOM     90  C   UNL A   1      52.255  34.368  27.271  1.00  0.00     0.009 A 
ATOM     91  C   UNL A   1      52.027  34.236  24.868  1.00  0.00     0.009 A 
ATOM     92  C   UNL A   1      53.300  35.282  27.116  1.00  0.00     0.001 A 
ATOM     93  C   UNL A   1      53.093  35.123  24.716  1.00  0.00     0.001 A 
ATOM     94  C   UNL A   1      53.721  35.654  25.840  1.00  0.00     0.000 A 
ENDBRANCH  76  89
ENDBRANCH  50  51
ENDBRANCH  43  45
ENDBRANCH  42  43
ENDBRANCH  41  42
ENDBRANCH  40  41
ENDBRANCH  39  40
ENDBRANCH  38  39
ENDBRANCH  37  38
ENDBRANCH  36  37
ENDBRANCH   1  36
TORSDOF 24
ENDMDL
MODEL 2
REMARK VINA RESULT:      -9.7      1.951      6.119
REMARK SMILES CC[C@H](Oc1cccc(/C=C2\SC(=S)N(NC(=O)c3cccc(O)c3)C2=O)c1)C(=O)OCCOCCOCCOC(=O)c1ccc(-c2c3nc(c(-c4ccccc4)c4ccc([nH]4)c(-c4ccccc4)c4nc(c(-c5ccccc5)c5ccc2[nH]5)C=C4)C=C3)cc1
REMARK SMILES IDX 33 1 32 2 31 3 29 4 30 5 3 6 2 7 1 8 4 9 5 10 6 11 28 12
REMARK SMILES IDX 7 13 9 14 8 15 10 16 11 17 12 18 26 19 13 20 15 21 27 22
REMARK SMILES IDX 14 23 16 24 17 25 18 27 19 28 20 29 25 30 21 31 23 32 22 33
REMARK SMILES IDX 24 34 34 36 35 37 36 38 37 39 38 40 39 41 40 42 41 43 42 44
REMARK SMILES IDX 43 45 44 46 90 47 45 48 89 49 46 50 47 51 48 52 83 53 49 54
REMARK SMILES IDX 88 55 82 56 84 57 50 58 87 59 81 60 80 61 51 63 73 64 58 65
REMARK SMILES IDX 72 66 59 67 62 68 71 69 85 70 60 71 61 72 70 74 86 75 63 76
REMARK SMILES IDX 52 77 53 78 57 79 54 80 56 81 55 82 74 83 75 84 79 85 76 86
REMARK SMILES IDX 78 87 77 88 64 89 65 90 69 91 66 92 68 93 67 94
REMARK H PARENT 16 26 24 35 84 62 62 73
REMARK Flexibility Score: inf
ROOT
ATOM      1  C   UNL A   1      35.377  22.659  24.818  1.00  0.00     0.202 C 
ENDROOT
BRANCH   1   2
ATOM      2  C   UNL A   1      34.309  23.738  25.067  1.00  0.00     0.261 C 
BRANCH   2   3
ATOM      3  O   UNL A   1      34.566  25.032  24.485  1.00  0.00    -0.461 OA
BRANCH   3   4
ATOM      4  C   UNL A   1      33.735  25.409  23.477  1.00  0.00     0.347 C 
ATOM      5  O   UNL A   1      33.811  24.989  22.324  1.00  0.00    -0.248 OA
BRANCH   4   6
ATOM      6  C   UNL A   1      32.673  26.456  23.884  1.00  0.00     0.282 C 
BRANCH   6   7
ATOM      7  C   UNL A   1      31.429  26.161  23.014  1.00  0.00     0.054 C 
ATOM      8  C   UNL A   1      30.086  26.035  23.717  1.00  0.00     0.008 C 
ENDBRANCH   6   7
BRANCH   6   9
ATOM      9  O   UNL A   1      33.101  27.815  23.848  1.00  0.00    -0.479 OA
BRANCH   9  10
ATOM     10  C   UNL A   1      32.898  28.606  24.953  1.00  0.00     0.121 A 
ATOM     11  C   UNL A   1      31.972  29.645  25.045  1.00  0.00     0.046 A 
ATOM     12  C   UNL A   1      33.799  28.387  26.005  1.00  0.00     0.054 A 
ATOM     13  C   UNL A   1      32.012  30.517  26.131  1.00  0.00     0.004 A 
ATOM     14  C   UNL A   1      33.900  29.298  27.065  1.00  0.00    -0.021 A 
ATOM     15  C   UNL A   1      32.979  30.354  27.121  1.00  0.00     0.008 A 
BRANCH  14  16
ATOM     16  C   UNL A   1      34.952  29.302  28.100  1.00  0.00     0.029 C 
ATOM     17  C   UNL A   1      35.675  30.313  28.602  1.00  0.00     0.082 C 
ATOM     18  S   UNL A   1      35.808  31.949  28.098  1.00  0.00    -0.052 SA
ATOM     19  C   UNL A   1      36.531  30.095  29.802  1.00  0.00     0.285 C 
ATOM     20  C   UNL A   1      37.214  32.238  29.114  1.00  0.00     0.168 C 
ATOM     21  N   UNL A   1      37.481  31.102  29.856  1.00  0.00    -0.198 N 
ATOM     22  O   UNL A   1      36.327  29.209  30.619  1.00  0.00    -0.266 OA
ATOM     23  S   UNL A   1      38.036  33.688  29.149  1.00  0.00    -0.050 S 
BRANCH  21  24
ATOM     24  N   UNL A   1      38.530  31.103  30.793  1.00  0.00    -0.255 N 
ATOM     25  C   UNL A   1      39.704  30.378  30.759  1.00  0.00     0.270 C 
ATOM     26  H   UNL A   1      38.412  31.694  31.572  1.00  0.00     0.192 HD
ATOM     27  O   UNL A   1      40.564  30.575  31.615  1.00  0.00    -0.267 OA
BRANCH  25  28
ATOM     28  C   UNL A   1      39.929  29.309  29.765  1.00  0.00     0.045 A 
ATOM     29  C   UNL A   1      39.526  28.014  30.125  1.00  0.00     0.014 A 
ATOM     30  C   UNL A   1      40.455  29.564  28.494  1.00  0.00     0.060 A 
ATOM     31  C   UNL A   1      39.576  26.985  29.186  1.00  0.00     0.005 A 
ATOM     32  C   UNL A   1      40.474  28.528  27.563  1.00  0.00     0.116 A 
ATOM     33  C   UNL A   1      40.034  27.248  27.898  1.00  0.00     0.046 A 
BRANCH  32  34
ATOM     34  O   UNL A   1      40.888  28.730  26.279  1.00  0.00    -0.508 OA
ATOM     35  H   UNL A   1      40.424  28.332  25.569  1.00  0.00     0.293 HD
ENDBRANCH  32  34
ENDBRANCH  25  28
ENDBRANCH  21  24
ENDBRANCH  14  16
ENDBRANCH   9  10
ENDBRANCH   6   9
ENDBRANCH   4   6
ENDBRANCH   3   4
ENDBRANCH   2   3
ENDBRANCH   1   2
BRANCH   1  36
ATOM     36  O   UNL A   1      36.306  22.315  25.837  1.00  0.00    -0.376 OA
BRANCH  36  37
ATOM     37  C   UNL A   1      37.542  21.714  25.479  1.00  0.00     0.188 C 
BRANCH  37  38
ATOM     38  C   UNL A   1      38.860  22.306  26.011  1.00  0.00     0.188 C 
BRANCH  38  39
ATOM     39  O   UNL A   1      39.600  21.464  26.858  1.00  0.00    -0.376 OA
BRANCH  39  40
ATOM     40  C   UNL A   1      40.950  21.174  26.556  1.00  0.00     0.202 C 
BRANCH  40  41
ATOM     41  C   UNL A   1      42.159  21.595  27.419  1.00  0.00     0.261 C 
BRANCH  41  42
ATOM     42  O   UNL A   1      42.791  22.852  27.152  1.00  0.00    -0.460 OA
BRANCH  42  43
ATOM     43  C   UNL A   1      44.038  22.811  26.631  1.00  0.00     0.338 C 
ATOM     44  O   UNL A   1      44.595  21.850  26.117  1.00  0.00    -0.246 OA
BRANCH  43  45
ATOM     45  C   UNL A   1      44.566  24.190  26.587  1.00  0.00     0.060 A 
ATOM     46  C   UNL A   1      44.519  24.902  25.379  1.00  0.00     0.016 A 
ATOM     47  C   UNL A   1      45.111  24.776  27.730  1.00  0.00     0.016 A 
ATOM     48  C   UNL A   1      45.032  26.197  25.306  1.00  0.00     0.010 A 
ATOM     49  C   UNL A   1      45.650  26.064  27.649  1.00  0.00     0.010 A 
ATOM     50  C   UNL A   1      45.638  26.770  26.431  1.00  0.00    -0.014 A 
BRANCH  50  51
ATOM     51  C   UNL A   1      46.426  28.020  26.298  1.00  0.00     0.031 A 
ATOM     52  C   UNL A   1      47.909  27.910  26.077  1.00  0.00     0.074 A 
ATOM     53  C   UNL A   1      45.846  29.231  26.374  1.00  0.00     0.049 A 
ATOM     54  N   UNL A   1      48.814  28.853  26.017  1.00  0.00    -0.248 NA
ATOM     55  C   UNL A   1      48.443  26.550  25.901  1.00  0.00     0.031 C 
ATOM     56  C   UNL A   1      44.415  29.480  26.534  1.00  0.00     0.029 A 
ATOM     57  N   UNL A   1      46.406  30.486  26.339  1.00  0.00    -0.354 N 
ATOM     58  C   UNL A   1      50.024  28.201  25.813  1.00  0.00     0.074 A 
ATOM     59  C   UNL A   1      49.742  26.782  25.786  1.00  0.00     0.031 C 
ATOM     60  C   UNL A   1      44.210  30.808  26.600  1.00  0.00     0.029 A 
ATOM     61  C   UNL A   1      45.497  31.498  26.529  1.00  0.00     0.049 A 
ATOM     62  H   UNL A   1      47.366  30.643  26.192  1.00  0.00     0.167 HD
ATOM     63  C   UNL A   1      51.259  28.733  25.658  1.00  0.00     0.031 A 
ATOM     64  C   UNL A   1      45.688  32.825  26.661  1.00  0.00     0.031 A 
ATOM     65  C   UNL A   1      51.545  30.141  25.707  1.00  0.00     0.049 A 
ATOM     66  C   UNL A   1      47.084  33.388  26.581  1.00  0.00     0.074 A 
ATOM     67  C   UNL A   1      52.765  30.778  25.554  1.00  0.00     0.029 A 
ATOM     68  N   UNL A   1      50.603  31.131  25.937  1.00  0.00    -0.354 N 
ATOM     69  N   UNL A   1      48.218  32.765  26.366  1.00  0.00    -0.248 NA
ATOM     70  C   UNL A   1      47.225  34.842  26.754  1.00  0.00     0.031 C 
ATOM     71  C   UNL A   1      52.570  32.148  25.755  1.00  0.00     0.029 A 
ATOM     72  C   UNL A   1      51.217  32.371  25.959  1.00  0.00     0.049 A 
ATOM     73  H   UNL A   1      49.639  30.975  26.065  1.00  0.00     0.167 HD
ATOM     74  C   UNL A   1      49.198  33.752  26.344  1.00  0.00     0.074 A 
ATOM     75  C   UNL A   1      48.524  35.016  26.553  1.00  0.00     0.031 C 
ATOM     76  C   UNL A   1      50.536  33.623  26.166  1.00  0.00     0.031 A 
BRANCH  63  77
ATOM     77  C   UNL A   1      52.403  27.776  25.463  1.00  0.00    -0.014 A 
ATOM     78  C   UNL A   1      53.098  27.232  26.556  1.00  0.00     0.009 A 
ATOM     79  C   UNL A   1      52.775  27.393  24.165  1.00  0.00     0.009 A 
ATOM     80  C   UNL A   1      54.163  26.354  26.350  1.00  0.00     0.001 A 
ATOM     81  C   UNL A   1      53.818  26.489  23.963  1.00  0.00     0.001 A 
ATOM     82  C   UNL A   1      54.519  25.978  25.055  1.00  0.00     0.000 A 
ENDBRANCH  63  77
BRANCH  64  83
ATOM     83  C   UNL A   1      44.530  33.726  26.916  1.00  0.00    -0.014 A 
ATOM     84  C   UNL A   1      43.882  34.381  25.857  1.00  0.00     0.009 A 
ATOM     85  C   UNL A   1      44.086  33.960  28.228  1.00  0.00     0.009 A 
ATOM     86  C   UNL A   1      42.836  35.273  26.109  1.00  0.00     0.001 A 
ATOM     87  C   UNL A   1      43.018  34.826  28.474  1.00  0.00     0.001 A 
ATOM     88  C   UNL A   1      42.402  35.490  27.415  1.00  0.00     0.000 A 
ENDBRANCH  64  83
BRANCH  76  89
ATOM     89  C   UNL A   1      51.358  34.884  26.137  1.00  0.00    -0.014 A 
ATOM     90  C   UNL A   1      51.997  35.373  27.287  1.00  0.00     0.009 A 
ATOM     91  C   UNL A   1      51.534  35.568  24.922  1.00  0.00     0.009 A 
ATOM     92  C   UNL A   1      52.764  36.540  27.228  1.00  0.00     0.001 A 
ATOM     93  C   UNL A   1      52.328  36.714  24.859  1.00  0.00     0.001 A 
ATOM     94  C   UNL A   1      52.933  37.205  26.014  1.00  0.00     0.000 A 
ENDBRANCH  76  89
ENDBRANCH  50  51
ENDBRANCH  43  45
ENDBRANCH  42  43
ENDBRANCH  41  42
ENDBRANCH  40  41
ENDBRANCH  39  40
ENDBRANCH  38  39
ENDBRANCH  37  38
ENDBRANCH  36  37
ENDBRANCH   1  36
TORSDOF 24
ENDMDL
MODEL 3
REMARK VINA RESULT:      -9.6      3.850      6.079
REMARK SMILES CC[C@H](Oc1cccc(/C=C2\SC(=S)N(NC(=O)c3cccc(O)c3)C2=O)c1)C(=O)OCCOCCOCCOC(=O)c1ccc(-c2c3nc(c(-c4ccccc4)c4ccc([nH]4)c(-c4ccccc4)c4nc(c(-c5ccccc5)c5ccc2[nH]5)C=C4)C=C3)cc1
REMARK SMILES IDX 33 1 32 2 31 3 29 4 30 5 3 6 2 7 1 8 4 9 5 10 6 11 28 12
REMARK SMILES IDX 7 13 9 14 8 15 10 16 11 17 12 18 26 19 13 20 15 21 27 22
REMARK SMILES IDX 14 23 16 24 17 25 18 27 19 28 20 29 25 30 21 31 23 32 22 33
REMARK SMILES IDX 24 34 34 36 35 37 36 38 37 39 38 40 39 41 40 42 41 43 42 44
REMARK SMILES IDX 43 45 44 46 90 47 45 48 89 49 46 50 47 51 48 52 83 53 49 54
REMARK SMILES IDX 88 55 82 56 84 57 50 58 87 59 81 60 80 61 51 63 73 64 58 65
REMARK SMILES IDX 72 66 59 67 62 68 71 69 85 70 60 71 61 72 70 74 86 75 63 76
REMARK SMILES IDX 52 77 53 78 57 79 54 80 56 81 55 82 74 83 75 84 79 85 76 86
REMARK SMILES IDX 78 87 77 88 64 89 65 90 69 91 66 92 68 93 67 94
REMARK H PARENT 16 26 24 35 84 62 62 73
REMARK Flexibility Score: inf
ROOT
ATOM      1  C   UNL A   1      31.475  22.591  23.289  1.00  0.00     0.202 C 
ENDROOT
BRANCH   1   2
ATOM      2  C   UNL A   1      32.366  23.836  23.139  1.00  0.00     0.261 C 
BRANCH   2   3
ATOM      3  O   UNL A   1      32.137  24.898  24.085  1.00  0.00    -0.461 OA
BRANCH   3   4
ATOM      4  C   UNL A   1      33.243  25.413  24.686  1.00  0.00     0.347 C 
ATOM      5  O   UNL A   1      34.120  24.735  25.217  1.00  0.00    -0.248 OA
BRANCH   4   6
ATOM      6  C   UNL A   1      33.312  26.957  24.679  1.00  0.00     0.282 C 
BRANCH   6   7
ATOM      7  C   UNL A   1      33.645  27.363  23.225  1.00  0.00     0.054 C 
ATOM      8  C   UNL A   1      33.767  28.846  22.913  1.00  0.00     0.008 C 
ENDBRANCH   6   7
BRANCH   6   9
ATOM      9  O   UNL A   1      34.170  27.539  25.657  1.00  0.00    -0.479 OA
BRANCH   9  10
ATOM     10  C   UNL A   1      33.716  28.615  26.384  1.00  0.00     0.121 A 
ATOM     11  C   UNL A   1      32.426  29.141  26.330  1.00  0.00     0.046 A 
ATOM     12  C   UNL A   1      34.701  29.273  27.135  1.00  0.00     0.054 A 
ATOM     13  C   UNL A   1      32.147  30.362  26.939  1.00  0.00     0.004 A 
ATOM     14  C   UNL A   1      34.456  30.537  27.687  1.00  0.00    -0.021 A 
ATOM     15  C   UNL A   1      33.158  31.061  27.595  1.00  0.00     0.008 A 
BRANCH  14  16
ATOM     16  C   UNL A   1      35.468  31.422  28.296  1.00  0.00     0.029 C 
ATOM     17  C   UNL A   1      36.390  31.171  29.236  1.00  0.00     0.082 C 
ATOM     18  S   UNL A   1      36.619  29.796  30.237  1.00  0.00    -0.052 SA
ATOM     19  C   UNL A   1      37.447  32.179  29.533  1.00  0.00     0.285 C 
ATOM     20  C   UNL A   1      37.754  30.638  31.283  1.00  0.00     0.168 C 
ATOM     21  N   UNL A   1      37.976  31.909  30.784  1.00  0.00    -0.198 N 
ATOM     22  O   UNL A   1      37.809  33.027  28.731  1.00  0.00    -0.266 OA
ATOM     23  S   UNL A   1      38.442  29.945  32.635  1.00  0.00    -0.050 S 
BRANCH  21  24
ATOM     24  N   UNL A   1      38.898  32.762  31.417  1.00  0.00    -0.255 N 
ATOM     25  C   UNL A   1      38.662  33.670  32.430  1.00  0.00     0.270 C 
ATOM     26  H   UNL A   1      39.827  32.706  31.096  1.00  0.00     0.192 HD
ATOM     27  O   UNL A   1      39.607  34.268  32.940  1.00  0.00    -0.267 OA
BRANCH  25  28
ATOM     28  C   UNL A   1      37.293  34.005  32.870  1.00  0.00     0.045 A 
ATOM     29  C   UNL A   1      36.867  33.455  34.089  1.00  0.00     0.014 A 
ATOM     30  C   UNL A   1      36.467  34.880  32.156  1.00  0.00     0.060 A 
ATOM     31  C   UNL A   1      35.644  33.840  34.636  1.00  0.00     0.005 A 
ATOM     32  C   UNL A   1      35.260  35.271  32.731  1.00  0.00     0.116 A 
ATOM     33  C   UNL A   1      34.849  34.764  33.962  1.00  0.00     0.046 A 
BRANCH  32  34
ATOM     34  O   UNL A   1      34.450  36.191  32.132  1.00  0.00    -0.508 OA
ATOM     35  H   UNL A   1      33.761  35.910  31.563  1.00  0.00     0.293 HD
ENDBRANCH  32  34
ENDBRANCH  25  28
ENDBRANCH  21  24
ENDBRANCH  14  16
ENDBRANCH   9  10
ENDBRANCH   6   9
ENDBRANCH   4   6
ENDBRANCH   3   4
ENDBRANCH   2   3
ENDBRANCH   1   2
BRANCH   1  36
ATOM     36  O   UNL A   1      32.028  21.359  23.736  1.00  0.00    -0.376 OA
BRANCH  36  37
ATOM     37  C   UNL A   1      33.375  21.322  24.186  1.00  0.00     0.188 C 
BRANCH  37  38
ATOM     38  C   UNL A   1      33.673  21.141  25.686  1.00  0.00     0.188 C 
BRANCH  38  39
ATOM     39  O   UNL A   1      34.996  21.411  26.073  1.00  0.00    -0.376 OA
BRANCH  39  40
ATOM     40  C   UNL A   1      36.069  20.985  25.256  1.00  0.00     0.202 C 
BRANCH  40  41
ATOM     41  C   UNL A   1      37.295  21.849  24.887  1.00  0.00     0.261 C 
BRANCH  41  42
ATOM     42  O   UNL A   1      38.297  22.081  25.884  1.00  0.00    -0.460 OA
BRANCH  42  43
ATOM     43  C   UNL A   1      39.317  21.195  25.944  1.00  0.00     0.338 C 
ATOM     44  O   UNL A   1      39.373  20.093  25.414  1.00  0.00    -0.246 OA
BRANCH  43  45
ATOM     45  C   UNL A   1      40.468  21.858  26.589  1.00  0.00     0.060 A 
ATOM     46  C   UNL A   1      40.354  23.201  26.978  1.00  0.00     0.016 A 
ATOM     47  C   UNL A   1      41.658  21.160  26.803  1.00  0.00     0.016 A 
ATOM     48  C   UNL A   1      41.435  23.856  27.569  1.00  0.00     0.010 A 
ATOM     49  C   UNL A   1      42.750  21.826  27.369  1.00  0.00     0.010 A 
ATOM     50  C   UNL A   1      42.653  23.183  27.729  1.00  0.00    -0.014 A 
BRANCH  50  51
ATOM     51  C   UNL A   1      43.878  23.937  28.094  1.00  0.00     0.031 A 
ATOM     52  C   UNL A   1      44.227  24.071  29.550  1.00  0.00     0.074 A 
ATOM     53  C   UNL A   1      44.668  24.495  27.160  1.00  0.00     0.049 A 
ATOM     54  N   UNL A   1      45.192  24.751  30.115  1.00  0.00    -0.248 NA
ATOM     55  C   UNL A   1      43.368  23.341  30.497  1.00  0.00     0.031 C 
ATOM     56  C   UNL A   1      44.474  24.398  25.714  1.00  0.00     0.029 A 
ATOM     57  N   UNL A   1      45.792  25.273  27.298  1.00  0.00    -0.354 N 
ATOM     58  C   UNL A   1      45.047  24.543  31.482  1.00  0.00     0.074 A 
ATOM     59  C   UNL A   1      43.887  23.698  31.662  1.00  0.00     0.031 C 
ATOM     60  C   UNL A   1      45.439  25.104  25.098  1.00  0.00     0.029 A 
ATOM     61  C   UNL A   1      46.291  25.736  26.105  1.00  0.00     0.049 A 
ATOM     62  H   UNL A   1      46.200  25.478  28.170  1.00  0.00     0.167 HD
ATOM     63  C   UNL A   1      45.812  25.010  32.497  1.00  0.00     0.031 A 
ATOM     64  C   UNL A   1      47.299  26.594  25.858  1.00  0.00     0.031 A 
ATOM     65  C   UNL A   1      46.952  25.868  32.322  1.00  0.00     0.049 A 
ATOM     66  C   UNL A   1      48.078  27.179  27.010  1.00  0.00     0.074 A 
ATOM     67  C   UNL A   1      47.795  26.389  33.289  1.00  0.00     0.029 A 
ATOM     68  N   UNL A   1      47.403  26.343  31.101  1.00  0.00    -0.354 N 
ATOM     69  N   UNL A   1      47.947  26.958  28.296  1.00  0.00    -0.248 NA
ATOM     70  C   UNL A   1      49.152  28.126  26.672  1.00  0.00     0.031 C 
ATOM     71  C   UNL A   1      48.717  27.229  32.658  1.00  0.00     0.029 A 
ATOM     72  C   UNL A   1      48.494  27.173  31.291  1.00  0.00     0.049 A 
ATOM     73  H   UNL A   1      47.006  26.122  30.227  1.00  0.00     0.167 HD
ATOM     74  C   UNL A   1      48.940  27.711  28.915  1.00  0.00     0.074 A 
ATOM     75  C   UNL A   1      49.674  28.381  27.863  1.00  0.00     0.031 C 
ATOM     76  C   UNL A   1      49.219  27.834  30.236  1.00  0.00     0.031 A 
BRANCH  63  77
ATOM     77  C   UNL A   1      45.408  24.631  33.895  1.00  0.00    -0.014 A 
ATOM     78  C   UNL A   1      44.591  25.468  34.674  1.00  0.00     0.009 A 
ATOM     79  C   UNL A   1      45.831  23.406  34.433  1.00  0.00     0.009 A 
ATOM     80  C   UNL A   1      44.238  25.100  35.974  1.00  0.00     0.001 A 
ATOM     81  C   UNL A   1      45.449  23.026  35.720  1.00  0.00     0.001 A 
ATOM     82  C   UNL A   1      44.662  23.877  36.493  1.00  0.00     0.000 A 
ENDBRANCH  63  77
BRANCH  64  83
ATOM     83  C   UNL A   1      47.621  26.988  24.459  1.00  0.00    -0.014 A 
ATOM     84  C   UNL A   1      46.885  27.989  23.806  1.00  0.00     0.009 A 
ATOM     85  C   UNL A   1      48.651  26.340  23.757  1.00  0.00     0.009 A 
ATOM     86  C   UNL A   1      47.153  28.310  22.473  1.00  0.00     0.001 A 
ATOM     87  C   UNL A   1      48.938  26.687  22.435  1.00  0.00     0.001 A 
ATOM     88  C   UNL A   1      48.181  27.663  21.791  1.00  0.00     0.000 A 
ENDBRANCH  64  83
BRANCH  76  89
ATOM     89  C   UNL A   1      50.399  28.686  30.621  1.00  0.00    -0.014 A 
ATOM     90  C   UNL A   1      50.238  30.000  31.087  1.00  0.00     0.009 A 
ATOM     91  C   UNL A   1      51.694  28.143  30.561  1.00  0.00     0.009 A 
ATOM     92  C   UNL A   1      51.351  30.764  31.448  1.00  0.00     0.001 A 
ATOM     93  C   UNL A   1      52.801  28.897  30.954  1.00  0.00     0.001 A 
ATOM     94  C   UNL A   1      52.629  30.209  31.388  1.00  0.00     0.000 A 
ENDBRANCH  76  89
ENDBRANCH  50  51
ENDBRANCH  43  45
ENDBRANCH  42  43
ENDBRANCH  41  42
ENDBRANCH  40  41
ENDBRANCH  39  40
ENDBRANCH  38  39
ENDBRANCH  37  38
ENDBRANCH  36  37
ENDBRANCH   1  36
TORSDOF 24
ENDMDL
