MODEL 1
REMARK VINA RESULT:     -12.4      0.000      0.000
REMARK SMILES Cc1cc(C(=O)OCCOCCOCCOC(=O)c2ccc(-c3c4nc(c(-c5ccccc5)c5ccc([nH]5)c(-c5ccccc5)c5nc(c(-c6ccccc6)c6ccc3[nH]6)C=C5)C=C4)cc2)ccc1NS(=O)(=O)c1ccc(C#N)cc1C
REMARK SMILES IDX 11 1 10 2 9 3 8 4 7 5 5 6 6 7 4 8 1 9 2 10 3 11 69 12 68 13
REMARK SMILES IDX 67 14 70 15 71 17 72 18 73 19 74 20 75 21 81 22 76 23 80 24
REMARK SMILES IDX 82 25 77 26 78 27 79 28 12 29 13 30 14 31 15 32 16 33 17 34
REMARK SMILES IDX 18 35 19 36 20 37 66 38 21 39 65 40 22 41 23 42 24 43 59 44
REMARK SMILES IDX 25 45 64 46 58 47 60 48 26 49 63 50 57 51 56 52 27 54 49 55
REMARK SMILES IDX 34 56 48 57 35 58 38 59 47 60 61 61 36 62 37 63 46 65 62 66
REMARK SMILES IDX 39 67 28 68 29 69 33 70 30 71 32 72 31 73 50 74 51 75 55 76
REMARK SMILES IDX 52 77 54 78 53 79 40 80 41 81 45 82 42 83 44 84 43 85
REMARK H PARENT 70 16 60 53 38 64
REMARK Flexibility Score: inf
ROOT
ATOM      1  C   UNL A   1      34.955  31.849  28.646  1.00  0.00     0.188 C 
ENDROOT
BRANCH   1   2
ATOM      2  O   UNL A   1      33.582  31.749  28.306  1.00  0.00    -0.376 OA
BRANCH   2   3
ATOM      3  C   UNL A   1      32.915  31.010  27.279  1.00  0.00     0.202 C 
BRANCH   3   4
ATOM      4  C   UNL A   1      31.490  31.078  26.353  1.00  0.00     0.261 C 
BRANCH   4   5
ATOM      5  O   UNL A   1      30.914  30.473  24.747  1.00  0.00    -0.460 OA
BRANCH   5   6
ATOM      6  C   UNL A   1      30.711  29.316  23.872  1.00  0.00     0.338 C 
ATOM      7  O   UNL A   1      30.232  29.245  22.742  1.00  0.00    -0.246 OA
BRANCH   6   8
ATOM      8  C   UNL A   1      31.178  27.954  24.215  1.00  0.00     0.060 A 
ATOM      9  C   UNL A   1      32.106  24.684  22.398  1.00  0.00     0.046 C 
ATOM     10  C   UNL A   1      31.509  25.638  23.408  1.00  0.00    -0.026 A 
ATOM     11  C   UNL A   1      31.518  27.020  23.174  1.00  0.00     0.021 A 
ATOM     12  C   UNL A   1      31.052  25.246  24.670  1.00  0.00     0.052 A 
ATOM     13  C   UNL A   1      30.997  26.160  25.734  1.00  0.00     0.028 A 
ATOM     14  C   UNL A   1      31.053  27.527  25.511  1.00  0.00     0.018 A 
BRANCH  12  15
ATOM     15  N   UNL A   1      30.426  23.985  24.908  1.00  0.00    -0.279 N 
ATOM     16  H   UNL A   1      29.661  23.702  24.357  1.00  0.00     0.180 HD
BRANCH  15  17
ATOM     17  S   UNL A   1      31.017  22.953  26.169  1.00  0.00     0.262 S 
ATOM     18  O   UNL A   1      30.965  23.721  27.395  1.00  0.00    -0.201 OA
ATOM     19  O   UNL A   1      30.186  21.777  26.012  1.00  0.00    -0.201 OA
BRANCH  17  20
ATOM     20  C   UNL A   1      32.747  22.468  25.943  1.00  0.00     0.090 A 
ATOM     21  C   UNL A   1      33.636  22.628  27.016  1.00  0.00     0.024 A 
ATOM     22  C   UNL A   1      33.241  21.843  24.780  1.00  0.00    -0.029 A 
ATOM     23  C   UNL A   1      35.021  22.467  26.853  1.00  0.00     0.021 A 
ATOM     24  C   UNL A   1      34.643  21.684  24.621  1.00  0.00     0.024 A 
ATOM     25  C   UNL A   1      32.406  21.139  23.745  1.00  0.00     0.046 C 
ATOM     26  C   UNL A   1      35.538  22.040  25.633  1.00  0.00     0.052 A 
BRANCH  26  27
ATOM     27  C   UNL A   1      36.941  21.911  25.441  1.00  0.00     0.099 C 
ATOM     28  N   UNL A   1      38.104  21.786  25.277  1.00  0.00    -0.192 NA
ENDBRANCH  26  27
ENDBRANCH  17  20
ENDBRANCH  15  17
ENDBRANCH  12  15
ENDBRANCH   6   8
ENDBRANCH   5   6
ENDBRANCH   4   5
ENDBRANCH   3   4
ENDBRANCH   2   3
ENDBRANCH   1   2
BRANCH   1  29
ATOM     29  C   UNL A   1      35.773  33.047  28.265  1.00  0.00     0.188 C 
BRANCH  29  30
ATOM     30  O   UNL A   1      35.513  34.091  29.175  1.00  0.00    -0.376 OA
BRANCH  30  31
ATOM     31  C   UNL A   1      34.565  35.031  28.717  1.00  0.00     0.202 C 
BRANCH  31  32
ATOM     32  C   UNL A   1      33.425  35.302  29.722  1.00  0.00     0.261 C 
BRANCH  32  33
ATOM     33  O   UNL A   1      33.460  34.377  30.840  1.00  0.00    -0.460 OA
BRANCH  33  34
ATOM     34  C   UNL A   1      33.509  34.881  32.126  1.00  0.00     0.338 C 
ATOM     35  O   UNL A   1      32.774  35.746  32.563  1.00  0.00    -0.246 OA
BRANCH  34  36
ATOM     36  C   UNL A   1      34.766  34.399  32.807  1.00  0.00     0.060 A 
ATOM     37  C   UNL A   1      36.019  35.037  32.832  1.00  0.00     0.016 A 
ATOM     38  C   UNL A   1      34.811  33.072  32.954  1.00  0.00     0.016 A 
ATOM     39  C   UNL A   1      37.289  34.304  32.685  1.00  0.00     0.010 A 
ATOM     40  C   UNL A   1      35.967  32.508  32.434  1.00  0.00     0.010 A 
ATOM     41  C   UNL A   1      37.336  32.960  32.320  1.00  0.00    -0.014 A 
BRANCH  41  42
ATOM     42  C   UNL A   1      38.783  32.069  31.827  1.00  0.00     0.031 A 
ATOM     43  C   UNL A   1      39.067  30.692  30.748  1.00  0.00     0.074 A 
ATOM     44  C   UNL A   1      39.961  32.493  32.346  1.00  0.00     0.049 A 
ATOM     45  N   UNL A   1      39.824  29.658  31.074  1.00  0.00    -0.248 NA
ATOM     46  C   UNL A   1      38.326  30.241  29.477  1.00  0.00     0.031 C 
ATOM     47  C   UNL A   1      41.330  32.083  32.021  1.00  0.00     0.029 A 
ATOM     48  N   UNL A   1      40.155  33.475  33.321  1.00  0.00    -0.354 N 
ATOM     49  C   UNL A   1      39.576  28.620  30.143  1.00  0.00     0.074 A 
ATOM     50  C   UNL A   1      38.394  28.931  29.483  1.00  0.00     0.031 C 
ATOM     51  C   UNL A   1      42.155  32.535  32.987  1.00  0.00     0.029 A 
ATOM     52  C   UNL A   1      41.319  33.141  34.013  1.00  0.00     0.049 A 
ATOM     53  H   UNL A   1      39.579  34.256  33.489  1.00  0.00     0.167 HD
ATOM     54  C   UNL A   1      40.461  27.679  29.721  1.00  0.00     0.031 A 
ATOM     55  C   UNL A   1      41.206  32.762  35.315  1.00  0.00     0.031 A 
ATOM     56  C   UNL A   1      41.637  27.837  30.526  1.00  0.00     0.049 A 
ATOM     57  C   UNL A   1      41.609  31.311  35.442  1.00  0.00     0.074 A 
ATOM     58  C   UNL A   1      42.718  28.686  30.389  1.00  0.00     0.029 A 
ATOM     59  N   UNL A   1      41.488  27.575  31.876  1.00  0.00    -0.354 N 
ATOM     60  N   UNL A   1      41.569  30.441  34.463  1.00  0.00    -0.248 NA
ATOM     61  C   UNL A   1      42.191  30.759  36.658  1.00  0.00     0.031 C 
ATOM     62  C   UNL A   1      43.128  29.049  31.708  1.00  0.00     0.029 A 
ATOM     63  C   UNL A   1      42.352  28.352  32.622  1.00  0.00     0.049 A 
ATOM     64  H   UNL A   1      40.853  26.925  32.254  1.00  0.00     0.167 HD
ATOM     65  C   UNL A   1      42.158  29.275  34.866  1.00  0.00     0.074 A 
ATOM     66  C   UNL A   1      42.516  29.521  36.252  1.00  0.00     0.031 C 
ATOM     67  C   UNL A   1      42.351  28.185  34.066  1.00  0.00     0.031 A 
BRANCH  54  68
ATOM     68  C   UNL A   1      40.332  26.942  28.372  1.00  0.00    -0.014 A 
ATOM     69  C   UNL A   1      39.563  25.772  28.313  1.00  0.00     0.009 A 
ATOM     70  C   UNL A   1      40.991  27.264  27.156  1.00  0.00     0.009 A 
ATOM     71  C   UNL A   1      39.532  24.947  27.169  1.00  0.00     0.001 A 
ATOM     72  C   UNL A   1      41.021  26.420  26.032  1.00  0.00     0.001 A 
ATOM     73  C   UNL A   1      40.288  25.250  26.041  1.00  0.00     0.000 A 
ENDBRANCH  54  68
BRANCH  55  74
ATOM     74  C   UNL A   1      40.154  33.528  36.077  1.00  0.00    -0.014 A 
ATOM     75  C   UNL A   1      38.892  32.897  36.256  1.00  0.00     0.009 A 
ATOM     76  C   UNL A   1      40.426  34.642  36.883  1.00  0.00     0.009 A 
ATOM     77  C   UNL A   1      38.017  33.256  37.291  1.00  0.00     0.001 A 
ATOM     78  C   UNL A   1      39.520  35.032  37.895  1.00  0.00     0.001 A 
ATOM     79  C   UNL A   1      38.340  34.315  38.123  1.00  0.00     0.000 A 
ENDBRANCH  55  74
BRANCH  67  80
ATOM     80  C   UNL A   1      42.561  26.786  34.599  1.00  0.00    -0.014 A 
ATOM     81  C   UNL A   1      41.557  26.057  35.243  1.00  0.00     0.009 A 
ATOM     82  C   UNL A   1      43.742  26.083  34.263  1.00  0.00     0.009 A 
ATOM     83  C   UNL A   1      41.742  24.715  35.589  1.00  0.00     0.001 A 
ATOM     84  C   UNL A   1      43.893  24.722  34.520  1.00  0.00     0.001 A 
ATOM     85  C   UNL A   1      42.900  24.044  35.208  1.00  0.00     0.000 A 
ENDBRANCH  67  80
ENDBRANCH  41  42
ENDBRANCH  34  36
ENDBRANCH  33  34
ENDBRANCH  32  33
ENDBRANCH  31  32
ENDBRANCH  30  31
ENDBRANCH  29  30
ENDBRANCH   1  29
TORSDOF 21
ENDMDL
MODEL 2
REMARK VINA RESULT:     -11.9      3.370      8.509
REMARK SMILES Cc1cc(C(=O)OCCOCCOCCOC(=O)c2ccc(-c3c4nc(c(-c5ccccc5)c5ccc([nH]5)c(-c5ccccc5)c5nc(c(-c6ccccc6)c6ccc3[nH]6)C=C5)C=C4)cc2)ccc1NS(=O)(=O)c1ccc(C#N)cc1C
REMARK SMILES IDX 11 1 10 2 9 3 8 4 7 5 5 6 6 7 4 8 1 9 2 10 3 11 69 12 68 13
REMARK SMILES IDX 67 14 70 15 71 17 72 18 73 19 74 20 75 21 81 22 76 23 80 24
REMARK SMILES IDX 82 25 77 26 78 27 79 28 12 29 13 30 14 31 15 32 16 33 17 34
REMARK SMILES IDX 18 35 19 36 20 37 66 38 21 39 65 40 22 41 23 42 24 43 59 44
REMARK SMILES IDX 25 45 64 46 58 47 60 48 26 49 63 50 57 51 56 52 27 54 49 55
REMARK SMILES IDX 34 56 48 57 35 58 38 59 47 60 61 61 36 62 37 63 46 65 62 66
REMARK SMILES IDX 39 67 28 68 29 69 33 70 30 71 32 72 31 73 50 74 51 75 55 76
REMARK SMILES IDX 52 77 54 78 53 79 40 80 41 81 45 82 42 83 44 84 43 85
REMARK H PARENT 70 16 60 53 38 64
REMARK Flexibility Score: inf
ROOT
ATOM      1  C   UNL A   1      40.309  22.226  26.458  1.00  0.00     0.188 C 
ENDROOT
BRANCH   1   2
ATOM      2  O   UNL A   1      38.901  22.072  26.376  1.00  0.00    -0.376 OA
BRANCH   2   3
ATOM      3  C   UNL A   1      37.887  22.930  25.848  1.00  0.00     0.202 C 
BRANCH   3   4
ATOM      4  C   UNL A   1      36.198  23.128  25.908  1.00  0.00     0.261 C 
BRANCH   4   5
ATOM      5  O   UNL A   1      34.827  22.573  26.951  1.00  0.00    -0.460 OA
BRANCH   5   6
ATOM      6  C   UNL A   1      33.378  22.540  27.157  1.00  0.00     0.338 C 
ATOM      7  O   UNL A   1      32.719  22.542  28.196  1.00  0.00    -0.246 OA
BRANCH   6   8
ATOM      8  C   UNL A   1      32.403  22.595  26.045  1.00  0.00     0.060 A 
ATOM      9  C   UNL A   1      32.104  21.343  22.412  1.00  0.00     0.046 C 
ATOM     10  C   UNL A   1      32.037  22.247  23.621  1.00  0.00    -0.026 A 
ATOM     11  C   UNL A   1      32.652  21.873  24.825  1.00  0.00     0.021 A 
ATOM     12  C   UNL A   1      31.263  23.410  23.680  1.00  0.00     0.052 A 
ATOM     13  C   UNL A   1      30.818  23.922  24.910  1.00  0.00     0.028 A 
ATOM     14  C   UNL A   1      31.394  23.519  26.105  1.00  0.00     0.018 A 
BRANCH  12  15
ATOM     15  N   UNL A   1      31.055  24.257  22.549  1.00  0.00    -0.279 N 
ATOM     16  H   UNL A   1      30.292  24.098  21.947  1.00  0.00     0.180 HD
BRANCH  15  17
ATOM     17  S   UNL A   1      32.145  25.568  22.241  1.00  0.00     0.262 S 
ATOM     18  O   UNL A   1      33.477  25.004  22.206  1.00  0.00    -0.201 OA
ATOM     19  O   UNL A   1      31.576  26.162  21.048  1.00  0.00    -0.201 OA
BRANCH  17  20
ATOM     20  C   UNL A   1      32.153  26.815  23.554  1.00  0.00     0.090 A 
ATOM     21  C   UNL A   1      31.072  27.703  23.646  1.00  0.00     0.024 A 
ATOM     22  C   UNL A   1      33.138  26.888  24.561  1.00  0.00    -0.029 A 
ATOM     23  C   UNL A   1      31.105  28.816  24.502  1.00  0.00     0.021 A 
ATOM     24  C   UNL A   1      33.166  28.015  25.422  1.00  0.00     0.024 A 
ATOM     25  C   UNL A   1      34.075  25.775  24.948  1.00  0.00     0.046 C 
ATOM     26  C   UNL A   1      32.182  29.005  25.364  1.00  0.00     0.052 A 
BRANCH  26  27
ATOM     27  C   UNL A   1      32.248  30.147  26.207  1.00  0.00     0.099 C 
ATOM     28  N   UNL A   1      32.320  31.096  26.908  1.00  0.00    -0.192 NA
ENDBRANCH  26  27
ENDBRANCH  17  20
ENDBRANCH  15  17
ENDBRANCH  12  15
ENDBRANCH   6   8
ENDBRANCH   5   6
ENDBRANCH   4   5
ENDBRANCH   3   4
ENDBRANCH   2   3
ENDBRANCH   1   2
BRANCH   1  29
ATOM     29  C   UNL A   1      41.100  21.624  27.581  1.00  0.00     0.188 C 
BRANCH  29  30
ATOM     30  O   UNL A   1      41.621  22.658  28.383  1.00  0.00    -0.376 OA
BRANCH  30  31
ATOM     31  C   UNL A   1      41.887  23.854  27.681  1.00  0.00     0.202 C 
BRANCH  31  32
ATOM     32  C   UNL A   1      43.377  24.257  27.684  1.00  0.00     0.261 C 
BRANCH  32  33
ATOM     33  O   UNL A   1      43.557  25.658  27.352  1.00  0.00    -0.460 OA
BRANCH  33  34
ATOM     34  C   UNL A   1      43.106  26.120  26.130  1.00  0.00     0.338 C 
ATOM     35  O   UNL A   1      43.460  25.690  25.048  1.00  0.00    -0.246 OA
BRANCH  34  36
ATOM     36  C   UNL A   1      42.328  27.397  26.332  1.00  0.00     0.060 A 
ATOM     37  C   UNL A   1      42.722  28.525  27.074  1.00  0.00     0.016 A 
ATOM     38  C   UNL A   1      41.007  27.234  26.221  1.00  0.00     0.016 A 
ATOM     39  C   UNL A   1      41.794  29.271  27.942  1.00  0.00     0.010 A 
ATOM     40  C   UNL A   1      40.309  27.707  27.322  1.00  0.00     0.010 A 
ATOM     41  C   UNL A   1      40.516  28.804  28.242  1.00  0.00    -0.014 A 
BRANCH  41  42
ATOM     42  C   UNL A   1      39.442  29.451  29.491  1.00  0.00     0.031 A 
ATOM     43  C   UNL A   1      38.214  30.728  29.512  1.00  0.00     0.074 A 
ATOM     44  C   UNL A   1      39.523  28.875  30.716  1.00  0.00     0.049 A 
ATOM     45  N   UNL A   1      38.140  31.649  30.458  1.00  0.00    -0.248 NA
ATOM     46  C   UNL A   1      37.273  31.236  28.405  1.00  0.00     0.031 C 
ATOM     47  C   UNL A   1      38.677  29.063  31.897  1.00  0.00     0.029 A 
ATOM     48  N   UNL A   1      40.442  27.912  31.142  1.00  0.00    -0.354 N 
ATOM     49  C   UNL A   1      37.276  32.676  30.005  1.00  0.00     0.074 A 
ATOM     50  C   UNL A   1      37.134  32.521  28.632  1.00  0.00     0.031 C 
ATOM     51  C   UNL A   1      39.305  28.530  32.965  1.00  0.00     0.029 A 
ATOM     52  C   UNL A   1      40.619  28.095  32.514  1.00  0.00     0.049 A 
ATOM     53  H   UNL A   1      40.882  27.234  30.581  1.00  0.00     0.167 HD
ATOM     54  C   UNL A   1      36.472  33.458  30.772  1.00  0.00     0.031 A 
ATOM     55  C   UNL A   1      41.829  28.536  32.952  1.00  0.00     0.031 A 
ATOM     56  C   UNL A   1      36.794  33.157  32.136  1.00  0.00     0.049 A 
ATOM     57  C   UNL A   1      41.665  29.914  33.550  1.00  0.00     0.074 A 
ATOM     58  C   UNL A   1      36.344  32.151  32.970  1.00  0.00     0.029 A 
ATOM     59  N   UNL A   1      38.073  33.488  32.546  1.00  0.00    -0.354 N 
ATOM     60  N   UNL A   1      40.695  30.743  33.249  1.00  0.00    -0.248 NA
ATOM     61  C   UNL A   1      42.522  30.418  34.614  1.00  0.00     0.031 C 
ATOM     62  C   UNL A   1      37.444  31.781  33.802  1.00  0.00     0.029 A 
ATOM     63  C   UNL A   1      38.512  32.620  33.526  1.00  0.00     0.049 A 
ATOM     64  H   UNL A   1      38.598  34.240  32.188  1.00  0.00     0.167 HD
ATOM     65  C   UNL A   1      40.742  31.822  34.086  1.00  0.00     0.074 A 
ATOM     66  C   UNL A   1      41.913  31.577  34.911  1.00  0.00     0.031 C 
ATOM     67  C   UNL A   1      39.832  32.840  34.095  1.00  0.00     0.031 A 
BRANCH  54  68
ATOM     68  C   UNL A   1      35.206  34.155  30.232  1.00  0.00    -0.014 A 
ATOM     69  C   UNL A   1      34.490  35.006  31.083  1.00  0.00     0.009 A 
ATOM     70  C   UNL A   1      34.605  33.967  28.960  1.00  0.00     0.009 A 
ATOM     71  C   UNL A   1      33.235  35.546  30.728  1.00  0.00     0.001 A 
ATOM     72  C   UNL A   1      33.327  34.445  28.617  1.00  0.00     0.001 A 
ATOM     73  C   UNL A   1      32.636  35.238  29.512  1.00  0.00     0.000 A 
ENDBRANCH  54  68
BRANCH  55  74
ATOM     74  C   UNL A   1      42.994  27.965  32.183  1.00  0.00    -0.014 A 
ATOM     75  C   UNL A   1      43.595  26.781  32.694  1.00  0.00     0.009 A 
ATOM     76  C   UNL A   1      43.308  28.315  30.863  1.00  0.00     0.009 A 
ATOM     77  C   UNL A   1      44.336  25.909  31.886  1.00  0.00     0.001 A 
ATOM     78  C   UNL A   1      44.096  27.457  30.062  1.00  0.00     0.001 A 
ATOM     79  C   UNL A   1      44.573  26.241  30.562  1.00  0.00     0.000 A 
ENDBRANCH  55  74
BRANCH  67  80
ATOM     80  C   UNL A   1      40.119  34.211  34.663  1.00  0.00    -0.014 A 
ATOM     81  C   UNL A   1      39.484  34.713  35.802  1.00  0.00     0.009 A 
ATOM     82  C   UNL A   1      41.218  34.953  34.168  1.00  0.00     0.009 A 
ATOM     83  C   UNL A   1      39.881  35.921  36.383  1.00  0.00     0.001 A 
ATOM     84  C   UNL A   1      41.677  36.107  34.800  1.00  0.00     0.001 A 
ATOM     85  C   UNL A   1      40.989  36.605  35.894  1.00  0.00     0.000 A 
ENDBRANCH  67  80
ENDBRANCH  41  42
ENDBRANCH  34  36
ENDBRANCH  33  34
ENDBRANCH  32  33
ENDBRANCH  31  32
ENDBRANCH  30  31
ENDBRANCH  29  30
ENDBRANCH   1  29
TORSDOF 21
ENDMDL
MODEL 3
REMARK VINA RESULT:     -11.8      1.642      2.047
REMARK SMILES Cc1cc(C(=O)OCCOCCOCCOC(=O)c2ccc(-c3c4nc(c(-c5ccccc5)c5ccc([nH]5)c(-c5ccccc5)c5nc(c(-c6ccccc6)c6ccc3[nH]6)C=C5)C=C4)cc2)ccc1NS(=O)(=O)c1ccc(C#N)cc1C
REMARK SMILES IDX 11 1 10 2 9 3 8 4 7 5 5 6 6 7 4 8 1 9 2 10 3 11 69 12 68 13
REMARK SMILES IDX 67 14 70 15 71 17 72 18 73 19 74 20 75 21 81 22 76 23 80 24
REMARK SMILES IDX 82 25 77 26 78 27 79 28 12 29 13 30 14 31 15 32 16 33 17 34
REMARK SMILES IDX 18 35 19 36 20 37 66 38 21 39 65 40 22 41 23 42 24 43 59 44
REMARK SMILES IDX 25 45 64 46 58 47 60 48 26 49 63 50 57 51 56 52 27 54 49 55
REMARK SMILES IDX 34 56 48 57 35 58 38 59 47 60 61 61 36 62 37 63 46 65 62 66
REMARK SMILES IDX 39 67 28 68 29 69 33 70 30 71 32 72 31 73 50 74 51 75 55 76
REMARK SMILES IDX 52 77 54 78 53 79 40 80 41 81 45 82 42 83 44 84 43 85
REMARK H PARENT 70 16 60 53 38 64
REMARK Flexibility Score: inf
ROOT
ATOM      1  C   UNL A   1      35.058  31.685  28.294  1.00  0.00     0.188 C 
ENDROOT
BRANCH   1   2
ATOM      2  O   UNL A   1      33.867  31.710  27.524  1.00  0.00    -0.376 OA
BRANCH   2   3
ATOM      3  C   UNL A   1      33.164  30.671  26.839  1.00  0.00     0.202 C 
BRANCH   3   4
ATOM      4  C   UNL A   1      31.641  30.381  26.140  1.00  0.00     0.261 C 
BRANCH   4   5
ATOM      5  O   UNL A   1      30.989  29.651  24.617  1.00  0.00    -0.460 OA
BRANCH   5   6
ATOM      6  C   UNL A   1      30.453  28.457  23.960  1.00  0.00     0.338 C 
ATOM      7  O   UNL A   1      29.425  28.301  23.304  1.00  0.00    -0.246 OA
BRANCH   6   8
ATOM      8  C   UNL A   1      31.180  27.170  23.909  1.00  0.00     0.060 A 
ATOM      9  C   UNL A   1      31.992  24.223  26.257  1.00  0.00     0.046 C 
ATOM     10  C   UNL A   1      32.157  25.313  25.224  1.00  0.00    -0.026 A 
ATOM     11  C   UNL A   1      31.155  26.275  25.036  1.00  0.00     0.021 A 
ATOM     12  C   UNL A   1      33.212  25.361  24.307  1.00  0.00     0.052 A 
ATOM     13  C   UNL A   1      33.078  26.037  23.084  1.00  0.00     0.028 A 
ATOM     14  C   UNL A   1      32.059  26.955  22.879  1.00  0.00     0.018 A 
BRANCH  12  15
ATOM     15  N   UNL A   1      34.534  24.924  24.626  1.00  0.00    -0.279 N 
ATOM     16  H   UNL A   1      35.083  25.437  25.263  1.00  0.00     0.180 HD
BRANCH  15  17
ATOM     17  S   UNL A   1      35.169  23.489  23.893  1.00  0.00     0.262 S 
ATOM     18  O   UNL A   1      35.038  23.659  22.461  1.00  0.00    -0.201 OA
ATOM     19  O   UNL A   1      36.482  23.394  24.497  1.00  0.00    -0.201 OA
BRANCH  17  20
ATOM     20  C   UNL A   1      34.234  21.996  24.316  1.00  0.00     0.090 A 
ATOM     21  C   UNL A   1      34.606  21.271  25.457  1.00  0.00     0.024 A 
ATOM     22  C   UNL A   1      33.084  21.568  23.623  1.00  0.00    -0.029 A 
ATOM     23  C   UNL A   1      34.065  20.004  25.731  1.00  0.00     0.021 A 
ATOM     24  C   UNL A   1      32.542  20.287  23.905  1.00  0.00     0.024 A 
ATOM     25  C   UNL A   1      32.237  22.426  22.722  1.00  0.00     0.046 C 
ATOM     26  C   UNL A   1      33.059  19.482  24.922  1.00  0.00     0.052 A 
BRANCH  26  27
ATOM     27  C   UNL A   1      32.530  18.185  25.165  1.00  0.00     0.099 C 
ATOM     28  N   UNL A   1      32.098  17.107  25.382  1.00  0.00    -0.192 NA
ENDBRANCH  26  27
ENDBRANCH  17  20
ENDBRANCH  15  17
ENDBRANCH  12  15
ENDBRANCH   6   8
ENDBRANCH   5   6
ENDBRANCH   4   5
ENDBRANCH   3   4
ENDBRANCH   2   3
ENDBRANCH   1   2
BRANCH   1  29
ATOM     29  C   UNL A   1      36.087  32.770  28.184  1.00  0.00     0.188 C 
BRANCH  29  30
ATOM     30  O   UNL A   1      35.796  33.777  29.126  1.00  0.00    -0.376 OA
BRANCH  30  31
ATOM     31  C   UNL A   1      34.907  34.767  28.654  1.00  0.00     0.202 C 
BRANCH  31  32
ATOM     32  C   UNL A   1      33.704  35.016  29.589  1.00  0.00     0.261 C 
BRANCH  32  33
ATOM     33  O   UNL A   1      33.654  34.051  30.672  1.00  0.00    -0.460 OA
BRANCH  33  34
ATOM     34  C   UNL A   1      33.606  34.509  31.976  1.00  0.00     0.338 C 
ATOM     35  O   UNL A   1      32.725  35.212  32.434  1.00  0.00    -0.246 OA
BRANCH  34  36
ATOM     36  C   UNL A   1      34.925  34.235  32.653  1.00  0.00     0.060 A 
ATOM     37  C   UNL A   1      36.125  34.953  32.501  1.00  0.00     0.016 A 
ATOM     38  C   UNL A   1      35.079  32.959  33.013  1.00  0.00     0.016 A 
ATOM     39  C   UNL A   1      37.440  34.294  32.404  1.00  0.00     0.010 A 
ATOM     40  C   UNL A   1      36.250  32.396  32.528  1.00  0.00     0.010 A 
ATOM     41  C   UNL A   1      37.574  32.915  32.262  1.00  0.00    -0.014 A 
BRANCH  41  42
ATOM     42  C   UNL A   1      39.062  32.054  31.840  1.00  0.00     0.031 A 
ATOM     43  C   UNL A   1      39.428  30.693  30.766  1.00  0.00     0.074 A 
ATOM     44  C   UNL A   1      40.202  32.494  32.426  1.00  0.00     0.049 A 
ATOM     45  N   UNL A   1      40.186  29.670  31.123  1.00  0.00    -0.248 NA
ATOM     46  C   UNL A   1      38.765  30.242  29.453  1.00  0.00     0.031 C 
ATOM     47  C   UNL A   1      41.594  32.112  32.171  1.00  0.00     0.029 A 
ATOM     48  N   UNL A   1      40.325  33.470  33.418  1.00  0.00    -0.354 N 
ATOM     49  C   UNL A   1      40.008  28.637  30.170  1.00  0.00     0.074 A 
ATOM     50  C   UNL A   1      38.857  28.933  29.451  1.00  0.00     0.031 C 
ATOM     51  C   UNL A   1      42.357  32.569  33.184  1.00  0.00     0.029 A 
ATOM     52  C   UNL A   1      41.456  33.150  34.169  1.00  0.00     0.049 A 
ATOM     53  H   UNL A   1      39.726  34.239  33.562  1.00  0.00     0.167 HD
ATOM     54  C   UNL A   1      40.931  27.716  29.789  1.00  0.00     0.031 A 
ATOM     55  C   UNL A   1      41.280  32.756  35.460  1.00  0.00     0.031 A 
ATOM     56  C   UNL A   1      42.059  27.887  30.657  1.00  0.00     0.049 A 
ATOM     57  C   UNL A   1      41.703  31.311  35.596  1.00  0.00     0.074 A 
ATOM     58  C   UNL A   1      43.130  28.757  30.587  1.00  0.00     0.029 A 
ATOM     59  N   UNL A   1      41.843  27.610  31.995  1.00  0.00    -0.354 N 
ATOM     60  N   UNL A   1      41.732  30.450  34.608  1.00  0.00    -0.248 NA
ATOM     61  C   UNL A   1      42.228  30.758  36.836  1.00  0.00     0.031 C 
ATOM     62  C   UNL A   1      43.461  29.114  31.929  1.00  0.00     0.029 A 
ATOM     63  C   UNL A   1      42.651  28.394  32.794  1.00  0.00     0.049 A 
ATOM     64  H   UNL A   1      41.200  26.944  32.332  1.00  0.00     0.167 HD
ATOM     65  C   UNL A   1      42.319  29.292  35.032  1.00  0.00     0.074 A 
ATOM     66  C   UNL A   1      42.598  29.530  36.437  1.00  0.00     0.031 C 
ATOM     67  C   UNL A   1      42.575  28.213  34.234  1.00  0.00     0.031 A 
BRANCH  54  68
ATOM     68  C   UNL A   1      40.888  26.990  28.429  1.00  0.00    -0.014 A 
ATOM     69  C   UNL A   1      41.490  27.598  27.319  1.00  0.00     0.009 A 
ATOM     70  C   UNL A   1      40.216  25.776  28.130  1.00  0.00     0.009 A 
ATOM     71  C   UNL A   1      41.349  27.088  26.011  1.00  0.00     0.001 A 
ATOM     72  C   UNL A   1      40.014  25.291  26.825  1.00  0.00     0.001 A 
ATOM     73  C   UNL A   1      40.583  25.956  25.757  1.00  0.00     0.000 A 
ENDBRANCH  54  68
BRANCH  55  74
ATOM     74  C   UNL A   1      40.174  33.496  36.171  1.00  0.00    -0.014 A 
ATOM     75  C   UNL A   1      38.896  32.874  36.210  1.00  0.00     0.009 A 
ATOM     76  C   UNL A   1      40.388  34.562  37.055  1.00  0.00     0.009 A 
ATOM     77  C   UNL A   1      37.940  33.189  37.185  1.00  0.00     0.001 A 
ATOM     78  C   UNL A   1      39.404  34.910  38.007  1.00  0.00     0.001 A 
ATOM     79  C   UNL A   1      38.202  34.199  38.096  1.00  0.00     0.000 A 
ENDBRANCH  55  74
BRANCH  67  80
ATOM     80  C   UNL A   1      42.782  26.813  34.765  1.00  0.00    -0.014 A 
ATOM     81  C   UNL A   1      41.760  26.061  35.352  1.00  0.00     0.009 A 
ATOM     82  C   UNL A   1      43.989  26.132  34.482  1.00  0.00     0.009 A 
ATOM     83  C   UNL A   1      41.950  24.720  35.696  1.00  0.00     0.001 A 
ATOM     84  C   UNL A   1      44.150  24.772  34.735  1.00  0.00     0.001 A 
ATOM     85  C   UNL A   1      43.136  24.072  35.367  1.00  0.00     0.000 A 
ENDBRANCH  67  80
ENDBRANCH  41  42
ENDBRANCH  34  36
ENDBRANCH  33  34
ENDBRANCH  32  33
ENDBRANCH  31  32
ENDBRANCH  30  31
ENDBRANCH  29  30
ENDBRANCH   1  29
TORSDOF 21
ENDMDL
