MODEL 1
REMARK VINA RESULT:     -10.5      0.000      0.000
REMARK SMILES Nc1c(CC(=O)OCCOCCOCCOC(=O)c2ccc(-c3c4nc(c(-c5ccccc5)c5ccc([nH]5)c(-c5ccccc5)c5nc(c(-c6ccccc6)c6ccc3[nH]6)C=C5)C=C4)cc2)cccc1C(=O)c1ccc(Br)cc1
REMARK SMILES IDX 11 1 10 2 9 3 8 4 7 5 5 6 6 7 4 8 3 9 2 10 70 11 67 12 69 13
REMARK SMILES IDX 68 14 1 15 71 18 72 19 73 20 74 21 79 22 75 23 78 24 76 25
REMARK SMILES IDX 77 26 12 27 13 28 14 29 15 30 16 31 17 32 18 33 19 34 20 35
REMARK SMILES IDX 66 36 21 37 65 38 22 39 23 40 24 41 59 42 25 43 64 44 58 45
REMARK SMILES IDX 60 46 26 47 63 48 57 49 56 50 27 52 49 53 34 54 48 55 35 56
REMARK SMILES IDX 38 57 47 58 61 59 36 60 37 61 46 63 62 64 39 65 28 66 29 67
REMARK SMILES IDX 33 68 30 69 32 70 31 71 50 72 51 73 55 74 52 75 54 76 53 77
REMARK SMILES IDX 40 78 41 79 45 80 42 81 44 82 43 83
REMARK H PARENT 1 16 1 17 60 51 38 62
REMARK Flexibility Score: inf
ROOT
ATOM      1  C   UNL A   1      34.609  33.005  28.319  1.00  0.00     0.188 C 
ENDROOT
BRANCH   1   2
ATOM      2  O   UNL A   1      34.109  31.713  28.671  1.00  0.00    -0.376 OA
BRANCH   2   3
ATOM      3  C   UNL A   1      34.509  30.586  27.900  1.00  0.00     0.202 C 
BRANCH   3   4
ATOM      4  C   UNL A   1      33.556  30.177  26.771  1.00  0.00     0.261 C 
BRANCH   4   5
ATOM      5  O   UNL A   1      32.238  29.824  27.242  1.00  0.00    -0.463 OA
BRANCH   5   6
ATOM      6  C   UNL A   1      31.917  28.510  27.246  1.00  0.00     0.310 C 
ATOM      7  O   UNL A   1      31.382  27.941  28.193  1.00  0.00    -0.252 OA
BRANCH   6   8
ATOM      8  C   UNL A   1      32.114  27.796  25.922  1.00  0.00     0.160 C 
BRANCH   8   9
ATOM      9  C   UNL A   1      32.682  26.387  25.861  1.00  0.00    -0.013 A 
ATOM     10  C   UNL A   1      31.899  25.233  26.080  1.00  0.00     0.047 A 
ATOM     11  C   UNL A   1      32.495  23.957  25.859  1.00  0.00     0.046 A 
ATOM     12  C   UNL A   1      34.027  26.234  25.459  1.00  0.00     0.006 A 
ATOM     13  C   UNL A   1      33.860  23.843  25.554  1.00  0.00     0.014 A 
ATOM     14  C   UNL A   1      34.626  24.981  25.354  1.00  0.00     0.001 A 
BRANCH  10  15
ATOM     15  N   UNL A   1      30.583  25.382  26.499  1.00  0.00    -0.398 N 
ATOM     16  H   UNL A   1      30.354  26.068  27.166  1.00  0.00     0.156 HD
ATOM     17  H   UNL A   1      29.880  24.801  26.128  1.00  0.00     0.156 HD
ENDBRANCH  10  15
BRANCH  11  18
ATOM     18  C   UNL A   1      31.738  22.667  25.847  1.00  0.00     0.195 C 
ATOM     19  O   UNL A   1      30.659  22.565  26.423  1.00  0.00    -0.289 OA
BRANCH  18  20
ATOM     20  C   UNL A   1      32.288  21.479  25.157  1.00  0.00     0.023 A 
ATOM     21  C   UNL A   1      32.848  20.467  25.942  1.00  0.00     0.013 A 
ATOM     22  C   UNL A   1      32.149  21.312  23.774  1.00  0.00     0.013 A 
ATOM     23  C   UNL A   1      33.179  19.245  25.357  1.00  0.00     0.016 A 
ATOM     24  C   UNL A   1      32.482  20.089  23.191  1.00  0.00     0.016 A 
ATOM     25  C   UNL A   1      32.972  19.055  23.990  1.00  0.00     0.018 A 
ATOM     26  Br  UNL A   1      33.321  17.365  23.219  1.00  0.00    -0.051 Br
ENDBRANCH  18  20
ENDBRANCH  11  18
ENDBRANCH   8   9
ENDBRANCH   6   8
ENDBRANCH   5   6
ENDBRANCH   4   5
ENDBRANCH   3   4
ENDBRANCH   2   3
ENDBRANCH   1   2
BRANCH   1  27
ATOM     27  C   UNL A   1      33.650  34.206  28.283  1.00  0.00     0.188 C 
BRANCH  27  28
ATOM     28  O   UNL A   1      34.362  35.421  28.134  1.00  0.00    -0.376 OA
BRANCH  28  29
ATOM     29  C   UNL A   1      33.654  36.592  28.471  1.00  0.00     0.202 C 
BRANCH  29  30
ATOM     30  C   UNL A   1      32.580  36.331  29.530  1.00  0.00     0.261 C 
BRANCH  30  31
ATOM     31  O   UNL A   1      32.810  36.927  30.822  1.00  0.00    -0.460 OA
BRANCH  31  32
ATOM     32  C   UNL A   1      32.458  36.216  31.911  1.00  0.00     0.338 C 
ATOM     33  O   UNL A   1      31.407  36.290  32.538  1.00  0.00    -0.246 OA
BRANCH  32  34
ATOM     34  C   UNL A   1      33.496  35.192  32.145  1.00  0.00     0.060 A 
ATOM     35  C   UNL A   1      33.186  34.039  32.879  1.00  0.00     0.016 A 
ATOM     36  C   UNL A   1      34.786  35.383  31.654  1.00  0.00     0.016 A 
ATOM     37  C   UNL A   1      34.167  33.077  33.137  1.00  0.00     0.010 A 
ATOM     38  C   UNL A   1      35.772  34.435  31.931  1.00  0.00     0.010 A 
ATOM     39  C   UNL A   1      35.476  33.288  32.691  1.00  0.00    -0.014 A 
BRANCH  39  40
ATOM     40  C   UNL A   1      36.602  32.432  33.141  1.00  0.00     0.031 A 
ATOM     41  C   UNL A   1      37.268  32.770  34.446  1.00  0.00     0.074 A 
ATOM     42  C   UNL A   1      37.076  31.428  32.383  1.00  0.00     0.049 A 
ATOM     43  N   UNL A   1      38.410  32.357  34.928  1.00  0.00    -0.248 NA
ATOM     44  C   UNL A   1      36.548  33.715  35.316  1.00  0.00     0.031 C 
ATOM     45  C   UNL A   1      36.477  30.944  31.142  1.00  0.00     0.029 A 
ATOM     46  N   UNL A   1      38.202  30.657  32.540  1.00  0.00    -0.354 N 
ATOM     47  C   UNL A   1      38.565  33.020  36.139  1.00  0.00     0.074 A 
ATOM     48  C   UNL A   1      37.404  33.867  36.314  1.00  0.00     0.031 C 
ATOM     49  C   UNL A   1      37.259  29.975  30.632  1.00  0.00     0.029 A 
ATOM     50  C   UNL A   1      38.443  29.820  31.476  1.00  0.00     0.049 A 
ATOM     51  H   UNL A   1      38.779  30.699  33.336  1.00  0.00     0.167 HD
ATOM     52  C   UNL A   1      39.588  32.938  37.022  1.00  0.00     0.031 A 
ATOM     53  C   UNL A   1      39.518  29.060  31.193  1.00  0.00     0.031 A 
ATOM     54  C   UNL A   1      40.745  32.106  36.834  1.00  0.00     0.049 A 
ATOM     55  C   UNL A   1      40.698  29.065  32.134  1.00  0.00     0.074 A 
ATOM     56  C   UNL A   1      41.841  31.953  37.665  1.00  0.00     0.029 A 
ATOM     57  N   UNL A   1      40.957  31.290  35.734  1.00  0.00    -0.354 N 
ATOM     58  N   UNL A   1      40.849  29.705  33.268  1.00  0.00    -0.248 NA
ATOM     59  C   UNL A   1      41.858  28.245  31.752  1.00  0.00     0.031 C 
ATOM     60  C   UNL A   1      42.743  31.089  37.039  1.00  0.00     0.029 A 
ATOM     61  C   UNL A   1      42.175  30.646  35.854  1.00  0.00     0.049 A 
ATOM     62  H   UNL A   1      40.333  31.184  34.979  1.00  0.00     0.167 HD
ATOM     63  C   UNL A   1      42.096  29.332  33.755  1.00  0.00     0.074 A 
ATOM     64  C   UNL A   1      42.663  28.410  32.793  1.00  0.00     0.031 C 
ATOM     65  C   UNL A   1      42.712  29.711  34.901  1.00  0.00     0.031 A 
BRANCH  52  66
ATOM     66  C   UNL A   1      39.524  33.813  38.243  1.00  0.00    -0.014 A 
ATOM     67  C   UNL A   1      39.824  35.183  38.180  1.00  0.00     0.009 A 
ATOM     68  C   UNL A   1      39.127  33.261  39.470  1.00  0.00     0.009 A 
ATOM     69  C   UNL A   1      39.763  35.972  39.331  1.00  0.00     0.001 A 
ATOM     70  C   UNL A   1      39.034  34.058  40.611  1.00  0.00     0.001 A 
ATOM     71  C   UNL A   1      39.363  35.410  40.543  1.00  0.00     0.000 A 
ENDBRANCH  52  66
BRANCH  53  72
ATOM     72  C   UNL A   1      39.561  28.256  29.940  1.00  0.00    -0.014 A 
ATOM     73  C   UNL A   1      39.190  26.902  29.948  1.00  0.00     0.009 A 
ATOM     74  C   UNL A   1      40.001  28.828  28.735  1.00  0.00     0.009 A 
ATOM     75  C   UNL A   1      39.282  26.134  28.784  1.00  0.00     0.001 A 
ATOM     76  C   UNL A   1      40.060  28.066  27.566  1.00  0.00     0.001 A 
ATOM     77  C   UNL A   1      39.712  26.718  27.594  1.00  0.00     0.000 A 
ENDBRANCH  53  72
BRANCH  65  78
ATOM     78  C   UNL A   1      44.035  29.076  35.234  1.00  0.00    -0.014 A 
ATOM     79  C   UNL A   1      45.251  29.719  34.965  1.00  0.00     0.009 A 
ATOM     80  C   UNL A   1      44.049  27.851  35.921  1.00  0.00     0.009 A 
ATOM     81  C   UNL A   1      46.457  29.139  35.366  1.00  0.00     0.001 A 
ATOM     82  C   UNL A   1      45.253  27.288  36.346  1.00  0.00     0.001 A 
ATOM     83  C   UNL A   1      46.457  27.931  36.064  1.00  0.00     0.000 A 
ENDBRANCH  65  78
ENDBRANCH  39  40
ENDBRANCH  32  34
ENDBRANCH  31  32
ENDBRANCH  30  31
ENDBRANCH  29  30
ENDBRANCH  28  29
ENDBRANCH  27  28
ENDBRANCH   1  27
TORSDOF 21
ENDMDL
MODEL 2
REMARK VINA RESULT:     -10.3      7.027     12.450
REMARK SMILES Nc1c(CC(=O)OCCOCCOCCOC(=O)c2ccc(-c3c4nc(c(-c5ccccc5)c5ccc([nH]5)c(-c5ccccc5)c5nc(c(-c6ccccc6)c6ccc3[nH]6)C=C5)C=C4)cc2)cccc1C(=O)c1ccc(Br)cc1
REMARK SMILES IDX 11 1 10 2 9 3 8 4 7 5 5 6 6 7 4 8 3 9 2 10 70 11 67 12 69 13
REMARK SMILES IDX 68 14 1 15 71 18 72 19 73 20 74 21 79 22 75 23 78 24 76 25
REMARK SMILES IDX 77 26 12 27 13 28 14 29 15 30 16 31 17 32 18 33 19 34 20 35
REMARK SMILES IDX 66 36 21 37 65 38 22 39 23 40 24 41 59 42 25 43 64 44 58 45
REMARK SMILES IDX 60 46 26 47 63 48 57 49 56 50 27 52 49 53 34 54 48 55 35 56
REMARK SMILES IDX 38 57 47 58 61 59 36 60 37 61 46 63 62 64 39 65 28 66 29 67
REMARK SMILES IDX 33 68 30 69 32 70 31 71 50 72 51 73 55 74 52 75 54 76 53 77
REMARK SMILES IDX 40 78 41 79 45 80 42 81 44 82 43 83
REMARK H PARENT 1 16 1 17 60 51 38 62
REMARK Flexibility Score: inf
ROOT
ATOM      1  C   UNL A   1      40.818  21.944  26.115  1.00  0.00     0.188 C 
ENDROOT
BRANCH   1   2
ATOM      2  O   UNL A   1      39.470  21.976  26.587  1.00  0.00    -0.376 OA
BRANCH   2   3
ATOM      3  C   UNL A   1      38.408  21.803  25.655  1.00  0.00     0.202 C 
BRANCH   3   4
ATOM      4  C   UNL A   1      37.531  23.034  25.405  1.00  0.00     0.261 C 
BRANCH   4   5
ATOM      5  O   UNL A   1      36.189  22.699  24.992  1.00  0.00    -0.463 OA
BRANCH   5   6
ATOM      6  C   UNL A   1      35.852  22.972  23.711  1.00  0.00     0.310 C 
ATOM      7  O   UNL A   1      36.671  23.145  22.812  1.00  0.00    -0.252 OA
BRANCH   6   8
ATOM      8  C   UNL A   1      34.368  22.897  23.406  1.00  0.00     0.160 C 
BRANCH   8   9
ATOM      9  C   UNL A   1      33.465  24.109  23.567  1.00  0.00    -0.013 A 
ATOM     10  C   UNL A   1      33.079  24.617  24.826  1.00  0.00     0.047 A 
ATOM     11  C   UNL A   1      32.348  25.840  24.868  1.00  0.00     0.046 A 
ATOM     12  C   UNL A   1      33.091  24.812  22.402  1.00  0.00     0.006 A 
ATOM     13  C   UNL A   1      31.912  26.459  23.687  1.00  0.00     0.014 A 
ATOM     14  C   UNL A   1      32.282  25.946  22.455  1.00  0.00     0.001 A 
BRANCH  10  15
ATOM     15  N   UNL A   1      33.426  23.912  25.972  1.00  0.00    -0.398 N 
ATOM     16  H   UNL A   1      34.355  23.925  26.295  1.00  0.00     0.156 HD
ATOM     17  H   UNL A   1      32.742  23.400  26.461  1.00  0.00     0.156 HD
ENDBRANCH  10  15
BRANCH  11  18
ATOM     18  C   UNL A   1      32.056  26.601  26.122  1.00  0.00     0.195 C 
ATOM     19  O   UNL A   1      31.258  26.169  26.949  1.00  0.00    -0.289 OA
BRANCH  18  20
ATOM     20  C   UNL A   1      32.708  27.904  26.380  1.00  0.00     0.023 A 
ATOM     21  C   UNL A   1      31.895  28.982  26.745  1.00  0.00     0.013 A 
ATOM     22  C   UNL A   1      34.102  28.034  26.375  1.00  0.00     0.013 A 
ATOM     23  C   UNL A   1      32.481  30.161  27.204  1.00  0.00     0.016 A 
ATOM     24  C   UNL A   1      34.685  29.215  26.834  1.00  0.00     0.016 A 
ATOM     25  C   UNL A   1      33.872  30.263  27.268  1.00  0.00     0.018 A 
ATOM     26  Br  UNL A   1      34.662  31.821  27.989  1.00  0.00    -0.051 Br
ENDBRANCH  18  20
ENDBRANCH  11  18
ENDBRANCH   8   9
ENDBRANCH   6   8
ENDBRANCH   5   6
ENDBRANCH   4   5
ENDBRANCH   3   4
ENDBRANCH   2   3
ENDBRANCH   1   2
BRANCH   1  27
ATOM     27  C   UNL A   1      41.794  20.897  26.677  1.00  0.00     0.188 C 
BRANCH  27  28
ATOM     28  O   UNL A   1      41.923  19.797  25.794  1.00  0.00    -0.376 OA
BRANCH  28  29
ATOM     29  C   UNL A   1      42.499  18.633  26.344  1.00  0.00     0.202 C 
BRANCH  29  30
ATOM     30  C   UNL A   1      43.886  18.348  25.763  1.00  0.00     0.261 C 
BRANCH  30  31
ATOM     31  O   UNL A   1      44.140  18.879  24.447  1.00  0.00    -0.460 OA
BRANCH  31  32
ATOM     32  C   UNL A   1      45.303  19.530  24.248  1.00  0.00     0.338 C 
ATOM     33  O   UNL A   1      46.319  19.089  23.723  1.00  0.00    -0.246 OA
BRANCH  32  34
ATOM     34  C   UNL A   1      45.107  20.944  24.626  1.00  0.00     0.060 A 
ATOM     35  C   UNL A   1      44.608  21.855  23.685  1.00  0.00     0.016 A 
ATOM     36  C   UNL A   1      45.438  21.374  25.910  1.00  0.00     0.016 A 
ATOM     37  C   UNL A   1      44.449  23.203  24.018  1.00  0.00     0.010 A 
ATOM     38  C   UNL A   1      45.301  22.724  26.237  1.00  0.00     0.010 A 
ATOM     39  C   UNL A   1      44.828  23.650  25.289  1.00  0.00    -0.014 A 
BRANCH  39  40
ATOM     40  C   UNL A   1      44.912  25.096  25.615  1.00  0.00     0.031 A 
ATOM     41  C   UNL A   1      46.264  25.752  25.569  1.00  0.00     0.074 A 
ATOM     42  C   UNL A   1      43.837  25.796  26.015  1.00  0.00     0.049 A 
ATOM     43  N   UNL A   1      46.646  26.905  26.051  1.00  0.00    -0.248 NA
ATOM     44  C   UNL A   1      47.332  24.990  24.900  1.00  0.00     0.031 C 
ATOM     45  C   UNL A   1      42.460  25.309  26.026  1.00  0.00     0.029 A 
ATOM     46  N   UNL A   1      43.750  27.069  26.525  1.00  0.00    -0.354 N 
ATOM     47  C   UNL A   1      48.005  26.992  25.777  1.00  0.00     0.074 A 
ATOM     48  C   UNL A   1      48.382  25.773  25.094  1.00  0.00     0.031 C 
ATOM     49  C   UNL A   1      41.666  26.262  26.548  1.00  0.00     0.029 A 
ATOM     50  C   UNL A   1      42.490  27.397  26.965  1.00  0.00     0.049 A 
ATOM     51  H   UNL A   1      44.515  27.687  26.571  1.00  0.00     0.167 HD
ATOM     52  C   UNL A   1      48.865  27.994  26.077  1.00  0.00     0.031 A 
ATOM     53  C   UNL A   1      42.063  28.462  27.670  1.00  0.00     0.031 A 
ATOM     54  C   UNL A   1      48.486  29.196  26.769  1.00  0.00     0.049 A 
ATOM     55  C   UNL A   1      43.055  29.518  28.091  1.00  0.00     0.074 A 
ATOM     56  C   UNL A   1      49.279  30.272  27.126  1.00  0.00     0.029 A 
ATOM     57  N   UNL A   1      47.204  29.476  27.213  1.00  0.00    -0.354 N 
ATOM     58  N   UNL A   1      44.342  29.589  27.846  1.00  0.00    -0.248 NA
ATOM     59  C   UNL A   1      42.537  30.638  28.892  1.00  0.00     0.031 C 
ATOM     60  C   UNL A   1      48.489  31.177  27.838  1.00  0.00     0.029 A 
ATOM     61  C   UNL A   1      47.188  30.699  27.859  1.00  0.00     0.049 A 
ATOM     62  H   UNL A   1      46.420  28.893  27.087  1.00  0.00     0.167 HD
ATOM     63  C   UNL A   1      44.775  30.778  28.421  1.00  0.00     0.074 A 
ATOM     64  C   UNL A   1      43.616  31.397  29.029  1.00  0.00     0.031 C 
ATOM     65  C   UNL A   1      46.020  31.314  28.435  1.00  0.00     0.031 A 
BRANCH  52  66
ATOM     66  C   UNL A   1      50.309  27.805  25.705  1.00  0.00    -0.014 A 
ATOM     67  C   UNL A   1      50.760  28.001  24.390  1.00  0.00     0.009 A 
ATOM     68  C   UNL A   1      51.239  27.455  26.697  1.00  0.00     0.009 A 
ATOM     69  C   UNL A   1      52.107  27.813  24.071  1.00  0.00     0.001 A 
ATOM     70  C   UNL A   1      52.589  27.300  26.381  1.00  0.00     0.001 A 
ATOM     71  C   UNL A   1      53.020  27.468  25.067  1.00  0.00     0.000 A 
ENDBRANCH  52  66
BRANCH  53  72
ATOM     72  C   UNL A   1      40.632  28.576  28.067  1.00  0.00    -0.014 A 
ATOM     73  C   UNL A   1      39.722  29.279  27.262  1.00  0.00     0.009 A 
ATOM     74  C   UNL A   1      40.174  28.008  29.267  1.00  0.00     0.009 A 
ATOM     75  C   UNL A   1      38.392  29.432  27.663  1.00  0.00     0.001 A 
ATOM     76  C   UNL A   1      38.836  28.134  29.648  1.00  0.00     0.001 A 
ATOM     77  C   UNL A   1      37.949  28.855  28.852  1.00  0.00     0.000 A 
ENDBRANCH  53  72
BRANCH  65  78
ATOM     78  C   UNL A   1      46.195  32.674  29.053  1.00  0.00    -0.014 A 
ATOM     79  C   UNL A   1      46.571  32.832  30.395  1.00  0.00     0.009 A 
ATOM     80  C   UNL A   1      46.075  33.813  28.241  1.00  0.00     0.009 A 
ATOM     81  C   UNL A   1      46.809  34.107  30.913  1.00  0.00     0.001 A 
ATOM     82  C   UNL A   1      46.342  35.083  28.753  1.00  0.00     0.001 A 
ATOM     83  C   UNL A   1      46.704  35.230  30.091  1.00  0.00     0.000 A 
ENDBRANCH  65  78
ENDBRANCH  39  40
ENDBRANCH  32  34
ENDBRANCH  31  32
ENDBRANCH  30  31
ENDBRANCH  29  30
ENDBRANCH  28  29
ENDBRANCH  27  28
ENDBRANCH   1  27
TORSDOF 21
ENDMDL
MODEL 3
REMARK VINA RESULT:     -10.2      4.965     10.335
REMARK SMILES Nc1c(CC(=O)OCCOCCOCCOC(=O)c2ccc(-c3c4nc(c(-c5ccccc5)c5ccc([nH]5)c(-c5ccccc5)c5nc(c(-c6ccccc6)c6ccc3[nH]6)C=C5)C=C4)cc2)cccc1C(=O)c1ccc(Br)cc1
REMARK SMILES IDX 11 1 10 2 9 3 8 4 7 5 5 6 6 7 4 8 3 9 2 10 70 11 67 12 69 13
REMARK SMILES IDX 68 14 1 15 71 18 72 19 73 20 74 21 79 22 75 23 78 24 76 25
REMARK SMILES IDX 77 26 12 27 13 28 14 29 15 30 16 31 17 32 18 33 19 34 20 35
REMARK SMILES IDX 66 36 21 37 65 38 22 39 23 40 24 41 59 42 25 43 64 44 58 45
REMARK SMILES IDX 60 46 26 47 63 48 57 49 56 50 27 52 49 53 34 54 48 55 35 56
REMARK SMILES IDX 38 57 47 58 61 59 36 60 37 61 46 63 62 64 39 65 28 66 29 67
REMARK SMILES IDX 33 68 30 69 32 70 31 71 50 72 51 73 55 74 52 75 54 76 53 77
REMARK SMILES IDX 40 78 41 79 45 80 42 81 44 82 43 83
REMARK H PARENT 1 16 1 17 60 51 38 62
REMARK Flexibility Score: inf
ROOT
ATOM      1  C   UNL A   1      31.836  23.618  26.741  1.00  0.00     0.188 C 
ENDROOT
BRANCH   1   2
ATOM      2  O   UNL A   1      31.638  24.913  26.171  1.00  0.00    -0.376 OA
BRANCH   2   3
ATOM      3  C   UNL A   1      30.808  25.042  25.023  1.00  0.00     0.202 C 
BRANCH   3   4
ATOM      4  C   UNL A   1      30.295  26.455  24.724  1.00  0.00     0.261 C 
BRANCH   4   5
ATOM      5  O   UNL A   1      31.337  27.358  24.299  1.00  0.00    -0.463 OA
BRANCH   5   6
ATOM      6  C   UNL A   1      31.370  28.579  24.882  1.00  0.00     0.310 C 
ATOM      7  O   UNL A   1      30.950  29.602  24.349  1.00  0.00    -0.252 OA
BRANCH   6   8
ATOM      8  C   UNL A   1      31.823  28.587  26.330  1.00  0.00     0.160 C 
BRANCH   8   9
ATOM      9  C   UNL A   1      33.013  29.420  26.781  1.00  0.00    -0.013 A 
ATOM     10  C   UNL A   1      32.919  30.797  27.075  1.00  0.00     0.047 A 
ATOM     11  C   UNL A   1      34.058  31.452  27.626  1.00  0.00     0.046 A 
ATOM     12  C   UNL A   1      34.233  28.752  27.019  1.00  0.00     0.006 A 
ATOM     13  C   UNL A   1      35.283  30.779  27.758  1.00  0.00     0.014 A 
ATOM     14  C   UNL A   1      35.370  29.430  27.454  1.00  0.00     0.001 A 
BRANCH  10  15
ATOM     15  N   UNL A   1      31.725  31.461  26.819  1.00  0.00    -0.398 N 
ATOM     16  H   UNL A   1      31.688  32.443  26.868  1.00  0.00     0.156 HD
ATOM     17  H   UNL A   1      30.917  30.948  26.588  1.00  0.00     0.156 HD
ENDBRANCH  10  15
BRANCH  11  18
ATOM     18  C   UNL A   1      34.044  32.843  28.177  1.00  0.00     0.195 C 
ATOM     19  O   UNL A   1      33.161  33.635  27.862  1.00  0.00    -0.289 OA
BRANCH  18  20
ATOM     20  C   UNL A   1      35.109  33.299  29.097  1.00  0.00     0.023 A 
ATOM     21  C   UNL A   1      34.781  33.467  30.446  1.00  0.00     0.013 A 
ATOM     22  C   UNL A   1      36.432  33.445  28.663  1.00  0.00     0.013 A 
ATOM     23  C   UNL A   1      35.795  33.684  31.379  1.00  0.00     0.016 A 
ATOM     24  C   UNL A   1      37.444  33.663  29.599  1.00  0.00     0.016 A 
ATOM     25  C   UNL A   1      37.122  33.757  30.953  1.00  0.00     0.018 A 
ATOM     26  Br  UNL A   1      38.503  33.945  32.229  1.00  0.00    -0.051 Br
ENDBRANCH  18  20
ENDBRANCH  11  18
ENDBRANCH   8   9
ENDBRANCH   6   8
ENDBRANCH   5   6
ENDBRANCH   4   5
ENDBRANCH   3   4
ENDBRANCH   2   3
ENDBRANCH   1   2
BRANCH   1  27
ATOM     27  C   UNL A   1      31.535  22.366  25.901  1.00  0.00     0.188 C 
BRANCH  27  28
ATOM     28  O   UNL A   1      32.696  21.571  25.739  1.00  0.00    -0.376 OA
BRANCH  28  29
ATOM     29  C   UNL A   1      33.900  22.277  25.537  1.00  0.00     0.202 C 
BRANCH  29  30
ATOM     30  C   UNL A   1      35.116  21.348  25.522  1.00  0.00     0.261 C 
BRANCH  30  31
ATOM     31  O   UNL A   1      36.298  21.848  26.179  1.00  0.00    -0.460 OA
BRANCH  31  32
ATOM     32  C   UNL A   1      37.493  21.405  25.740  1.00  0.00     0.338 C 
ATOM     33  O   UNL A   1      37.716  20.381  25.103  1.00  0.00    -0.246 OA
BRANCH  32  34
ATOM     34  C   UNL A   1      38.498  22.452  26.012  1.00  0.00     0.060 A 
ATOM     35  C   UNL A   1      39.737  22.102  26.565  1.00  0.00     0.016 A 
ATOM     36  C   UNL A   1      38.205  23.787  25.738  1.00  0.00     0.016 A 
ATOM     37  C   UNL A   1      40.686  23.086  26.859  1.00  0.00     0.010 A 
ATOM     38  C   UNL A   1      39.142  24.772  26.053  1.00  0.00     0.010 A 
ATOM     39  C   UNL A   1      40.378  24.432  26.635  1.00  0.00    -0.014 A 
BRANCH  39  40
ATOM     40  C   UNL A   1      41.238  25.527  27.150  1.00  0.00     0.031 A 
ATOM     41  C   UNL A   1      40.635  26.498  28.126  1.00  0.00     0.074 A 
ATOM     42  C   UNL A   1      42.496  25.706  26.711  1.00  0.00     0.049 A 
ATOM     43  N   UNL A   1      41.074  27.665  28.517  1.00  0.00    -0.248 NA
ATOM     44  C   UNL A   1      39.353  26.098  28.730  1.00  0.00     0.031 C 
ATOM     45  C   UNL A   1      43.228  24.797  25.833  1.00  0.00     0.029 A 
ATOM     46  N   UNL A   1      43.368  26.745  26.927  1.00  0.00    -0.354 N 
ATOM     47  C   UNL A   1      40.105  28.157  29.383  1.00  0.00     0.074 A 
ATOM     48  C   UNL A   1      39.052  27.166  29.453  1.00  0.00     0.031 C 
ATOM     49  C   UNL A   1      44.431  25.334  25.558  1.00  0.00     0.029 A 
ATOM     50  C   UNL A   1      44.524  26.650  26.189  1.00  0.00     0.049 A 
ATOM     51  H   UNL A   1      43.183  27.485  27.549  1.00  0.00     0.167 HD
ATOM     52  C   UNL A   1      40.089  29.334  30.051  1.00  0.00     0.031 A 
ATOM     53  C   UNL A   1      45.514  27.544  26.003  1.00  0.00     0.031 A 
ATOM     54  C   UNL A   1      41.131  30.321  29.963  1.00  0.00     0.049 A 
ATOM     55  C   UNL A   1      45.427  28.895  26.668  1.00  0.00     0.074 A 
ATOM     56  C   UNL A   1      41.211  31.549  30.595  1.00  0.00     0.029 A 
ATOM     57  N   UNL A   1      42.273  30.191  29.189  1.00  0.00    -0.354 N 
ATOM     58  N   UNL A   1      44.502  29.364  27.472  1.00  0.00    -0.248 NA
ATOM     59  C   UNL A   1      46.518  29.844  26.397  1.00  0.00     0.031 C 
ATOM     60  C   UNL A   1      42.373  32.188  30.158  1.00  0.00     0.029 A 
ATOM     61  C   UNL A   1      43.054  31.326  29.312  1.00  0.00     0.049 A 
ATOM     62  H   UNL A   1      42.496  29.408  28.635  1.00  0.00     0.167 HD
ATOM     63  C   UNL A   1      44.922  30.639  27.835  1.00  0.00     0.074 A 
ATOM     64  C   UNL A   1      46.183  30.872  27.164  1.00  0.00     0.031 C 
ATOM     65  C   UNL A   1      44.321  31.532  28.659  1.00  0.00     0.031 A 
BRANCH  52  66
ATOM     66  C   UNL A   1      38.880  29.640  30.890  1.00  0.00    -0.014 A 
ATOM     67  C   UNL A   1      37.642  29.953  30.308  1.00  0.00     0.009 A 
ATOM     68  C   UNL A   1      38.977  29.584  32.290  1.00  0.00     0.009 A 
ATOM     69  C   UNL A   1      36.536  30.239  31.111  1.00  0.00     0.001 A 
ATOM     70  C   UNL A   1      37.862  29.837  33.089  1.00  0.00     0.001 A 
ATOM     71  C   UNL A   1      36.646  30.176  32.500  1.00  0.00     0.000 A 
ENDBRANCH  52  66
BRANCH  53  72
ATOM     72  C   UNL A   1      46.663  27.218  25.113  1.00  0.00    -0.014 A 
ATOM     73  C   UNL A   1      46.779  27.820  23.850  1.00  0.00     0.009 A 
ATOM     74  C   UNL A   1      47.633  26.283  25.507  1.00  0.00     0.009 A 
ATOM     75  C   UNL A   1      47.827  27.473  22.993  1.00  0.00     0.001 A 
ATOM     76  C   UNL A   1      48.698  25.963  24.661  1.00  0.00     0.001 A 
ATOM     77  C   UNL A   1      48.788  26.549  23.401  1.00  0.00     0.000 A 
ENDBRANCH  53  72
BRANCH  65  78
ATOM     78  C   UNL A   1      45.046  32.815  28.957  1.00  0.00    -0.014 A 
ATOM     79  C   UNL A   1      46.041  32.890  29.942  1.00  0.00     0.009 A 
ATOM     80  C   UNL A   1      44.789  33.944  28.160  1.00  0.00     0.009 A 
ATOM     81  C   UNL A   1      46.754  34.076  30.132  1.00  0.00     0.001 A 
ATOM     82  C   UNL A   1      45.524  35.117  28.333  1.00  0.00     0.001 A 
ATOM     83  C   UNL A   1      46.502  35.184  29.322  1.00  0.00     0.000 A 
ENDBRANCH  65  78
ENDBRANCH  39  40
ENDBRANCH  32  34
ENDBRANCH  31  32
ENDBRANCH  30  31
ENDBRANCH  29  30
ENDBRANCH  28  29
ENDBRANCH  27  28
ENDBRANCH   1  27
TORSDOF 21
ENDMDL
