MODEL 1
REMARK VINA RESULT:     -10.8      0.000      0.000
REMARK SMILES NS(=O)(=O)c1ccc(-n2nc(C(F)F)cc2-c2ccc(C(=O)OCCOCCOCCOC(=O)c3ccc(-c4c5nc(c(-c6ccccc6)c6ccc([nH]6)c(-c6ccccc6)c6nc(c(-c7ccccc7)c7ccc4[nH]7)C=C6)C=C5)cc3)cc2)cc1
REMARK SMILES IDX 27 1 26 2 25 3 24 4 23 5 21 6 22 7 20 8 17 9 18 10 84 11
REMARK SMILES IDX 19 12 83 13 16 14 9 15 10 16 11 17 15 18 8 19 5 20 6 21
REMARK SMILES IDX 86 22 7 23 85 24 2 25 3 26 4 27 1 28 12 31 13 32 14 33 28 34
REMARK SMILES IDX 29 35 30 36 31 37 32 38 33 39 34 40 35 41 36 42 82 43 37 44
REMARK SMILES IDX 81 45 38 46 39 47 40 48 75 49 41 50 80 51 74 52 76 53 42 54
REMARK SMILES IDX 79 55 73 56 72 57 43 59 65 60 50 61 64 62 51 63 54 64 63 65
REMARK SMILES IDX 77 66 52 67 53 68 62 70 78 71 55 72 44 73 45 74 49 75 46 76
REMARK SMILES IDX 48 77 47 78 66 79 67 80 71 81 68 82 70 83 69 84 56 85 57 86
REMARK SMILES IDX 61 87 58 88 60 89 59 90
REMARK H PARENT 1 29 1 30 76 58 54 69
REMARK Flexibility Score: inf
ROOT
ATOM      1  C   UNL A   1      31.840  28.201  25.952  1.00  0.00     0.188 C 
ENDROOT
BRANCH   1   2
ATOM      2  O   UNL A   1      31.495  28.770  24.711  1.00  0.00    -0.376 OA
BRANCH   2   3
ATOM      3  C   UNL A   1      30.535  28.143  23.878  1.00  0.00     0.202 C 
BRANCH   3   4
ATOM      4  C   UNL A   1      30.844  27.122  22.759  1.00  0.00     0.261 C 
BRANCH   4   5
ATOM      5  O   UNL A   1      31.997  26.289  22.903  1.00  0.00    -0.460 OA
BRANCH   5   6
ATOM      6  C   UNL A   1      31.881  25.262  23.778  1.00  0.00     0.338 C 
ATOM      7  O   UNL A   1      30.849  24.709  24.118  1.00  0.00    -0.246 OA
BRANCH   6   8
ATOM      8  C   UNL A   1      33.226  24.756  24.137  1.00  0.00     0.060 A 
ATOM      9  C   UNL A   1      35.742  23.656  24.722  1.00  0.00     0.000 A 
ATOM     10  C   UNL A   1      35.262  23.663  23.405  1.00  0.00     0.011 A 
ATOM     11  C   UNL A   1      34.981  24.270  25.728  1.00  0.00     0.011 A 
ATOM     12  C   UNL A   1      34.007  24.201  23.115  1.00  0.00     0.016 A 
ATOM     13  C   UNL A   1      33.730  24.827  25.438  1.00  0.00     0.016 A 
BRANCH   9  14
ATOM     14  C   UNL A   1      36.913  22.847  25.070  1.00  0.00     0.075 A 
ATOM     15  N   UNL A   1      36.945  21.488  25.365  1.00  0.00    -0.233 N 
ATOM     16  N   UNL A   1      38.068  21.150  26.051  1.00  0.00    -0.166 NA
ATOM     17  C   UNL A   1      38.847  22.243  26.009  1.00  0.00     0.129 A 
ATOM     18  C   UNL A   1      38.163  23.326  25.419  1.00  0.00     0.060 A 
BRANCH  15  19
ATOM     19  C   UNL A   1      35.989  20.487  25.044  1.00  0.00     0.065 A 
ATOM     20  C   UNL A   1      34.130  18.496  24.462  1.00  0.00     0.082 A 
ATOM     21  C   UNL A   1      33.691  19.798  24.722  1.00  0.00     0.024 A 
ATOM     22  C   UNL A   1      35.493  18.186  24.470  1.00  0.00     0.024 A 
ATOM     23  C   UNL A   1      34.621  20.793  25.029  1.00  0.00     0.030 A 
ATOM     24  C   UNL A   1      36.427  19.192  24.728  1.00  0.00     0.030 A 
BRANCH  20  25
ATOM     25  S   UNL A   1      32.939  17.210  24.205  1.00  0.00     0.238 S 
ATOM     26  O   UNL A   1      31.833  17.402  25.110  1.00  0.00    -0.207 OA
ATOM     27  O   UNL A   1      33.637  15.947  24.093  1.00  0.00    -0.207 OA
BRANCH  25  28
ATOM     28  N   UNL A   1      32.355  17.562  22.673  1.00  0.00    -0.225 NA
ATOM     29  H   UNL A   1      31.651  18.298  22.738  1.00  0.00     0.137 HD
ATOM     30  H   UNL A   1      31.935  16.725  22.269  1.00  0.00     0.137 HD
ENDBRANCH  25  28
ENDBRANCH  20  25
ENDBRANCH  15  19
BRANCH  17  31
ATOM     31  C   UNL A   1      40.236  22.280  26.574  1.00  0.00     0.393 C 
ATOM     32  F   UNL A   1      40.252  22.390  27.931  1.00  0.00    -0.203 F 
ATOM     33  F   UNL A   1      40.929  21.150  26.265  1.00  0.00    -0.203 F 
ENDBRANCH  17  31
ENDBRANCH   9  14
ENDBRANCH   6   8
ENDBRANCH   5   6
ENDBRANCH   4   5
ENDBRANCH   3   4
ENDBRANCH   2   3
ENDBRANCH   1   2
BRANCH   1  34
ATOM     34  C   UNL A   1      31.845  29.178  27.147  1.00  0.00     0.188 C 
BRANCH  34  35
ATOM     35  O   UNL A   1      32.661  30.340  27.179  1.00  0.00    -0.376 OA
BRANCH  35  36
ATOM     36  C   UNL A   1      34.051  30.322  26.890  1.00  0.00     0.202 C 
BRANCH  36  37
ATOM     37  C   UNL A   1      35.103  29.762  27.844  1.00  0.00     0.261 C 
BRANCH  37  38
ATOM     38  O   UNL A   1      36.183  30.628  28.107  1.00  0.00    -0.460 OA
BRANCH  38  39
ATOM     39  C   UNL A   1      36.976  30.208  29.112  1.00  0.00     0.338 C 
ATOM     40  O   UNL A   1      37.012  30.626  30.256  1.00  0.00    -0.246 OA
BRANCH  39  41
ATOM     41  C   UNL A   1      37.898  29.205  28.582  1.00  0.00     0.060 A 
ATOM     42  C   UNL A   1      38.298  28.210  29.474  1.00  0.00     0.016 A 
ATOM     43  C   UNL A   1      38.611  29.508  27.413  1.00  0.00     0.016 A 
ATOM     44  C   UNL A   1      39.575  27.725  29.351  1.00  0.00     0.010 A 
ATOM     45  C   UNL A   1      39.895  29.044  27.307  1.00  0.00     0.010 A 
ATOM     46  C   UNL A   1      40.385  28.249  28.339  1.00  0.00    -0.014 A 
BRANCH  46  47
ATOM     47  C   UNL A   1      41.787  27.922  28.370  1.00  0.00     0.031 A 
ATOM     48  C   UNL A   1      42.101  26.668  27.667  1.00  0.00     0.074 A 
ATOM     49  C   UNL A   1      42.699  28.747  28.912  1.00  0.00     0.049 A 
ATOM     50  N   UNL A   1      42.528  25.566  28.183  1.00  0.00    -0.248 NA
ATOM     51  C   UNL A   1      41.740  26.583  26.243  1.00  0.00     0.031 C 
ATOM     52  C   UNL A   1      42.521  30.127  29.369  1.00  0.00     0.029 A 
ATOM     53  N   UNL A   1      44.035  28.548  29.046  1.00  0.00    -0.354 N 
ATOM     54  C   UNL A   1      42.669  24.695  27.113  1.00  0.00     0.074 A 
ATOM     55  C   UNL A   1      41.992  25.300  25.995  1.00  0.00     0.031 C 
ATOM     56  C   UNL A   1      43.737  30.711  29.485  1.00  0.00     0.029 A 
ATOM     57  C   UNL A   1      44.763  29.712  29.234  1.00  0.00     0.049 A 
ATOM     58  H   UNL A   1      44.451  27.656  29.012  1.00  0.00     0.167 HD
ATOM     59  C   UNL A   1      43.577  23.686  27.148  1.00  0.00     0.031 A 
ATOM     60  C   UNL A   1      46.105  29.840  29.085  1.00  0.00     0.031 A 
ATOM     61  C   UNL A   1      44.001  23.389  28.492  1.00  0.00     0.049 A 
ATOM     62  C   UNL A   1      46.695  28.480  29.146  1.00  0.00     0.074 A 
ATOM     63  C   UNL A   1      43.353  23.002  29.649  1.00  0.00     0.029 A 
ATOM     64  N   UNL A   1      45.227  23.869  28.887  1.00  0.00    -0.354 N 
ATOM     65  N   UNL A   1      46.725  27.756  30.227  1.00  0.00    -0.248 NA
ATOM     66  C   UNL A   1      46.853  27.743  27.900  1.00  0.00     0.031 C 
ATOM     67  C   UNL A   1      44.025  23.694  30.699  1.00  0.00     0.029 A 
ATOM     68  C   UNL A   1      45.077  24.418  30.133  1.00  0.00     0.049 A 
ATOM     69  H   UNL A   1      46.063  23.826  28.367  1.00  0.00     0.167 HD
ATOM     70  C   UNL A   1      46.454  26.465  29.795  1.00  0.00     0.074 A 
ATOM     71  C   UNL A   1      46.652  26.500  28.348  1.00  0.00     0.031 C 
ATOM     72  C   UNL A   1      45.813  25.570  30.605  1.00  0.00     0.031 A 
BRANCH  59  73
ATOM     73  C   UNL A   1      44.390  23.305  25.938  1.00  0.00    -0.014 A 
ATOM     74  C   UNL A   1      44.253  22.009  25.419  1.00  0.00     0.009 A 
ATOM     75  C   UNL A   1      45.483  24.064  25.471  1.00  0.00     0.009 A 
ATOM     76  C   UNL A   1      45.204  21.479  24.539  1.00  0.00     0.001 A 
ATOM     77  C   UNL A   1      46.407  23.555  24.560  1.00  0.00     0.001 A 
ATOM     78  C   UNL A   1      46.283  22.248  24.116  1.00  0.00     0.000 A 
ENDBRANCH  59  73
BRANCH  60  79
ATOM     79  C   UNL A   1      46.862  31.002  28.567  1.00  0.00    -0.014 A 
ATOM     80  C   UNL A   1      48.140  31.298  29.067  1.00  0.00     0.009 A 
ATOM     81  C   UNL A   1      46.452  31.661  27.393  1.00  0.00     0.009 A 
ATOM     82  C   UNL A   1      48.993  32.180  28.389  1.00  0.00     0.001 A 
ATOM     83  C   UNL A   1      47.299  32.547  26.720  1.00  0.00     0.001 A 
ATOM     84  C   UNL A   1      48.578  32.792  27.209  1.00  0.00     0.000 A 
ENDBRANCH  60  79
BRANCH  72  85
ATOM     85  C   UNL A   1      45.625  25.940  32.057  1.00  0.00    -0.014 A 
ATOM     86  C   UNL A   1      44.757  26.962  32.481  1.00  0.00     0.009 A 
ATOM     87  C   UNL A   1      46.226  25.132  33.032  1.00  0.00     0.009 A 
ATOM     88  C   UNL A   1      44.526  27.188  33.842  1.00  0.00     0.001 A 
ATOM     89  C   UNL A   1      45.979  25.344  34.390  1.00  0.00     0.001 A 
ATOM     90  C   UNL A   1      45.134  26.375  34.796  1.00  0.00     0.000 A 
ENDBRANCH  72  85
ENDBRANCH  46  47
ENDBRANCH  39  41
ENDBRANCH  38  39
ENDBRANCH  37  38
ENDBRANCH  36  37
ENDBRANCH  35  36
ENDBRANCH  34  35
ENDBRANCH   1  34
TORSDOF 22
ENDMDL
MODEL 2
REMARK VINA RESULT:     -10.4      1.692      5.461
REMARK SMILES NS(=O)(=O)c1ccc(-n2nc(C(F)F)cc2-c2ccc(C(=O)OCCOCCOCCOC(=O)c3ccc(-c4c5nc(c(-c6ccccc6)c6ccc([nH]6)c(-c6ccccc6)c6nc(c(-c7ccccc7)c7ccc4[nH]7)C=C6)C=C5)cc3)cc2)cc1
REMARK SMILES IDX 27 1 26 2 25 3 24 4 23 5 21 6 22 7 20 8 17 9 18 10 84 11
REMARK SMILES IDX 19 12 83 13 16 14 9 15 10 16 11 17 15 18 8 19 5 20 6 21
REMARK SMILES IDX 86 22 7 23 85 24 2 25 3 26 4 27 1 28 12 31 13 32 14 33 28 34
REMARK SMILES IDX 29 35 30 36 31 37 32 38 33 39 34 40 35 41 36 42 82 43 37 44
REMARK SMILES IDX 81 45 38 46 39 47 40 48 75 49 41 50 80 51 74 52 76 53 42 54
REMARK SMILES IDX 79 55 73 56 72 57 43 59 65 60 50 61 64 62 51 63 54 64 63 65
REMARK SMILES IDX 77 66 52 67 53 68 62 70 78 71 55 72 44 73 45 74 49 75 46 76
REMARK SMILES IDX 48 77 47 78 66 79 67 80 71 81 68 82 70 83 69 84 56 85 57 86
REMARK SMILES IDX 61 87 58 88 60 89 59 90
REMARK H PARENT 1 29 1 30 76 58 54 69
REMARK Flexibility Score: inf
ROOT
ATOM      1  C   UNL A   1      32.248  28.906  25.356  1.00  0.00     0.188 C 
ENDROOT
BRANCH   1   2
ATOM      2  O   UNL A   1      32.352  28.732  23.963  1.00  0.00    -0.376 OA
BRANCH   2   3
ATOM      3  C   UNL A   1      31.187  28.551  23.175  1.00  0.00     0.202 C 
BRANCH   3   4
ATOM      4  C   UNL A   1      30.572  27.189  22.778  1.00  0.00     0.261 C 
BRANCH   4   5
ATOM      5  O   UNL A   1      31.458  26.101  22.505  1.00  0.00    -0.460 OA
BRANCH   5   6
ATOM      6  C   UNL A   1      31.385  25.049  23.355  1.00  0.00     0.338 C 
ATOM      7  O   UNL A   1      30.392  24.390  23.613  1.00  0.00    -0.246 OA
BRANCH   6   8
ATOM      8  C   UNL A   1      32.746  24.669  23.799  1.00  0.00     0.060 A 
ATOM      9  C   UNL A   1      35.305  23.799  24.561  1.00  0.00     0.000 A 
ATOM     10  C   UNL A   1      34.872  23.652  23.236  1.00  0.00     0.011 A 
ATOM     11  C   UNL A   1      34.470  24.452  25.482  1.00  0.00     0.011 A 
ATOM     12  C   UNL A   1      33.597  24.076  22.859  1.00  0.00     0.016 A 
ATOM     13  C   UNL A   1      33.197  24.894  25.103  1.00  0.00     0.016 A 
BRANCH   9  14
ATOM     14  C   UNL A   1      36.511  23.106  25.019  1.00  0.00     0.075 A 
ATOM     15  N   UNL A   1      36.636  21.764  25.366  1.00  0.00    -0.233 N 
ATOM     16  N   UNL A   1      37.732  21.548  26.140  1.00  0.00    -0.166 NA
ATOM     17  C   UNL A   1      38.417  22.701  26.112  1.00  0.00     0.129 A 
ATOM     18  C   UNL A   1      37.688  23.702  25.435  1.00  0.00     0.060 A 
BRANCH  15  19
ATOM     19  C   UNL A   1      35.794  20.675  25.017  1.00  0.00     0.065 A 
ATOM     20  C   UNL A   1      34.131  18.565  24.281  1.00  0.00     0.082 A 
ATOM     21  C   UNL A   1      35.488  18.326  24.518  1.00  0.00     0.024 A 
ATOM     22  C   UNL A   1      33.594  19.848  24.428  1.00  0.00     0.024 A 
ATOM     23  C   UNL A   1      36.325  19.386  24.872  1.00  0.00     0.030 A 
ATOM     24  C   UNL A   1      34.421  20.899  24.830  1.00  0.00     0.030 A 
BRANCH  20  25
ATOM     25  S   UNL A   1      33.101  17.245  23.703  1.00  0.00     0.238 S 
ATOM     26  O   UNL A   1      33.830  16.003  23.797  1.00  0.00    -0.207 OA
ATOM     27  O   UNL A   1      32.444  17.666  22.485  1.00  0.00    -0.207 OA
BRANCH  25  28
ATOM     28  N   UNL A   1      31.910  17.176  24.881  1.00  0.00    -0.225 NA
ATOM     29  H   UNL A   1      32.030  17.953  25.532  1.00  0.00     0.137 HD
ATOM     30  H   UNL A   1      31.984  16.294  25.388  1.00  0.00     0.137 HD
ENDBRANCH  25  28
ENDBRANCH  20  25
ENDBRANCH  15  19
BRANCH  17  31
ATOM     31  C   UNL A   1      39.753  22.877  26.770  1.00  0.00     0.393 C 
ATOM     32  F   UNL A   1      39.743  23.831  27.741  1.00  0.00    -0.203 F 
ATOM     33  F   UNL A   1      40.173  21.724  27.359  1.00  0.00    -0.203 F 
ENDBRANCH  17  31
ENDBRANCH   9  14
ENDBRANCH   6   8
ENDBRANCH   5   6
ENDBRANCH   4   5
ENDBRANCH   3   4
ENDBRANCH   2   3
ENDBRANCH   1   2
BRANCH   1  34
ATOM     34  C   UNL A   1      31.620  30.242  25.808  1.00  0.00     0.188 C 
BRANCH  34  35
ATOM     35  O   UNL A   1      32.184  31.041  26.838  1.00  0.00    -0.376 OA
BRANCH  35  36
ATOM     36  C   UNL A   1      33.382  30.698  27.519  1.00  0.00     0.202 C 
BRANCH  36  37
ATOM     37  C   UNL A   1      34.585  31.631  27.629  1.00  0.00     0.261 C 
BRANCH  37  38
ATOM     38  O   UNL A   1      34.763  32.219  28.898  1.00  0.00    -0.460 OA
BRANCH  38  39
ATOM     39  C   UNL A   1      35.483  31.459  29.745  1.00  0.00     0.338 C 
ATOM     40  O   UNL A   1      35.270  31.256  30.928  1.00  0.00    -0.246 OA
BRANCH  39  41
ATOM     41  C   UNL A   1      36.668  30.977  29.037  1.00  0.00     0.060 A 
ATOM     42  C   UNL A   1      36.676  29.620  28.713  1.00  0.00     0.016 A 
ATOM     43  C   UNL A   1      37.834  31.753  29.086  1.00  0.00     0.016 A 
ATOM     44  C   UNL A   1      37.884  28.971  28.733  1.00  0.00     0.010 A 
ATOM     45  C   UNL A   1      39.037  31.100  29.133  1.00  0.00     0.010 A 
ATOM     46  C   UNL A   1      39.024  29.710  29.065  1.00  0.00    -0.014 A 
BRANCH  46  47
ATOM     47  C   UNL A   1      40.238  28.981  29.326  1.00  0.00     0.031 A 
ATOM     48  C   UNL A   1      40.558  28.891  30.759  1.00  0.00     0.074 A 
ATOM     49  C   UNL A   1      40.931  28.377  28.346  1.00  0.00     0.049 A 
ATOM     50  N   UNL A   1      41.553  29.431  31.376  1.00  0.00    -0.248 NA
ATOM     51  C   UNL A   1      39.559  28.259  31.636  1.00  0.00     0.031 C 
ATOM     52  C   UNL A   1      40.540  28.169  26.949  1.00  0.00     0.029 A 
ATOM     53  N   UNL A   1      42.102  27.698  28.443  1.00  0.00    -0.354 N 
ATOM     54  C   UNL A   1      41.409  29.050  32.701  1.00  0.00     0.074 A 
ATOM     55  C   UNL A   1      40.081  28.508  32.835  1.00  0.00     0.031 C 
ATOM     56  C   UNL A   1      41.330  27.210  26.411  1.00  0.00     0.029 A 
ATOM     57  C   UNL A   1      42.346  26.838  27.383  1.00  0.00     0.049 A 
ATOM     58  H   UNL A   1      42.724  27.806  29.199  1.00  0.00     0.167 HD
ATOM     59  C   UNL A   1      42.488  28.939  33.519  1.00  0.00     0.031 A 
ATOM     60  C   UNL A   1      43.255  25.832  27.371  1.00  0.00     0.031 A 
ATOM     61  C   UNL A   1      43.631  29.648  33.001  1.00  0.00     0.049 A 
ATOM     62  C   UNL A   1      44.228  26.096  28.460  1.00  0.00     0.074 A 
ATOM     63  C   UNL A   1      43.880  30.963  32.657  1.00  0.00     0.029 A 
ATOM     64  N   UNL A   1      44.612  28.904  32.391  1.00  0.00    -0.354 N 
ATOM     65  N   UNL A   1      45.081  27.079  28.441  1.00  0.00    -0.248 NA
ATOM     66  C   UNL A   1      43.957  25.534  29.775  1.00  0.00     0.031 C 
ATOM     67  C   UNL A   1      44.704  30.892  31.496  1.00  0.00     0.029 A 
ATOM     68  C   UNL A   1      44.957  29.544  31.229  1.00  0.00     0.049 A 
ATOM     69  H   UNL A   1      44.997  28.062  32.727  1.00  0.00     0.167 HD
ATOM     70  C   UNL A   1      45.107  27.549  29.747  1.00  0.00     0.074 A 
ATOM     71  C   UNL A   1      44.484  26.493  30.543  1.00  0.00     0.031 C 
ATOM     72  C   UNL A   1      45.361  28.864  30.019  1.00  0.00     0.031 A 
BRANCH  59  73
ATOM     73  C   UNL A   1      42.614  27.825  34.525  1.00  0.00    -0.014 A 
ATOM     74  C   UNL A   1      42.823  26.519  34.058  1.00  0.00     0.009 A 
ATOM     75  C   UNL A   1      42.251  27.964  35.881  1.00  0.00     0.009 A 
ATOM     76  C   UNL A   1      42.606  25.412  34.885  1.00  0.00     0.001 A 
ATOM     77  C   UNL A   1      42.077  26.864  36.721  1.00  0.00     0.001 A 
ATOM     78  C   UNL A   1      42.226  25.584  36.212  1.00  0.00     0.000 A 
ENDBRANCH  59  73
BRANCH  60  79
ATOM     79  C   UNL A   1      43.149  24.510  26.715  1.00  0.00    -0.014 A 
ATOM     80  C   UNL A   1      43.299  24.392  25.324  1.00  0.00     0.009 A 
ATOM     81  C   UNL A   1      43.174  23.327  27.476  1.00  0.00     0.009 A 
ATOM     82  C   UNL A   1      43.517  23.144  24.725  1.00  0.00     0.001 A 
ATOM     83  C   UNL A   1      43.383  22.079  26.879  1.00  0.00     0.001 A 
ATOM     84  C   UNL A   1      43.574  21.991  25.505  1.00  0.00     0.000 A 
ENDBRANCH  60  79
BRANCH  72  85
ATOM     85  C   UNL A   1      45.849  29.737  28.887  1.00  0.00    -0.014 A 
ATOM     86  C   UNL A   1      47.213  29.934  28.604  1.00  0.00     0.009 A 
ATOM     87  C   UNL A   1      44.903  30.251  27.989  1.00  0.00     0.009 A 
ATOM     88  C   UNL A   1      47.613  30.654  27.473  1.00  0.00     0.001 A 
ATOM     89  C   UNL A   1      45.304  30.951  26.849  1.00  0.00     0.001 A 
ATOM     90  C   UNL A   1      46.657  31.158  26.594  1.00  0.00     0.000 A 
ENDBRANCH  72  85
ENDBRANCH  46  47
ENDBRANCH  39  41
ENDBRANCH  38  39
ENDBRANCH  37  38
ENDBRANCH  36  37
ENDBRANCH  35  36
ENDBRANCH  34  35
ENDBRANCH   1  34
TORSDOF 22
ENDMDL
MODEL 3
REMARK VINA RESULT:     -10.2      5.012      9.149
REMARK SMILES NS(=O)(=O)c1ccc(-n2nc(C(F)F)cc2-c2ccc(C(=O)OCCOCCOCCOC(=O)c3ccc(-c4c5nc(c(-c6ccccc6)c6ccc([nH]6)c(-c6ccccc6)c6nc(c(-c7ccccc7)c7ccc4[nH]7)C=C6)C=C5)cc3)cc2)cc1
REMARK SMILES IDX 27 1 26 2 25 3 24 4 23 5 21 6 22 7 20 8 17 9 18 10 84 11
REMARK SMILES IDX 19 12 83 13 16 14 9 15 10 16 11 17 15 18 8 19 5 20 6 21
REMARK SMILES IDX 86 22 7 23 85 24 2 25 3 26 4 27 1 28 12 31 13 32 14 33 28 34
REMARK SMILES IDX 29 35 30 36 31 37 32 38 33 39 34 40 35 41 36 42 82 43 37 44
REMARK SMILES IDX 81 45 38 46 39 47 40 48 75 49 41 50 80 51 74 52 76 53 42 54
REMARK SMILES IDX 79 55 73 56 72 57 43 59 65 60 50 61 64 62 51 63 54 64 63 65
REMARK SMILES IDX 77 66 52 67 53 68 62 70 78 71 55 72 44 73 45 74 49 75 46 76
REMARK SMILES IDX 48 77 47 78 66 79 67 80 71 81 68 82 70 83 69 84 56 85 57 86
REMARK SMILES IDX 61 87 58 88 60 89 59 90
REMARK H PARENT 1 29 1 30 76 58 54 69
REMARK Flexibility Score: inf
ROOT
ATOM      1  C   UNL A   1      33.406  34.854  28.669  1.00  0.00     0.188 C 
ENDROOT
BRANCH   1   2
ATOM      2  O   UNL A   1      34.531  34.691  27.839  1.00  0.00    -0.376 OA
BRANCH   2   3
ATOM      3  C   UNL A   1      35.329  33.523  27.936  1.00  0.00     0.202 C 
BRANCH   3   4
ATOM      4  C   UNL A   1      35.320  32.522  29.115  1.00  0.00     0.261 C 
BRANCH   4   5
ATOM      5  O   UNL A   1      34.538  31.333  28.985  1.00  0.00    -0.460 OA
BRANCH   5   6
ATOM      6  C   UNL A   1      34.998  30.412  28.105  1.00  0.00     0.338 C 
ATOM      7  O   UNL A   1      36.016  29.750  28.211  1.00  0.00    -0.246 OA
BRANCH   6   8
ATOM      8  C   UNL A   1      33.980  30.168  27.057  1.00  0.00     0.060 A 
ATOM      9  C   UNL A   1      31.932  29.699  25.195  1.00  0.00     0.000 A 
ATOM     10  C   UNL A   1      31.763  30.654  26.207  1.00  0.00     0.011 A 
ATOM     11  C   UNL A   1      33.164  29.035  25.083  1.00  0.00     0.011 A 
ATOM     12  C   UNL A   1      32.778  30.881  27.139  1.00  0.00     0.016 A 
ATOM     13  C   UNL A   1      34.190  29.273  26.004  1.00  0.00     0.016 A 
BRANCH   9  14
ATOM     14  C   UNL A   1      30.780  29.259  24.404  1.00  0.00     0.075 A 
ATOM     15  N   UNL A   1      30.472  27.961  24.007  1.00  0.00    -0.233 N 
ATOM     16  N   UNL A   1      29.614  27.951  22.954  1.00  0.00    -0.166 NA
ATOM     17  C   UNL A   1      29.211  29.224  22.814  1.00  0.00     0.129 A 
ATOM     18  C   UNL A   1      29.921  30.073  23.689  1.00  0.00     0.060 A 
BRANCH  15  19
ATOM     19  C   UNL A   1      30.932  26.734  24.554  1.00  0.00     0.065 A 
ATOM     20  C   UNL A   1      31.888  24.341  25.612  1.00  0.00     0.082 A 
ATOM     21  C   UNL A   1      31.246  25.259  26.448  1.00  0.00     0.024 A 
ATOM     22  C   UNL A   1      32.039  24.600  24.246  1.00  0.00     0.024 A 
ATOM     23  C   UNL A   1      30.779  26.466  25.921  1.00  0.00     0.030 A 
ATOM     24  C   UNL A   1      31.529  25.785  23.710  1.00  0.00     0.030 A 
BRANCH  20  25
ATOM     25  S   UNL A   1      32.594  22.874  26.309  1.00  0.00     0.238 S 
ATOM     26  O   UNL A   1      33.864  23.200  26.910  1.00  0.00    -0.207 OA
ATOM     27  O   UNL A   1      32.442  21.790  25.362  1.00  0.00    -0.207 OA
BRANCH  25  28
ATOM     28  N   UNL A   1      31.550  22.540  27.578  1.00  0.00    -0.225 NA
ATOM     29  H   UNL A   1      32.073  22.125  28.349  1.00  0.00     0.137 HD
ATOM     30  H   UNL A   1      30.832  21.887  27.264  1.00  0.00     0.137 HD
ENDBRANCH  25  28
ENDBRANCH  20  25
ENDBRANCH  15  19
BRANCH  17  31
ATOM     31  C   UNL A   1      28.180  29.652  21.814  1.00  0.00     0.393 C 
ATOM     32  F   UNL A   1      27.015  30.052  22.393  1.00  0.00    -0.203 F 
ATOM     33  F   UNL A   1      28.621  30.696  21.060  1.00  0.00    -0.203 F 
ENDBRANCH  17  31
ENDBRANCH   9  14
ENDBRANCH   6   8
ENDBRANCH   5   6
ENDBRANCH   4   5
ENDBRANCH   3   4
ENDBRANCH   2   3
ENDBRANCH   1   2
BRANCH   1  34
ATOM     34  C   UNL A   1      33.241  36.258  29.288  1.00  0.00     0.188 C 
BRANCH  34  35
ATOM     35  O   UNL A   1      32.542  36.479  30.505  1.00  0.00    -0.376 OA
BRANCH  35  36
ATOM     36  C   UNL A   1      33.069  37.249  31.575  1.00  0.00     0.202 C 
BRANCH  36  37
ATOM     37  C   UNL A   1      33.588  36.640  32.875  1.00  0.00     0.261 C 
BRANCH  37  38
ATOM     38  O   UNL A   1      34.690  35.774  32.723  1.00  0.00    -0.460 OA
BRANCH  38  39
ATOM     39  C   UNL A   1      34.410  34.492  33.027  1.00  0.00     0.338 C 
ATOM     40  O   UNL A   1      33.322  33.942  33.005  1.00  0.00    -0.246 OA
BRANCH  39  41
ATOM     41  C   UNL A   1      35.635  33.855  33.508  1.00  0.00     0.060 A 
ATOM     42  C   UNL A   1      36.732  34.698  33.685  1.00  0.00     0.016 A 
ATOM     43  C   UNL A   1      35.759  32.465  33.376  1.00  0.00     0.016 A 
ATOM     44  C   UNL A   1      37.977  34.181  33.429  1.00  0.00     0.010 A 
ATOM     45  C   UNL A   1      36.998  31.956  33.093  1.00  0.00     0.010 A 
ATOM     46  C   UNL A   1      38.064  32.847  33.018  1.00  0.00    -0.014 A 
BRANCH  46  47
ATOM     47  C   UNL A   1      39.332  32.387  32.515  1.00  0.00     0.031 A 
ATOM     48  C   UNL A   1      40.399  32.420  33.527  1.00  0.00     0.074 A 
ATOM     49  C   UNL A   1      39.470  31.895  31.272  1.00  0.00     0.049 A 
ATOM     50  N   UNL A   1      41.446  33.173  33.539  1.00  0.00    -0.248 NA
ATOM     51  C   UNL A   1      40.189  31.638  34.756  1.00  0.00     0.031 C 
ATOM     52  C   UNL A   1      38.422  31.557  30.305  1.00  0.00     0.029 A 
ATOM     53  N   UNL A   1      40.603  31.468  30.659  1.00  0.00    -0.354 N 
ATOM     54  C   UNL A   1      42.131  32.825  34.693  1.00  0.00     0.074 A 
ATOM     55  C   UNL A   1      41.227  32.034  35.488  1.00  0.00     0.031 C 
ATOM     56  C   UNL A   1      38.948  30.754  29.351  1.00  0.00     0.029 A 
ATOM     57  C   UNL A   1      40.379  30.632  29.576  1.00  0.00     0.049 A 
ATOM     58  H   UNL A   1      41.505  31.729  30.957  1.00  0.00     0.167 HD
ATOM     59  C   UNL A   1      43.480  32.965  34.775  1.00  0.00     0.031 A 
ATOM     60  C   UNL A   1      41.302  29.829  28.991  1.00  0.00     0.031 A 
ATOM     61  C   UNL A   1      43.989  33.867  33.774  1.00  0.00     0.049 A 
ATOM     62  C   UNL A   1      42.643  30.325  29.387  1.00  0.00     0.074 A 
ATOM     63  C   UNL A   1      43.754  35.190  33.453  1.00  0.00     0.029 A 
ATOM     64  N   UNL A   1      44.591  33.310  32.671  1.00  0.00    -0.354 N 
ATOM     65  N   UNL A   1      43.141  31.458  28.981  1.00  0.00    -0.248 NA
ATOM     66  C   UNL A   1      43.254  29.774  30.588  1.00  0.00     0.031 C 
ATOM     67  C   UNL A   1      43.798  35.238  32.029  1.00  0.00     0.029 A 
ATOM     68  C   UNL A   1      44.110  33.959  31.563  1.00  0.00     0.049 A 
ATOM     69  H   UNL A   1      45.248  32.576  32.675  1.00  0.00     0.167 HD
ATOM     70  C   UNL A   1      43.792  31.976  30.091  1.00  0.00     0.074 A 
ATOM     71  C   UNL A   1      43.924  30.850  31.014  1.00  0.00     0.031 C 
ATOM     72  C   UNL A   1      43.900  33.325  30.280  1.00  0.00     0.031 A 
BRANCH  59  73
ATOM     73  C   UNL A   1      44.346  31.940  35.459  1.00  0.00    -0.014 A 
ATOM     74  C   UNL A   1      44.359  30.630  34.958  1.00  0.00     0.009 A 
ATOM     75  C   UNL A   1      44.919  32.138  36.733  1.00  0.00     0.009 A 
ATOM     76  C   UNL A   1      44.850  29.567  35.724  1.00  0.00     0.001 A 
ATOM     77  C   UNL A   1      45.450  31.088  37.481  1.00  0.00     0.001 A 
ATOM     78  C   UNL A   1      45.387  29.795  36.987  1.00  0.00     0.000 A 
ENDBRANCH  59  73
BRANCH  60  79
ATOM     79  C   UNL A   1      41.104  28.487  28.400  1.00  0.00    -0.014 A 
ATOM     80  C   UNL A   1      40.862  28.344  27.024  1.00  0.00     0.009 A 
ATOM     81  C   UNL A   1      41.423  27.327  29.129  1.00  0.00     0.009 A 
ATOM     82  C   UNL A   1      40.986  27.098  26.395  1.00  0.00     0.001 A 
ATOM     83  C   UNL A   1      41.538  26.081  28.504  1.00  0.00     0.001 A 
ATOM     84  C   UNL A   1      41.337  25.970  27.133  1.00  0.00     0.000 A 
ENDBRANCH  60  79
BRANCH  72  85
ATOM     85  C   UNL A   1      43.509  34.232  29.138  1.00  0.00    -0.014 A 
ATOM     86  C   UNL A   1      44.316  34.428  28.003  1.00  0.00     0.009 A 
ATOM     87  C   UNL A   1      42.220  34.783  29.139  1.00  0.00     0.009 A 
ATOM     88  C   UNL A   1      43.857  35.182  26.918  1.00  0.00     0.001 A 
ATOM     89  C   UNL A   1      41.753  35.518  28.047  1.00  0.00     0.001 A 
ATOM     90  C   UNL A   1      42.574  35.722  26.939  1.00  0.00     0.000 A 
ENDBRANCH  72  85
ENDBRANCH  46  47
ENDBRANCH  39  41
ENDBRANCH  38  39
ENDBRANCH  37  38
ENDBRANCH  36  37
ENDBRANCH  35  36
ENDBRANCH  34  35
ENDBRANCH   1  34
TORSDOF 22
ENDMDL
