MODEL 1
REMARK VINA RESULT:      -8.0      0.000      0.000
REMARK SMILES CC(C)(Br)[C@H](Br)C(=O)OCCOCCOCCOC(=O)c1ccc(-c2c3nc(c(-c4ccccc4)c4ccc([nH]4)c(-c4ccccc4)c4nc(c(-c5ccccc5)c5ccc2[nH]5)C=C4)C=C3)cc1
REMARK SMILES IDX 14 1 13 2 12 3 11 4 10 5 9 6 7 7 8 8 5 9 6 10 2 11 1 12 3 13
REMARK SMILES IDX 4 14 15 15 16 16 17 17 18 18 19 19 20 20 21 21 22 22 68 23
REMARK SMILES IDX 23 24 67 25 24 26 25 27 26 28 61 29 27 30 66 31 60 32 62 33
REMARK SMILES IDX 28 34 65 35 59 36 58 37 29 39 51 40 36 41 50 42 37 43 40 44
REMARK SMILES IDX 49 45 63 46 38 47 39 48 48 50 64 51 41 52 30 53 31 54 35 55
REMARK SMILES IDX 32 56 34 57 33 58 52 59 53 60 57 61 54 62 56 63 55 64 42 65
REMARK SMILES IDX 43 66 47 67 44 68 46 69 45 70
REMARK H PARENT 62 38 40 49
REMARK Flexibility Score: inf
ROOT
ATOM      1  C   UNL A   1      31.173  27.717  24.521  1.00  0.00     0.188 C 
ENDROOT
BRANCH   1   2
ATOM      2  C   UNL A   1      30.857  26.585  25.505  1.00  0.00     0.188 C 
BRANCH   2   3
ATOM      3  O   UNL A   1      30.366  25.344  25.021  1.00  0.00    -0.376 OA
BRANCH   3   4
ATOM      4  C   UNL A   1      30.914  24.768  23.843  1.00  0.00     0.202 C 
BRANCH   4   5
ATOM      5  C   UNL A   1      32.349  24.202  23.859  1.00  0.00     0.261 C 
BRANCH   5   6
ATOM      6  O   UNL A   1      32.839  23.567  25.066  1.00  0.00    -0.462 OA
BRANCH   6   7
ATOM      7  C   UNL A   1      33.934  24.146  25.625  1.00  0.00     0.321 C 
ATOM      8  O   UNL A   1      34.141  25.357  25.582  1.00  0.00    -0.251 OA
BRANCH   7   9
ATOM      9  C   UNL A   1      34.934  23.219  26.306  1.00  0.00     0.183 C 
ATOM     10  Br  UNL A   1      34.110  21.634  27.140  1.00  0.00    -0.075 Br
BRANCH   9  11
ATOM     11  C   UNL A   1      36.186  22.800  25.516  1.00  0.00     0.043 C 
ATOM     12  C   UNL A   1      36.556  21.315  25.641  1.00  0.00     0.025 C 
ATOM     13  C   UNL A   1      37.376  23.687  25.929  1.00  0.00     0.025 C 
ATOM     14  Br  UNL A   1      35.944  23.144  23.571  1.00  0.00    -0.084 Br
ENDBRANCH   9  11
ENDBRANCH   7   9
ENDBRANCH   6   7
ENDBRANCH   5   6
ENDBRANCH   4   5
ENDBRANCH   3   4
ENDBRANCH   2   3
ENDBRANCH   1   2
BRANCH   1  15
ATOM     15  O   UNL A   1      32.503  27.759  24.065  1.00  0.00    -0.376 OA
BRANCH  15  16
ATOM     16  C   UNL A   1      33.316  28.844  24.462  1.00  0.00     0.202 C 
BRANCH  16  17
ATOM     17  C   UNL A   1      33.084  29.489  25.839  1.00  0.00     0.261 C 
BRANCH  17  18
ATOM     18  O   UNL A   1      34.070  29.231  26.854  1.00  0.00    -0.460 OA
BRANCH  18  19
ATOM     19  C   UNL A   1      34.460  30.277  27.622  1.00  0.00     0.338 C 
ATOM     20  O   UNL A   1      33.767  31.187  28.026  1.00  0.00    -0.246 OA
BRANCH  19  21
ATOM     21  C   UNL A   1      35.849  30.008  28.077  1.00  0.00     0.060 A 
ATOM     22  C   UNL A   1      36.907  30.187  27.174  1.00  0.00     0.016 A 
ATOM     23  C   UNL A   1      36.104  29.587  29.383  1.00  0.00     0.016 A 
ATOM     24  C   UNL A   1      38.220  29.914  27.566  1.00  0.00     0.010 A 
ATOM     25  C   UNL A   1      37.417  29.290  29.767  1.00  0.00     0.010 A 
ATOM     26  C   UNL A   1      38.479  29.420  28.851  1.00  0.00    -0.014 A 
BRANCH  26  27
ATOM     27  C   UNL A   1      39.811  28.851  29.179  1.00  0.00     0.031 A 
ATOM     28  C   UNL A   1      40.798  29.720  29.912  1.00  0.00     0.074 A 
ATOM     29  C   UNL A   1      40.150  27.592  28.845  1.00  0.00     0.049 A 
ATOM     30  N   UNL A   1      42.041  29.475  30.240  1.00  0.00    -0.248 NA
ATOM     31  C   UNL A   1      40.315  31.047  30.328  1.00  0.00     0.031 C 
ATOM     32  C   UNL A   1      39.279  26.625  28.183  1.00  0.00     0.029 A 
ATOM     33  N   UNL A   1      41.336  26.919  29.012  1.00  0.00    -0.354 N 
ATOM     34  C   UNL A   1      42.492  30.622  30.884  1.00  0.00     0.074 A 
ATOM     35  C   UNL A   1      41.400  31.570  30.878  1.00  0.00     0.031 C 
ATOM     36  C   UNL A   1      39.966  25.485  27.986  1.00  0.00     0.029 A 
ATOM     37  C   UNL A   1      41.334  25.656  28.473  1.00  0.00     0.049 A 
ATOM     38  H   UNL A   1      42.114  27.306  29.476  1.00  0.00     0.167 HD
ATOM     39  C   UNL A   1      43.706  30.867  31.433  1.00  0.00     0.031 A 
ATOM     40  C   UNL A   1      42.329  24.753  28.360  1.00  0.00     0.031 A 
ATOM     41  C   UNL A   1      44.801  29.934  31.427  1.00  0.00     0.049 A 
ATOM     42  C   UNL A   1      43.698  25.081  28.901  1.00  0.00     0.074 A 
ATOM     43  C   UNL A   1      46.066  30.088  31.970  1.00  0.00     0.029 A 
ATOM     44  N   UNL A   1      44.768  28.680  30.838  1.00  0.00    -0.354 N 
ATOM     45  N   UNL A   1      44.107  26.158  29.527  1.00  0.00    -0.248 NA
ATOM     46  C   UNL A   1      44.742  24.060  28.724  1.00  0.00     0.031 C 
ATOM     47  C   UNL A   1      46.817  28.952  31.655  1.00  0.00     0.029 A 
ATOM     48  C   UNL A   1      45.999  28.061  30.979  1.00  0.00     0.049 A 
ATOM     49  H   UNL A   1      43.986  28.288  30.387  1.00  0.00     0.167 HD
ATOM     50  C   UNL A   1      45.441  25.930  29.848  1.00  0.00     0.074 A 
ATOM     51  C   UNL A   1      45.769  24.607  29.360  1.00  0.00     0.031 C 
ATOM     52  C   UNL A   1      46.316  26.743  30.492  1.00  0.00     0.031 A 
BRANCH  39  53
ATOM     53  C   UNL A   1      43.926  32.220  32.049  1.00  0.00    -0.014 A 
ATOM     54  C   UNL A   1      44.405  33.302  31.294  1.00  0.00     0.009 A 
ATOM     55  C   UNL A   1      43.619  32.423  33.404  1.00  0.00     0.009 A 
ATOM     56  C   UNL A   1      44.603  34.549  31.891  1.00  0.00     0.001 A 
ATOM     57  C   UNL A   1      43.787  33.678  33.991  1.00  0.00     0.001 A 
ATOM     58  C   UNL A   1      44.288  34.737  33.236  1.00  0.00     0.000 A 
ENDBRANCH  39  53
BRANCH  40  59
ATOM     59  C   UNL A   1      42.086  23.453  27.679  1.00  0.00    -0.014 A 
ATOM     60  C   UNL A   1      42.377  23.290  26.315  1.00  0.00     0.009 A 
ATOM     61  C   UNL A   1      41.524  22.375  28.382  1.00  0.00     0.009 A 
ATOM     62  C   UNL A   1      42.088  22.087  25.666  1.00  0.00     0.001 A 
ATOM     63  C   UNL A   1      41.267  21.162  27.740  1.00  0.00     0.001 A 
ATOM     64  C   UNL A   1      41.537  21.022  26.380  1.00  0.00     0.000 A 
ENDBRANCH  40  59
BRANCH  52  65
ATOM     65  C   UNL A   1      47.699  26.210  30.753  1.00  0.00    -0.014 A 
ATOM     66  C   UNL A   1      48.057  25.670  31.998  1.00  0.00     0.009 A 
ATOM     67  C   UNL A   1      48.647  26.209  29.717  1.00  0.00     0.009 A 
ATOM     68  C   UNL A   1      49.347  25.176  32.209  1.00  0.00     0.001 A 
ATOM     69  C   UNL A   1      49.925  25.684  29.921  1.00  0.00     0.001 A 
ATOM     70  C   UNL A   1      50.277  25.178  31.170  1.00  0.00     0.000 A 
ENDBRANCH  52  65
ENDBRANCH  26  27
ENDBRANCH  19  21
ENDBRANCH  18  19
ENDBRANCH  17  18
ENDBRANCH  16  17
ENDBRANCH  15  16
ENDBRANCH   1  15
TORSDOF 18
ENDMDL
MODEL 2
REMARK VINA RESULT:      -8.0      4.330      6.583
REMARK SMILES CC(C)(Br)[C@H](Br)C(=O)OCCOCCOCCOC(=O)c1ccc(-c2c3nc(c(-c4ccccc4)c4ccc([nH]4)c(-c4ccccc4)c4nc(c(-c5ccccc5)c5ccc2[nH]5)C=C4)C=C3)cc1
REMARK SMILES IDX 14 1 13 2 12 3 11 4 10 5 9 6 7 7 8 8 5 9 6 10 2 11 1 12 3 13
REMARK SMILES IDX 4 14 15 15 16 16 17 17 18 18 19 19 20 20 21 21 22 22 68 23
REMARK SMILES IDX 23 24 67 25 24 26 25 27 26 28 61 29 27 30 66 31 60 32 62 33
REMARK SMILES IDX 28 34 65 35 59 36 58 37 29 39 51 40 36 41 50 42 37 43 40 44
REMARK SMILES IDX 49 45 63 46 38 47 39 48 48 50 64 51 41 52 30 53 31 54 35 55
REMARK SMILES IDX 32 56 34 57 33 58 52 59 53 60 57 61 54 62 56 63 55 64 42 65
REMARK SMILES IDX 43 66 47 67 44 68 46 69 45 70
REMARK H PARENT 62 38 40 49
REMARK Flexibility Score: inf
ROOT
ATOM      1  C   UNL A   1      34.013  32.961  28.154  1.00  0.00     0.188 C 
ENDROOT
BRANCH   1   2
ATOM      2  C   UNL A   1      34.725  31.610  28.292  1.00  0.00     0.188 C 
BRANCH   2   3
ATOM      3  O   UNL A   1      34.579  30.629  27.276  1.00  0.00    -0.376 OA
BRANCH   3   4
ATOM      4  C   UNL A   1      33.314  30.411  26.668  1.00  0.00     0.202 C 
BRANCH   4   5
ATOM      5  C   UNL A   1      32.329  29.396  27.282  1.00  0.00     0.261 C 
BRANCH   5   6
ATOM      6  O   UNL A   1      31.464  28.636  26.401  1.00  0.00    -0.462 OA
BRANCH   6   7
ATOM      7  C   UNL A   1      31.803  27.331  26.237  1.00  0.00     0.321 C 
ATOM      8  O   UNL A   1      31.315  26.426  26.914  1.00  0.00    -0.251 OA
BRANCH   7   9
ATOM      9  C   UNL A   1      32.849  27.016  25.174  1.00  0.00     0.183 C 
ATOM     10  Br  UNL A   1      33.735  25.273  25.423  1.00  0.00    -0.075 Br
BRANCH   9  11
ATOM     11  C   UNL A   1      32.456  27.195  23.697  1.00  0.00     0.043 C 
ATOM     12  C   UNL A   1      32.743  28.589  23.121  1.00  0.00     0.025 C 
ATOM     13  C   UNL A   1      30.969  26.833  23.513  1.00  0.00     0.025 C 
ATOM     14  Br  UNL A   1      33.442  25.909  22.541  1.00  0.00    -0.084 Br
ENDBRANCH   9  11
ENDBRANCH   7   9
ENDBRANCH   6   7
ENDBRANCH   5   6
ENDBRANCH   4   5
ENDBRANCH   3   4
ENDBRANCH   2   3
ENDBRANCH   1   2
BRANCH   1  15
ATOM     15  O   UNL A   1      34.782  34.082  28.517  1.00  0.00    -0.376 OA
BRANCH  15  16
ATOM     16  C   UNL A   1      34.120  35.311  28.733  1.00  0.00     0.202 C 
BRANCH  16  17
ATOM     17  C   UNL A   1      32.910  35.353  29.680  1.00  0.00     0.261 C 
BRANCH  17  18
ATOM     18  O   UNL A   1      33.021  36.196  30.841  1.00  0.00    -0.460 OA
BRANCH  18  19
ATOM     19  C   UNL A   1      32.679  35.656  32.036  1.00  0.00     0.338 C 
ATOM     20  O   UNL A   1      31.569  35.602  32.524  1.00  0.00    -0.246 OA
BRANCH  19  21
ATOM     21  C   UNL A   1      33.867  34.937  32.563  1.00  0.00     0.060 A 
ATOM     22  C   UNL A   1      35.124  35.556  32.491  1.00  0.00     0.016 A 
ATOM     23  C   UNL A   1      33.743  33.665  33.124  1.00  0.00     0.016 A 
ATOM     24  C   UNL A   1      36.263  34.891  32.952  1.00  0.00     0.010 A 
ATOM     25  C   UNL A   1      34.887  32.990  33.562  1.00  0.00     0.010 A 
ATOM     26  C   UNL A   1      36.159  33.586  33.449  1.00  0.00    -0.014 A 
BRANCH  26  27
ATOM     27  C   UNL A   1      37.379  32.766  33.661  1.00  0.00     0.031 A 
ATOM     28  C   UNL A   1      38.176  32.985  34.920  1.00  0.00     0.074 A 
ATOM     29  C   UNL A   1      37.781  31.842  32.769  1.00  0.00     0.049 A 
ATOM     30  N   UNL A   1      39.311  32.450  35.291  1.00  0.00    -0.248 NA
ATOM     31  C   UNL A   1      37.615  33.941  35.889  1.00  0.00     0.031 C 
ATOM     32  C   UNL A   1      37.081  31.489  31.537  1.00  0.00     0.029 A 
ATOM     33  N   UNL A   1      38.896  31.039  32.766  1.00  0.00    -0.354 N 
ATOM     34  C   UNL A   1      39.608  33.017  36.525  1.00  0.00     0.074 A 
ATOM     35  C   UNL A   1      38.548  33.954  36.828  1.00  0.00     0.031 C 
ATOM     36  C   UNL A   1      37.791  30.549  30.888  1.00  0.00     0.029 A 
ATOM     37  C   UNL A   1      39.013  30.263  31.639  1.00  0.00     0.049 A 
ATOM     38  H   UNL A   1      39.550  31.022  33.503  1.00  0.00     0.167 HD
ATOM     39  C   UNL A   1      40.666  32.780  37.337  1.00  0.00     0.031 A 
ATOM     40  C   UNL A   1      40.005  29.439  31.245  1.00  0.00     0.031 A 
ATOM     41  C   UNL A   1      41.730  31.862  37.034  1.00  0.00     0.049 A 
ATOM     42  C   UNL A   1      41.216  29.257  32.126  1.00  0.00     0.074 A 
ATOM     43  C   UNL A   1      42.838  31.545  37.802  1.00  0.00     0.029 A 
ATOM     44  N   UNL A   1      41.828  31.123  35.866  1.00  0.00    -0.354 N 
ATOM     45  N   UNL A   1      41.475  29.780  33.300  1.00  0.00    -0.248 NA
ATOM     46  C   UNL A   1      42.270  28.360  31.625  1.00  0.00     0.031 C 
ATOM     47  C   UNL A   1      43.639  30.663  37.070  1.00  0.00     0.029 A 
ATOM     48  C   UNL A   1      42.993  30.373  35.878  1.00  0.00     0.049 A 
ATOM     49  H   UNL A   1      41.168  31.130  35.136  1.00  0.00     0.167 HD
ATOM     50  C   UNL A   1      42.700  29.250  33.692  1.00  0.00     0.074 A 
ATOM     51  C   UNL A   1      43.126  28.355  32.637  1.00  0.00     0.031 C 
ATOM     52  C   UNL A   1      43.408  29.484  34.825  1.00  0.00     0.031 A 
BRANCH  39  53
ATOM     53  C   UNL A   1      40.744  33.564  38.618  1.00  0.00    -0.014 A 
ATOM     54  C   UNL A   1      41.377  34.815  38.675  1.00  0.00     0.009 A 
ATOM     55  C   UNL A   1      40.145  33.053  39.781  1.00  0.00     0.009 A 
ATOM     56  C   UNL A   1      41.438  35.523  39.878  1.00  0.00     0.001 A 
ATOM     57  C   UNL A   1      40.179  33.776  40.974  1.00  0.00     0.001 A 
ATOM     58  C   UNL A   1      40.833  35.006  41.024  1.00  0.00     0.000 A 
ENDBRANCH  39  53
BRANCH  40  59
ATOM     59  C   UNL A   1      39.919  28.737  29.936  1.00  0.00    -0.014 A 
ATOM     60  C   UNL A   1      39.446  27.417  29.858  1.00  0.00     0.009 A 
ATOM     61  C   UNL A   1      40.345  29.371  28.758  1.00  0.00     0.009 A 
ATOM     62  C   UNL A   1      39.427  26.741  28.636  1.00  0.00     0.001 A 
ATOM     63  C   UNL A   1      40.293  28.705  27.532  1.00  0.00     0.001 A 
ATOM     64  C   UNL A   1      39.846  27.387  27.473  1.00  0.00     0.000 A 
ENDBRANCH  40  59
BRANCH  52  65
ATOM     65  C   UNL A   1      44.693  28.724  35.012  1.00  0.00    -0.014 A 
ATOM     66  C   UNL A   1      45.928  29.251  34.600  1.00  0.00     0.009 A 
ATOM     67  C   UNL A   1      44.672  27.474  35.655  1.00  0.00     0.009 A 
ATOM     68  C   UNL A   1      47.106  28.525  34.794  1.00  0.00     0.001 A 
ATOM     69  C   UNL A   1      45.854  26.767  35.877  1.00  0.00     0.001 A 
ATOM     70  C   UNL A   1      47.069  27.288  35.436  1.00  0.00     0.000 A 
ENDBRANCH  52  65
ENDBRANCH  26  27
ENDBRANCH  19  21
ENDBRANCH  18  19
ENDBRANCH  17  18
ENDBRANCH  16  17
ENDBRANCH  15  16
ENDBRANCH   1  15
TORSDOF 18
ENDMDL
MODEL 3
REMARK VINA RESULT:      -8.0      3.338      4.668
REMARK SMILES CC(C)(Br)[C@H](Br)C(=O)OCCOCCOCCOC(=O)c1ccc(-c2c3nc(c(-c4ccccc4)c4ccc([nH]4)c(-c4ccccc4)c4nc(c(-c5ccccc5)c5ccc2[nH]5)C=C4)C=C3)cc1
REMARK SMILES IDX 14 1 13 2 12 3 11 4 10 5 9 6 7 7 8 8 5 9 6 10 2 11 1 12 3 13
REMARK SMILES IDX 4 14 15 15 16 16 17 17 18 18 19 19 20 20 21 21 22 22 68 23
REMARK SMILES IDX 23 24 67 25 24 26 25 27 26 28 61 29 27 30 66 31 60 32 62 33
REMARK SMILES IDX 28 34 65 35 59 36 58 37 29 39 51 40 36 41 50 42 37 43 40 44
REMARK SMILES IDX 49 45 63 46 38 47 39 48 48 50 64 51 41 52 30 53 31 54 35 55
REMARK SMILES IDX 32 56 34 57 33 58 52 59 53 60 57 61 54 62 56 63 55 64 42 65
REMARK SMILES IDX 43 66 47 67 44 68 46 69 45 70
REMARK H PARENT 62 38 40 49
REMARK Flexibility Score: inf
ROOT
ATOM      1  C   UNL A   1      32.074  29.638  26.423  1.00  0.00     0.188 C 
ENDROOT
BRANCH   1   2
ATOM      2  C   UNL A   1      31.846  29.672  24.908  1.00  0.00     0.188 C 
BRANCH   2   3
ATOM      3  O   UNL A   1      30.624  29.190  24.367  1.00  0.00    -0.376 OA
BRANCH   3   4
ATOM      4  C   UNL A   1      30.581  27.935  23.704  1.00  0.00     0.202 C 
BRANCH   4   5
ATOM      5  C   UNL A   1      30.462  26.634  24.525  1.00  0.00     0.261 C 
BRANCH   5   6
ATOM      6  O   UNL A   1      30.141  25.398  23.838  1.00  0.00    -0.462 OA
BRANCH   6   7
ATOM      7  C   UNL A   1      31.209  24.658  23.443  1.00  0.00     0.321 C 
ATOM      8  O   UNL A   1      32.059  25.080  22.660  1.00  0.00    -0.251 OA
BRANCH   7   9
ATOM      9  C   UNL A   1      31.312  23.241  23.997  1.00  0.00     0.183 C 
ATOM     10  Br  UNL A   1      32.231  21.981  22.791  1.00  0.00    -0.075 Br
BRANCH   9  11
ATOM     11  C   UNL A   1      31.835  23.063  25.433  1.00  0.00     0.043 C 
ATOM     12  C   UNL A   1      32.802  24.158  25.904  1.00  0.00     0.025 C 
ATOM     13  C   UNL A   1      32.484  21.673  25.576  1.00  0.00     0.025 C 
ATOM     14  Br  UNL A   1      30.331  23.059  26.738  1.00  0.00    -0.084 Br
ENDBRANCH   9  11
ENDBRANCH   7   9
ENDBRANCH   6   7
ENDBRANCH   5   6
ENDBRANCH   4   5
ENDBRANCH   3   4
ENDBRANCH   2   3
ENDBRANCH   1   2
BRANCH   1  15
ATOM     15  O   UNL A   1      32.404  30.875  27.005  1.00  0.00    -0.376 OA
BRANCH  15  16
ATOM     16  C   UNL A   1      31.542  31.973  26.785  1.00  0.00     0.202 C 
BRANCH  16  17
ATOM     17  C   UNL A   1      32.095  33.400  26.930  1.00  0.00     0.261 C 
BRANCH  17  18
ATOM     18  O   UNL A   1      32.449  33.831  28.257  1.00  0.00    -0.460 OA
BRANCH  18  19
ATOM     19  C   UNL A   1      33.571  34.579  28.390  1.00  0.00     0.338 C 
ATOM     20  O   UNL A   1      33.644  35.790  28.415  1.00  0.00    -0.246 OA
BRANCH  19  21
ATOM     21  C   UNL A   1      34.689  33.659  28.724  1.00  0.00     0.060 A 
ATOM     22  C   UNL A   1      34.394  32.401  29.270  1.00  0.00     0.016 A 
ATOM     23  C   UNL A   1      36.014  34.033  28.497  1.00  0.00     0.016 A 
ATOM     24  C   UNL A   1      35.427  31.527  29.620  1.00  0.00     0.010 A 
ATOM     25  C   UNL A   1      37.048  33.167  28.871  1.00  0.00     0.010 A 
ATOM     26  C   UNL A   1      36.761  31.923  29.465  1.00  0.00    -0.014 A 
BRANCH  26  27
ATOM     27  C   UNL A   1      37.852  31.139  30.100  1.00  0.00     0.031 A 
ATOM     28  C   UNL A   1      38.145  31.375  31.558  1.00  0.00     0.074 A 
ATOM     29  C   UNL A   1      38.571  30.232  29.413  1.00  0.00     0.049 A 
ATOM     30  N   UNL A   1      39.091  30.871  32.310  1.00  0.00    -0.248 NA
ATOM     31  C   UNL A   1      37.249  32.308  32.260  1.00  0.00     0.031 C 
ATOM     32  C   UNL A   1      38.363  29.865  28.015  1.00  0.00     0.029 A 
ATOM     33  N   UNL A   1      39.638  29.463  29.809  1.00  0.00    -0.354 N 
ATOM     34  C   UNL A   1      38.914  31.440  33.566  1.00  0.00     0.074 A 
ATOM     35  C   UNL A   1      37.788  32.343  33.469  1.00  0.00     0.031 C 
ATOM     36  C   UNL A   1      39.285  28.950  27.664  1.00  0.00     0.029 A 
ATOM     37  C   UNL A   1      40.169  28.697  28.801  1.00  0.00     0.049 A 
ATOM     38  H   UNL A   1      39.989  29.461  30.730  1.00  0.00     0.167 HD
ATOM     39  C   UNL A   1      39.622  31.230  34.701  1.00  0.00     0.031 A 
ATOM     40  C   UNL A   1      41.261  27.905  28.788  1.00  0.00     0.031 A 
ATOM     41  C   UNL A   1      40.753  30.346  34.799  1.00  0.00     0.049 A 
ATOM     42  C   UNL A   1      42.086  27.754  30.041  1.00  0.00     0.074 A 
ATOM     43  C   UNL A   1      41.526  30.058  35.912  1.00  0.00     0.029 A 
ATOM     44  N   UNL A   1      41.280  29.617  33.746  1.00  0.00    -0.354 N 
ATOM     45  N   UNL A   1      41.898  28.278  31.228  1.00  0.00    -0.248 NA
ATOM     46  C   UNL A   1      43.276  26.892  29.950  1.00  0.00     0.031 C 
ATOM     47  C   UNL A   1      42.560  29.204  35.515  1.00  0.00     0.029 A 
ATOM     48  C   UNL A   1      42.386  28.902  34.173  1.00  0.00     0.049 A 
ATOM     49  H   UNL A   1      40.920  29.609  32.829  1.00  0.00     0.167 HD
ATOM     50  C   UNL A   1      42.920  27.783  32.031  1.00  0.00     0.074 A 
ATOM     51  C   UNL A   1      43.718  26.907  31.200  1.00  0.00     0.031 C 
ATOM     52  C   UNL A   1      43.174  28.031  33.340  1.00  0.00     0.031 A 
BRANCH  39  53
ATOM     53  C   UNL A   1      39.219  32.009  35.922  1.00  0.00    -0.014 A 
ATOM     54  C   UNL A   1      39.828  33.231  36.249  1.00  0.00     0.009 A 
ATOM     55  C   UNL A   1      38.188  31.525  36.744  1.00  0.00     0.009 A 
ATOM     56  C   UNL A   1      39.436  33.934  37.390  1.00  0.00     0.001 A 
ATOM     57  C   UNL A   1      37.776  32.246  37.866  1.00  0.00     0.001 A 
ATOM     58  C   UNL A   1      38.407  33.445  38.193  1.00  0.00     0.000 A 
ENDBRANCH  39  53
BRANCH  40  59
ATOM     59  C   UNL A   1      41.665  27.207  27.537  1.00  0.00    -0.014 A 
ATOM     60  C   UNL A   1      41.253  25.889  27.284  1.00  0.00     0.009 A 
ATOM     61  C   UNL A   1      42.497  27.845  26.603  1.00  0.00     0.009 A 
ATOM     62  C   UNL A   1      41.687  25.218  26.138  1.00  0.00     0.001 A 
ATOM     63  C   UNL A   1      42.902  27.184  25.442  1.00  0.00     0.001 A 
ATOM     64  C   UNL A   1      42.507  25.867  25.216  1.00  0.00     0.000 A 
ENDBRANCH  40  59
BRANCH  52  65
ATOM     65  C   UNL A   1      44.332  27.309  33.974  1.00  0.00    -0.014 A 
ATOM     66  C   UNL A   1      45.613  27.880  34.032  1.00  0.00     0.009 A 
ATOM     67  C   UNL A   1      44.124  26.051  34.564  1.00  0.00     0.009 A 
ATOM     68  C   UNL A   1      46.667  27.188  34.635  1.00  0.00     0.001 A 
ATOM     69  C   UNL A   1      45.172  25.377  35.194  1.00  0.00     0.001 A 
ATOM     70  C   UNL A   1      46.445  25.942  35.219  1.00  0.00     0.000 A 
ENDBRANCH  52  65
ENDBRANCH  26  27
ENDBRANCH  19  21
ENDBRANCH  18  19
ENDBRANCH  17  18
ENDBRANCH  16  17
ENDBRANCH  15  16
ENDBRANCH   1  15
TORSDOF 18
ENDMDL
