MODEL 1
REMARK VINA RESULT:      -9.9      0.000      0.000
REMARK SMILES O=C(OCCOCCOCCOC(=O)[C@@H]1C[C@@H](O)CN1C(=O)c1ccccc1)c1ccc(-c2c3nc(c(-c4ccccc4)c4ccc([nH]4)c(-c4ccccc4)c4nc(c(-c5ccccc5)c5ccc2[nH]5)C=C4)C=C3)cc1
REMARK SMILES IDX 7 1 6 2 5 3 4 4 3 5 2 6 1 7 29 8 30 9 76 10 31 11 75 12
REMARK SMILES IDX 32 13 33 14 34 15 69 16 35 17 74 18 68 19 70 20 36 21 73 22
REMARK SMILES IDX 67 23 66 24 37 26 59 27 44 28 58 29 45 30 48 31 57 32 71 33
REMARK SMILES IDX 46 34 47 35 56 37 72 38 49 39 38 40 39 41 43 42 40 43 42 44
REMARK SMILES IDX 41 45 60 46 61 47 65 48 62 49 64 50 63 51 50 52 51 53 55 54
REMARK SMILES IDX 52 55 54 56 53 57 8 58 9 59 10 60 11 61 12 62 13 63 14 64
REMARK SMILES IDX 15 65 16 66 20 67 17 68 19 69 21 70 22 71 23 72 24 73 28 74
REMARK SMILES IDX 25 75 27 76 26 77 18 78
REMARK H PARENT 70 25 48 36 18 79
REMARK Flexibility Score: inf
ROOT
ATOM      1  C   UNL A   1      35.199  33.841  28.767  1.00  0.00     0.188 C 
ENDROOT
BRANCH   1   2
ATOM      2  O   UNL A   1      34.163  34.571  28.099  1.00  0.00    -0.376 OA
BRANCH   2   3
ATOM      3  C   UNL A   1      33.084  34.937  28.970  1.00  0.00     0.202 C 
BRANCH   3   4
ATOM      4  C   UNL A   1      33.080  36.411  29.421  1.00  0.00     0.261 C 
BRANCH   4   5
ATOM      5  O   UNL A   1      32.764  36.593  30.812  1.00  0.00    -0.460 OA
BRANCH   5   6
ATOM      6  C   UNL A   1      32.757  35.674  31.811  1.00  0.00     0.338 C 
ATOM      7  O   UNL A   1      31.698  35.464  32.401  1.00  0.00    -0.246 OA
BRANCH   6   8
ATOM      8  C   UNL A   1      33.964  34.904  32.253  1.00  0.00     0.060 A 
ATOM      9  C   UNL A   1      35.289  35.284  32.032  1.00  0.00     0.016 A 
ATOM     10  C   UNL A   1      33.750  33.741  33.010  1.00  0.00     0.016 A 
ATOM     11  C   UNL A   1      36.368  34.524  32.466  1.00  0.00     0.010 A 
ATOM     12  C   UNL A   1      34.831  33.000  33.506  1.00  0.00     0.010 A 
ATOM     13  C   UNL A   1      36.154  33.381  33.218  1.00  0.00    -0.014 A 
BRANCH  13  14
ATOM     14  C   UNL A   1      37.294  32.528  33.610  1.00  0.00     0.031 A 
ATOM     15  C   UNL A   1      38.131  32.963  34.764  1.00  0.00     0.074 A 
ATOM     16  C   UNL A   1      37.566  31.357  32.999  1.00  0.00     0.049 A 
ATOM     17  N   UNL A   1      39.265  32.476  35.175  1.00  0.00    -0.248 NA
ATOM     18  C   UNL A   1      37.574  34.029  35.618  1.00  0.00     0.031 C 
ATOM     19  C   UNL A   1      36.686  30.632  32.092  1.00  0.00     0.029 A 
ATOM     20  N   UNL A   1      38.722  30.619  32.971  1.00  0.00    -0.354 N 
ATOM     21  C   UNL A   1      39.529  33.126  36.368  1.00  0.00     0.074 A 
ATOM     22  C   UNL A   1      38.485  34.103  36.576  1.00  0.00     0.031 C 
ATOM     23  C   UNL A   1      37.396  29.718  31.411  1.00  0.00     0.029 A 
ATOM     24  C   UNL A   1      38.764  29.769  31.884  1.00  0.00     0.049 A 
ATOM     25  H   UNL A   1      39.437  30.687  33.645  1.00  0.00     0.167 HD
ATOM     26  C   UNL A   1      40.536  32.875  37.231  1.00  0.00     0.031 A 
ATOM     27  C   UNL A   1      39.814  29.159  31.305  1.00  0.00     0.031 A 
ATOM     28  C   UNL A   1      41.565  31.909  36.974  1.00  0.00     0.049 A 
ATOM     29  C   UNL A   1      41.097  29.163  32.073  1.00  0.00     0.074 A 
ATOM     30  C   UNL A   1      42.637  31.553  37.769  1.00  0.00     0.029 A 
ATOM     31  N   UNL A   1      41.659  31.161  35.807  1.00  0.00    -0.354 N 
ATOM     32  N   UNL A   1      41.349  29.751  33.218  1.00  0.00    -0.248 NA
ATOM     33  C   UNL A   1      42.197  28.351  31.547  1.00  0.00     0.031 C 
ATOM     34  C   UNL A   1      43.424  30.651  37.046  1.00  0.00     0.029 A 
ATOM     35  C   UNL A   1      42.812  30.400  35.827  1.00  0.00     0.049 A 
ATOM     36  H   UNL A   1      41.002  31.171  35.075  1.00  0.00     0.167 HD
ATOM     37  C   UNL A   1      42.597  29.299  33.603  1.00  0.00     0.074 A 
ATOM     38  C   UNL A   1      43.068  28.423  32.545  1.00  0.00     0.031 C 
ATOM     39  C   UNL A   1      43.264  29.548  34.755  1.00  0.00     0.031 A 
BRANCH  26  40
ATOM     40  C   UNL A   1      40.572  33.690  38.486  1.00  0.00    -0.014 A 
ATOM     41  C   UNL A   1      41.267  34.909  38.545  1.00  0.00     0.009 A 
ATOM     42  C   UNL A   1      39.916  33.220  39.630  1.00  0.00     0.009 A 
ATOM     43  C   UNL A   1      41.324  35.630  39.740  1.00  0.00     0.001 A 
ATOM     44  C   UNL A   1      39.956  33.952  40.817  1.00  0.00     0.001 A 
ATOM     45  C   UNL A   1      40.665  35.152  40.873  1.00  0.00     0.000 A 
ENDBRANCH  26  40
BRANCH  27  46
ATOM     46  C   UNL A   1      39.704  28.527  29.965  1.00  0.00    -0.014 A 
ATOM     47  C   UNL A   1      39.428  27.161  29.816  1.00  0.00     0.009 A 
ATOM     48  C   UNL A   1      39.935  29.296  28.809  1.00  0.00     0.009 A 
ATOM     49  C   UNL A   1      39.436  26.568  28.549  1.00  0.00     0.001 A 
ATOM     50  C   UNL A   1      39.929  28.704  27.543  1.00  0.00     0.001 A 
ATOM     51  C   UNL A   1      39.693  27.337  27.414  1.00  0.00     0.000 A 
ENDBRANCH  27  46
BRANCH  39  52
ATOM     52  C   UNL A   1      44.561  28.830  34.944  1.00  0.00    -0.014 A 
ATOM     53  C   UNL A   1      44.607  27.563  35.542  1.00  0.00     0.009 A 
ATOM     54  C   UNL A   1      45.746  29.414  34.472  1.00  0.00     0.009 A 
ATOM     55  C   UNL A   1      45.825  26.901  35.683  1.00  0.00     0.001 A 
ATOM     56  C   UNL A   1      46.957  28.733  34.582  1.00  0.00     0.001 A 
ATOM     57  C   UNL A   1      46.995  27.481  35.193  1.00  0.00     0.000 A 
ENDBRANCH  39  52
ENDBRANCH  13  14
ENDBRANCH   6   8
ENDBRANCH   5   6
ENDBRANCH   4   5
ENDBRANCH   3   4
ENDBRANCH   2   3
ENDBRANCH   1   2
BRANCH   1  58
ATOM     58  C   UNL A   1      34.968  32.329  28.823  1.00  0.00     0.188 C 
BRANCH  58  59
ATOM     59  O   UNL A   1      34.831  31.651  27.578  1.00  0.00    -0.376 OA
BRANCH  59  60
ATOM     60  C   UNL A   1      33.648  30.889  27.380  1.00  0.00     0.202 C 
BRANCH  60  61
ATOM     61  C   UNL A   1      33.741  29.357  27.479  1.00  0.00     0.261 C 
BRANCH  61  62
ATOM     62  O   UNL A   1      33.055  28.624  26.441  1.00  0.00    -0.462 OA
BRANCH  62  63
ATOM     63  C   UNL A   1      31.853  28.087  26.805  1.00  0.00     0.329 C 
ATOM     64  O   UNL A   1      31.440  28.053  27.962  1.00  0.00    -0.250 OA
BRANCH  63  65
ATOM     65  C   UNL A   1      31.156  27.293  25.684  1.00  0.00     0.198 C 
ATOM     66  C   UNL A   1      31.270  25.801  26.033  1.00  0.00     0.071 C 
ATOM     67  N   UNL A   1      31.548  27.328  24.262  1.00  0.00    -0.322 N 
ATOM     68  C   UNL A   1      30.955  25.109  24.714  1.00  0.00     0.136 C 
ATOM     69  C   UNL A   1      31.698  25.981  23.719  1.00  0.00     0.152 C 
BRANCH  67  70
ATOM     70  C   UNL A   1      31.389  28.474  23.504  1.00  0.00     0.254 C 
ATOM     71  O   UNL A   1      32.319  29.017  22.915  1.00  0.00    -0.269 OA
BRANCH  70  72
ATOM     72  C   UNL A   1      30.035  29.068  23.416  1.00  0.00     0.040 A 
ATOM     73  C   UNL A   1      29.856  30.418  23.711  1.00  0.00     0.014 A 
ATOM     74  C   UNL A   1      28.945  28.279  23.021  1.00  0.00     0.014 A 
ATOM     75  C   UNL A   1      28.590  30.992  23.571  1.00  0.00     0.001 A 
ATOM     76  C   UNL A   1      27.686  28.861  22.865  1.00  0.00     0.001 A 
ATOM     77  C   UNL A   1      27.511  30.217  23.139  1.00  0.00     0.000 A 
ENDBRANCH  70  72
ENDBRANCH  67  70
BRANCH  68  78
ATOM     78  O   UNL A   1      29.547  25.097  24.482  1.00  0.00    -0.391 OA
ATOM     79  H   UNL A   1      29.354  24.566  23.693  1.00  0.00     0.211 HD
ENDBRANCH  68  78
ENDBRANCH  63  65
ENDBRANCH  62  63
ENDBRANCH  61  62
ENDBRANCH  60  61
ENDBRANCH  59  60
ENDBRANCH  58  59
ENDBRANCH   1  58
TORSDOF 20
ENDMDL
MODEL 2
REMARK VINA RESULT:      -9.7      7.306     12.485
REMARK SMILES O=C(OCCOCCOCCOC(=O)[C@@H]1C[C@@H](O)CN1C(=O)c1ccccc1)c1ccc(-c2c3nc(c(-c4ccccc4)c4ccc([nH]4)c(-c4ccccc4)c4nc(c(-c5ccccc5)c5ccc2[nH]5)C=C4)C=C3)cc1
REMARK SMILES IDX 7 1 6 2 5 3 4 4 3 5 2 6 1 7 29 8 30 9 76 10 31 11 75 12
REMARK SMILES IDX 32 13 33 14 34 15 69 16 35 17 74 18 68 19 70 20 36 21 73 22
REMARK SMILES IDX 67 23 66 24 37 26 59 27 44 28 58 29 45 30 48 31 57 32 71 33
REMARK SMILES IDX 46 34 47 35 56 37 72 38 49 39 38 40 39 41 43 42 40 43 42 44
REMARK SMILES IDX 41 45 60 46 61 47 65 48 62 49 64 50 63 51 50 52 51 53 55 54
REMARK SMILES IDX 52 55 54 56 53 57 8 58 9 59 10 60 11 61 12 62 13 63 14 64
REMARK SMILES IDX 15 65 16 66 20 67 17 68 19 69 21 70 22 71 23 72 24 73 28 74
REMARK SMILES IDX 25 75 27 76 26 77 18 78
REMARK H PARENT 70 25 48 36 18 79
REMARK Flexibility Score: inf
ROOT
ATOM      1  C   UNL A   1      41.652  21.005  27.425  1.00  0.00     0.188 C 
ENDROOT
BRANCH   1   2
ATOM      2  O   UNL A   1      41.790  19.911  26.511  1.00  0.00    -0.376 OA
BRANCH   2   3
ATOM      3  C   UNL A   1      42.524  18.808  27.061  1.00  0.00     0.202 C 
BRANCH   3   4
ATOM      4  C   UNL A   1      43.332  17.986  26.039  1.00  0.00     0.261 C 
BRANCH   4   5
ATOM      5  O   UNL A   1      43.654  18.707  24.838  1.00  0.00    -0.460 OA
BRANCH   5   6
ATOM      6  C   UNL A   1      44.742  19.472  24.569  1.00  0.00     0.338 C 
ATOM      7  O   UNL A   1      45.742  18.922  24.109  1.00  0.00    -0.246 OA
BRANCH   6   8
ATOM      8  C   UNL A   1      44.811  20.950  24.809  1.00  0.00     0.060 A 
ATOM      9  C   UNL A   1      44.649  21.933  23.833  1.00  0.00     0.016 A 
ATOM     10  C   UNL A   1      44.985  21.384  26.134  1.00  0.00     0.016 A 
ATOM     11  C   UNL A   1      44.727  23.291  24.119  1.00  0.00     0.010 A 
ATOM     12  C   UNL A   1      45.002  22.751  26.443  1.00  0.00     0.010 A 
ATOM     13  C   UNL A   1      44.891  23.717  25.426  1.00  0.00    -0.014 A 
BRANCH  13  14
ATOM     14  C   UNL A   1      45.056  25.155  25.722  1.00  0.00     0.031 A 
ATOM     15  C   UNL A   1      46.443  25.691  25.840  1.00  0.00     0.074 A 
ATOM     16  C   UNL A   1      44.009  25.996  25.833  1.00  0.00     0.049 A 
ATOM     17  N   UNL A   1      46.828  26.861  26.257  1.00  0.00    -0.248 NA
ATOM     18  C   UNL A   1      47.529  24.827  25.343  1.00  0.00     0.031 C 
ATOM     19  C   UNL A   1      42.635  25.721  25.434  1.00  0.00     0.029 A 
ATOM     20  N   UNL A   1      43.923  27.233  26.423  1.00  0.00    -0.354 N 
ATOM     21  C   UNL A   1      48.190  26.904  26.014  1.00  0.00     0.074 A 
ATOM     22  C   UNL A   1      48.582  25.614  25.493  1.00  0.00     0.031 C 
ATOM     23  C   UNL A   1      41.813  26.619  26.003  1.00  0.00     0.029 A 
ATOM     24  C   UNL A   1      42.623  27.555  26.756  1.00  0.00     0.049 A 
ATOM     25  H   UNL A   1      44.696  27.820  26.588  1.00  0.00     0.167 HD
ATOM     26  C   UNL A   1      49.016  27.960  26.167  1.00  0.00     0.031 A 
ATOM     27  C   UNL A   1      42.156  28.465  27.628  1.00  0.00     0.031 A 
ATOM     28  C   UNL A   1      48.587  29.217  26.709  1.00  0.00     0.049 A 
ATOM     29  C   UNL A   1      43.138  29.473  28.133  1.00  0.00     0.074 A 
ATOM     30  C   UNL A   1      49.322  30.369  26.911  1.00  0.00     0.029 A 
ATOM     31  N   UNL A   1      47.299  29.472  27.164  1.00  0.00    -0.354 N 
ATOM     32  N   UNL A   1      44.425  29.540  27.886  1.00  0.00    -0.248 NA
ATOM     33  C   UNL A   1      42.613  30.579  28.937  1.00  0.00     0.031 C 
ATOM     34  C   UNL A   1      48.498  31.292  27.564  1.00  0.00     0.029 A 
ATOM     35  C   UNL A   1      47.236  30.737  27.715  1.00  0.00     0.049 A 
ATOM     36  H   UNL A   1      46.544  28.844  27.102  1.00  0.00     0.167 HD
ATOM     37  C   UNL A   1      44.846  30.745  28.413  1.00  0.00     0.074 A 
ATOM     38  C   UNL A   1      43.684  31.356  29.035  1.00  0.00     0.031 C 
ATOM     39  C   UNL A   1      46.071  31.315  28.340  1.00  0.00     0.031 A 
BRANCH  26  40
ATOM     40  C   UNL A   1      50.449  27.761  25.783  1.00  0.00    -0.014 A 
ATOM     41  C   UNL A   1      51.402  27.326  26.718  1.00  0.00     0.009 A 
ATOM     42  C   UNL A   1      50.852  28.032  24.470  1.00  0.00     0.009 A 
ATOM     43  C   UNL A   1      52.742  27.191  26.346  1.00  0.00     0.001 A 
ATOM     44  C   UNL A   1      52.187  27.876  24.096  1.00  0.00     0.001 A 
ATOM     45  C   UNL A   1      53.131  27.463  25.035  1.00  0.00     0.000 A 
ENDBRANCH  26  40
BRANCH  27  46
ATOM     46  C   UNL A   1      40.739  28.459  28.075  1.00  0.00    -0.014 A 
ATOM     47  C   UNL A   1      39.765  29.243  27.442  1.00  0.00     0.009 A 
ATOM     48  C   UNL A   1      40.364  27.694  29.195  1.00  0.00     0.009 A 
ATOM     49  C   UNL A   1      38.462  29.302  27.948  1.00  0.00     0.001 A 
ATOM     50  C   UNL A   1      39.058  27.745  29.691  1.00  0.00     0.001 A 
ATOM     51  C   UNL A   1      38.110  28.559  29.075  1.00  0.00     0.000 A 
ENDBRANCH  27  46
BRANCH  39  52
ATOM     52  C   UNL A   1      46.206  32.687  28.916  1.00  0.00    -0.014 A 
ATOM     53  C   UNL A   1      46.387  32.879  30.293  1.00  0.00     0.009 A 
ATOM     54  C   UNL A   1      46.197  33.798  28.059  1.00  0.00     0.009 A 
ATOM     55  C   UNL A   1      46.538  34.167  30.804  1.00  0.00     0.001 A 
ATOM     56  C   UNL A   1      46.384  35.081  28.570  1.00  0.00     0.001 A 
ATOM     57  C   UNL A   1      46.547  35.264  29.942  1.00  0.00     0.000 A 
ENDBRANCH  39  52
ENDBRANCH  13  14
ENDBRANCH   6   8
ENDBRANCH   5   6
ENDBRANCH   4   5
ENDBRANCH   3   4
ENDBRANCH   2   3
ENDBRANCH   1   2
BRANCH   1  58
ATOM     58  C   UNL A   1      40.397  21.854  27.206  1.00  0.00     0.188 C 
BRANCH  58  59
ATOM     59  O   UNL A   1      39.458  21.380  26.246  1.00  0.00    -0.376 OA
BRANCH  59  60
ATOM     60  C   UNL A   1      38.511  22.316  25.747  1.00  0.00     0.202 C 
BRANCH  60  61
ATOM     61  C   UNL A   1      37.472  21.827  24.724  1.00  0.00     0.261 C 
BRANCH  61  62
ATOM     62  O   UNL A   1      36.416  22.763  24.416  1.00  0.00    -0.462 OA
BRANCH  62  63
ATOM     63  C   UNL A   1      35.191  22.449  24.934  1.00  0.00     0.329 C 
ATOM     64  O   UNL A   1      35.010  22.091  26.095  1.00  0.00    -0.250 OA
BRANCH  63  65
ATOM     65  C   UNL A   1      34.076  22.332  23.879  1.00  0.00     0.198 C 
ATOM     66  C   UNL A   1      34.107  23.610  23.026  1.00  0.00     0.071 C 
ATOM     67  N   UNL A   1      32.640  22.181  24.187  1.00  0.00    -0.322 N 
ATOM     68  C   UNL A   1      32.755  23.598  22.328  1.00  0.00     0.136 C 
ATOM     69  C   UNL A   1      31.832  23.143  23.444  1.00  0.00     0.152 C 
BRANCH  67  70
ATOM     70  C   UNL A   1      32.155  21.031  24.782  1.00  0.00     0.254 C 
ATOM     71  O   UNL A   1      31.387  21.048  25.739  1.00  0.00    -0.269 OA
BRANCH  70  72
ATOM     72  C   UNL A   1      32.595  19.725  24.236  1.00  0.00     0.040 A 
ATOM     73  C   UNL A   1      32.086  19.284  23.015  1.00  0.00     0.014 A 
ATOM     74  C   UNL A   1      33.530  18.949  24.936  1.00  0.00     0.014 A 
ATOM     75  C   UNL A   1      32.545  18.081  22.473  1.00  0.00     0.001 A 
ATOM     76  C   UNL A   1      33.998  17.757  24.380  1.00  0.00     0.001 A 
ATOM     77  C   UNL A   1      33.506  17.326  23.149  1.00  0.00     0.000 A 
ENDBRANCH  70  72
ENDBRANCH  67  70
BRANCH  68  78
ATOM     78  O   UNL A   1      32.769  22.689  21.229  1.00  0.00    -0.391 OA
ATOM     79  H   UNL A   1      31.937  22.190  21.211  1.00  0.00     0.211 HD
ENDBRANCH  68  78
ENDBRANCH  63  65
ENDBRANCH  62  63
ENDBRANCH  61  62
ENDBRANCH  60  61
ENDBRANCH  59  60
ENDBRANCH  58  59
ENDBRANCH   1  58
TORSDOF 20
ENDMDL
MODEL 3
REMARK VINA RESULT:      -9.7      5.691     10.261
REMARK SMILES O=C(OCCOCCOCCOC(=O)[C@@H]1C[C@@H](O)CN1C(=O)c1ccccc1)c1ccc(-c2c3nc(c(-c4ccccc4)c4ccc([nH]4)c(-c4ccccc4)c4nc(c(-c5ccccc5)c5ccc2[nH]5)C=C4)C=C3)cc1
REMARK SMILES IDX 7 1 6 2 5 3 4 4 3 5 2 6 1 7 29 8 30 9 76 10 31 11 75 12
REMARK SMILES IDX 32 13 33 14 34 15 69 16 35 17 74 18 68 19 70 20 36 21 73 22
REMARK SMILES IDX 67 23 66 24 37 26 59 27 44 28 58 29 45 30 48 31 57 32 71 33
REMARK SMILES IDX 46 34 47 35 56 37 72 38 49 39 38 40 39 41 43 42 40 43 42 44
REMARK SMILES IDX 41 45 60 46 61 47 65 48 62 49 64 50 63 51 50 52 51 53 55 54
REMARK SMILES IDX 52 55 54 56 53 57 8 58 9 59 10 60 11 61 12 62 13 63 14 64
REMARK SMILES IDX 15 65 16 66 20 67 17 68 19 69 21 70 22 71 23 72 24 73 28 74
REMARK SMILES IDX 25 75 27 76 26 77 18 78
REMARK H PARENT 70 25 48 36 18 79
REMARK Flexibility Score: inf
ROOT
ATOM      1  C   UNL A   1      36.669  21.996  25.572  1.00  0.00     0.188 C 
ENDROOT
BRANCH   1   2
ATOM      2  O   UNL A   1      37.481  21.026  24.898  1.00  0.00    -0.376 OA
BRANCH   2   3
ATOM      3  C   UNL A   1      38.764  20.846  25.512  1.00  0.00     0.202 C 
BRANCH   3   4
ATOM      4  C   UNL A   1      39.188  19.379  25.720  1.00  0.00     0.261 C 
BRANCH   4   5
ATOM      5  O   UNL A   1      40.570  19.124  25.416  1.00  0.00    -0.460 OA
BRANCH   5   6
ATOM      6  C   UNL A   1      41.673  19.426  26.146  1.00  0.00     0.338 C 
ATOM      7  O   UNL A   1      42.402  18.504  26.509  1.00  0.00    -0.246 OA
BRANCH   6   8
ATOM      8  C   UNL A   1      42.057  20.817  26.554  1.00  0.00     0.060 A 
ATOM      9  C   UNL A   1      42.421  21.841  25.680  1.00  0.00     0.016 A 
ATOM     10  C   UNL A   1      41.981  21.137  27.919  1.00  0.00     0.016 A 
ATOM     11  C   UNL A   1      42.770  23.112  26.120  1.00  0.00     0.010 A 
ATOM     12  C   UNL A   1      42.270  22.433  28.368  1.00  0.00     0.010 A 
ATOM     13  C   UNL A   1      42.687  23.427  27.466  1.00  0.00    -0.014 A 
BRANCH  13  14
ATOM     14  C   UNL A   1      43.136  24.750  27.946  1.00  0.00     0.031 A 
ATOM     15  C   UNL A   1      42.100  25.796  28.186  1.00  0.00     0.074 A 
ATOM     16  C   UNL A   1      44.427  25.021  28.222  1.00  0.00     0.049 A 
ATOM     17  N   UNL A   1      42.268  27.061  28.438  1.00  0.00    -0.248 NA
ATOM     18  C   UNL A   1      40.699  25.339  28.233  1.00  0.00     0.031 C 
ATOM     19  C   UNL A   1      45.504  24.047  28.356  1.00  0.00     0.029 A 
ATOM     20  N   UNL A   1      45.077  26.224  28.335  1.00  0.00    -0.354 N 
ATOM     21  C   UNL A   1      41.005  27.542  28.739  1.00  0.00     0.074 A 
ATOM     22  C   UNL A   1      40.068  26.457  28.556  1.00  0.00     0.031 C 
ATOM     23  C   UNL A   1      46.689  24.674  28.278  1.00  0.00     0.029 A 
ATOM     24  C   UNL A   1      46.438  26.094  28.144  1.00  0.00     0.049 A 
ATOM     25  H   UNL A   1      44.626  27.078  28.529  1.00  0.00     0.167 HD
ATOM     26  C   UNL A   1      40.683  28.775  29.183  1.00  0.00     0.031 A 
ATOM     27  C   UNL A   1      47.357  27.023  27.829  1.00  0.00     0.031 A 
ATOM     28  C   UNL A   1      41.644  29.830  29.330  1.00  0.00     0.049 A 
ATOM     29  C   UNL A   1      46.935  28.452  27.954  1.00  0.00     0.074 A 
ATOM     30  C   UNL A   1      41.451  31.122  29.776  1.00  0.00     0.029 A 
ATOM     31  N   UNL A   1      42.989  29.711  29.001  1.00  0.00    -0.354 N 
ATOM     32  N   UNL A   1      45.750  28.918  28.266  1.00  0.00    -0.248 NA
ATOM     33  C   UNL A   1      47.971  29.475  27.793  1.00  0.00     0.031 C 
ATOM     34  C   UNL A   1      42.662  31.808  29.638  1.00  0.00     0.029 A 
ATOM     35  C   UNL A   1      43.623  30.928  29.162  1.00  0.00     0.049 A 
ATOM     36  H   UNL A   1      43.426  28.883  28.698  1.00  0.00     0.167 HD
ATOM     37  C   UNL A   1      45.917  30.278  28.443  1.00  0.00     0.074 A 
ATOM     38  C   UNL A   1      47.311  30.567  28.157  1.00  0.00     0.031 C 
ATOM     39  C   UNL A   1      45.007  31.192  28.857  1.00  0.00     0.031 A 
BRANCH  26  40
ATOM     40  C   UNL A   1      39.241  29.031  29.487  1.00  0.00    -0.014 A 
ATOM     41  C   UNL A   1      38.363  29.520  28.505  1.00  0.00     0.009 A 
ATOM     42  C   UNL A   1      38.758  28.796  30.780  1.00  0.00     0.009 A 
ATOM     43  C   UNL A   1      37.031  29.794  28.825  1.00  0.00     0.001 A 
ATOM     44  C   UNL A   1      37.422  29.049  31.091  1.00  0.00     0.001 A 
ATOM     45  C   UNL A   1      36.562  29.554  30.116  1.00  0.00     0.000 A 
ENDBRANCH  26  40
BRANCH  27  46
ATOM     46  C   UNL A   1      48.719  26.645  27.369  1.00  0.00    -0.014 A 
ATOM     47  C   UNL A   1      49.013  26.462  26.012  1.00  0.00     0.009 A 
ATOM     48  C   UNL A   1      49.734  26.408  28.315  1.00  0.00     0.009 A 
ATOM     49  C   UNL A   1      50.272  26.002  25.613  1.00  0.00     0.001 A 
ATOM     50  C   UNL A   1      50.996  25.961  27.913  1.00  0.00     0.001 A 
ATOM     51  C   UNL A   1      51.261  25.746  26.562  1.00  0.00     0.000 A 
ENDBRANCH  27  46
BRANCH  39  52
ATOM     52  C   UNL A   1      45.507  32.586  29.061  1.00  0.00    -0.014 A 
ATOM     53  C   UNL A   1      45.427  33.540  28.037  1.00  0.00     0.009 A 
ATOM     54  C   UNL A   1      46.020  32.957  30.312  1.00  0.00     0.009 A 
ATOM     55  C   UNL A   1      45.874  34.841  28.259  1.00  0.00     0.001 A 
ATOM     56  C   UNL A   1      46.432  34.268  30.542  1.00  0.00     0.001 A 
ATOM     57  C   UNL A   1      46.365  35.206  29.513  1.00  0.00     0.000 A 
ENDBRANCH  39  52
ENDBRANCH  13  14
ENDBRANCH   6   8
ENDBRANCH   5   6
ENDBRANCH   4   5
ENDBRANCH   3   4
ENDBRANCH   2   3
ENDBRANCH   1   2
BRANCH   1  58
ATOM     58  C   UNL A   1      35.162  21.758  25.436  1.00  0.00     0.188 C 
BRANCH  58  59
ATOM     59  O   UNL A   1      34.311  22.879  25.649  1.00  0.00    -0.376 OA
BRANCH  59  60
ATOM     60  C   UNL A   1      33.334  22.767  26.675  1.00  0.00     0.202 C 
BRANCH  60  61
ATOM     61  C   UNL A   1      31.990  23.492  26.486  1.00  0.00     0.261 C 
BRANCH  61  62
ATOM     62  O   UNL A   1      31.680  23.884  25.132  1.00  0.00    -0.462 OA
BRANCH  62  63
ATOM     63  C   UNL A   1      30.938  25.024  25.012  1.00  0.00     0.329 C 
ATOM     64  O   UNL A   1      30.029  25.334  25.780  1.00  0.00    -0.250 OA
BRANCH  63  65
ATOM     65  C   UNL A   1      31.155  25.776  23.686  1.00  0.00     0.198 C 
ATOM     66  C   UNL A   1      31.922  24.839  22.740  1.00  0.00     0.071 C 
ATOM     67  N   UNL A   1      31.891  27.049  23.552  1.00  0.00    -0.322 N 
ATOM     68  C   UNL A   1      32.448  25.780  21.666  1.00  0.00     0.136 C 
ATOM     69  C   UNL A   1      32.888  26.977  22.488  1.00  0.00     0.152 C 
BRANCH  67  70
ATOM     70  C   UNL A   1      31.399  28.219  24.099  1.00  0.00     0.254 C 
ATOM     71  O   UNL A   1      30.418  28.805  23.650  1.00  0.00    -0.269 OA
BRANCH  70  72
ATOM     72  C   UNL A   1      32.101  28.788  25.274  1.00  0.00     0.040 A 
ATOM     73  C   UNL A   1      33.045  28.016  25.950  1.00  0.00     0.014 A 
ATOM     74  C   UNL A   1      31.829  30.099  25.690  1.00  0.00     0.014 A 
ATOM     75  C   UNL A   1      33.749  28.571  27.021  1.00  0.00     0.001 A 
ATOM     76  C   UNL A   1      32.548  30.655  26.749  1.00  0.00     0.001 A 
ATOM     77  C   UNL A   1      33.508  29.890  27.412  1.00  0.00     0.000 A 
ENDBRANCH  70  72
ENDBRANCH  67  70
BRANCH  68  78
ATOM     78  O   UNL A   1      31.414  26.107  20.739  1.00  0.00    -0.391 OA
ATOM     79  H   UNL A   1      30.723  25.427  20.771  1.00  0.00     0.211 HD
ENDBRANCH  68  78
ENDBRANCH  63  65
ENDBRANCH  62  63
ENDBRANCH  61  62
ENDBRANCH  60  61
ENDBRANCH  59  60
ENDBRANCH  58  59
ENDBRANCH   1  58
TORSDOF 20
ENDMDL
