MODEL 1
REMARK VINA RESULT:     -10.1      0.000      0.000
REMARK SMILES CC(C)[C@H](CCc1ccc2c(c1)CCO2)C(=O)OCCOCCOCCOC(=O)c1ccc(-c2c3nc(c(-c4ccccc4)c4ccc([nH]4)c(-c4ccccc4)c4nc(c(-c5ccccc5)c5ccc2[nH]5)C=C4)C=C3)cc1
REMARK SMILES IDX 22 1 21 2 20 3 19 4 18 5 16 6 17 7 4 8 2 9 1 10 3 11 5 12
REMARK SMILES IDX 6 13 7 14 8 15 12 16 9 17 11 18 10 19 13 20 15 21 14 22
REMARK SMILES IDX 23 23 24 24 25 25 26 26 27 27 28 28 29 29 30 30 31 31 77 32
REMARK SMILES IDX 32 33 76 34 33 35 34 36 35 37 70 38 36 39 75 40 69 41 71 42
REMARK SMILES IDX 37 43 74 44 68 45 67 46 38 48 60 49 45 50 59 51 46 52 49 53
REMARK SMILES IDX 58 54 72 55 47 56 48 57 57 59 73 60 50 61 39 62 40 63 44 64
REMARK SMILES IDX 41 65 43 66 42 67 61 68 62 69 66 70 63 71 65 72 64 73 51 74
REMARK SMILES IDX 52 75 56 76 53 77 55 78 54 79
REMARK H PARENT 71 47 49 58
REMARK Flexibility Score: inf
ROOT
ATOM      1  C   UNL A   1      39.921  21.539  26.074  1.00  0.00     0.188 C 
ENDROOT
BRANCH   1   2
ATOM      2  O   UNL A   1      38.532  21.433  25.790  1.00  0.00    -0.376 OA
BRANCH   2   3
ATOM      3  C   UNL A   1      37.724  22.599  25.715  1.00  0.00     0.202 C 
BRANCH   3   4
ATOM      4  C   UNL A   1      36.203  22.464  25.528  1.00  0.00     0.261 C 
BRANCH   4   5
ATOM      5  O   UNL A   1      35.523  23.546  24.853  1.00  0.00    -0.463 OA
BRANCH   5   6
ATOM      6  C   UNL A   1      35.304  23.369  23.527  1.00  0.00     0.309 C 
ATOM      7  O   UNL A   1      36.159  22.949  22.751  1.00  0.00    -0.252 OA
BRANCH   6   8
ATOM      8  C   UNL A   1      33.900  23.732  23.024  1.00  0.00     0.102 C 
BRANCH   8   9
ATOM      9  C   UNL A   1      33.652  25.272  22.978  1.00  0.00    -0.003 C 
ATOM     10  C   UNL A   1      32.902  25.785  21.744  1.00  0.00     0.008 C 
ATOM     11  C   UNL A   1      32.912  25.723  24.243  1.00  0.00     0.008 C 
ENDBRANCH   8   9
BRANCH   8  12
ATOM     12  C   UNL A   1      32.629  22.932  23.444  1.00  0.00     0.020 C 
BRANCH  12  13
ATOM     13  C   UNL A   1      32.670  21.978  24.650  1.00  0.00     0.036 C 
BRANCH  13  14
ATOM     14  C   UNL A   1      32.532  20.544  24.213  1.00  0.00    -0.047 A 
ATOM     15  C   UNL A   1      32.154  20.255  22.886  1.00  0.00     0.007 A 
ATOM     16  C   UNL A   1      32.963  19.515  25.068  1.00  0.00     0.011 A 
ATOM     17  C   UNL A   1      32.321  18.971  22.365  1.00  0.00     0.047 A 
ATOM     18  C   UNL A   1      33.137  18.258  24.529  1.00  0.00    -0.002 A 
ATOM     19  C   UNL A   1      32.850  18.007  23.195  1.00  0.00     0.122 A 
ATOM     20  C   UNL A   1      33.633  17.013  25.157  1.00  0.00     0.081 C 
ATOM     21  O   UNL A   1      33.183  16.736  22.799  1.00  0.00    -0.493 OA
ATOM     22  C   UNL A   1      34.028  16.272  23.880  1.00  0.00     0.234 C 
ENDBRANCH  13  14
ENDBRANCH  12  13
ENDBRANCH   8  12
ENDBRANCH   6   8
ENDBRANCH   5   6
ENDBRANCH   4   5
ENDBRANCH   3   4
ENDBRANCH   2   3
ENDBRANCH   1   2
BRANCH   1  23
ATOM     23  C   UNL A   1      40.690  20.300  26.551  1.00  0.00     0.188 C 
BRANCH  23  24
ATOM     24  O   UNL A   1      41.534  19.718  25.590  1.00  0.00    -0.376 OA
BRANCH  24  25
ATOM     25  C   UNL A   1      42.931  19.732  25.797  1.00  0.00     0.202 C 
BRANCH  25  26
ATOM     26  C   UNL A   1      43.775  20.948  25.379  1.00  0.00     0.261 C 
BRANCH  26  27
ATOM     27  O   UNL A   1      43.594  22.165  26.120  1.00  0.00    -0.460 OA
BRANCH  27  28
ATOM     28  C   UNL A   1      43.645  23.333  25.442  1.00  0.00     0.338 C 
ATOM     29  O   UNL A   1      43.914  23.488  24.262  1.00  0.00    -0.246 OA
BRANCH  28  30
ATOM     30  C   UNL A   1      43.084  24.377  26.331  1.00  0.00     0.060 A 
ATOM     31  C   UNL A   1      43.629  25.670  26.300  1.00  0.00     0.016 A 
ATOM     32  C   UNL A   1      41.996  24.093  27.156  1.00  0.00     0.016 A 
ATOM     33  C   UNL A   1      43.097  26.677  27.111  1.00  0.00     0.010 A 
ATOM     34  C   UNL A   1      41.481  25.093  27.985  1.00  0.00     0.010 A 
ATOM     35  C   UNL A   1      42.044  26.383  27.987  1.00  0.00    -0.014 A 
BRANCH  35  36
ATOM     36  C   UNL A   1      41.653  27.344  29.047  1.00  0.00     0.031 A 
ATOM     37  C   UNL A   1      42.413  27.313  30.345  1.00  0.00     0.074 A 
ATOM     38  C   UNL A   1      40.640  28.212  28.883  1.00  0.00     0.049 A 
ATOM     39  N   UNL A   1      42.188  27.963  31.458  1.00  0.00    -0.248 NA
ATOM     40  C   UNL A   1      43.583  26.421  30.392  1.00  0.00     0.031 C 
ATOM     41  C   UNL A   1      39.857  28.387  27.661  1.00  0.00     0.029 A 
ATOM     42  N   UNL A   1      40.083  29.102  29.771  1.00  0.00    -0.354 N 
ATOM     43  C   UNL A   1      43.176  27.544  32.341  1.00  0.00     0.074 A 
ATOM     44  C   UNL A   1      43.986  26.570  31.644  1.00  0.00     0.031 C 
ATOM     45  C   UNL A   1      38.909  29.316  27.882  1.00  0.00     0.029 A 
ATOM     46  C   UNL A   1      38.990  29.765  29.272  1.00  0.00     0.049 A 
ATOM     47  H   UNL A   1      40.435  29.248  30.678  1.00  0.00     0.167 HD
ATOM     48  C   UNL A   1      43.389  27.934  33.620  1.00  0.00     0.031 A 
ATOM     49  C   UNL A   1      38.133  30.613  29.878  1.00  0.00     0.031 A 
ATOM     50  C   UNL A   1      42.572  28.888  34.322  1.00  0.00     0.049 A 
ATOM     51  C   UNL A   1      38.333  30.958  31.332  1.00  0.00     0.074 A 
ATOM     52  C   UNL A   1      42.716  29.355  35.616  1.00  0.00     0.029 A 
ATOM     53  N   UNL A   1      41.455  29.511  33.791  1.00  0.00    -0.354 N 
ATOM     54  N   UNL A   1      39.279  30.573  32.154  1.00  0.00    -0.248 NA
ATOM     55  C   UNL A   1      37.343  31.859  31.942  1.00  0.00     0.031 C 
ATOM     56  C   UNL A   1      41.646  30.213  35.890  1.00  0.00     0.029 A 
ATOM     57  C   UNL A   1      40.879  30.335  34.742  1.00  0.00     0.049 A 
ATOM     58  H   UNL A   1      41.119  29.386  32.873  1.00  0.00     0.167 HD
ATOM     59  C   UNL A   1      39.019  31.211  33.362  1.00  0.00     0.074 A 
ATOM     60  C   UNL A   1      37.833  32.017  33.163  1.00  0.00     0.031 C 
ATOM     61  C   UNL A   1      39.703  31.138  34.531  1.00  0.00     0.031 A 
BRANCH  48  62
ATOM     62  C   UNL A   1      44.528  27.289  34.357  1.00  0.00    -0.014 A 
ATOM     63  C   UNL A   1      44.363  26.076  35.047  1.00  0.00     0.009 A 
ATOM     64  C   UNL A   1      45.795  27.893  34.339  1.00  0.00     0.009 A 
ATOM     65  C   UNL A   1      45.437  25.502  35.730  1.00  0.00     0.001 A 
ATOM     66  C   UNL A   1      46.874  27.300  34.997  1.00  0.00     0.001 A 
ATOM     67  C   UNL A   1      46.691  26.110  35.700  1.00  0.00     0.000 A 
ENDBRANCH  48  62
BRANCH  49  68
ATOM     68  C   UNL A   1      36.977  31.176  29.128  1.00  0.00    -0.014 A 
ATOM     69  C   UNL A   1      35.891  30.364  28.769  1.00  0.00     0.009 A 
ATOM     70  C   UNL A   1      36.973  32.525  28.733  1.00  0.00     0.009 A 
ATOM     71  C   UNL A   1      34.839  30.881  28.007  1.00  0.00     0.001 A 
ATOM     72  C   UNL A   1      35.905  33.046  27.999  1.00  0.00     0.001 A 
ATOM     73  C   UNL A   1      34.845  32.222  27.627  1.00  0.00     0.000 A 
ENDBRANCH  49  68
BRANCH  61  74
ATOM     74  C   UNL A   1      39.223  31.989  35.675  1.00  0.00    -0.014 A 
ATOM     75  C   UNL A   1      39.650  33.315  35.835  1.00  0.00     0.009 A 
ATOM     76  C   UNL A   1      38.279  31.468  36.576  1.00  0.00     0.009 A 
ATOM     77  C   UNL A   1      39.165  34.091  36.892  1.00  0.00     0.001 A 
ATOM     78  C   UNL A   1      37.772  32.254  37.610  1.00  0.00     0.001 A 
ATOM     79  C   UNL A   1      38.222  33.563  37.774  1.00  0.00     0.000 A 
ENDBRANCH  61  74
ENDBRANCH  35  36
ENDBRANCH  28  30
ENDBRANCH  27  28
ENDBRANCH  26  27
ENDBRANCH  25  26
ENDBRANCH  24  25
ENDBRANCH  23  24
ENDBRANCH   1  23
TORSDOF 21
ENDMDL
MODEL 2
REMARK VINA RESULT:      -9.6      4.893      8.265
REMARK SMILES CC(C)[C@H](CCc1ccc2c(c1)CCO2)C(=O)OCCOCCOCCOC(=O)c1ccc(-c2c3nc(c(-c4ccccc4)c4ccc([nH]4)c(-c4ccccc4)c4nc(c(-c5ccccc5)c5ccc2[nH]5)C=C4)C=C3)cc1
REMARK SMILES IDX 22 1 21 2 20 3 19 4 18 5 16 6 17 7 4 8 2 9 1 10 3 11 5 12
REMARK SMILES IDX 6 13 7 14 8 15 12 16 9 17 11 18 10 19 13 20 15 21 14 22
REMARK SMILES IDX 23 23 24 24 25 25 26 26 27 27 28 28 29 29 30 30 31 31 77 32
REMARK SMILES IDX 32 33 76 34 33 35 34 36 35 37 70 38 36 39 75 40 69 41 71 42
REMARK SMILES IDX 37 43 74 44 68 45 67 46 38 48 60 49 45 50 59 51 46 52 49 53
REMARK SMILES IDX 58 54 72 55 47 56 48 57 57 59 73 60 50 61 39 62 40 63 44 64
REMARK SMILES IDX 41 65 43 66 42 67 61 68 62 69 66 70 63 71 65 72 64 73 51 74
REMARK SMILES IDX 52 75 56 76 53 77 55 78 54 79
REMARK H PARENT 71 47 49 58
REMARK Flexibility Score: inf
ROOT
ATOM      1  C   UNL A   1      32.963  19.942  24.065  1.00  0.00     0.188 C 
ENDROOT
BRANCH   1   2
ATOM      2  O   UNL A   1      32.355  21.218  23.917  1.00  0.00    -0.376 OA
BRANCH   2   3
ATOM      3  C   UNL A   1      32.239  21.813  22.632  1.00  0.00     0.202 C 
BRANCH   3   4
ATOM      4  C   UNL A   1      33.164  22.980  22.245  1.00  0.00     0.261 C 
BRANCH   4   5
ATOM      5  O   UNL A   1      33.050  24.196  23.019  1.00  0.00    -0.463 OA
BRANCH   5   6
ATOM      6  C   UNL A   1      33.097  25.351  22.312  1.00  0.00     0.309 C 
ATOM      7  O   UNL A   1      33.404  25.405  21.124  1.00  0.00    -0.252 OA
BRANCH   6   8
ATOM      8  C   UNL A   1      32.741  26.627  23.088  1.00  0.00     0.102 C 
BRANCH   8   9
ATOM      9  C   UNL A   1      31.584  27.437  22.424  1.00  0.00    -0.003 C 
ATOM     10  C   UNL A   1      30.169  27.054  22.869  1.00  0.00     0.008 C 
ATOM     11  C   UNL A   1      31.797  28.939  22.652  1.00  0.00     0.008 C 
ENDBRANCH   8   9
BRANCH   8  12
ATOM     12  C   UNL A   1      33.827  27.546  23.729  1.00  0.00     0.020 C 
BRANCH  12  13
ATOM     13  C   UNL A   1      33.970  27.634  25.257  1.00  0.00     0.036 C 
BRANCH  13  14
ATOM     14  C   UNL A   1      32.964  26.754  25.950  1.00  0.00    -0.047 A 
ATOM     15  C   UNL A   1      31.667  27.245  26.199  1.00  0.00     0.007 A 
ATOM     16  C   UNL A   1      33.264  25.398  26.168  1.00  0.00     0.011 A 
ATOM     17  C   UNL A   1      30.632  26.374  26.542  1.00  0.00     0.047 A 
ATOM     18  C   UNL A   1      32.225  24.551  26.491  1.00  0.00    -0.002 A 
ATOM     19  C   UNL A   1      30.932  25.032  26.641  1.00  0.00     0.122 A 
ATOM     20  C   UNL A   1      32.222  23.088  26.711  1.00  0.00     0.081 C 
ATOM     21  O   UNL A   1      30.006  24.042  26.853  1.00  0.00    -0.493 OA
ATOM     22  C   UNL A   1      30.731  22.840  26.490  1.00  0.00     0.234 C 
ENDBRANCH  13  14
ENDBRANCH  12  13
ENDBRANCH   8  12
ENDBRANCH   6   8
ENDBRANCH   5   6
ENDBRANCH   4   5
ENDBRANCH   3   4
ENDBRANCH   2   3
ENDBRANCH   1   2
BRANCH   1  23
ATOM     23  C   UNL A   1      34.376  19.843  24.654  1.00  0.00     0.188 C 
BRANCH  23  24
ATOM     24  O   UNL A   1      34.679  20.801  25.635  1.00  0.00    -0.376 OA
BRANCH  24  25
ATOM     25  C   UNL A   1      35.884  21.531  25.539  1.00  0.00     0.202 C 
BRANCH  25  26
ATOM     26  C   UNL A   1      37.204  20.826  25.184  1.00  0.00     0.261 C 
BRANCH  26  27
ATOM     27  O   UNL A   1      38.409  21.346  25.766  1.00  0.00    -0.460 OA
BRANCH  27  28
ATOM     28  C   UNL A   1      39.471  20.517  25.870  1.00  0.00     0.338 C 
ATOM     29  O   UNL A   1      39.511  19.332  25.584  1.00  0.00    -0.246 OA
BRANCH  28  30
ATOM     30  C   UNL A   1      40.653  21.359  26.171  1.00  0.00     0.060 A 
ATOM     31  C   UNL A   1      41.927  20.771  26.195  1.00  0.00     0.016 A 
ATOM     32  C   UNL A   1      40.508  22.730  26.384  1.00  0.00     0.016 A 
ATOM     33  C   UNL A   1      43.057  21.552  26.450  1.00  0.00     0.010 A 
ATOM     34  C   UNL A   1      41.636  23.506  26.664  1.00  0.00     0.010 A 
ATOM     35  C   UNL A   1      42.913  22.918  26.725  1.00  0.00    -0.014 A 
BRANCH  35  36
ATOM     36  C   UNL A   1      44.048  23.702  27.271  1.00  0.00     0.031 A 
ATOM     37  C   UNL A   1      44.179  23.811  28.765  1.00  0.00     0.074 A 
ATOM     38  C   UNL A   1      44.934  24.323  26.472  1.00  0.00     0.049 A 
ATOM     39  N   UNL A   1      45.005  24.532  29.479  1.00  0.00    -0.248 NA
ATOM     40  C   UNL A   1      43.242  23.000  29.560  1.00  0.00     0.031 C 
ATOM     41  C   UNL A   1      44.958  24.255  25.013  1.00  0.00     0.029 A 
ATOM     42  N   UNL A   1      45.980  25.156  26.790  1.00  0.00    -0.354 N 
ATOM     43  C   UNL A   1      44.676  24.274  30.804  1.00  0.00     0.074 A 
ATOM     44  C   UNL A   1      43.563  23.352  30.796  1.00  0.00     0.031 C 
ATOM     45  C   UNL A   1      45.961  25.031  24.559  1.00  0.00     0.029 A 
ATOM     46  C   UNL A   1      46.616  25.682  25.693  1.00  0.00     0.049 A 
ATOM     47  H   UNL A   1      46.247  25.356  27.716  1.00  0.00     0.167 HD
ATOM     48  C   UNL A   1      45.248  24.764  31.929  1.00  0.00     0.031 A 
ATOM     49  C   UNL A   1      47.594  26.608  25.612  1.00  0.00     0.031 A 
ATOM     50  C   UNL A   1      46.343  25.696  31.940  1.00  0.00     0.049 A 
ATOM     51  C   UNL A   1      48.150  27.213  26.877  1.00  0.00     0.074 A 
ATOM     52  C   UNL A   1      46.998  26.241  33.030  1.00  0.00     0.029 A 
ATOM     53  N   UNL A   1      46.936  26.229  30.807  1.00  0.00    -0.354 N 
ATOM     54  N   UNL A   1      47.847  26.951  28.126  1.00  0.00    -0.248 NA
ATOM     55  C   UNL A   1      49.189  28.243  26.719  1.00  0.00     0.031 C 
ATOM     56  C   UNL A   1      47.946  27.154  32.557  1.00  0.00     0.029 A 
ATOM     57  C   UNL A   1      47.929  27.122  31.172  1.00  0.00     0.049 A 
ATOM     58  H   UNL A   1      46.688  26.007  29.880  1.00  0.00     0.167 HD
ATOM     59  C   UNL A   1      48.679  27.754  28.898  1.00  0.00     0.074 A 
ATOM     60  C   UNL A   1      49.508  28.504  27.979  1.00  0.00     0.031 C 
ATOM     61  C   UNL A   1      48.752  27.858  30.248  1.00  0.00     0.031 A 
BRANCH  48  62
ATOM     62  C   UNL A   1      44.665  24.331  33.245  1.00  0.00    -0.014 A 
ATOM     63  C   UNL A   1      45.084  23.151  33.880  1.00  0.00     0.009 A 
ATOM     64  C   UNL A   1      43.698  25.133  33.871  1.00  0.00     0.009 A 
ATOM     65  C   UNL A   1      44.521  22.767  35.099  1.00  0.00     0.001 A 
ATOM     66  C   UNL A   1      43.160  24.763  35.105  1.00  0.00     0.001 A 
ATOM     67  C   UNL A   1      43.565  23.575  35.712  1.00  0.00     0.000 A 
ENDBRANCH  48  62
BRANCH  49  68
ATOM     68  C   UNL A   1      48.096  27.058  24.285  1.00  0.00    -0.014 A 
ATOM     69  C   UNL A   1      47.311  27.882  23.463  1.00  0.00     0.009 A 
ATOM     70  C   UNL A   1      49.350  26.634  23.816  1.00  0.00     0.009 A 
ATOM     71  C   UNL A   1      47.757  28.246  22.191  1.00  0.00     0.001 A 
ATOM     72  C   UNL A   1      49.808  27.027  22.556  1.00  0.00     0.001 A 
ATOM     73  C   UNL A   1      49.006  27.823  21.740  1.00  0.00     0.000 A 
ENDBRANCH  49  68
BRANCH  61  74
ATOM     74  C   UNL A   1      49.797  28.778  30.822  1.00  0.00    -0.014 A 
ATOM     75  C   UNL A   1      49.516  30.122  31.109  1.00  0.00     0.009 A 
ATOM     76  C   UNL A   1      51.068  28.269  31.134  1.00  0.00     0.009 A 
ATOM     77  C   UNL A   1      50.498  30.945  31.667  1.00  0.00     0.001 A 
ATOM     78  C   UNL A   1      52.036  29.084  31.721  1.00  0.00     0.001 A 
ATOM     79  C   UNL A   1      51.754  30.424  31.979  1.00  0.00     0.000 A 
ENDBRANCH  61  74
ENDBRANCH  35  36
ENDBRANCH  28  30
ENDBRANCH  27  28
ENDBRANCH  26  27
ENDBRANCH  25  26
ENDBRANCH  24  25
ENDBRANCH  23  24
ENDBRANCH   1  23
TORSDOF 21
ENDMDL
MODEL 3
REMARK VINA RESULT:      -9.6      4.297      7.662
REMARK SMILES CC(C)[C@H](CCc1ccc2c(c1)CCO2)C(=O)OCCOCCOCCOC(=O)c1ccc(-c2c3nc(c(-c4ccccc4)c4ccc([nH]4)c(-c4ccccc4)c4nc(c(-c5ccccc5)c5ccc2[nH]5)C=C4)C=C3)cc1
REMARK SMILES IDX 22 1 21 2 20 3 19 4 18 5 16 6 17 7 4 8 2 9 1 10 3 11 5 12
REMARK SMILES IDX 6 13 7 14 8 15 12 16 9 17 11 18 10 19 13 20 15 21 14 22
REMARK SMILES IDX 23 23 24 24 25 25 26 26 27 27 28 28 29 29 30 30 31 31 77 32
REMARK SMILES IDX 32 33 76 34 33 35 34 36 35 37 70 38 36 39 75 40 69 41 71 42
REMARK SMILES IDX 37 43 74 44 68 45 67 46 38 48 60 49 45 50 59 51 46 52 49 53
REMARK SMILES IDX 58 54 72 55 47 56 48 57 57 59 73 60 50 61 39 62 40 63 44 64
REMARK SMILES IDX 41 65 43 66 42 67 61 68 62 69 66 70 63 71 65 72 64 73 51 74
REMARK SMILES IDX 52 75 56 76 53 77 55 78 54 79
REMARK H PARENT 71 47 49 58
REMARK Flexibility Score: inf
ROOT
ATOM      1  C   UNL A   1      32.561  21.223  24.448  1.00  0.00     0.188 C 
ENDROOT
BRANCH   1   2
ATOM      2  O   UNL A   1      32.299  21.882  25.680  1.00  0.00    -0.376 OA
BRANCH   2   3
ATOM      3  C   UNL A   1      31.550  23.089  25.703  1.00  0.00     0.202 C 
BRANCH   3   4
ATOM      4  C   UNL A   1      31.767  24.143  24.602  1.00  0.00     0.261 C 
BRANCH   4   5
ATOM      5  O   UNL A   1      30.782  25.197  24.496  1.00  0.00    -0.463 OA
BRANCH   5   6
ATOM      6  C   UNL A   1      30.816  26.136  25.472  1.00  0.00     0.309 C 
ATOM      7  O   UNL A   1      30.136  26.074  26.494  1.00  0.00    -0.252 OA
BRANCH   6   8
ATOM      8  C   UNL A   1      31.768  27.316  25.235  1.00  0.00     0.102 C 
BRANCH   8   9
ATOM      9  C   UNL A   1      31.556  28.480  26.253  1.00  0.00    -0.003 C 
ATOM     10  C   UNL A   1      32.556  28.536  27.412  1.00  0.00     0.008 C 
ATOM     11  C   UNL A   1      31.557  29.826  25.519  1.00  0.00     0.008 C 
ENDBRANCH   8   9
BRANCH   8  12
ATOM     12  C   UNL A   1      32.126  27.827  23.806  1.00  0.00     0.020 C 
BRANCH  12  13
ATOM     13  C   UNL A   1      31.245  27.457  22.601  1.00  0.00     0.036 C 
BRANCH  13  14
ATOM     14  C   UNL A   1      30.023  28.333  22.531  1.00  0.00    -0.047 A 
ATOM     15  C   UNL A   1      28.816  27.889  23.110  1.00  0.00     0.007 A 
ATOM     16  C   UNL A   1      30.142  29.653  22.064  1.00  0.00     0.011 A 
ATOM     17  C   UNL A   1      27.771  28.783  23.344  1.00  0.00     0.047 A 
ATOM     18  C   UNL A   1      29.105  30.524  22.318  1.00  0.00    -0.002 A 
ATOM     19  C   UNL A   1      27.959  30.098  22.974  1.00  0.00     0.122 A 
ATOM     20  C   UNL A   1      28.975  31.965  22.011  1.00  0.00     0.081 C 
ATOM     21  O   UNL A   1      27.078  31.115  23.242  1.00  0.00    -0.493 OA
ATOM     22  C   UNL A   1      27.878  32.302  23.020  1.00  0.00     0.234 C 
ENDBRANCH  13  14
ENDBRANCH  12  13
ENDBRANCH   8  12
ENDBRANCH   6   8
ENDBRANCH   5   6
ENDBRANCH   4   5
ENDBRANCH   3   4
ENDBRANCH   2   3
ENDBRANCH   1   2
BRANCH   1  23
ATOM     23  C   UNL A   1      33.499  20.009  24.426  1.00  0.00     0.188 C 
BRANCH  23  24
ATOM     24  O   UNL A   1      34.620  20.109  25.266  1.00  0.00    -0.376 OA
BRANCH  24  25
ATOM     25  C   UNL A   1      35.746  20.843  24.833  1.00  0.00     0.202 C 
BRANCH  25  26
ATOM     26  C   UNL A   1      37.170  20.356  25.147  1.00  0.00     0.261 C 
BRANCH  26  27
ATOM     27  O   UNL A   1      38.208  21.346  25.211  1.00  0.00    -0.460 OA
BRANCH  27  28
ATOM     28  C   UNL A   1      39.241  21.127  26.055  1.00  0.00     0.338 C 
ATOM     29  O   UNL A   1      39.820  20.073  26.252  1.00  0.00    -0.246 OA
BRANCH  28  30
ATOM     30  C   UNL A   1      39.704  22.454  26.529  1.00  0.00     0.060 A 
ATOM     31  C   UNL A   1      38.933  23.591  26.245  1.00  0.00     0.016 A 
ATOM     32  C   UNL A   1      40.870  22.566  27.286  1.00  0.00     0.016 A 
ATOM     33  C   UNL A   1      39.338  24.847  26.705  1.00  0.00     0.010 A 
ATOM     34  C   UNL A   1      41.287  23.825  27.724  1.00  0.00     0.010 A 
ATOM     35  C   UNL A   1      40.539  24.976  27.415  1.00  0.00    -0.014 A 
BRANCH  35  36
ATOM     36  C   UNL A   1      41.128  26.314  27.666  1.00  0.00     0.031 A 
ATOM     37  C   UNL A   1      42.467  26.624  27.055  1.00  0.00     0.074 A 
ATOM     38  C   UNL A   1      40.510  27.231  28.431  1.00  0.00     0.049 A 
ATOM     39  N   UNL A   1      43.239  27.667  27.223  1.00  0.00    -0.248 NA
ATOM     40  C   UNL A   1      43.010  25.612  26.133  1.00  0.00     0.031 C 
ATOM     41  C   UNL A   1      39.189  27.085  29.037  1.00  0.00     0.029 A 
ATOM     42  N   UNL A   1      40.937  28.472  28.844  1.00  0.00    -0.354 N 
ATOM     43  C   UNL A   1      44.364  27.428  26.444  1.00  0.00     0.074 A 
ATOM     44  C   UNL A   1      44.186  26.135  25.823  1.00  0.00     0.031 C 
ATOM     45  C   UNL A   1      38.919  28.188  29.760  1.00  0.00     0.029 A 
ATOM     46  C   UNL A   1      40.065  29.094  29.703  1.00  0.00     0.049 A 
ATOM     47  H   UNL A   1      41.786  28.874  28.551  1.00  0.00     0.167 HD
ATOM     48  C   UNL A   1      45.451  28.214  26.263  1.00  0.00     0.031 A 
ATOM     49  C   UNL A   1      40.194  30.248  30.391  1.00  0.00     0.031 A 
ATOM     50  C   UNL A   1      45.639  29.493  26.896  1.00  0.00     0.049 A 
ATOM     51  C   UNL A   1      41.456  31.061  30.249  1.00  0.00     0.074 A 
ATOM     52  C   UNL A   1      46.702  30.368  26.766  1.00  0.00     0.029 A 
ATOM     53  N   UNL A   1      44.748  30.071  27.785  1.00  0.00    -0.354 N 
ATOM     54  N   UNL A   1      42.507  30.838  29.497  1.00  0.00    -0.248 NA
ATOM     55  C   UNL A   1      41.548  32.289  31.053  1.00  0.00     0.031 C 
ATOM     56  C   UNL A   1      46.484  31.448  27.627  1.00  0.00     0.029 A 
ATOM     57  C   UNL A   1      45.252  31.278  28.237  1.00  0.00     0.049 A 
ATOM     58  H   UNL A   1      43.885  29.681  28.056  1.00  0.00     0.167 HD
ATOM     59  C   UNL A   1      43.364  31.912  29.710  1.00  0.00     0.074 A 
ATOM     60  C   UNL A   1      42.707  32.791  30.652  1.00  0.00     0.031 C 
ATOM     61  C   UNL A   1      44.586  32.149  29.170  1.00  0.00     0.031 A 
BRANCH  48  62
ATOM     62  C   UNL A   1      46.544  27.688  25.376  1.00  0.00    -0.014 A 
ATOM     63  C   UNL A   1      46.681  28.118  24.047  1.00  0.00     0.009 A 
ATOM     64  C   UNL A   1      47.468  26.765  25.890  1.00  0.00     0.009 A 
ATOM     65  C   UNL A   1      47.701  27.608  23.241  1.00  0.00     0.001 A 
ATOM     66  C   UNL A   1      48.506  26.280  25.092  1.00  0.00     0.001 A 
ATOM     67  C   UNL A   1      48.615  26.695  23.766  1.00  0.00     0.000 A 
ENDBRANCH  48  62
BRANCH  49  68
ATOM     68  C   UNL A   1      39.114  30.698  31.311  1.00  0.00    -0.014 A 
ATOM     69  C   UNL A   1      39.070  30.248  32.639  1.00  0.00     0.009 A 
ATOM     70  C   UNL A   1      38.098  31.554  30.853  1.00  0.00     0.009 A 
ATOM     71  C   UNL A   1      38.017  30.619  33.480  1.00  0.00     0.001 A 
ATOM     72  C   UNL A   1      37.065  31.950  31.705  1.00  0.00     0.001 A 
ATOM     73  C   UNL A   1      37.019  31.473  33.014  1.00  0.00     0.000 A 
ENDBRANCH  49  68
BRANCH  61  74
ATOM     74  C   UNL A   1      45.275  33.435  29.541  1.00  0.00    -0.014 A 
ATOM     75  C   UNL A   1      46.092  33.530  30.677  1.00  0.00     0.009 A 
ATOM     76  C   UNL A   1      45.147  34.554  28.703  1.00  0.00     0.009 A 
ATOM     77  C   UNL A   1      46.742  34.730  30.981  1.00  0.00     0.001 A 
ATOM     78  C   UNL A   1      45.822  35.740  28.991  1.00  0.00     0.001 A 
ATOM     79  C   UNL A   1      46.612  35.831  30.135  1.00  0.00     0.000 A 
ENDBRANCH  61  74
ENDBRANCH  35  36
ENDBRANCH  28  30
ENDBRANCH  27  28
ENDBRANCH  26  27
ENDBRANCH  25  26
ENDBRANCH  24  25
ENDBRANCH  23  24
ENDBRANCH   1  23
TORSDOF 21
ENDMDL
