MODEL 1
REMARK VINA RESULT:      -9.9      0.000      0.000
REMARK SMILES CCc1cc(OC(F)(F)F)cc2c1O[C@@H](C(F)(F)F)C(C(=O)OCCOCCOCCOC(=O)c1ccc(-c3c4nc(c(-c5ccccc5)c5ccc([nH]5)c(-c5ccccc5)c5nc(c(-c6ccccc6)c6ccc3[nH]6)C=C5)C=C4)cc1)=C2
REMARK SMILES IDX 27 1 26 2 25 3 24 4 23 5 21 6 22 7 20 8 3 9 4 10 13 11 5 12
REMARK SMILES IDX 12 13 14 14 11 15 83 16 15 17 2 18 1 19 6 20 7 21 8 22 9 23
REMARK SMILES IDX 10 24 16 25 17 26 18 27 19 28 28 29 29 30 30 31 31 32 32 33
REMARK SMILES IDX 33 34 34 35 35 36 36 37 82 38 37 39 81 40 38 41 39 42 40 43
REMARK SMILES IDX 75 44 41 45 80 46 74 47 76 48 42 49 79 50 73 51 72 52 43 54
REMARK SMILES IDX 65 55 50 56 64 57 51 58 54 59 63 60 77 61 52 62 53 63 62 65
REMARK SMILES IDX 78 66 55 67 44 68 45 69 49 70 46 71 48 72 47 73 66 74 67 75
REMARK SMILES IDX 71 76 68 77 70 78 69 79 56 80 57 81 61 82 58 83 60 84 59 85
REMARK H PARENT 76 53 54 64
REMARK Flexibility Score: inf
ROOT
ATOM      1  C   UNL A   1      40.453  20.717  26.088  1.00  0.00     0.188 C 
ENDROOT
BRANCH   1   2
ATOM      2  O   UNL A   1      39.195  20.196  25.733  1.00  0.00    -0.376 OA
BRANCH   2   3
ATOM      3  C   UNL A   1      38.156  21.080  25.354  1.00  0.00     0.202 C 
BRANCH   3   4
ATOM      4  C   UNL A   1      38.097  22.564  25.774  1.00  0.00     0.261 C 
BRANCH   4   5
ATOM      5  O   UNL A   1      36.805  23.162  25.937  1.00  0.00    -0.460 OA
BRANCH   5   6
ATOM      6  C   UNL A   1      36.224  23.674  24.827  1.00  0.00     0.338 C 
ATOM      7  O   UNL A   1      36.628  23.558  23.686  1.00  0.00    -0.246 OA
BRANCH   6   8
ATOM      8  C   UNL A   1      34.924  24.287  25.171  1.00  0.00     0.087 C 
ATOM      9  C   UNL A   1      31.119  26.003  25.305  1.00  0.00    -0.002 A 
ATOM     10  C   UNL A   1      30.951  27.260  25.906  1.00  0.00     0.054 A 
ATOM     11  C   UNL A   1      32.406  25.452  25.262  1.00  0.00     0.131 A 
ATOM     12  C   UNL A   1      32.043  27.954  26.440  1.00  0.00     0.130 A 
ATOM     13  C   UNL A   1      33.514  26.129  25.794  1.00  0.00     0.021 A 
ATOM     14  O   UNL A   1      32.558  24.257  24.602  1.00  0.00    -0.475 OA
ATOM     15  C   UNL A   1      33.319  27.374  26.400  1.00  0.00     0.058 A 
ATOM     16  C   UNL A   1      34.853  25.566  25.585  1.00  0.00     0.027 C 
ATOM     17  C   UNL A   1      33.663  23.458  25.089  1.00  0.00     0.316 C 
BRANCH   9  18
ATOM     18  C   UNL A   1      29.939  25.298  24.677  1.00  0.00     0.036 C 
ATOM     19  C   UNL A   1      29.148  26.172  23.712  1.00  0.00     0.009 C 
ENDBRANCH   9  18
BRANCH  12  20
ATOM     20  O   UNL A   1      31.997  29.198  27.007  1.00  0.00    -0.406 OA
BRANCH  20  21
ATOM     21  C   UNL A   1      32.003  30.315  26.129  1.00  0.00     0.573 C 
ATOM     22  F   UNL A   1      32.071  31.479  26.810  1.00  0.00    -0.132 F 
ATOM     23  F   UNL A   1      33.032  30.240  25.259  1.00  0.00    -0.132 F 
ATOM     24  F   UNL A   1      30.852  30.314  25.419  1.00  0.00    -0.132 F 
ENDBRANCH  20  21
ENDBRANCH  12  20
BRANCH  17  25
ATOM     25  C   UNL A   1      33.671  22.133  24.312  1.00  0.00     0.430 C 
ATOM     26  F   UNL A   1      34.042  22.319  23.023  1.00  0.00    -0.167 F 
ATOM     27  F   UNL A   1      34.601  21.295  24.843  1.00  0.00    -0.167 F 
ATOM     28  F   UNL A   1      32.491  21.487  24.339  1.00  0.00    -0.167 F 
ENDBRANCH  17  25
ENDBRANCH   6   8
ENDBRANCH   5   6
ENDBRANCH   4   5
ENDBRANCH   3   4
ENDBRANCH   2   3
ENDBRANCH   1   2
BRANCH   1  29
ATOM     29  C   UNL A   1      41.469  19.639  26.519  1.00  0.00     0.188 C 
BRANCH  29  30
ATOM     30  O   UNL A   1      42.862  19.881  26.389  1.00  0.00    -0.376 OA
BRANCH  30  31
ATOM     31  C   UNL A   1      43.307  20.918  25.523  1.00  0.00     0.202 C 
BRANCH  31  32
ATOM     32  C   UNL A   1      44.738  21.476  25.639  1.00  0.00     0.261 C 
BRANCH  32  33
ATOM     33  O   UNL A   1      44.872  22.751  26.290  1.00  0.00    -0.460 OA
BRANCH  33  34
ATOM     34  C   UNL A   1      44.505  23.827  25.551  1.00  0.00     0.338 C 
ATOM     35  O   UNL A   1      44.618  23.976  24.348  1.00  0.00    -0.246 OA
BRANCH  34  36
ATOM     36  C   UNL A   1      43.765  24.781  26.402  1.00  0.00     0.060 A 
ATOM     37  C   UNL A   1      44.118  26.138  26.364  1.00  0.00     0.016 A 
ATOM     38  C   UNL A   1      42.779  24.331  27.281  1.00  0.00     0.016 A 
ATOM     39  C   UNL A   1      43.494  27.051  27.215  1.00  0.00     0.010 A 
ATOM     40  C   UNL A   1      42.176  25.242  28.153  1.00  0.00     0.010 A 
ATOM     41  C   UNL A   1      42.549  26.600  28.142  1.00  0.00    -0.014 A 
BRANCH  41  42
ATOM     42  C   UNL A   1      42.066  27.499  29.218  1.00  0.00     0.031 A 
ATOM     43  C   UNL A   1      42.763  27.467  30.550  1.00  0.00     0.074 A 
ATOM     44  C   UNL A   1      41.018  28.319  29.024  1.00  0.00     0.049 A 
ATOM     45  N   UNL A   1      42.448  28.072  31.667  1.00  0.00    -0.248 NA
ATOM     46  C   UNL A   1      43.975  26.636  30.632  1.00  0.00     0.031 C 
ATOM     47  C   UNL A   1      40.296  28.492  27.766  1.00  0.00     0.029 A 
ATOM     48  N   UNL A   1      40.371  29.150  29.905  1.00  0.00    -0.354 N 
ATOM     49  C   UNL A   1      43.412  27.682  32.588  1.00  0.00     0.074 A 
ATOM     50  C   UNL A   1      44.309  26.774  31.906  1.00  0.00     0.031 C 
ATOM     51  C   UNL A   1      39.288  29.361  27.961  1.00  0.00     0.029 A 
ATOM     52  C   UNL A   1      39.270  29.768  29.365  1.00  0.00     0.049 A 
ATOM     53  H   UNL A   1      40.667  29.288  30.834  1.00  0.00     0.167 HD
ATOM     54  C   UNL A   1      43.537  28.045  33.886  1.00  0.00     0.031 A 
ATOM     55  C   UNL A   1      38.334  30.545  29.948  1.00  0.00     0.031 A 
ATOM     56  C   UNL A   1      42.633  28.931  34.570  1.00  0.00     0.049 A 
ATOM     57  C   UNL A   1      38.438  30.855  31.419  1.00  0.00     0.074 A 
ATOM     58  C   UNL A   1      42.683  29.367  35.882  1.00  0.00     0.029 A 
ATOM     59  N   UNL A   1      41.511  29.507  33.997  1.00  0.00    -0.354 N 
ATOM     60  N   UNL A   1      39.362  30.495  32.279  1.00  0.00    -0.248 NA
ATOM     61  C   UNL A   1      37.368  31.680  32.000  1.00  0.00     0.031 C 
ATOM     62  C   UNL A   1      41.554  30.157  36.121  1.00  0.00     0.029 A 
ATOM     63  C   UNL A   1      40.842  30.270  34.938  1.00  0.00     0.049 A 
ATOM     64  H   UNL A   1      41.231  29.391  33.060  1.00  0.00     0.167 HD
ATOM     65  C   UNL A   1      39.003  31.080  33.488  1.00  0.00     0.074 A 
ATOM     66  C   UNL A   1      37.784  31.823  33.251  1.00  0.00     0.031 C 
ATOM     67  C   UNL A   1      39.633  31.011  34.687  1.00  0.00     0.031 A 
BRANCH  54  68
ATOM     68  C   UNL A   1      44.674  27.443  34.667  1.00  0.00    -0.014 A 
ATOM     69  C   UNL A   1      44.544  26.204  35.312  1.00  0.00     0.009 A 
ATOM     70  C   UNL A   1      45.904  28.117  34.730  1.00  0.00     0.009 A 
ATOM     71  C   UNL A   1      45.613  25.668  36.033  1.00  0.00     0.001 A 
ATOM     72  C   UNL A   1      46.980  27.564  35.426  1.00  0.00     0.001 A 
ATOM     73  C   UNL A   1      46.831  26.345  36.085  1.00  0.00     0.000 A 
ENDBRANCH  54  68
BRANCH  55  74
ATOM     74  C   UNL A   1      37.191  31.063  29.150  1.00  0.00    -0.014 A 
ATOM     75  C   UNL A   1      37.174  32.393  28.704  1.00  0.00     0.009 A 
ATOM     76  C   UNL A   1      36.096  30.236  28.852  1.00  0.00     0.009 A 
ATOM     77  C   UNL A   1      36.073  32.891  28.003  1.00  0.00     0.001 A 
ATOM     78  C   UNL A   1      35.011  30.728  28.124  1.00  0.00     0.001 A 
ATOM     79  C   UNL A   1      34.996  32.057  27.709  1.00  0.00     0.000 A 
ENDBRANCH  55  74
BRANCH  67  80
ATOM     80  C   UNL A   1      39.049  31.800  35.828  1.00  0.00    -0.014 A 
ATOM     81  C   UNL A   1      38.177  31.213  36.757  1.00  0.00     0.009 A 
ATOM     82  C   UNL A   1      39.433  33.140  36.009  1.00  0.00     0.009 A 
ATOM     83  C   UNL A   1      37.680  31.961  37.828  1.00  0.00     0.001 A 
ATOM     84  C   UNL A   1      38.959  33.874  37.096  1.00  0.00     0.001 A 
ATOM     85  C   UNL A   1      38.077  33.287  38.000  1.00  0.00     0.000 A 
ENDBRANCH  67  80
ENDBRANCH  41  42
ENDBRANCH  34  36
ENDBRANCH  33  34
ENDBRANCH  32  33
ENDBRANCH  31  32
ENDBRANCH  30  31
ENDBRANCH  29  30
ENDBRANCH   1  29
TORSDOF 21
ENDMDL
MODEL 2
REMARK VINA RESULT:      -9.8      3.978      9.823
REMARK SMILES CCc1cc(OC(F)(F)F)cc2c1O[C@@H](C(F)(F)F)C(C(=O)OCCOCCOCCOC(=O)c1ccc(-c3c4nc(c(-c5ccccc5)c5ccc([nH]5)c(-c5ccccc5)c5nc(c(-c6ccccc6)c6ccc3[nH]6)C=C5)C=C4)cc1)=C2
REMARK SMILES IDX 27 1 26 2 25 3 24 4 23 5 21 6 22 7 20 8 3 9 4 10 13 11 5 12
REMARK SMILES IDX 12 13 14 14 11 15 83 16 15 17 2 18 1 19 6 20 7 21 8 22 9 23
REMARK SMILES IDX 10 24 16 25 17 26 18 27 19 28 28 29 29 30 30 31 31 32 32 33
REMARK SMILES IDX 33 34 34 35 35 36 36 37 82 38 37 39 81 40 38 41 39 42 40 43
REMARK SMILES IDX 75 44 41 45 80 46 74 47 76 48 42 49 79 50 73 51 72 52 43 54
REMARK SMILES IDX 65 55 50 56 64 57 51 58 54 59 63 60 77 61 52 62 53 63 62 65
REMARK SMILES IDX 78 66 55 67 44 68 45 69 49 70 46 71 48 72 47 73 66 74 67 75
REMARK SMILES IDX 71 76 68 77 70 78 69 79 56 80 57 81 61 82 58 83 60 84 59 85
REMARK H PARENT 76 53 54 64
REMARK Flexibility Score: inf
ROOT
ATOM      1  C   UNL A   1      34.652  31.403  27.982  1.00  0.00     0.188 C 
ENDROOT
BRANCH   1   2
ATOM      2  O   UNL A   1      33.293  31.436  27.617  1.00  0.00    -0.376 OA
BRANCH   2   3
ATOM      3  C   UNL A   1      32.686  30.273  27.085  1.00  0.00     0.202 C 
BRANCH   3   4
ATOM      4  C   UNL A   1      33.340  28.875  27.111  1.00  0.00     0.261 C 
BRANCH   4   5
ATOM      5  O   UNL A   1      32.760  27.850  26.295  1.00  0.00    -0.460 OA
BRANCH   5   6
ATOM      6  C   UNL A   1      33.275  27.692  25.054  1.00  0.00     0.338 C 
ATOM      7  O   UNL A   1      33.650  28.580  24.313  1.00  0.00    -0.246 OA
BRANCH   6   8
ATOM      8  C   UNL A   1      33.461  26.255  24.760  1.00  0.00     0.087 C 
ATOM      9  C   UNL A   1      33.265  22.103  24.366  1.00  0.00    -0.002 A 
ATOM     10  C   UNL A   1      34.336  21.316  24.818  1.00  0.00     0.054 A 
ATOM     11  C   UNL A   1      33.348  23.492  24.518  1.00  0.00     0.131 A 
ATOM     12  C   UNL A   1      35.455  21.903  25.418  1.00  0.00     0.130 A 
ATOM     13  C   UNL A   1      34.463  24.102  25.114  1.00  0.00     0.021 A 
ATOM     14  O   UNL A   1      32.257  24.235  24.138  1.00  0.00    -0.475 OA
ATOM     15  C   UNL A   1      35.523  23.298  25.544  1.00  0.00     0.058 A 
ATOM     16  C   UNL A   1      34.423  25.545  25.377  1.00  0.00     0.027 C 
ATOM     17  C   UNL A   1      32.583  25.585  23.729  1.00  0.00     0.316 C 
BRANCH   9  18
ATOM     18  C   UNL A   1      32.036  21.447  23.778  1.00  0.00     0.036 C 
ATOM     19  C   UNL A   1      32.144  21.178  22.283  1.00  0.00     0.009 C 
ENDBRANCH   9  18
BRANCH  12  20
ATOM     20  O   UNL A   1      36.531  21.229  25.930  1.00  0.00    -0.406 OA
BRANCH  20  21
ATOM     21  C   UNL A   1      37.443  20.657  25.004  1.00  0.00     0.573 C 
ATOM     22  F   UNL A   1      37.421  21.309  23.822  1.00  0.00    -0.132 F 
ATOM     23  F   UNL A   1      38.699  20.662  25.498  1.00  0.00    -0.132 F 
ATOM     24  F   UNL A   1      37.085  19.373  24.779  1.00  0.00    -0.132 F 
ENDBRANCH  20  21
ENDBRANCH  12  20
BRANCH  17  25
ATOM     25  C   UNL A   1      31.287  26.270  23.271  1.00  0.00     0.430 C 
ATOM     26  F   UNL A   1      31.432  26.835  22.049  1.00  0.00    -0.167 F 
ATOM     27  F   UNL A   1      30.302  25.341  23.129  1.00  0.00    -0.167 F 
ATOM     28  F   UNL A   1      30.837  27.199  24.133  1.00  0.00    -0.167 F 
ENDBRANCH  17  25
ENDBRANCH   6   8
ENDBRANCH   5   6
ENDBRANCH   4   5
ENDBRANCH   3   4
ENDBRANCH   2   3
ENDBRANCH   1   2
BRANCH   1  29
ATOM     29  C   UNL A   1      35.077  32.573  28.893  1.00  0.00     0.188 C 
BRANCH  29  30
ATOM     30  O   UNL A   1      34.391  32.810  30.113  1.00  0.00    -0.376 OA
BRANCH  30  31
ATOM     31  C   UNL A   1      34.312  34.137  30.618  1.00  0.00     0.202 C 
BRANCH  31  32
ATOM     32  C   UNL A   1      34.707  34.448  32.074  1.00  0.00     0.261 C 
BRANCH  32  33
ATOM     33  O   UNL A   1      35.617  33.525  32.696  1.00  0.00    -0.460 OA
BRANCH  33  34
ATOM     34  C   UNL A   1      36.899  33.954  32.810  1.00  0.00     0.338 C 
ATOM     35  O   UNL A   1      37.324  34.844  33.523  1.00  0.00    -0.246 OA
BRANCH  34  36
ATOM     36  C   UNL A   1      37.789  33.054  32.049  1.00  0.00     0.060 A 
ATOM     37  C   UNL A   1      38.584  32.135  32.751  1.00  0.00     0.016 A 
ATOM     38  C   UNL A   1      37.891  33.162  30.662  1.00  0.00     0.016 A 
ATOM     39  C   UNL A   1      39.495  31.329  32.068  1.00  0.00     0.010 A 
ATOM     40  C   UNL A   1      38.824  32.374  29.983  1.00  0.00     0.010 A 
ATOM     41  C   UNL A   1      39.648  31.473  30.685  1.00  0.00    -0.014 A 
BRANCH  41  42
ATOM     42  C   UNL A   1      40.777  30.816  29.984  1.00  0.00     0.031 A 
ATOM     43  C   UNL A   1      42.017  31.619  29.706  1.00  0.00     0.074 A 
ATOM     44  C   UNL A   1      40.699  29.534  29.584  1.00  0.00     0.049 A 
ATOM     45  N   UNL A   1      43.077  31.297  29.010  1.00  0.00    -0.248 NA
ATOM     46  C   UNL A   1      42.064  32.970  30.289  1.00  0.00     0.031 C 
ATOM     47  C   UNL A   1      39.583  28.629  29.844  1.00  0.00     0.029 A 
ATOM     48  N   UNL A   1      41.585  28.781  28.853  1.00  0.00    -0.354 N 
ATOM     49  C   UNL A   1      43.909  32.409  29.058  1.00  0.00     0.074 A 
ATOM     50  C   UNL A   1      43.222  33.420  29.832  1.00  0.00     0.031 C 
ATOM     51  C   UNL A   1      39.840  27.445  29.261  1.00  0.00     0.029 A 
ATOM     52  C   UNL A   1      41.116  27.526  28.553  1.00  0.00     0.049 A 
ATOM     53  H   UNL A   1      42.469  29.109  28.570  1.00  0.00     0.167 HD
ATOM     54  C   UNL A   1      45.133  32.574  28.503  1.00  0.00     0.031 A 
ATOM     55  C   UNL A   1      41.642  26.565  27.766  1.00  0.00     0.031 A 
ATOM     56  C   UNL A   1      45.806  31.576  27.715  1.00  0.00     0.049 A 
ATOM     57  C   UNL A   1      42.960  26.809  27.077  1.00  0.00     0.074 A 
ATOM     58  C   UNL A   1      47.053  31.646  27.121  1.00  0.00     0.029 A 
ATOM     59  N   UNL A   1      45.282  30.332  27.406  1.00  0.00    -0.354 N 
ATOM     60  N   UNL A   1      43.747  27.857  27.140  1.00  0.00    -0.248 NA
ATOM     61  C   UNL A   1      43.463  25.735  26.207  1.00  0.00     0.031 C 
ATOM     62  C   UNL A   1      47.257  30.467  26.397  1.00  0.00     0.029 A 
ATOM     63  C   UNL A   1      46.168  29.636  26.601  1.00  0.00     0.049 A 
ATOM     64  H   UNL A   1      44.410  29.992  27.712  1.00  0.00     0.167 HD
ATOM     65  C   UNL A   1      44.850  27.552  26.351  1.00  0.00     0.074 A 
ATOM     66  C   UNL A   1      44.636  26.220  25.826  1.00  0.00     0.031 C 
ATOM     67  C   UNL A   1      45.946  28.307  26.090  1.00  0.00     0.031 A 
BRANCH  54  68
ATOM     68  C   UNL A   1      45.805  33.906  28.693  1.00  0.00    -0.014 A 
ATOM     69  C   UNL A   1      46.494  34.217  29.874  1.00  0.00     0.009 A 
ATOM     70  C   UNL A   1      45.771  34.852  27.656  1.00  0.00     0.009 A 
ATOM     71  C   UNL A   1      47.108  35.463  30.027  1.00  0.00     0.001 A 
ATOM     72  C   UNL A   1      46.411  36.085  27.799  1.00  0.00     0.001 A 
ATOM     73  C   UNL A   1      47.070  36.392  28.988  1.00  0.00     0.000 A 
ENDBRANCH  54  68
BRANCH  55  74
ATOM     74  C   UNL A   1      40.910  25.288  27.555  1.00  0.00    -0.014 A 
ATOM     75  C   UNL A   1      41.386  24.089  28.105  1.00  0.00     0.009 A 
ATOM     76  C   UNL A   1      39.741  25.257  26.776  1.00  0.00     0.009 A 
ATOM     77  C   UNL A   1      40.725  22.884  27.858  1.00  0.00     0.001 A 
ATOM     78  C   UNL A   1      39.065  24.056  26.556  1.00  0.00     0.001 A 
ATOM     79  C   UNL A   1      39.563  22.869  27.089  1.00  0.00     0.000 A 
ENDBRANCH  55  74
BRANCH  67  80
ATOM     80  C   UNL A   1      47.027  27.698  25.240  1.00  0.00    -0.014 A 
ATOM     81  C   UNL A   1      47.141  27.991  23.873  1.00  0.00     0.009 A 
ATOM     82  C   UNL A   1      47.988  26.864  25.837  1.00  0.00     0.009 A 
ATOM     83  C   UNL A   1      48.178  27.438  23.116  1.00  0.00     0.001 A 
ATOM     84  C   UNL A   1      49.039  26.339  25.086  1.00  0.00     0.001 A 
ATOM     85  C   UNL A   1      49.129  26.620  23.725  1.00  0.00     0.000 A 
ENDBRANCH  67  80
ENDBRANCH  41  42
ENDBRANCH  34  36
ENDBRANCH  33  34
ENDBRANCH  32  33
ENDBRANCH  31  32
ENDBRANCH  30  31
ENDBRANCH  29  30
ENDBRANCH   1  29
TORSDOF 21
ENDMDL
MODEL 3
REMARK VINA RESULT:      -9.7      1.612      6.062
REMARK SMILES CCc1cc(OC(F)(F)F)cc2c1O[C@@H](C(F)(F)F)C(C(=O)OCCOCCOCCOC(=O)c1ccc(-c3c4nc(c(-c5ccccc5)c5ccc([nH]5)c(-c5ccccc5)c5nc(c(-c6ccccc6)c6ccc3[nH]6)C=C5)C=C4)cc1)=C2
REMARK SMILES IDX 27 1 26 2 25 3 24 4 23 5 21 6 22 7 20 8 3 9 4 10 13 11 5 12
REMARK SMILES IDX 12 13 14 14 11 15 83 16 15 17 2 18 1 19 6 20 7 21 8 22 9 23
REMARK SMILES IDX 10 24 16 25 17 26 18 27 19 28 28 29 29 30 30 31 31 32 32 33
REMARK SMILES IDX 33 34 34 35 35 36 36 37 82 38 37 39 81 40 38 41 39 42 40 43
REMARK SMILES IDX 75 44 41 45 80 46 74 47 76 48 42 49 79 50 73 51 72 52 43 54
REMARK SMILES IDX 65 55 50 56 64 57 51 58 54 59 63 60 77 61 52 62 53 63 62 65
REMARK SMILES IDX 78 66 55 67 44 68 45 69 49 70 46 71 48 72 47 73 66 74 67 75
REMARK SMILES IDX 71 76 68 77 70 78 69 79 56 80 57 81 61 82 58 83 60 84 59 85
REMARK H PARENT 76 53 54 64
REMARK Flexibility Score: inf
ROOT
ATOM      1  C   UNL A   1      40.393  20.241  26.301  1.00  0.00     0.188 C 
ENDROOT
BRANCH   1   2
ATOM      2  O   UNL A   1      39.117  20.291  25.710  1.00  0.00    -0.376 OA
BRANCH   2   3
ATOM      3  C   UNL A   1      38.415  21.520  25.670  1.00  0.00     0.202 C 
BRANCH   3   4
ATOM      4  C   UNL A   1      37.051  21.706  24.973  1.00  0.00     0.261 C 
BRANCH   4   5
ATOM      5  O   UNL A   1      36.306  22.894  25.266  1.00  0.00    -0.460 OA
BRANCH   5   6
ATOM      6  C   UNL A   1      35.192  22.748  26.021  1.00  0.00     0.338 C 
ATOM      7  O   UNL A   1      35.020  21.919  26.895  1.00  0.00    -0.246 OA
BRANCH   6   8
ATOM      8  C   UNL A   1      34.240  23.841  25.739  1.00  0.00     0.087 C 
ATOM      9  C   UNL A   1      31.724  26.761  24.130  1.00  0.00    -0.002 A 
ATOM     10  C   UNL A   1      31.897  28.102  24.504  1.00  0.00     0.054 A 
ATOM     11  C   UNL A   1      32.586  25.800  24.675  1.00  0.00     0.131 A 
ATOM     12  C   UNL A   1      32.914  28.475  25.390  1.00  0.00     0.130 A 
ATOM     13  C   UNL A   1      33.610  26.153  25.567  1.00  0.00     0.021 A 
ATOM     14  O   UNL A   1      32.446  24.507  24.235  1.00  0.00    -0.475 OA
ATOM     15  C   UNL A   1      33.754  27.494  25.935  1.00  0.00     0.058 A 
ATOM     16  C   UNL A   1      34.569  25.123  25.984  1.00  0.00     0.027 C 
ATOM     17  C   UNL A   1      32.865  23.513  25.202  1.00  0.00     0.316 C 
BRANCH   9  18
ATOM     18  C   UNL A   1      30.661  26.385  23.123  1.00  0.00     0.036 C 
ATOM     19  C   UNL A   1      29.247  26.410  23.690  1.00  0.00     0.009 C 
ENDBRANCH   9  18
BRANCH  12  20
ATOM     20  O   UNL A   1      33.197  29.754  25.787  1.00  0.00    -0.406 OA
BRANCH  20  21
ATOM     21  C   UNL A   1      32.254  30.398  26.632  1.00  0.00     0.573 C 
ATOM     22  F   UNL A   1      31.361  31.117  25.919  1.00  0.00    -0.132 F 
ATOM     23  F   UNL A   1      31.601  29.500  27.399  1.00  0.00    -0.132 F 
ATOM     24  F   UNL A   1      32.915  31.247  27.451  1.00  0.00    -0.132 F 
ENDBRANCH  20  21
ENDBRANCH  12  20
BRANCH  17  25
ATOM     25  C   UNL A   1      32.591  22.124  24.606  1.00  0.00     0.430 C 
ATOM     26  F   UNL A   1      33.695  21.616  24.009  1.00  0.00    -0.167 F 
ATOM     27  F   UNL A   1      32.280  21.251  25.602  1.00  0.00    -0.167 F 
ATOM     28  F   UNL A   1      31.572  22.108  23.728  1.00  0.00    -0.167 F 
ENDBRANCH  17  25
ENDBRANCH   6   8
ENDBRANCH   5   6
ENDBRANCH   4   5
ENDBRANCH   3   4
ENDBRANCH   2   3
ENDBRANCH   1   2
BRANCH   1  29
ATOM     29  C   UNL A   1      41.127  21.598  26.305  1.00  0.00     0.188 C 
BRANCH  29  30
ATOM     30  O   UNL A   1      42.166  21.848  25.370  1.00  0.00    -0.376 OA
BRANCH  30  31
ATOM     31  C   UNL A   1      43.195  22.769  25.707  1.00  0.00     0.202 C 
BRANCH  31  32
ATOM     32  C   UNL A   1      43.141  24.224  25.205  1.00  0.00     0.261 C 
BRANCH  32  33
ATOM     33  O   UNL A   1      42.036  25.017  25.672  1.00  0.00    -0.460 OA
BRANCH  33  34
ATOM     34  C   UNL A   1      42.216  26.361  25.619  1.00  0.00     0.338 C 
ATOM     35  O   UNL A   1      42.318  27.059  24.627  1.00  0.00    -0.246 OA
BRANCH  34  36
ATOM     36  C   UNL A   1      42.104  26.926  26.979  1.00  0.00     0.060 A 
ATOM     37  C   UNL A   1      41.139  26.402  27.852  1.00  0.00     0.016 A 
ATOM     38  C   UNL A   1      42.894  28.008  27.366  1.00  0.00     0.016 A 
ATOM     39  C   UNL A   1      40.952  26.968  29.114  1.00  0.00     0.010 A 
ATOM     40  C   UNL A   1      42.686  28.592  28.618  1.00  0.00     0.010 A 
ATOM     41  C   UNL A   1      41.697  28.091  29.488  1.00  0.00    -0.014 A 
BRANCH  41  42
ATOM     42  C   UNL A   1      41.339  28.856  30.706  1.00  0.00     0.031 A 
ATOM     43  C   UNL A   1      40.169  29.798  30.648  1.00  0.00     0.074 A 
ATOM     44  C   UNL A   1      42.049  28.731  31.842  1.00  0.00     0.049 A 
ATOM     45  N   UNL A   1      39.744  30.652  31.544  1.00  0.00    -0.248 NA
ATOM     46  C   UNL A   1      39.375  29.777  29.408  1.00  0.00     0.031 C 
ATOM     47  C   UNL A   1      43.163  27.810  32.050  1.00  0.00     0.029 A 
ATOM     48  N   UNL A   1      41.937  29.405  33.033  1.00  0.00    -0.354 N 
ATOM     49  C   UNL A   1      38.646  31.280  30.971  1.00  0.00     0.074 A 
ATOM     50  C   UNL A   1      38.482  30.725  29.645  1.00  0.00     0.031 C 
ATOM     51  C   UNL A   1      43.649  27.992  33.291  1.00  0.00     0.029 A 
ATOM     52  C   UNL A   1      42.909  29.071  33.943  1.00  0.00     0.049 A 
ATOM     53  H   UNL A   1      41.231  30.066  33.216  1.00  0.00     0.167 HD
ATOM     54  C   UNL A   1      37.846  32.236  31.500  1.00  0.00     0.031 A 
ATOM     55  C   UNL A   1      43.190  29.600  35.152  1.00  0.00     0.031 A 
ATOM     56  C   UNL A   1      38.022  32.803  32.811  1.00  0.00     0.049 A 
ATOM     57  C   UNL A   1      42.348  30.733  35.679  1.00  0.00     0.074 A 
ATOM     58  C   UNL A   1      37.257  33.769  33.441  1.00  0.00     0.029 A 
ATOM     59  N   UNL A   1      39.039  32.462  33.687  1.00  0.00    -0.354 N 
ATOM     60  N   UNL A   1      41.301  31.309  35.138  1.00  0.00    -0.248 NA
ATOM     61  C   UNL A   1      42.726  31.287  36.988  1.00  0.00     0.031 C 
ATOM     62  C   UNL A   1      37.849  34.058  34.674  1.00  0.00     0.029 A 
ATOM     63  C   UNL A   1      38.940  33.221  34.841  1.00  0.00     0.049 A 
ATOM     64  H   UNL A   1      39.729  31.780  33.516  1.00  0.00     0.167 HD
ATOM     65  C   UNL A   1      40.878  32.265  36.055  1.00  0.00     0.074 A 
ATOM     66  C   UNL A   1      41.773  32.186  37.189  1.00  0.00     0.031 C 
ATOM     67  C   UNL A   1      39.835  33.128  35.966  1.00  0.00     0.031 A 
BRANCH  54  68
ATOM     68  C   UNL A   1      36.732  32.763  30.638  1.00  0.00    -0.014 A 
ATOM     69  C   UNL A   1      36.959  33.762  29.679  1.00  0.00     0.009 A 
ATOM     70  C   UNL A   1      35.442  32.226  30.770  1.00  0.00     0.009 A 
ATOM     71  C   UNL A   1      35.906  34.237  28.892  1.00  0.00     0.001 A 
ATOM     72  C   UNL A   1      34.398  32.681  29.961  1.00  0.00     0.001 A 
ATOM     73  C   UNL A   1      34.630  33.692  29.031  1.00  0.00     0.000 A 
ENDBRANCH  54  68
BRANCH  55  74
ATOM     74  C   UNL A   1      44.343  29.090  35.940  1.00  0.00    -0.014 A 
ATOM     75  C   UNL A   1      44.141  28.239  37.037  1.00  0.00     0.009 A 
ATOM     76  C   UNL A   1      45.654  29.476  35.617  1.00  0.00     0.009 A 
ATOM     77  C   UNL A   1      45.223  27.808  37.808  1.00  0.00     0.001 A 
ATOM     78  C   UNL A   1      46.737  29.018  36.371  1.00  0.00     0.001 A 
ATOM     79  C   UNL A   1      46.519  28.193  37.471  1.00  0.00     0.000 A 
ENDBRANCH  55  74
BRANCH  67  80
ATOM     80  C   UNL A   1      39.567  34.022  37.145  1.00  0.00    -0.014 A 
ATOM     81  C   UNL A   1      38.861  33.567  38.269  1.00  0.00     0.009 A 
ATOM     82  C   UNL A   1      40.089  35.327  37.155  1.00  0.00     0.009 A 
ATOM     83  C   UNL A   1      38.660  34.410  39.366  1.00  0.00     0.001 A 
ATOM     84  C   UNL A   1      39.913  36.155  38.263  1.00  0.00     0.001 A 
ATOM     85  C   UNL A   1      39.192  35.699  39.364  1.00  0.00     0.000 A 
ENDBRANCH  67  80
ENDBRANCH  41  42
ENDBRANCH  34  36
ENDBRANCH  33  34
ENDBRANCH  32  33
ENDBRANCH  31  32
ENDBRANCH  30  31
ENDBRANCH  29  30
ENDBRANCH   1  29
TORSDOF 21
ENDMDL
