MODEL 1
REMARK VINA RESULT:     -11.8      0.000      0.000
REMARK SMILES COc1cc(C)cc2c1[C@@H](C)[C@@H](CC(=O)N[C@@H](Cc1c[nH]c3ccccc13)C(=O)OCCOCCOCCOC(=O)c1ccc(-c3c4nc(c(-c5ccccc5)c5ccc([nH]5)c(-c5ccccc5)c5nc(c(-c6ccccc6)c6ccc3[nH]6)C=C5)C=C4)cc1)C(=O)O2
REMARK SMILES IDX 34 1 33 2 32 3 31 4 30 5 28 6 29 7 17 8 16 9 14 10 15 11
REMARK SMILES IDX 13 13 12 14 3 15 4 16 9 17 5 18 8 19 10 20 6 21 7 22 92 23
REMARK SMILES IDX 11 24 90 25 91 26 2 27 1 28 18 29 19 30 20 31 27 32 21 33
REMARK SMILES IDX 22 34 26 35 23 37 25 38 24 39 35 40 36 41 37 42 38 43 39 44
REMARK SMILES IDX 40 45 41 46 42 47 43 48 89 49 44 50 88 51 45 52 46 53 47 54
REMARK SMILES IDX 82 55 48 56 87 57 81 58 83 59 49 60 86 61 80 62 79 63 50 65
REMARK SMILES IDX 72 66 57 67 71 68 58 69 61 70 70 71 84 72 59 73 60 74 69 76
REMARK SMILES IDX 85 77 62 78 51 79 52 80 56 81 53 82 55 83 54 84 73 85 74 86
REMARK SMILES IDX 78 87 75 88 77 89 76 90 63 91 64 92 68 93 65 94 67 95 66 96
REMARK H PARENT 16 12 21 36 83 64 61 75
REMARK Flexibility Score: inf
ROOT
ATOM      1  C   UNL A   1      38.440  23.466  26.051  1.00  0.00     0.188 C 
ENDROOT
BRANCH   1   2
ATOM      2  O   UNL A   1      37.190  23.724  25.413  1.00  0.00    -0.376 OA
BRANCH   2   3
ATOM      3  C   UNL A   1      36.054  23.852  26.275  1.00  0.00     0.202 C 
BRANCH   3   4
ATOM      4  C   UNL A   1      34.774  23.176  25.764  1.00  0.00     0.261 C 
BRANCH   4   5
ATOM      5  O   UNL A   1      35.033  22.313  24.638  1.00  0.00    -0.462 OA
BRANCH   5   6
ATOM      6  C   UNL A   1      34.355  22.623  23.508  1.00  0.00     0.329 C 
ATOM      7  O   UNL A   1      34.886  23.003  22.467  1.00  0.00    -0.250 OA
BRANCH   6   8
ATOM      8  C   UNL A   1      32.850  22.330  23.596  1.00  0.00     0.196 C 
BRANCH   8   9
ATOM      9  N   UNL A   1      31.822  23.056  22.847  1.00  0.00    -0.342 N 
ATOM     10  C   UNL A   1      31.055  24.073  23.384  1.00  0.00     0.221 C 
ATOM     11  O   UNL A   1      29.840  24.086  23.207  1.00  0.00    -0.275 OA
ATOM     12  H   UNL A   1      31.667  22.805  21.908  1.00  0.00     0.164 HD
BRANCH  10  13
ATOM     13  C   UNL A   1      31.756  25.266  24.032  1.00  0.00     0.116 C 
BRANCH  13  14
ATOM     14  C   UNL A   1      32.877  26.009  23.266  1.00  0.00     0.116 C 
ATOM     15  C   UNL A   1      31.492  29.368  24.393  1.00  0.00     0.126 A 
ATOM     16  C   UNL A   1      30.221  29.945  24.215  1.00  0.00     0.050 A 
ATOM     17  C   UNL A   1      31.882  28.275  23.608  1.00  0.00     0.041 A 
ATOM     18  C   UNL A   1      29.338  29.461  23.235  1.00  0.00    -0.044 A 
ATOM     19  C   UNL A   1      31.020  27.894  22.568  1.00  0.00     0.138 A 
ATOM     20  C   UNL A   1      33.159  27.460  23.773  1.00  0.00     0.038 C 
ATOM     21  C   UNL A   1      27.975  30.043  23.021  1.00  0.00     0.044 C 
ATOM     22  C   UNL A   1      29.749  28.425  22.405  1.00  0.00     0.051 A 
ATOM     23  O   UNL A   1      31.421  26.975  21.583  1.00  0.00    -0.426 OA
ATOM     24  C   UNL A   1      33.790  27.423  25.168  1.00  0.00     0.014 C 
ATOM     25  C   UNL A   1      32.554  26.218  21.814  1.00  0.00     0.315 C 
ATOM     26  O   UNL A   1      33.208  25.741  20.895  1.00  0.00    -0.251 OA
BRANCH  15  27
ATOM     27  O   UNL A   1      32.444  29.929  25.197  1.00  0.00    -0.496 OA
ATOM     28  C   UNL A   1      31.974  30.611  26.353  1.00  0.00     0.278 C 
ENDBRANCH  15  27
ENDBRANCH  13  14
ENDBRANCH  10  13
ENDBRANCH   8   9
BRANCH   8  29
ATOM     29  C   UNL A   1      32.649  20.829  23.450  1.00  0.00     0.074 C 
BRANCH  29  30
ATOM     30  C   UNL A   1      33.178  19.855  24.458  1.00  0.00    -0.020 A 
ATOM     31  C   UNL A   1      33.071  20.094  25.818  1.00  0.00     0.087 A 
ATOM     32  C   UNL A   1      33.511  18.460  24.336  1.00  0.00     0.003 A 
ATOM     33  N   UNL A   1      32.670  18.899  26.348  1.00  0.00    -0.361 N 
ATOM     34  C   UNL A   1      33.078  17.876  25.530  1.00  0.00     0.046 A 
ATOM     35  C   UNL A   1      34.005  17.594  23.338  1.00  0.00     0.010 A 
ATOM     36  H   UNL A   1      32.166  18.789  27.186  1.00  0.00     0.166 HD
ATOM     37  C   UNL A   1      33.043  16.494  25.748  1.00  0.00     0.026 A 
ATOM     38  C   UNL A   1      34.084  16.214  23.583  1.00  0.00     0.001 A 
ATOM     39  C   UNL A   1      33.586  15.672  24.762  1.00  0.00     0.002 A 
ENDBRANCH  29  30
ENDBRANCH   8  29
ENDBRANCH   6   8
ENDBRANCH   5   6
ENDBRANCH   4   5
ENDBRANCH   3   4
ENDBRANCH   2   3
ENDBRANCH   1   2
BRANCH   1  40
ATOM     40  C   UNL A   1      38.878  21.998  26.061  1.00  0.00     0.188 C 
BRANCH  40  41
ATOM     41  O   UNL A   1      38.200  21.194  25.108  1.00  0.00    -0.376 OA
BRANCH  41  42
ATOM     42  C   UNL A   1      38.479  19.796  25.061  1.00  0.00     0.202 C 
BRANCH  42  43
ATOM     43  C   UNL A   1      39.680  19.242  25.847  1.00  0.00     0.261 C 
BRANCH  43  44
ATOM     44  O   UNL A   1      40.969  19.445  25.244  1.00  0.00    -0.460 OA
BRANCH  44  45
ATOM     45  C   UNL A   1      42.065  19.384  26.035  1.00  0.00     0.338 C 
ATOM     46  O   UNL A   1      42.860  18.461  26.102  1.00  0.00    -0.246 OA
BRANCH  45  47
ATOM     47  C   UNL A   1      42.281  20.748  26.595  1.00  0.00     0.060 A 
ATOM     48  C   UNL A   1      41.982  21.043  27.931  1.00  0.00     0.016 A 
ATOM     49  C   UNL A   1      42.661  21.779  25.726  1.00  0.00     0.016 A 
ATOM     50  C   UNL A   1      42.073  22.359  28.394  1.00  0.00     0.010 A 
ATOM     51  C   UNL A   1      42.734  23.101  26.185  1.00  0.00     0.010 A 
ATOM     52  C   UNL A   1      42.456  23.397  27.528  1.00  0.00    -0.014 A 
BRANCH  52  53
ATOM     53  C   UNL A   1      42.742  24.746  28.080  1.00  0.00     0.031 A 
ATOM     54  C   UNL A   1      41.666  25.723  28.438  1.00  0.00     0.074 A 
ATOM     55  C   UNL A   1      44.027  25.064  28.321  1.00  0.00     0.049 A 
ATOM     56  N   UNL A   1      41.785  26.961  28.853  1.00  0.00    -0.248 NA
ATOM     57  C   UNL A   1      40.283  25.251  28.333  1.00  0.00     0.031 C 
ATOM     58  C   UNL A   1      45.161  24.168  28.104  1.00  0.00     0.029 A 
ATOM     59  N   UNL A   1      44.585  26.200  28.848  1.00  0.00    -0.354 N 
ATOM     60  C   UNL A   1      40.491  27.448  28.982  1.00  0.00     0.074 A 
ATOM     61  C   UNL A   1      39.610  26.338  28.693  1.00  0.00     0.031 C 
ATOM     62  C   UNL A   1      46.273  24.762  28.559  1.00  0.00     0.029 A 
ATOM     63  C   UNL A   1      45.937  26.097  29.052  1.00  0.00     0.049 A 
ATOM     64  H   UNL A   1      44.066  27.010  29.060  1.00  0.00     0.167 HD
ATOM     65  C   UNL A   1      40.089  28.712  29.271  1.00  0.00     0.031 A 
ATOM     66  C   UNL A   1      46.813  26.965  29.593  1.00  0.00     0.031 A 
ATOM     67  C   UNL A   1      40.978  29.764  29.699  1.00  0.00     0.049 A 
ATOM     68  C   UNL A   1      46.333  28.299  30.086  1.00  0.00     0.074 A 
ATOM     69  C   UNL A   1      40.666  31.071  30.037  1.00  0.00     0.029 A 
ATOM     70  N   UNL A   1      42.337  29.612  29.916  1.00  0.00    -0.354 N 
ATOM     71  N   UNL A   1      45.120  28.797  30.056  1.00  0.00    -0.248 NA
ATOM     72  C   UNL A   1      47.332  29.186  30.699  1.00  0.00     0.031 C 
ATOM     73  C   UNL A   1      41.838  31.715  30.440  1.00  0.00     0.029 A 
ATOM     74  C   UNL A   1      42.868  30.790  30.412  1.00  0.00     0.049 A 
ATOM     75  H   UNL A   1      42.849  28.789  29.744  1.00  0.00     0.167 HD
ATOM     76  C   UNL A   1      45.210  30.047  30.655  1.00  0.00     0.074 A 
ATOM     77  C   UNL A   1      46.588  30.224  31.061  1.00  0.00     0.031 C 
ATOM     78  C   UNL A   1      44.230  30.963  30.839  1.00  0.00     0.031 A 
BRANCH  65  79
ATOM     79  C   UNL A   1      38.640  29.082  29.076  1.00  0.00    -0.014 A 
ATOM     80  C   UNL A   1      38.231  29.556  27.813  1.00  0.00     0.009 A 
ATOM     81  C   UNL A   1      37.706  29.069  30.119  1.00  0.00     0.009 A 
ATOM     82  C   UNL A   1      36.929  30.012  27.602  1.00  0.00     0.001 A 
ATOM     83  C   UNL A   1      36.390  29.491  29.895  1.00  0.00     0.001 A 
ATOM     84  C   UNL A   1      36.006  29.969  28.641  1.00  0.00     0.000 A 
ENDBRANCH  65  79
BRANCH  66  85
ATOM     85  C   UNL A   1      48.225  26.541  29.757  1.00  0.00    -0.014 A 
ATOM     86  C   UNL A   1      49.165  26.764  28.738  1.00  0.00     0.009 A 
ATOM     87  C   UNL A   1      48.612  25.822  30.897  1.00  0.00     0.009 A 
ATOM     88  C   UNL A   1      50.456  26.246  28.844  1.00  0.00     0.001 A 
ATOM     89  C   UNL A   1      49.914  25.333  31.014  1.00  0.00     0.001 A 
ATOM     90  C   UNL A   1      50.830  25.534  29.982  1.00  0.00     0.000 A 
ENDBRANCH  66  85
BRANCH  78  91
ATOM     91  C   UNL A   1      44.570  32.253  31.533  1.00  0.00    -0.014 A 
ATOM     92  C   UNL A   1      44.352  32.373  32.915  1.00  0.00     0.009 A 
ATOM     93  C   UNL A   1      44.964  33.386  30.806  1.00  0.00     0.009 A 
ATOM     94  C   UNL A   1      44.508  33.604  33.554  1.00  0.00     0.001 A 
ATOM     95  C   UNL A   1      45.140  34.612  31.452  1.00  0.00     0.001 A 
ATOM     96  C   UNL A   1      44.902  34.723  32.822  1.00  0.00     0.000 A 
ENDBRANCH  78  91
ENDBRANCH  52  53
ENDBRANCH  45  47
ENDBRANCH  44  45
ENDBRANCH  43  44
ENDBRANCH  42  43
ENDBRANCH  41  42
ENDBRANCH  40  41
ENDBRANCH   1  40
TORSDOF 23
ENDMDL
MODEL 2
REMARK VINA RESULT:     -11.6      0.424      5.372
REMARK SMILES COc1cc(C)cc2c1[C@@H](C)[C@@H](CC(=O)N[C@@H](Cc1c[nH]c3ccccc13)C(=O)OCCOCCOCCOC(=O)c1ccc(-c3c4nc(c(-c5ccccc5)c5ccc([nH]5)c(-c5ccccc5)c5nc(c(-c6ccccc6)c6ccc3[nH]6)C=C5)C=C4)cc1)C(=O)O2
REMARK SMILES IDX 34 1 33 2 32 3 31 4 30 5 28 6 29 7 17 8 16 9 14 10 15 11
REMARK SMILES IDX 13 13 12 14 3 15 4 16 9 17 5 18 8 19 10 20 6 21 7 22 92 23
REMARK SMILES IDX 11 24 90 25 91 26 2 27 1 28 18 29 19 30 20 31 27 32 21 33
REMARK SMILES IDX 22 34 26 35 23 37 25 38 24 39 35 40 36 41 37 42 38 43 39 44
REMARK SMILES IDX 40 45 41 46 42 47 43 48 89 49 44 50 88 51 45 52 46 53 47 54
REMARK SMILES IDX 82 55 48 56 87 57 81 58 83 59 49 60 86 61 80 62 79 63 50 65
REMARK SMILES IDX 72 66 57 67 71 68 58 69 61 70 70 71 84 72 59 73 60 74 69 76
REMARK SMILES IDX 85 77 62 78 51 79 52 80 56 81 53 82 55 83 54 84 73 85 74 86
REMARK SMILES IDX 78 87 75 88 77 89 76 90 63 91 64 92 68 93 65 94 67 95 66 96
REMARK H PARENT 16 12 21 36 83 64 61 75
REMARK Flexibility Score: inf
ROOT
ATOM      1  C   UNL A   1      38.705  23.533  25.882  1.00  0.00     0.188 C 
ENDROOT
BRANCH   1   2
ATOM      2  O   UNL A   1      37.534  24.341  25.985  1.00  0.00    -0.376 OA
BRANCH   2   3
ATOM      3  C   UNL A   1      36.347  23.681  26.440  1.00  0.00     0.202 C 
BRANCH   3   4
ATOM      4  C   UNL A   1      35.164  23.732  25.464  1.00  0.00     0.261 C 
BRANCH   4   5
ATOM      5  O   UNL A   1      35.188  22.632  24.531  1.00  0.00    -0.462 OA
BRANCH   5   6
ATOM      6  C   UNL A   1      34.490  22.832  23.389  1.00  0.00     0.329 C 
ATOM      7  O   UNL A   1      35.003  23.100  22.305  1.00  0.00    -0.250 OA
BRANCH   6   8
ATOM      8  C   UNL A   1      32.985  22.559  23.533  1.00  0.00     0.196 C 
BRANCH   8   9
ATOM      9  N   UNL A   1      31.939  23.310  22.835  1.00  0.00    -0.342 N 
ATOM     10  C   UNL A   1      31.149  24.269  23.440  1.00  0.00     0.221 C 
ATOM     11  O   UNL A   1      29.933  24.265  23.264  1.00  0.00    -0.275 OA
ATOM     12  H   UNL A   1      31.789  23.120  21.881  1.00  0.00     0.164 HD
BRANCH  10  13
ATOM     13  C   UNL A   1      31.822  25.432  24.168  1.00  0.00     0.116 C 
BRANCH  13  14
ATOM     14  C   UNL A   1      32.987  26.193  23.491  1.00  0.00     0.116 C 
ATOM     15  C   UNL A   1      31.502  29.526  24.566  1.00  0.00     0.126 A 
ATOM     16  C   UNL A   1      30.242  30.098  24.310  1.00  0.00     0.050 A 
ATOM     17  C   UNL A   1      31.953  28.447  23.794  1.00  0.00     0.041 A 
ATOM     18  C   UNL A   1      29.431  29.621  23.265  1.00  0.00    -0.044 A 
ATOM     19  C   UNL A   1      31.168  28.075  22.693  1.00  0.00     0.138 A 
ATOM     20  C   UNL A   1      33.222  27.639  24.036  1.00  0.00     0.038 C 
ATOM     21  C   UNL A   1      28.082  30.197  22.966  1.00  0.00     0.044 C 
ATOM     22  C   UNL A   1      29.907  28.600  22.451  1.00  0.00     0.051 A 
ATOM     23  O   UNL A   1      31.642  27.173  21.726  1.00  0.00    -0.426 OA
ATOM     24  C   UNL A   1      33.756  27.586  25.471  1.00  0.00     0.014 C 
ATOM     25  C   UNL A   1      32.762  26.420  22.023  1.00  0.00     0.315 C 
ATOM     26  O   UNL A   1      33.481  25.961  21.144  1.00  0.00    -0.251 OA
BRANCH  15  27
ATOM     27  O   UNL A   1      32.393  30.082  25.441  1.00  0.00    -0.496 OA
ATOM     28  C   UNL A   1      31.839  30.796  26.540  1.00  0.00     0.278 C 
ENDBRANCH  15  27
ENDBRANCH  13  14
ENDBRANCH  10  13
ENDBRANCH   8   9
BRANCH   8  29
ATOM     29  C   UNL A   1      32.756  21.064  23.377  1.00  0.00     0.074 C 
BRANCH  29  30
ATOM     30  C   UNL A   1      33.250  20.074  24.389  1.00  0.00    -0.020 A 
ATOM     31  C   UNL A   1      33.222  20.353  25.745  1.00  0.00     0.087 A 
ATOM     32  C   UNL A   1      33.465  18.655  24.291  1.00  0.00     0.003 A 
ATOM     33  N   UNL A   1      32.750  19.207  26.324  1.00  0.00    -0.361 N 
ATOM     34  C   UNL A   1      33.040  18.135  25.518  1.00  0.00     0.046 A 
ATOM     35  C   UNL A   1      33.846  17.729  23.297  1.00  0.00     0.010 A 
ATOM     36  H   UNL A   1      32.276  19.158  27.185  1.00  0.00     0.166 HD
ATOM     37  C   UNL A   1      32.905  16.766  25.774  1.00  0.00     0.026 A 
ATOM     38  C   UNL A   1      33.826  16.353  23.576  1.00  0.00     0.001 A 
ATOM     39  C   UNL A   1      33.339  15.881  24.788  1.00  0.00     0.002 A 
ENDBRANCH  29  30
ENDBRANCH   8  29
ENDBRANCH   6   8
ENDBRANCH   5   6
ENDBRANCH   4   5
ENDBRANCH   3   4
ENDBRANCH   2   3
ENDBRANCH   1   2
BRANCH   1  40
ATOM     40  C   UNL A   1      38.475  22.027  26.049  1.00  0.00     0.188 C 
BRANCH  40  41
ATOM     41  O   UNL A   1      38.176  21.357  24.834  1.00  0.00    -0.376 OA
BRANCH  41  42
ATOM     42  C   UNL A   1      38.294  19.937  24.782  1.00  0.00     0.202 C 
BRANCH  42  43
ATOM     43  C   UNL A   1      39.378  19.240  25.622  1.00  0.00     0.261 C 
BRANCH  43  44
ATOM     44  O   UNL A   1      40.737  19.526  25.250  1.00  0.00    -0.460 OA
BRANCH  44  45
ATOM     45  C   UNL A   1      41.704  19.378  26.185  1.00  0.00     0.338 C 
ATOM     46  O   UNL A   1      42.356  18.371  26.401  1.00  0.00    -0.246 OA
BRANCH  45  47
ATOM     47  C   UNL A   1      42.021  20.738  26.709  1.00  0.00     0.060 A 
ATOM     48  C   UNL A   1      41.940  21.029  28.075  1.00  0.00     0.016 A 
ATOM     49  C   UNL A   1      42.272  21.769  25.794  1.00  0.00     0.016 A 
ATOM     50  C   UNL A   1      42.119  22.341  28.523  1.00  0.00     0.010 A 
ATOM     51  C   UNL A   1      42.432  23.087  26.240  1.00  0.00     0.010 A 
ATOM     52  C   UNL A   1      42.373  23.380  27.611  1.00  0.00    -0.014 A 
BRANCH  52  53
ATOM     53  C   UNL A   1      42.757  24.722  28.115  1.00  0.00     0.031 A 
ATOM     54  C   UNL A   1      44.181  25.158  28.264  1.00  0.00     0.074 A 
ATOM     55  C   UNL A   1      41.770  25.596  28.386  1.00  0.00     0.049 A 
ATOM     56  N   UNL A   1      44.652  26.274  28.767  1.00  0.00    -0.248 NA
ATOM     57  C   UNL A   1      45.209  24.236  27.775  1.00  0.00     0.031 C 
ATOM     58  C   UNL A   1      40.346  25.328  28.195  1.00  0.00     0.029 A 
ATOM     59  N   UNL A   1      41.818  26.894  28.825  1.00  0.00    -0.354 N 
ATOM     60  C   UNL A   1      46.035  26.157  28.732  1.00  0.00     0.074 A 
ATOM     61  C   UNL A   1      46.319  24.904  28.070  1.00  0.00     0.031 C 
ATOM     62  C   UNL A   1      39.658  26.450  28.448  1.00  0.00     0.029 A 
ATOM     63  C   UNL A   1      40.587  27.498  28.868  1.00  0.00     0.049 A 
ATOM     64  H   UNL A   1      42.653  27.348  29.084  1.00  0.00     0.167 HD
ATOM     65  C   UNL A   1      46.967  27.001  29.245  1.00  0.00     0.031 A 
ATOM     66  C   UNL A   1      40.239  28.759  29.187  1.00  0.00     0.031 A 
ATOM     67  C   UNL A   1      46.669  28.311  29.769  1.00  0.00     0.049 A 
ATOM     68  C   UNL A   1      41.297  29.749  29.577  1.00  0.00     0.074 A 
ATOM     69  C   UNL A   1      47.545  29.250  30.290  1.00  0.00     0.029 A 
ATOM     70  N   UNL A   1      45.414  28.896  29.771  1.00  0.00    -0.354 N 
ATOM     71  N   UNL A   1      42.591  29.568  29.684  1.00  0.00    -0.248 NA
ATOM     72  C   UNL A   1      40.854  31.119  29.880  1.00  0.00     0.031 C 
ATOM     73  C   UNL A   1      46.818  30.394  30.626  1.00  0.00     0.029 A 
ATOM     74  C   UNL A   1      45.499  30.189  30.256  1.00  0.00     0.049 A 
ATOM     75  H   UNL A   1      44.584  28.456  29.474  1.00  0.00     0.167 HD
ATOM     76  C   UNL A   1      43.116  30.801  30.052  1.00  0.00     0.074 A 
ATOM     77  C   UNL A   1      42.007  31.728  30.128  1.00  0.00     0.031 C 
ATOM     78  C   UNL A   1      44.405  31.122  30.311  1.00  0.00     0.031 A 
BRANCH  65  79
ATOM     79  C   UNL A   1      48.398  26.535  29.347  1.00  0.00    -0.014 A 
ATOM     80  C   UNL A   1      48.803  25.856  30.515  1.00  0.00     0.009 A 
ATOM     81  C   UNL A   1      49.364  26.834  28.379  1.00  0.00     0.009 A 
ATOM     82  C   UNL A   1      50.136  25.495  30.712  1.00  0.00     0.001 A 
ATOM     83  C   UNL A   1      50.694  26.436  28.562  1.00  0.00     0.001 A 
ATOM     84  C   UNL A   1      51.080  25.776  29.730  1.00  0.00     0.000 A 
ENDBRANCH  65  79
BRANCH  66  85
ATOM     85  C   UNL A   1      38.813  29.154  29.067  1.00  0.00    -0.014 A 
ATOM     86  C   UNL A   1      37.932  29.002  30.148  1.00  0.00     0.009 A 
ATOM     87  C   UNL A   1      38.311  29.594  27.834  1.00  0.00     0.009 A 
ATOM     88  C   UNL A   1      36.569  29.251  29.988  1.00  0.00     0.001 A 
ATOM     89  C   UNL A   1      36.952  29.873  27.685  1.00  0.00     0.001 A 
ATOM     90  C   UNL A   1      36.081  29.689  28.758  1.00  0.00     0.000 A 
ENDBRANCH  66  85
BRANCH  78  91
ATOM     91  C   UNL A   1      44.735  32.540  30.682  1.00  0.00    -0.014 A 
ATOM     92  C   UNL A   1      45.098  33.452  29.676  1.00  0.00     0.009 A 
ATOM     93  C   UNL A   1      44.829  32.936  32.024  1.00  0.00     0.009 A 
ATOM     94  C   UNL A   1      45.561  34.727  30.007  1.00  0.00     0.001 A 
ATOM     95  C   UNL A   1      45.272  34.221  32.351  1.00  0.00     0.001 A 
ATOM     96  C   UNL A   1      45.648  35.110  31.344  1.00  0.00     0.000 A 
ENDBRANCH  78  91
ENDBRANCH  52  53
ENDBRANCH  45  47
ENDBRANCH  44  45
ENDBRANCH  43  44
ENDBRANCH  42  43
ENDBRANCH  41  42
ENDBRANCH  40  41
ENDBRANCH   1  40
TORSDOF 23
ENDMDL
MODEL 3
REMARK VINA RESULT:     -10.6      3.822      7.212
REMARK SMILES COc1cc(C)cc2c1[C@@H](C)[C@@H](CC(=O)N[C@@H](Cc1c[nH]c3ccccc13)C(=O)OCCOCCOCCOC(=O)c1ccc(-c3c4nc(c(-c5ccccc5)c5ccc([nH]5)c(-c5ccccc5)c5nc(c(-c6ccccc6)c6ccc3[nH]6)C=C5)C=C4)cc1)C(=O)O2
REMARK SMILES IDX 34 1 33 2 32 3 31 4 30 5 28 6 29 7 17 8 16 9 14 10 15 11
REMARK SMILES IDX 13 13 12 14 3 15 4 16 9 17 5 18 8 19 10 20 6 21 7 22 92 23
REMARK SMILES IDX 11 24 90 25 91 26 2 27 1 28 18 29 19 30 20 31 27 32 21 33
REMARK SMILES IDX 22 34 26 35 23 37 25 38 24 39 35 40 36 41 37 42 38 43 39 44
REMARK SMILES IDX 40 45 41 46 42 47 43 48 89 49 44 50 88 51 45 52 46 53 47 54
REMARK SMILES IDX 82 55 48 56 87 57 81 58 83 59 49 60 86 61 80 62 79 63 50 65
REMARK SMILES IDX 72 66 57 67 71 68 58 69 61 70 70 71 84 72 59 73 60 74 69 76
REMARK SMILES IDX 85 77 62 78 51 79 52 80 56 81 53 82 55 83 54 84 73 85 74 86
REMARK SMILES IDX 78 87 75 88 77 89 76 90 63 91 64 92 68 93 65 94 67 95 66 96
REMARK H PARENT 16 12 21 36 83 64 61 75
REMARK Flexibility Score: inf
ROOT
ATOM      1  C   UNL A   1      37.719  22.656  26.031  1.00  0.00     0.188 C 
ENDROOT
BRANCH   1   2
ATOM      2  O   UNL A   1      37.392  23.568  24.983  1.00  0.00    -0.376 OA
BRANCH   2   3
ATOM      3  C   UNL A   1      37.046  22.985  23.722  1.00  0.00     0.202 C 
BRANCH   3   4
ATOM      4  C   UNL A   1      35.550  23.023  23.380  1.00  0.00     0.261 C 
BRANCH   4   5
ATOM      5  O   UNL A   1      34.821  21.965  24.035  1.00  0.00    -0.462 OA
BRANCH   5   6
ATOM      6  C   UNL A   1      33.910  22.375  24.948  1.00  0.00     0.329 C 
ATOM      7  O   UNL A   1      34.198  22.913  26.015  1.00  0.00    -0.250 OA
BRANCH   6   8
ATOM      8  C   UNL A   1      32.457  22.232  24.474  1.00  0.00     0.196 C 
BRANCH   8   9
ATOM      9  N   UNL A   1      31.847  23.047  23.421  1.00  0.00    -0.342 N 
ATOM     10  C   UNL A   1      31.168  24.226  23.659  1.00  0.00     0.221 C 
ATOM     11  O   UNL A   1      30.081  24.429  23.124  1.00  0.00    -0.275 OA
ATOM     12  H   UNL A   1      31.925  22.737  22.490  1.00  0.00     0.164 HD
BRANCH  10  13
ATOM     13  C   UNL A   1      31.866  25.340  24.439  1.00  0.00     0.116 C 
BRANCH  13  14
ATOM     14  C   UNL A   1      33.125  26.020  23.847  1.00  0.00     0.116 C 
ATOM     15  C   UNL A   1      31.745  29.453  24.726  1.00  0.00     0.126 A 
ATOM     16  C   UNL A   1      30.544  30.086  24.353  1.00  0.00     0.050 A 
ATOM     17  C   UNL A   1      32.197  28.333  24.017  1.00  0.00     0.041 A 
ATOM     18  C   UNL A   1      29.798  29.628  23.253  1.00  0.00    -0.044 A 
ATOM     19  C   UNL A   1      31.487  27.977  22.861  1.00  0.00     0.138 A 
ATOM     20  C   UNL A   1      33.394  27.463  24.381  1.00  0.00     0.038 C 
ATOM     21  C   UNL A   1      28.513  30.269  22.830  1.00  0.00     0.044 C 
ATOM     22  C   UNL A   1      30.282  28.564  22.502  1.00  0.00     0.051 A 
ATOM     23  O   UNL A   1      31.988  27.027  21.955  1.00  0.00    -0.426 OA
ATOM     24  C   UNL A   1      33.803  27.417  25.857  1.00  0.00     0.014 C 
ATOM     25  C   UNL A   1      33.036  26.223  22.361  1.00  0.00     0.315 C 
ATOM     26  O   UNL A   1      33.799  25.703  21.556  1.00  0.00    -0.251 OA
BRANCH  15  27
ATOM     27  O   UNL A   1      32.589  29.982  25.662  1.00  0.00    -0.496 OA
ATOM     28  C   UNL A   1      31.989  30.771  26.682  1.00  0.00     0.278 C 
ENDBRANCH  15  27
ENDBRANCH  13  14
ENDBRANCH  10  13
ENDBRANCH   8   9
BRANCH   8  29
ATOM     29  C   UNL A   1      32.181  20.756  24.226  1.00  0.00     0.074 C 
BRANCH  29  30
ATOM     30  C   UNL A   1      32.905  19.677  24.973  1.00  0.00    -0.020 A 
ATOM     31  C   UNL A   1      32.961  19.669  26.357  1.00  0.00     0.087 A 
ATOM     32  C   UNL A   1      33.316  18.361  24.562  1.00  0.00     0.003 A 
ATOM     33  N   UNL A   1      32.717  18.368  26.704  1.00  0.00    -0.361 N 
ATOM     34  C   UNL A   1      33.085  17.543  25.673  1.00  0.00     0.046 A 
ATOM     35  C   UNL A   1      33.735  17.727  23.373  1.00  0.00     0.010 A 
ATOM     36  H   UNL A   1      32.336  18.071  27.561  1.00  0.00     0.166 HD
ATOM     37  C   UNL A   1      33.176  16.147  25.638  1.00  0.00     0.026 A 
ATOM     38  C   UNL A   1      33.942  16.339  23.353  1.00  0.00     0.001 A 
ATOM     39  C   UNL A   1      33.642  15.560  24.463  1.00  0.00     0.002 A 
ENDBRANCH  29  30
ENDBRANCH   8  29
ENDBRANCH   6   8
ENDBRANCH   5   6
ENDBRANCH   4   5
ENDBRANCH   3   4
ENDBRANCH   2   3
ENDBRANCH   1   2
BRANCH   1  40
ATOM     40  C   UNL A   1      39.209  22.558  26.370  1.00  0.00     0.188 C 
BRANCH  40  41
ATOM     41  O   UNL A   1      39.686  21.225  26.471  1.00  0.00    -0.376 OA
BRANCH  41  42
ATOM     42  C   UNL A   1      41.013  20.932  26.039  1.00  0.00     0.202 C 
BRANCH  42  43
ATOM     43  C   UNL A   1      42.185  21.146  27.012  1.00  0.00     0.261 C 
BRANCH  43  44
ATOM     44  O   UNL A   1      42.823  22.433  26.949  1.00  0.00    -0.460 OA
BRANCH  44  45
ATOM     45  C   UNL A   1      42.554  23.331  27.925  1.00  0.00     0.338 C 
ATOM     46  O   UNL A   1      41.847  23.150  28.902  1.00  0.00    -0.246 OA
BRANCH  45  47
ATOM     47  C   UNL A   1      43.492  24.474  27.742  1.00  0.00     0.060 A 
ATOM     48  C   UNL A   1      44.097  25.103  28.836  1.00  0.00     0.016 A 
ATOM     49  C   UNL A   1      43.659  25.008  26.457  1.00  0.00     0.016 A 
ATOM     50  C   UNL A   1      44.870  26.251  28.645  1.00  0.00     0.010 A 
ATOM     51  C   UNL A   1      44.419  26.170  26.267  1.00  0.00     0.010 A 
ATOM     52  C   UNL A   1      45.044  26.791  27.359  1.00  0.00    -0.014 A 
BRANCH  52  53
ATOM     53  C   UNL A   1      46.025  27.884  27.147  1.00  0.00     0.031 A 
ATOM     54  C   UNL A   1      47.462  27.634  26.810  1.00  0.00     0.074 A 
ATOM     55  C   UNL A   1      45.573  29.151  27.202  1.00  0.00     0.049 A 
ATOM     56  N   UNL A   1      48.439  28.499  26.679  1.00  0.00    -0.248 NA
ATOM     57  C   UNL A   1      47.853  26.242  26.576  1.00  0.00     0.031 C 
ATOM     58  C   UNL A   1      44.179  29.528  27.429  1.00  0.00     0.029 A 
ATOM     59  N   UNL A   1      46.224  30.343  27.018  1.00  0.00    -0.354 N 
ATOM     60  C   UNL A   1      49.581  27.752  26.426  1.00  0.00     0.074 A 
ATOM     61  C   UNL A   1      49.151  26.375  26.329  1.00  0.00     0.031 C 
ATOM     62  C   UNL A   1      44.066  30.857  27.303  1.00  0.00     0.029 A 
ATOM     63  C   UNL A   1      45.385  31.428  27.037  1.00  0.00     0.049 A 
ATOM     64  H   UNL A   1      47.198  30.414  26.886  1.00  0.00     0.167 HD
ATOM     65  C   UNL A   1      50.866  28.180  26.330  1.00  0.00     0.031 A 
ATOM     66  C   UNL A   1      45.638  32.737  26.841  1.00  0.00     0.031 A 
ATOM     67  C   UNL A   1      51.253  29.569  26.284  1.00  0.00     0.049 A 
ATOM     68  C   UNL A   1      47.038  33.191  26.550  1.00  0.00     0.074 A 
ATOM     69  C   UNL A   1      52.526  30.104  26.165  1.00  0.00     0.029 A 
ATOM     70  N   UNL A   1      50.372  30.636  26.281  1.00  0.00    -0.354 N 
ATOM     71  N   UNL A   1      48.132  32.475  26.468  1.00  0.00    -0.248 NA
ATOM     72  C   UNL A   1      47.240  34.628  26.311  1.00  0.00     0.031 C 
ATOM     73  C   UNL A   1      52.416  31.495  26.110  1.00  0.00     0.029 A 
ATOM     74  C   UNL A   1      51.071  31.821  26.131  1.00  0.00     0.049 A 
ATOM     75  H   UNL A   1      49.394  30.563  26.371  1.00  0.00     0.167 HD
ATOM     76  C   UNL A   1      49.148  33.370  26.156  1.00  0.00     0.074 A 
ATOM     77  C   UNL A   1      48.538  34.678  26.040  1.00  0.00     0.031 C 
ATOM     78  C   UNL A   1      50.468  33.120  25.992  1.00  0.00     0.031 A 
BRANCH  65  79
ATOM     79  C   UNL A   1      51.979  27.162  26.340  1.00  0.00    -0.014 A 
ATOM     80  C   UNL A   1      52.617  26.874  27.565  1.00  0.00     0.009 A 
ATOM     81  C   UNL A   1      52.472  26.564  25.174  1.00  0.00     0.009 A 
ATOM     82  C   UNL A   1      53.720  26.022  27.619  1.00  0.00     0.001 A 
ATOM     83  C   UNL A   1      53.555  25.679  25.237  1.00  0.00     0.001 A 
ATOM     84  C   UNL A   1      54.183  25.417  26.455  1.00  0.00     0.000 A 
ENDBRANCH  65  79
BRANCH  66  85
ATOM     85  C   UNL A   1      44.498  33.687  26.845  1.00  0.00    -0.014 A 
ATOM     86  C   UNL A   1      43.921  34.121  25.642  1.00  0.00     0.009 A 
ATOM     87  C   UNL A   1      44.051  34.238  28.055  1.00  0.00     0.009 A 
ATOM     88  C   UNL A   1      42.939  35.113  25.648  1.00  0.00     0.001 A 
ATOM     89  C   UNL A   1      43.047  35.207  28.059  1.00  0.00     0.001 A 
ATOM     90  C   UNL A   1      42.501  35.652  26.856  1.00  0.00     0.000 A 
ENDBRANCH  66  85
BRANCH  78  91
ATOM     91  C   UNL A   1      51.380  34.262  25.640  1.00  0.00    -0.014 A 
ATOM     92  C   UNL A   1      51.863  35.101  26.658  1.00  0.00     0.009 A 
ATOM     93  C   UNL A   1      51.644  34.594  24.304  1.00  0.00     0.009 A 
ATOM     94  C   UNL A   1      52.578  36.258  26.346  1.00  0.00     0.001 A 
ATOM     95  C   UNL A   1      52.380  35.742  23.995  1.00  0.00     0.001 A 
ATOM     96  C   UNL A   1      52.837  36.577  25.014  1.00  0.00     0.000 A 
ENDBRANCH  78  91
ENDBRANCH  52  53
ENDBRANCH  45  47
ENDBRANCH  44  45
ENDBRANCH  43  44
ENDBRANCH  42  43
ENDBRANCH  41  42
ENDBRANCH  40  41
ENDBRANCH   1  40
TORSDOF 23
ENDMDL
