MODEL 1
REMARK VINA RESULT:     -10.9      0.000      0.000
REMARK SMILES CCCSc1nc2n(n1)[C@@H](c1ccccc1C(=O)OCCOCCOCCOC(=O)c1ccc(-c3c4nc(c(-c5ccccc5)c5ccc([nH]5)c(-c5ccccc5)c5nc(c(-c6ccccc6)c6ccc3[nH]6)C=C5)C=C4)cc1)C(C(=O)Nc1cccc(C)c1C)=C(C)N2
REMARK SMILES IDX 23 1 22 2 21 3 20 4 19 5 17 6 18 7 16 8 11 9 12 10 13 11
REMARK SMILES IDX 15 12 14 13 10 14 5 15 6 16 9 17 7 18 8 19 93 20 91 21 79 23
REMARK SMILES IDX 92 24 4 25 3 26 2 27 1 28 80 29 81 30 82 31 83 33 84 34
REMARK SMILES IDX 89 35 85 36 87 37 90 38 86 39 88 40 24 41 25 42 26 43 27 44
REMARK SMILES IDX 28 45 29 46 30 47 31 48 32 49 78 50 33 51 77 52 34 53 35 54
REMARK SMILES IDX 36 55 71 56 37 57 76 58 70 59 72 60 38 61 75 62 69 63 68 64
REMARK SMILES IDX 39 66 61 67 46 68 60 69 47 70 50 71 59 72 73 73 48 74 49 75
REMARK SMILES IDX 58 77 74 78 51 79 40 80 41 81 45 82 42 83 44 84 43 85 62 86
REMARK SMILES IDX 63 87 67 88 64 89 66 90 65 91 52 92 53 93 57 94 54 95 56 96
REMARK SMILES IDX 55 97
REMARK H PARENT 93 22 82 32 72 65 50 76
REMARK Flexibility Score: inf
ROOT
ATOM      1  C   UNL A   1      34.140  31.360  27.990  1.00  0.00     0.188 C 
ENDROOT
BRANCH   1   2
ATOM      2  O   UNL A   1      34.021  30.446  26.914  1.00  0.00    -0.376 OA
BRANCH   2   3
ATOM      3  C   UNL A   1      34.462  29.130  27.216  1.00  0.00     0.202 C 
BRANCH   3   4
ATOM      4  C   UNL A   1      33.680  27.964  26.591  1.00  0.00     0.261 C 
BRANCH   4   5
ATOM      5  O   UNL A   1      34.432  26.885  26.001  1.00  0.00    -0.460 OA
BRANCH   5   6
ATOM      6  C   UNL A   1      33.938  25.636  26.138  1.00  0.00     0.338 C 
ATOM      7  O   UNL A   1      32.854  25.379  26.645  1.00  0.00    -0.246 OA
BRANCH   6   8
ATOM      8  C   UNL A   1      34.822  24.615  25.473  1.00  0.00     0.065 A 
ATOM      9  C   UNL A   1      34.437  23.654  24.492  1.00  0.00    -0.004 A 
ATOM     10  C   UNL A   1      35.463  22.804  24.000  1.00  0.00     0.007 A 
ATOM     11  C   UNL A   1      36.782  22.876  24.451  1.00  0.00     0.000 A 
ATOM     12  C   UNL A   1      36.169  24.690  25.894  1.00  0.00     0.016 A 
ATOM     13  C   UNL A   1      37.139  23.824  25.394  1.00  0.00     0.001 A 
BRANCH   9  14
ATOM     14  C   UNL A   1      33.017  23.579  23.870  1.00  0.00     0.180 C 
ATOM     15  C   UNL A   1      32.260  20.119  23.687  1.00  0.00     0.210 A 
ATOM     16  N   UNL A   1      32.076  20.424  22.375  1.00  0.00    -0.185 NA
ATOM     17  N   UNL A   1      32.508  21.163  24.495  1.00  0.00    -0.141 NA
ATOM     18  C   UNL A   1      32.364  21.691  22.327  1.00  0.00     0.227 A 
ATOM     19  N   UNL A   1      32.586  22.177  23.592  1.00  0.00    -0.218 N 
ATOM     20  N   UNL A   1      32.532  22.475  21.257  1.00  0.00    -0.328 N 
ATOM     21  C   UNL A   1      32.835  23.815  21.347  1.00  0.00     0.026 C 
ATOM     22  H   UNL A   1      32.434  22.075  20.363  1.00  0.00     0.169 HD
ATOM     23  C   UNL A   1      32.948  24.393  22.564  1.00  0.00     0.065 C 
ATOM     24  C   UNL A   1      33.031  24.517  20.029  1.00  0.00     0.065 C 
BRANCH  15  25
ATOM     25  S   UNL A   1      32.261  18.459  24.200  1.00  0.00    -0.084 SA
BRANCH  25  26
ATOM     26  C   UNL A   1      34.056  18.115  24.303  1.00  0.00     0.078 C 
BRANCH  26  27
ATOM     27  C   UNL A   1      34.535  16.677  24.044  1.00  0.00     0.008 C 
ATOM     28  C   UNL A   1      35.211  15.995  25.230  1.00  0.00     0.005 C 
ENDBRANCH  26  27
ENDBRANCH  25  26
ENDBRANCH  15  25
BRANCH  23  29
ATOM     29  C   UNL A   1      33.117  25.852  22.646  1.00  0.00     0.255 C 
ATOM     30  O   UNL A   1      33.927  26.428  21.928  1.00  0.00    -0.269 OA
ATOM     31  N   UNL A   1      32.368  26.558  23.564  1.00  0.00    -0.322 N 
ATOM     32  H   UNL A   1      32.798  26.974  24.347  1.00  0.00     0.170 HD
BRANCH  31  33
ATOM     33  C   UNL A   1      30.974  26.674  23.365  1.00  0.00     0.044 A 
ATOM     34  C   UNL A   1      30.216  25.631  23.916  1.00  0.00     0.026 A 
ATOM     35  C   UNL A   1      30.362  27.825  22.845  1.00  0.00    -0.025 A 
ATOM     36  C   UNL A   1      28.856  25.795  24.115  1.00  0.00     0.002 A 
ATOM     37  C   UNL A   1      28.992  28.019  23.124  1.00  0.00    -0.046 A 
ATOM     38  C   UNL A   1      31.130  28.813  22.008  1.00  0.00     0.047 C 
ATOM     39  C   UNL A   1      28.259  27.002  23.767  1.00  0.00     0.004 A 
ATOM     40  C   UNL A   1      28.292  29.332  22.896  1.00  0.00     0.044 C 
ENDBRANCH  31  33
ENDBRANCH  23  29
ENDBRANCH   9  14
ENDBRANCH   6   8
ENDBRANCH   5   6
ENDBRANCH   4   5
ENDBRANCH   3   4
ENDBRANCH   2   3
ENDBRANCH   1   2
BRANCH   1  41
ATOM     41  C   UNL A   1      35.125  32.520  27.737  1.00  0.00     0.188 C 
BRANCH  41  42
ATOM     42  O   UNL A   1      34.719  33.885  27.787  1.00  0.00    -0.376 OA
BRANCH  42  43
ATOM     43  C   UNL A   1      33.393  34.273  28.129  1.00  0.00     0.202 C 
BRANCH  43  44
ATOM     44  C   UNL A   1      33.148  35.326  29.208  1.00  0.00     0.261 C 
BRANCH  44  45
ATOM     45  O   UNL A   1      34.142  35.317  30.218  1.00  0.00    -0.460 OA
BRANCH  45  46
ATOM     46  C   UNL A   1      33.674  35.005  31.442  1.00  0.00     0.338 C 
ATOM     47  O   UNL A   1      32.603  35.320  31.931  1.00  0.00    -0.246 OA
BRANCH  46  48
ATOM     48  C   UNL A   1      34.664  34.168  32.129  1.00  0.00     0.060 A 
ATOM     49  C   UNL A   1      35.847  34.798  32.520  1.00  0.00     0.016 A 
ATOM     50  C   UNL A   1      34.490  32.779  32.238  1.00  0.00     0.016 A 
ATOM     51  C   UNL A   1      36.949  34.015  32.756  1.00  0.00     0.010 A 
ATOM     52  C   UNL A   1      35.592  31.994  32.479  1.00  0.00     0.010 A 
ATOM     53  C   UNL A   1      36.822  32.631  32.604  1.00  0.00    -0.014 A 
BRANCH  53  54
ATOM     54  C   UNL A   1      38.047  31.892  32.405  1.00  0.00     0.031 A 
ATOM     55  C   UNL A   1      38.862  31.701  33.606  1.00  0.00     0.074 A 
ATOM     56  C   UNL A   1      38.383  31.434  31.184  1.00  0.00     0.049 A 
ATOM     57  N   UNL A   1      39.995  32.253  33.880  1.00  0.00    -0.248 NA
ATOM     58  C   UNL A   1      38.293  30.883  34.684  1.00  0.00     0.031 C 
ATOM     59  C   UNL A   1      37.503  31.330  30.012  1.00  0.00     0.029 A 
ATOM     60  N   UNL A   1      39.548  30.871  30.757  1.00  0.00    -0.354 N 
ATOM     61  C   UNL A   1      40.392  31.677  35.077  1.00  0.00     0.074 A 
ATOM     62  C   UNL A   1      39.238  31.000  35.615  1.00  0.00     0.031 C 
ATOM     63  C   UNL A   1      38.092  30.539  29.089  1.00  0.00     0.029 A 
ATOM     64  C   UNL A   1      39.434  30.215  29.542  1.00  0.00     0.049 A 
ATOM     65  H   UNL A   1      40.390  30.925  31.264  1.00  0.00     0.167 HD
ATOM     66  C   UNL A   1      41.710  31.514  35.359  1.00  0.00     0.031 A 
ATOM     67  C   UNL A   1      40.356  29.412  28.966  1.00  0.00     0.031 A 
ATOM     68  C   UNL A   1      42.556  32.313  34.512  1.00  0.00     0.049 A 
ATOM     69  C   UNL A   1      41.682  29.726  29.538  1.00  0.00     0.074 A 
ATOM     70  C   UNL A   1      42.940  33.631  34.426  1.00  0.00     0.029 A 
ATOM     71  N   UNL A   1      42.901  31.708  33.333  1.00  0.00    -0.354 N 
ATOM     72  N   UNL A   1      42.308  30.849  29.331  1.00  0.00    -0.248 NA
ATOM     73  C   UNL A   1      42.221  28.903  30.616  1.00  0.00     0.031 C 
ATOM     74  C   UNL A   1      43.394  33.831  33.088  1.00  0.00     0.029 A 
ATOM     75  C   UNL A   1      43.277  32.631  32.392  1.00  0.00     0.049 A 
ATOM     76  H   UNL A   1      42.882  30.735  33.180  1.00  0.00     0.167 HD
ATOM     77  C   UNL A   1      43.027  31.062  30.492  1.00  0.00     0.074 A 
ATOM     78  C   UNL A   1      43.084  29.768  31.155  1.00  0.00     0.031 C 
ATOM     79  C   UNL A   1      43.223  32.320  30.978  1.00  0.00     0.031 A 
BRANCH  66  80
ATOM     80  C   UNL A   1      42.245  30.265  36.018  1.00  0.00    -0.014 A 
ATOM     81  C   UNL A   1      43.487  30.335  36.670  1.00  0.00     0.009 A 
ATOM     82  C   UNL A   1      41.736  28.975  35.762  1.00  0.00     0.009 A 
ATOM     83  C   UNL A   1      44.200  29.178  37.002  1.00  0.00     0.001 A 
ATOM     84  C   UNL A   1      42.425  27.818  36.128  1.00  0.00     0.001 A 
ATOM     85  C   UNL A   1      43.670  27.920  36.728  1.00  0.00     0.000 A 
ENDBRANCH  66  80
BRANCH  67  86
ATOM     86  C   UNL A   1      40.122  28.239  28.102  1.00  0.00    -0.014 A 
ATOM     87  C   UNL A   1      40.849  28.068  26.917  1.00  0.00     0.009 A 
ATOM     88  C   UNL A   1      39.363  27.152  28.574  1.00  0.00     0.009 A 
ATOM     89  C   UNL A   1      40.853  26.836  26.251  1.00  0.00     0.001 A 
ATOM     90  C   UNL A   1      39.359  25.925  27.906  1.00  0.00     0.001 A 
ATOM     91  C   UNL A   1      40.120  25.762  26.754  1.00  0.00     0.000 A 
ENDBRANCH  67  86
BRANCH  79  92
ATOM     92  C   UNL A   1      43.152  33.459  30.003  1.00  0.00    -0.014 A 
ATOM     93  C   UNL A   1      41.969  34.164  29.727  1.00  0.00     0.009 A 
ATOM     94  C   UNL A   1      44.341  33.875  29.386  1.00  0.00     0.009 A 
ATOM     95  C   UNL A   1      41.976  35.238  28.832  1.00  0.00     0.001 A 
ATOM     96  C   UNL A   1      44.351  34.960  28.509  1.00  0.00     0.001 A 
ATOM     97  C   UNL A   1      43.166  35.637  28.227  1.00  0.00     0.000 A 
ENDBRANCH  79  92
ENDBRANCH  53  54
ENDBRANCH  46  48
ENDBRANCH  45  46
ENDBRANCH  44  45
ENDBRANCH  43  44
ENDBRANCH  42  43
ENDBRANCH  41  42
ENDBRANCH   1  41
TORSDOF 23
ENDMDL
MODEL 2
REMARK VINA RESULT:      -9.8      2.858      7.455
REMARK SMILES CCCSc1nc2n(n1)[C@@H](c1ccccc1C(=O)OCCOCCOCCOC(=O)c1ccc(-c3c4nc(c(-c5ccccc5)c5ccc([nH]5)c(-c5ccccc5)c5nc(c(-c6ccccc6)c6ccc3[nH]6)C=C5)C=C4)cc1)C(C(=O)Nc1cccc(C)c1C)=C(C)N2
REMARK SMILES IDX 23 1 22 2 21 3 20 4 19 5 17 6 18 7 16 8 11 9 12 10 13 11
REMARK SMILES IDX 15 12 14 13 10 14 5 15 6 16 9 17 7 18 8 19 93 20 91 21 79 23
REMARK SMILES IDX 92 24 4 25 3 26 2 27 1 28 80 29 81 30 82 31 83 33 84 34
REMARK SMILES IDX 89 35 85 36 87 37 90 38 86 39 88 40 24 41 25 42 26 43 27 44
REMARK SMILES IDX 28 45 29 46 30 47 31 48 32 49 78 50 33 51 77 52 34 53 35 54
REMARK SMILES IDX 36 55 71 56 37 57 76 58 70 59 72 60 38 61 75 62 69 63 68 64
REMARK SMILES IDX 39 66 61 67 46 68 60 69 47 70 50 71 59 72 73 73 48 74 49 75
REMARK SMILES IDX 58 77 74 78 51 79 40 80 41 81 45 82 42 83 44 84 43 85 62 86
REMARK SMILES IDX 63 87 67 88 64 89 66 90 65 91 52 92 53 93 57 94 54 95 56 96
REMARK SMILES IDX 55 97
REMARK H PARENT 93 22 82 32 72 65 50 76
REMARK Flexibility Score: inf
ROOT
ATOM      1  C   UNL A   1      37.736  20.669  24.925  1.00  0.00     0.188 C 
ENDROOT
BRANCH   1   2
ATOM      2  O   UNL A   1      37.270  21.548  25.933  1.00  0.00    -0.376 OA
BRANCH   2   3
ATOM      3  C   UNL A   1      35.874  21.810  25.878  1.00  0.00     0.202 C 
BRANCH   3   4
ATOM      4  C   UNL A   1      35.414  23.002  25.025  1.00  0.00     0.261 C 
BRANCH   4   5
ATOM      5  O   UNL A   1      34.266  23.751  25.474  1.00  0.00    -0.460 OA
BRANCH   5   6
ATOM      6  C   UNL A   1      33.977  24.896  24.819  1.00  0.00     0.338 C 
ATOM      7  O   UNL A   1      34.516  25.246  23.777  1.00  0.00    -0.246 OA
BRANCH   6   8
ATOM      8  C   UNL A   1      32.821  25.620  25.456  1.00  0.00     0.065 A 
ATOM      9  C   UNL A   1      31.503  25.765  24.929  1.00  0.00    -0.004 A 
ATOM     10  C   UNL A   1      30.576  26.484  25.729  1.00  0.00     0.007 A 
ATOM     11  C   UNL A   1      30.919  27.043  26.961  1.00  0.00     0.000 A 
ATOM     12  C   UNL A   1      33.138  26.168  26.719  1.00  0.00     0.016 A 
ATOM     13  C   UNL A   1      32.199  26.879  27.462  1.00  0.00     0.001 A 
BRANCH   9  14
ATOM     14  C   UNL A   1      31.021  25.090  23.617  1.00  0.00     0.180 C 
ATOM     15  C   UNL A   1      32.096  21.719  23.855  1.00  0.00     0.210 A 
ATOM     16  N   UNL A   1      32.694  22.026  22.673  1.00  0.00    -0.185 NA
ATOM     17  N   UNL A   1      31.300  22.672  24.367  1.00  0.00    -0.141 NA
ATOM     18  C   UNL A   1      32.381  23.277  22.506  1.00  0.00     0.227 A 
ATOM     19  N   UNL A   1      31.508  23.685  23.483  1.00  0.00    -0.218 N 
ATOM     20  N   UNL A   1      32.850  24.147  21.605  1.00  0.00    -0.328 N 
ATOM     21  C   UNL A   1      32.429  25.456  21.533  1.00  0.00     0.026 C 
ATOM     22  H   UNL A   1      33.529  23.837  20.963  1.00  0.00     0.169 HD
ATOM     23  C   UNL A   1      31.477  25.897  22.387  1.00  0.00     0.065 C 
ATOM     24  C   UNL A   1      33.110  26.291  20.481  1.00  0.00     0.065 C 
BRANCH  15  25
ATOM     25  S   UNL A   1      32.459  20.215  24.645  1.00  0.00    -0.084 SA
BRANCH  25  26
ATOM     26  C   UNL A   1      32.427  19.050  23.233  1.00  0.00     0.078 C 
BRANCH  26  27
ATOM     27  C   UNL A   1      32.836  17.590  23.488  1.00  0.00     0.008 C 
ATOM     28  C   UNL A   1      34.313  17.375  23.807  1.00  0.00     0.005 C 
ENDBRANCH  26  27
ENDBRANCH  25  26
ENDBRANCH  15  25
BRANCH  23  29
ATOM     29  C   UNL A   1      30.925  27.248  22.200  1.00  0.00     0.255 C 
ATOM     30  O   UNL A   1      29.742  27.405  21.918  1.00  0.00    -0.269 OA
ATOM     31  N   UNL A   1      31.767  28.334  22.320  1.00  0.00    -0.322 N 
ATOM     32  H   UNL A   1      32.004  28.873  21.530  1.00  0.00     0.170 HD
BRANCH  31  33
ATOM     33  C   UNL A   1      32.284  28.660  23.594  1.00  0.00     0.044 A 
ATOM     34  C   UNL A   1      33.624  28.296  23.792  1.00  0.00     0.026 A 
ATOM     35  C   UNL A   1      31.601  29.462  24.521  1.00  0.00    -0.025 A 
ATOM     36  C   UNL A   1      34.349  28.867  24.824  1.00  0.00     0.002 A 
ATOM     37  C   UNL A   1      32.366  30.101  25.520  1.00  0.00    -0.046 A 
ATOM     38  C   UNL A   1      30.105  29.625  24.467  1.00  0.00     0.047 C 
ATOM     39  C   UNL A   1      33.736  29.801  25.650  1.00  0.00     0.004 A 
ATOM     40  C   UNL A   1      31.820  31.211  26.378  1.00  0.00     0.044 C 
ENDBRANCH  31  33
ENDBRANCH  23  29
ENDBRANCH   9  14
ENDBRANCH   6   8
ENDBRANCH   5   6
ENDBRANCH   4   5
ENDBRANCH   3   4
ENDBRANCH   2   3
ENDBRANCH   1   2
BRANCH   1  41
ATOM     41  C   UNL A   1      38.723  19.593  25.423  1.00  0.00     0.188 C 
BRANCH  41  42
ATOM     42  O   UNL A   1      40.121  19.843  25.542  1.00  0.00    -0.376 OA
BRANCH  42  43
ATOM     43  C   UNL A   1      40.718  20.265  26.763  1.00  0.00     0.202 C 
BRANCH  43  44
ATOM     44  C   UNL A   1      40.448  21.665  27.313  1.00  0.00     0.261 C 
BRANCH  44  45
ATOM     45  O   UNL A   1      40.523  22.669  26.316  1.00  0.00    -0.460 OA
BRANCH  45  46
ATOM     46  C   UNL A   1      41.536  23.539  26.495  1.00  0.00     0.338 C 
ATOM     47  O   UNL A   1      42.643  23.508  25.985  1.00  0.00    -0.246 OA
BRANCH  46  48
ATOM     48  C   UNL A   1      41.095  24.600  27.408  1.00  0.00     0.060 A 
ATOM     49  C   UNL A   1      39.904  25.251  27.075  1.00  0.00     0.016 A 
ATOM     50  C   UNL A   1      41.912  25.038  28.462  1.00  0.00     0.016 A 
ATOM     51  C   UNL A   1      39.675  26.493  27.612  1.00  0.00     0.010 A 
ATOM     52  C   UNL A   1      41.680  26.279  29.003  1.00  0.00     0.010 A 
ATOM     53  C   UNL A   1      40.639  27.032  28.470  1.00  0.00    -0.014 A 
BRANCH  53  54
ATOM     54  C   UNL A   1      40.612  28.465  28.647  1.00  0.00     0.031 A 
ATOM     55  C   UNL A   1      41.806  29.173  28.184  1.00  0.00     0.074 A 
ATOM     56  C   UNL A   1      39.547  29.067  29.211  1.00  0.00     0.049 A 
ATOM     57  N   UNL A   1      42.707  29.746  28.906  1.00  0.00    -0.248 NA
ATOM     58  C   UNL A   1      42.091  29.142  26.744  1.00  0.00     0.031 C 
ATOM     59  C   UNL A   1      38.219  28.480  29.430  1.00  0.00     0.029 A 
ATOM     60  N   UNL A   1      39.392  30.360  29.612  1.00  0.00    -0.354 N 
ATOM     61  C   UNL A   1      43.565  30.345  27.996  1.00  0.00     0.074 A 
ATOM     62  C   UNL A   1      43.256  29.788  26.703  1.00  0.00     0.031 C 
ATOM     63  C   UNL A   1      37.341  29.467  29.710  1.00  0.00     0.029 A 
ATOM     64  C   UNL A   1      38.072  30.717  29.835  1.00  0.00     0.049 A 
ATOM     65  H   UNL A   1      40.146  30.981  29.732  1.00  0.00     0.167 HD
ATOM     66  C   UNL A   1      44.221  31.490  28.319  1.00  0.00     0.031 A 
ATOM     67  C   UNL A   1      37.596  31.963  30.053  1.00  0.00     0.031 A 
ATOM     68  C   UNL A   1      44.219  31.743  29.736  1.00  0.00     0.049 A 
ATOM     69  C   UNL A   1      38.705  32.817  30.528  1.00  0.00     0.074 A 
ATOM     70  C   UNL A   1      44.890  31.279  30.843  1.00  0.00     0.029 A 
ATOM     71  N   UNL A   1      43.125  32.438  30.179  1.00  0.00    -0.354 N 
ATOM     72  N   UNL A   1      39.281  32.670  31.686  1.00  0.00    -0.248 NA
ATOM     73  C   UNL A   1      39.409  33.683  29.588  1.00  0.00     0.031 C 
ATOM     74  C   UNL A   1      44.072  31.596  31.969  1.00  0.00     0.029 A 
ATOM     75  C   UNL A   1      42.925  32.244  31.521  1.00  0.00     0.049 A 
ATOM     76  H   UNL A   1      42.557  33.004  29.609  1.00  0.00     0.167 HD
ATOM     77  C   UNL A   1      40.589  33.065  31.473  1.00  0.00     0.074 A 
ATOM     78  C   UNL A   1      40.562  33.840  30.242  1.00  0.00     0.031 C 
ATOM     79  C   UNL A   1      41.623  32.456  32.119  1.00  0.00     0.031 A 
BRANCH  66  80
ATOM     80  C   UNL A   1      44.394  32.624  27.337  1.00  0.00    -0.014 A 
ATOM     81  C   UNL A   1      44.773  33.882  27.833  1.00  0.00     0.009 A 
ATOM     82  C   UNL A   1      43.909  32.584  26.014  1.00  0.00     0.009 A 
ATOM     83  C   UNL A   1      44.626  35.041  27.062  1.00  0.00     0.001 A 
ATOM     84  C   UNL A   1      43.800  33.731  25.227  1.00  0.00     0.001 A 
ATOM     85  C   UNL A   1      44.138  34.965  25.761  1.00  0.00     0.000 A 
ENDBRANCH  66  80
BRANCH  67  86
ATOM     86  C   UNL A   1      36.281  32.510  29.668  1.00  0.00    -0.014 A 
ATOM     87  C   UNL A   1      35.446  33.102  30.625  1.00  0.00     0.009 A 
ATOM     88  C   UNL A   1      35.955  32.683  28.310  1.00  0.00     0.009 A 
ATOM     89  C   UNL A   1      34.347  33.878  30.234  1.00  0.00     0.001 A 
ATOM     90  C   UNL A   1      34.854  33.449  27.919  1.00  0.00     0.001 A 
ATOM     91  C   UNL A   1      34.061  34.062  28.882  1.00  0.00     0.000 A 
ENDBRANCH  67  86
BRANCH  79  92
ATOM     92  C   UNL A   1      41.321  31.777  33.423  1.00  0.00    -0.014 A 
ATOM     93  C   UNL A   1      41.291  32.452  34.654  1.00  0.00     0.009 A 
ATOM     94  C   UNL A   1      40.992  30.413  33.397  1.00  0.00     0.009 A 
ATOM     95  C   UNL A   1      40.970  31.769  35.830  1.00  0.00     0.001 A 
ATOM     96  C   UNL A   1      40.651  29.737  34.569  1.00  0.00     0.001 A 
ATOM     97  C   UNL A   1      40.646  30.414  35.787  1.00  0.00     0.000 A 
ENDBRANCH  79  92
ENDBRANCH  53  54
ENDBRANCH  46  48
ENDBRANCH  45  46
ENDBRANCH  44  45
ENDBRANCH  43  44
ENDBRANCH  42  43
ENDBRANCH  41  42
ENDBRANCH   1  41
TORSDOF 23
ENDMDL
MODEL 3
REMARK VINA RESULT:      -9.5      3.370      7.761
REMARK SMILES CCCSc1nc2n(n1)[C@@H](c1ccccc1C(=O)OCCOCCOCCOC(=O)c1ccc(-c3c4nc(c(-c5ccccc5)c5ccc([nH]5)c(-c5ccccc5)c5nc(c(-c6ccccc6)c6ccc3[nH]6)C=C5)C=C4)cc1)C(C(=O)Nc1cccc(C)c1C)=C(C)N2
REMARK SMILES IDX 23 1 22 2 21 3 20 4 19 5 17 6 18 7 16 8 11 9 12 10 13 11
REMARK SMILES IDX 15 12 14 13 10 14 5 15 6 16 9 17 7 18 8 19 93 20 91 21 79 23
REMARK SMILES IDX 92 24 4 25 3 26 2 27 1 28 80 29 81 30 82 31 83 33 84 34
REMARK SMILES IDX 89 35 85 36 87 37 90 38 86 39 88 40 24 41 25 42 26 43 27 44
REMARK SMILES IDX 28 45 29 46 30 47 31 48 32 49 78 50 33 51 77 52 34 53 35 54
REMARK SMILES IDX 36 55 71 56 37 57 76 58 70 59 72 60 38 61 75 62 69 63 68 64
REMARK SMILES IDX 39 66 61 67 46 68 60 69 47 70 50 71 59 72 73 73 48 74 49 75
REMARK SMILES IDX 58 77 74 78 51 79 40 80 41 81 45 82 42 83 44 84 43 85 62 86
REMARK SMILES IDX 63 87 67 88 64 89 66 90 65 91 52 92 53 93 57 94 54 95 56 96
REMARK SMILES IDX 55 97
REMARK H PARENT 93 22 82 32 72 65 50 76
REMARK Flexibility Score: inf
ROOT
ATOM      1  C   UNL A   1      33.382  30.910  27.431  1.00  0.00     0.188 C 
ENDROOT
BRANCH   1   2
ATOM      2  O   UNL A   1      34.306  29.854  27.236  1.00  0.00    -0.376 OA
BRANCH   2   3
ATOM      3  C   UNL A   1      34.035  29.044  26.101  1.00  0.00     0.202 C 
BRANCH   3   4
ATOM      4  C   UNL A   1      33.778  27.549  26.347  1.00  0.00     0.261 C 
BRANCH   4   5
ATOM      5  O   UNL A   1      34.182  26.616  25.324  1.00  0.00    -0.460 OA
BRANCH   5   6
ATOM      6  C   UNL A   1      33.896  25.312  25.524  1.00  0.00     0.338 C 
ATOM      7  O   UNL A   1      33.084  24.906  26.346  1.00  0.00    -0.246 OA
BRANCH   6   8
ATOM      8  C   UNL A   1      34.596  24.432  24.524  1.00  0.00     0.065 A 
ATOM      9  C   UNL A   1      33.996  23.691  23.463  1.00  0.00    -0.004 A 
ATOM     10  C   UNL A   1      34.875  22.942  22.638  1.00  0.00     0.007 A 
ATOM     11  C   UNL A   1      36.256  22.904  22.845  1.00  0.00     0.000 A 
ATOM     12  C   UNL A   1      35.998  24.403  24.697  1.00  0.00     0.016 A 
ATOM     13  C   UNL A   1      36.820  23.641  23.871  1.00  0.00     0.001 A 
BRANCH   9  14
ATOM     14  C   UNL A   1      32.486  23.761  23.110  1.00  0.00     0.180 C 
ATOM     15  C   UNL A   1      31.637  27.198  23.331  1.00  0.00     0.210 A 
ATOM     16  N   UNL A   1      30.712  26.717  24.203  1.00  0.00    -0.185 NA
ATOM     17  N   UNL A   1      32.362  26.270  22.685  1.00  0.00    -0.141 NA
ATOM     18  C   UNL A   1      30.963  25.441  24.219  1.00  0.00     0.227 A 
ATOM     19  N   UNL A   1      31.920  25.132  23.285  1.00  0.00    -0.218 N 
ATOM     20  N   UNL A   1      30.483  24.501  25.040  1.00  0.00    -0.328 N 
ATOM     21  C   UNL A   1      30.831  23.172  24.946  1.00  0.00     0.026 C 
ATOM     22  H   UNL A   1      29.852  24.771  25.744  1.00  0.00     0.169 HD
ATOM     23  C   UNL A   1      31.677  22.771  23.970  1.00  0.00     0.065 C 
ATOM     24  C   UNL A   1      30.222  22.275  25.991  1.00  0.00     0.065 C 
BRANCH  15  25
ATOM     25  S   UNL A   1      31.881  28.911  23.183  1.00  0.00    -0.084 SA
BRANCH  25  26
ATOM     26  C   UNL A   1      30.479  29.382  22.105  1.00  0.00     0.078 C 
BRANCH  26  27
ATOM     27  C   UNL A   1      29.292  30.124  22.742  1.00  0.00     0.008 C 
ATOM     28  C   UNL A   1      28.164  30.491  21.781  1.00  0.00     0.005 C 
ENDBRANCH  26  27
ENDBRANCH  25  26
ENDBRANCH  15  25
BRANCH  23  29
ATOM     29  C   UNL A   1      31.919  21.332  23.783  1.00  0.00     0.255 C 
ATOM     30  O   UNL A   1      31.858  20.829  22.667  1.00  0.00    -0.269 OA
ATOM     31  N   UNL A   1      32.188  20.554  24.890  1.00  0.00    -0.322 N 
ATOM     32  H   UNL A   1      31.535  19.887  25.203  1.00  0.00     0.170 HD
BRANCH  31  33
ATOM     33  C   UNL A   1      33.416  20.731  25.567  1.00  0.00     0.044 A 
ATOM     34  C   UNL A   1      34.539  20.254  24.875  1.00  0.00     0.026 A 
ATOM     35  C   UNL A   1      33.549  21.497  26.735  1.00  0.00    -0.025 A 
ATOM     36  C   UNL A   1      35.805  20.679  25.238  1.00  0.00     0.002 A 
ATOM     37  C   UNL A   1      34.833  21.991  27.049  1.00  0.00    -0.046 A 
ATOM     38  C   UNL A   1      32.372  21.774  27.632  1.00  0.00     0.047 C 
ATOM     39  C   UNL A   1      35.945  21.581  26.287  1.00  0.00     0.004 A 
ATOM     40  C   UNL A   1      35.065  23.059  28.084  1.00  0.00     0.044 C 
ENDBRANCH  31  33
ENDBRANCH  23  29
ENDBRANCH   9  14
ENDBRANCH   6   8
ENDBRANCH   5   6
ENDBRANCH   4   5
ENDBRANCH   3   4
ENDBRANCH   2   3
ENDBRANCH   1   2
BRANCH   1  41
ATOM     41  C   UNL A   1      34.029  32.270  27.767  1.00  0.00     0.188 C 
BRANCH  41  42
ATOM     42  O   UNL A   1      35.404  32.541  27.509  1.00  0.00    -0.376 OA
BRANCH  42  43
ATOM     43  C   UNL A   1      36.293  32.997  28.522  1.00  0.00     0.202 C 
BRANCH  43  44
ATOM     44  C   UNL A   1      36.352  32.291  29.876  1.00  0.00     0.261 C 
BRANCH  44  45
ATOM     45  O   UNL A   1      35.874  30.958  29.820  1.00  0.00    -0.460 OA
BRANCH  45  46
ATOM     46  C   UNL A   1      36.466  30.130  30.702  1.00  0.00     0.338 C 
ATOM     47  O   UNL A   1      36.300  30.086  31.909  1.00  0.00    -0.246 OA
BRANCH  46  48
ATOM     48  C   UNL A   1      37.358  29.220  29.974  1.00  0.00     0.060 A 
ATOM     49  C   UNL A   1      37.974  28.218  30.727  1.00  0.00     0.016 A 
ATOM     50  C   UNL A   1      37.694  29.453  28.631  1.00  0.00     0.016 A 
ATOM     51  C   UNL A   1      39.111  27.638  30.223  1.00  0.00     0.010 A 
ATOM     52  C   UNL A   1      38.829  28.869  28.124  1.00  0.00     0.010 A 
ATOM     53  C   UNL A   1      39.583  28.074  28.981  1.00  0.00    -0.014 A 
BRANCH  53  54
ATOM     54  C   UNL A   1      40.972  27.806  28.692  1.00  0.00     0.031 A 
ATOM     55  C   UNL A   1      41.234  26.536  28.013  1.00  0.00     0.074 A 
ATOM     56  C   UNL A   1      41.930  28.685  29.045  1.00  0.00     0.049 A 
ATOM     57  N   UNL A   1      41.800  25.487  28.505  1.00  0.00    -0.248 NA
ATOM     58  C   UNL A   1      40.699  26.375  26.656  1.00  0.00     0.031 C 
ATOM     59  C   UNL A   1      41.733  30.082  29.455  1.00  0.00     0.029 A 
ATOM     60  N   UNL A   1      43.285  28.552  29.014  1.00  0.00    -0.354 N 
ATOM     61  C   UNL A   1      41.893  24.601  27.443  1.00  0.00     0.074 A 
ATOM     62  C   UNL A   1      41.040  25.112  26.398  1.00  0.00     0.031 C 
ATOM     63  C   UNL A   1      42.920  30.724  29.414  1.00  0.00     0.029 A 
ATOM     64  C   UNL A   1      43.963  29.756  29.126  1.00  0.00     0.049 A 
ATOM     65  H   UNL A   1      43.740  27.684  28.921  1.00  0.00     0.167 HD
ATOM     66  C   UNL A   1      42.916  23.710  27.376  1.00  0.00     0.031 A 
ATOM     67  C   UNL A   1      45.286  29.960  28.940  1.00  0.00     0.031 A 
ATOM     68  C   UNL A   1      43.590  23.553  28.638  1.00  0.00     0.049 A 
ATOM     69  C   UNL A   1      45.992  28.672  29.105  1.00  0.00     0.074 A 
ATOM     70  C   UNL A   1      43.362  22.903  29.828  1.00  0.00     0.029 A 
ATOM     71  N   UNL A   1      44.602  24.452  28.848  1.00  0.00    -0.354 N 
ATOM     72  N   UNL A   1      46.093  28.048  30.244  1.00  0.00    -0.248 NA
ATOM     73  C   UNL A   1      46.355  27.886  27.930  1.00  0.00     0.031 C 
ATOM     74  C   UNL A   1      44.177  23.553  30.803  1.00  0.00     0.029 A 
ATOM     75  C   UNL A   1      44.880  24.582  30.184  1.00  0.00     0.049 A 
ATOM     76  H   UNL A   1      45.070  24.940  28.133  1.00  0.00     0.167 HD
ATOM     77  C   UNL A   1      46.118  26.709  29.901  1.00  0.00     0.074 A 
ATOM     78  C   UNL A   1      46.461  26.678  28.487  1.00  0.00     0.031 C 
ATOM     79  C   UNL A   1      45.536  25.767  30.697  1.00  0.00     0.031 A 
BRANCH  66  80
ATOM     80  C   UNL A   1      43.627  23.394  26.081  1.00  0.00    -0.014 A 
ATOM     81  C   UNL A   1      43.555  22.083  25.585  1.00  0.00     0.009 A 
ATOM     82  C   UNL A   1      44.599  24.238  25.506  1.00  0.00     0.009 A 
ATOM     83  C   UNL A   1      44.442  21.628  24.603  1.00  0.00     0.001 A 
ATOM     84  C   UNL A   1      45.458  23.801  24.497  1.00  0.00     0.001 A 
ATOM     85  C   UNL A   1      45.395  22.487  24.061  1.00  0.00     0.000 A 
ENDBRANCH  66  80
BRANCH  67  86
ATOM     86  C   UNL A   1      45.951  31.168  28.415  1.00  0.00    -0.014 A 
ATOM     87  C   UNL A   1      47.208  31.557  28.894  1.00  0.00     0.009 A 
ATOM     88  C   UNL A   1      45.463  31.798  27.254  1.00  0.00     0.009 A 
ATOM     89  C   UNL A   1      47.972  32.511  28.210  1.00  0.00     0.001 A 
ATOM     90  C   UNL A   1      46.220  32.756  26.576  1.00  0.00     0.001 A 
ATOM     91  C   UNL A   1      47.483  33.099  27.045  1.00  0.00     0.000 A 
ENDBRANCH  67  86
BRANCH  79  92
ATOM     92  C   UNL A   1      45.374  26.095  32.152  1.00  0.00    -0.014 A 
ATOM     93  C   UNL A   1      46.391  25.903  33.103  1.00  0.00     0.009 A 
ATOM     94  C   UNL A   1      44.169  26.679  32.568  1.00  0.00     0.009 A 
ATOM     95  C   UNL A   1      46.189  26.260  34.439  1.00  0.00     0.001 A 
ATOM     96  C   UNL A   1      43.976  27.054  33.898  1.00  0.00     0.001 A 
ATOM     97  C   UNL A   1      44.984  26.838  34.835  1.00  0.00     0.000 A 
ENDBRANCH  79  92
ENDBRANCH  53  54
ENDBRANCH  46  48
ENDBRANCH  45  46
ENDBRANCH  44  45
ENDBRANCH  43  44
ENDBRANCH  42  43
ENDBRANCH  41  42
ENDBRANCH   1  41
TORSDOF 23
ENDMDL
