MODEL 1
REMARK VINA RESULT:      -8.5      0.000      0.000
REMARK SMILES CC[C@@](C)(NC(=O)N(C)CCO)C(=O)OCCOCCOCCOC(=O)c1ccc(-c2c3nc(c(-c4ccccc4)c4ccc([nH]4)c(-c4ccccc4)c4nc(c(-c5ccccc5)c5ccc2[nH]5)C=C4)C=C3)cc1
REMARK SMILES IDX 18 1 17 2 16 3 15 4 13 5 14 6 3 7 4 8 2 9 1 10 5 11 6 12
REMARK SMILES IDX 7 14 8 15 9 16 10 17 11 18 12 19 19 21 20 22 21 23 22 24
REMARK SMILES IDX 23 25 24 26 25 27 26 28 27 29 28 30 74 31 29 32 73 33 30 34
REMARK SMILES IDX 31 35 32 36 67 37 33 38 72 39 66 40 68 41 34 42 71 43 65 44
REMARK SMILES IDX 64 45 35 47 57 48 42 49 56 50 43 51 46 52 55 53 69 54 44 55
REMARK SMILES IDX 45 56 54 58 70 59 47 60 36 61 37 62 41 63 38 64 40 65 39 66
REMARK SMILES IDX 58 67 59 68 63 69 60 70 62 71 61 72 48 73 49 74 53 75 50 76
REMARK SMILES IDX 52 77 51 78
REMARK H PARENT 5 13 12 20 68 46 46 57
REMARK Flexibility Score: inf
ROOT
ATOM      1  O   UNL A   1      34.844  31.856  27.597  1.00  0.00    -0.376 OA
ENDROOT
BRANCH   1   2
ATOM      2  C   UNL A   1      35.104  30.590  28.216  1.00  0.00     0.202 C 
BRANCH   2   3
ATOM      3  C   UNL A   1      35.182  29.407  27.254  1.00  0.00     0.261 C 
BRANCH   3   4
ATOM      4  O   UNL A   1      34.038  28.550  27.463  1.00  0.00    -0.462 OA
BRANCH   4   5
ATOM      5  C   UNL A   1      33.530  27.983  26.349  1.00  0.00     0.331 C 
ATOM      6  O   UNL A   1      34.204  27.300  25.582  1.00  0.00    -0.249 OA
BRANCH   5   7
ATOM      7  C   UNL A   1      32.008  28.223  26.151  1.00  0.00     0.136 C 
ATOM      8  C   UNL A   1      31.441  28.584  27.534  1.00  0.00     0.047 C 
BRANCH   7   9
ATOM      9  C   UNL A   1      31.871  29.461  25.178  1.00  0.00     0.037 C 
ATOM     10  C   UNL A   1      30.662  29.580  24.264  1.00  0.00     0.007 C 
ENDBRANCH   7   9
BRANCH   7  11
ATOM     11  N   UNL A   1      31.069  27.240  25.507  1.00  0.00    -0.322 N 
ATOM     12  C   UNL A   1      30.679  25.971  25.415  1.00  0.00     0.318 C 
ATOM     13  H   UNL A   1      30.501  27.756  24.890  1.00  0.00     0.166 HD
ATOM     14  O   UNL A   1      29.519  25.836  25.002  1.00  0.00    -0.249 OA
BRANCH  12  15
ATOM     15  N   UNL A   1      31.463  24.890  25.613  1.00  0.00    -0.326 N 
ATOM     16  C   UNL A   1      31.776  24.252  26.869  1.00  0.00     0.148 C 
BRANCH  15  17
ATOM     17  C   UNL A   1      32.132  24.335  24.420  1.00  0.00     0.149 C 
BRANCH  17  18
ATOM     18  C   UNL A   1      31.305  23.292  23.663  1.00  0.00     0.177 C 
BRANCH  18  19
ATOM     19  O   UNL A   1      30.294  23.884  22.852  1.00  0.00    -0.395 OA
ATOM     20  H   UNL A   1      29.975  23.232  22.208  1.00  0.00     0.210 HD
ENDBRANCH  18  19
ENDBRANCH  17  18
ENDBRANCH  15  17
ENDBRANCH  12  15
ENDBRANCH   7  11
ENDBRANCH   5   7
ENDBRANCH   4   5
ENDBRANCH   3   4
ENDBRANCH   2   3
ENDBRANCH   1   2
BRANCH   1  21
ATOM     21  C   UNL A   1      35.665  32.939  28.016  1.00  0.00     0.188 C 
BRANCH  21  22
ATOM     22  C   UNL A   1      35.159  33.743  29.216  1.00  0.00     0.188 C 
BRANCH  22  23
ATOM     23  O   UNL A   1      33.746  33.869  29.346  1.00  0.00    -0.376 OA
BRANCH  23  24
ATOM     24  C   UNL A   1      33.219  35.062  28.750  1.00  0.00     0.202 C 
BRANCH  24  25
ATOM     25  C   UNL A   1      32.887  36.142  29.790  1.00  0.00     0.261 C 
BRANCH  25  26
ATOM     26  O   UNL A   1      32.302  35.530  30.948  1.00  0.00    -0.460 OA
BRANCH  26  27
ATOM     27  C   UNL A   1      32.747  35.975  32.149  1.00  0.00     0.338 C 
ATOM     28  O   UNL A   1      32.220  36.805  32.870  1.00  0.00    -0.246 OA
BRANCH  27  29
ATOM     29  C   UNL A   1      33.871  35.101  32.566  1.00  0.00     0.060 A 
ATOM     30  C   UNL A   1      35.172  35.628  32.546  1.00  0.00     0.016 A 
ATOM     31  C   UNL A   1      33.637  33.828  33.097  1.00  0.00     0.016 A 
ATOM     32  C   UNL A   1      36.240  34.883  33.052  1.00  0.00     0.010 A 
ATOM     33  C   UNL A   1      34.699  33.086  33.601  1.00  0.00     0.010 A 
ATOM     34  C   UNL A   1      36.006  33.600  33.560  1.00  0.00    -0.014 A 
BRANCH  34  35
ATOM     35  C   UNL A   1      37.112  32.666  33.858  1.00  0.00     0.031 A 
ATOM     36  C   UNL A   1      37.880  32.896  35.126  1.00  0.00     0.074 A 
ATOM     37  C   UNL A   1      37.507  31.736  32.973  1.00  0.00     0.049 A 
ATOM     38  N   UNL A   1      39.027  32.401  35.505  1.00  0.00    -0.248 NA
ATOM     39  C   UNL A   1      37.282  33.848  36.076  1.00  0.00     0.031 C 
ATOM     40  C   UNL A   1      36.832  31.416  31.717  1.00  0.00     0.029 A 
ATOM     41  N   UNL A   1      38.614  30.925  32.982  1.00  0.00    -0.354 N 
ATOM     42  C   UNL A   1      39.307  33.012  36.720  1.00  0.00     0.074 A 
ATOM     43  C   UNL A   1      38.219  33.921  37.005  1.00  0.00     0.031 C 
ATOM     44  C   UNL A   1      37.559  30.497  31.057  1.00  0.00     0.029 A 
ATOM     45  C   UNL A   1      38.770  30.203  31.824  1.00  0.00     0.049 A 
ATOM     46  H   UNL A   1      39.234  30.864  33.744  1.00  0.00     0.167 HD
ATOM     47  C   UNL A   1      40.382  32.840  37.524  1.00  0.00     0.031 A 
ATOM     48  C   UNL A   1      39.796  29.432  31.414  1.00  0.00     0.031 A 
ATOM     49  C   UNL A   1      41.468  31.951  37.221  1.00  0.00     0.049 A 
ATOM     50  C   UNL A   1      41.001  29.274  32.304  1.00  0.00     0.074 A 
ATOM     51  C   UNL A   1      42.593  31.674  37.976  1.00  0.00     0.029 A 
ATOM     52  N   UNL A   1      41.569  31.206  36.057  1.00  0.00    -0.354 N 
ATOM     53  N   UNL A   1      41.244  29.824  33.470  1.00  0.00    -0.248 NA
ATOM     54  C   UNL A   1      42.072  28.390  31.822  1.00  0.00     0.031 C 
ATOM     55  C   UNL A   1      43.399  30.796  37.244  1.00  0.00     0.029 A 
ATOM     56  C   UNL A   1      42.747  30.483  36.060  1.00  0.00     0.049 A 
ATOM     57  H   UNL A   1      40.899  31.192  35.335  1.00  0.00     0.167 HD
ATOM     58  C   UNL A   1      42.480  29.331  33.875  1.00  0.00     0.074 A 
ATOM     59  C   UNL A   1      42.934  28.436  32.830  1.00  0.00     0.031 C 
ATOM     60  C   UNL A   1      43.174  29.593  35.009  1.00  0.00     0.031 A 
BRANCH  47  61
ATOM     61  C   UNL A   1      40.441  33.680  38.767  1.00  0.00    -0.014 A 
ATOM     62  C   UNL A   1      41.011  34.965  38.757  1.00  0.00     0.009 A 
ATOM     63  C   UNL A   1      39.951  33.164  39.975  1.00  0.00     0.009 A 
ATOM     64  C   UNL A   1      41.141  35.689  39.943  1.00  0.00     0.001 A 
ATOM     65  C   UNL A   1      40.051  33.904  41.154  1.00  0.00     0.001 A 
ATOM     66  C   UNL A   1      40.660  35.158  41.140  1.00  0.00     0.000 A 
ENDBRANCH  47  61
BRANCH  48  67
ATOM     67  C   UNL A   1      39.736  28.772  30.084  1.00  0.00    -0.014 A 
ATOM     68  C   UNL A   1      40.153  29.454  28.931  1.00  0.00     0.009 A 
ATOM     69  C   UNL A   1      39.283  27.449  29.963  1.00  0.00     0.009 A 
ATOM     70  C   UNL A   1      40.106  28.828  27.683  1.00  0.00     0.001 A 
ATOM     71  C   UNL A   1      39.261  26.817  28.717  1.00  0.00     0.001 A 
ATOM     72  C   UNL A   1      39.668  27.509  27.578  1.00  0.00     0.000 A 
ENDBRANCH  48  67
BRANCH  60  73
ATOM     73  C   UNL A   1      44.475  28.869  35.212  1.00  0.00    -0.014 A 
ATOM     74  C   UNL A   1      45.696  29.439  34.823  1.00  0.00     0.009 A 
ATOM     75  C   UNL A   1      44.479  27.635  35.881  1.00  0.00     0.009 A 
ATOM     76  C   UNL A   1      46.897  28.774  35.085  1.00  0.00     0.001 A 
ATOM     77  C   UNL A   1      45.681  26.987  36.164  1.00  0.00     0.001 A 
ATOM     78  C   UNL A   1      46.889  27.554  35.762  1.00  0.00     0.000 A 
ENDBRANCH  60  73
ENDBRANCH  34  35
ENDBRANCH  27  29
ENDBRANCH  26  27
ENDBRANCH  25  26
ENDBRANCH  24  25
ENDBRANCH  23  24
ENDBRANCH  22  23
ENDBRANCH  21  22
ENDBRANCH   1  21
TORSDOF 23
ENDMDL
MODEL 2
REMARK VINA RESULT:      -8.1      2.113      6.876
REMARK SMILES CC[C@@](C)(NC(=O)N(C)CCO)C(=O)OCCOCCOCCOC(=O)c1ccc(-c2c3nc(c(-c4ccccc4)c4ccc([nH]4)c(-c4ccccc4)c4nc(c(-c5ccccc5)c5ccc2[nH]5)C=C4)C=C3)cc1
REMARK SMILES IDX 18 1 17 2 16 3 15 4 13 5 14 6 3 7 4 8 2 9 1 10 5 11 6 12
REMARK SMILES IDX 7 14 8 15 9 16 10 17 11 18 12 19 19 21 20 22 21 23 22 24
REMARK SMILES IDX 23 25 24 26 25 27 26 28 27 29 28 30 74 31 29 32 73 33 30 34
REMARK SMILES IDX 31 35 32 36 67 37 33 38 72 39 66 40 68 41 34 42 71 43 65 44
REMARK SMILES IDX 64 45 35 47 57 48 42 49 56 50 43 51 46 52 55 53 69 54 44 55
REMARK SMILES IDX 45 56 54 58 70 59 47 60 36 61 37 62 41 63 38 64 40 65 39 66
REMARK SMILES IDX 58 67 59 68 63 69 60 70 62 71 61 72 48 73 49 74 53 75 50 76
REMARK SMILES IDX 52 77 51 78
REMARK H PARENT 5 13 12 20 68 46 46 57
REMARK Flexibility Score: inf
ROOT
ATOM      1  O   UNL A   1      34.351  28.695  25.417  1.00  0.00    -0.376 OA
ENDROOT
BRANCH   1   2
ATOM      2  C   UNL A   1      33.472  28.203  24.397  1.00  0.00     0.202 C 
BRANCH   2   3
ATOM      3  C   UNL A   1      32.710  26.932  24.764  1.00  0.00     0.261 C 
BRANCH   3   4
ATOM      4  O   UNL A   1      32.215  26.310  23.557  1.00  0.00    -0.462 OA
BRANCH   4   5
ATOM      5  C   UNL A   1      32.871  25.196  23.171  1.00  0.00     0.331 C 
ATOM      6  O   UNL A   1      33.902  25.226  22.504  1.00  0.00    -0.249 OA
BRANCH   5   7
ATOM      7  C   UNL A   1      32.240  23.875  23.692  1.00  0.00     0.136 C 
ATOM      8  C   UNL A   1      30.739  23.952  23.366  1.00  0.00     0.047 C 
BRANCH   7   9
ATOM      9  C   UNL A   1      32.906  22.703  22.868  1.00  0.00     0.037 C 
ATOM     10  C   UNL A   1      32.147  21.406  22.640  1.00  0.00     0.007 C 
ENDBRANCH   7   9
BRANCH   7  11
ATOM     11  N   UNL A   1      32.383  23.362  25.098  1.00  0.00    -0.322 N 
ATOM     12  C   UNL A   1      33.209  23.094  26.106  1.00  0.00     0.318 C 
ATOM     13  H   UNL A   1      31.479  23.120  25.403  1.00  0.00     0.166 HD
ATOM     14  O   UNL A   1      32.654  23.075  27.213  1.00  0.00    -0.249 OA
BRANCH  12  15
ATOM     15  N   UNL A   1      34.507  22.742  25.989  1.00  0.00    -0.326 N 
ATOM     16  C   UNL A   1      35.098  21.459  26.287  1.00  0.00     0.148 C 
BRANCH  15  17
ATOM     17  C   UNL A   1      35.443  23.805  25.575  1.00  0.00     0.149 C 
BRANCH  17  18
ATOM     18  C   UNL A   1      36.917  23.483  25.835  1.00  0.00     0.177 C 
BRANCH  18  19
ATOM     19  O   UNL A   1      37.731  23.692  24.685  1.00  0.00    -0.395 OA
ATOM     20  H   UNL A   1      37.609  22.955  24.066  1.00  0.00     0.210 HD
ENDBRANCH  18  19
ENDBRANCH  17  18
ENDBRANCH  15  17
ENDBRANCH  12  15
ENDBRANCH   7  11
ENDBRANCH   5   7
ENDBRANCH   4   5
ENDBRANCH   3   4
ENDBRANCH   2   3
ENDBRANCH   1   2
BRANCH   1  21
ATOM     21  C   UNL A   1      33.793  28.811  26.721  1.00  0.00     0.188 C 
BRANCH  21  22
ATOM     22  C   UNL A   1      34.487  29.795  27.666  1.00  0.00     0.188 C 
BRANCH  22  23
ATOM     23  O   UNL A   1      34.223  31.178  27.447  1.00  0.00    -0.376 OA
BRANCH  23  24
ATOM     24  C   UNL A   1      32.824  31.490  27.374  1.00  0.00     0.202 C 
BRANCH  24  25
ATOM     25  C   UNL A   1      32.569  32.986  27.139  1.00  0.00     0.261 C 
BRANCH  25  26
ATOM     26  O   UNL A   1      32.259  33.622  28.387  1.00  0.00    -0.460 OA
BRANCH  26  27
ATOM     27  C   UNL A   1      33.030  34.685  28.724  1.00  0.00     0.338 C 
ATOM     28  O   UNL A   1      32.689  35.853  28.789  1.00  0.00    -0.246 OA
BRANCH  27  29
ATOM     29  C   UNL A   1      34.318  34.162  29.242  1.00  0.00     0.060 A 
ATOM     30  C   UNL A   1      34.292  33.268  30.324  1.00  0.00     0.016 A 
ATOM     31  C   UNL A   1      35.524  34.438  28.588  1.00  0.00     0.016 A 
ATOM     32  C   UNL A   1      35.469  32.654  30.757  1.00  0.00     0.010 A 
ATOM     33  C   UNL A   1      36.696  33.826  29.019  1.00  0.00     0.010 A 
ATOM     34  C   UNL A   1      36.678  32.950  30.117  1.00  0.00    -0.014 A 
BRANCH  34  35
ATOM     35  C   UNL A   1      37.981  32.550  30.688  1.00  0.00     0.031 A 
ATOM     36  C   UNL A   1      38.648  31.346  30.092  1.00  0.00     0.074 A 
ATOM     37  C   UNL A   1      38.485  33.146  31.781  1.00  0.00     0.049 A 
ATOM     38  N   UNL A   1      39.646  30.637  30.547  1.00  0.00    -0.248 NA
ATOM     39  C   UNL A   1      38.079  30.856  28.825  1.00  0.00     0.031 C 
ATOM     40  C   UNL A   1      37.931  34.329  32.436  1.00  0.00     0.029 A 
ATOM     41  N   UNL A   1      39.559  32.796  32.559  1.00  0.00    -0.354 N 
ATOM     42  C   UNL A   1      39.799  29.596  29.642  1.00  0.00     0.074 A 
ATOM     43  C   UNL A   1      38.785  29.757  28.624  1.00  0.00     0.031 C 
ATOM     44  C   UNL A   1      38.651  34.587  33.542  1.00  0.00     0.029 A 
ATOM     45  C   UNL A   1      39.684  33.562  33.692  1.00  0.00     0.049 A 
ATOM     46  H   UNL A   1      40.181  32.069  32.328  1.00  0.00     0.167 HD
ATOM     47  C   UNL A   1      40.699  28.585  29.662  1.00  0.00     0.031 A 
ATOM     48  C   UNL A   1      40.507  33.420  34.749  1.00  0.00     0.031 A 
ATOM     49  C   UNL A   1      41.688  28.420  30.690  1.00  0.00     0.049 A 
ATOM     50  C   UNL A   1      41.482  32.271  34.775  1.00  0.00     0.074 A 
ATOM     51  C   UNL A   1      42.670  27.452  30.796  1.00  0.00     0.029 A 
ATOM     52  N   UNL A   1      41.808  29.242  31.800  1.00  0.00    -0.354 N 
ATOM     53  N   UNL A   1      41.649  31.310  33.898  1.00  0.00    -0.248 NA
ATOM     54  C   UNL A   1      42.381  32.189  35.935  1.00  0.00     0.031 C 
ATOM     55  C   UNL A   1      43.354  27.661  31.998  1.00  0.00     0.029 A 
ATOM     56  C   UNL A   1      42.834  28.793  32.610  1.00  0.00     0.049 A 
ATOM     57  H   UNL A   1      41.247  30.030  31.983  1.00  0.00     0.167 HD
ATOM     58  C   UNL A   1      42.689  30.526  34.384  1.00  0.00     0.074 A 
ATOM     59  C   UNL A   1      43.116  31.126  35.632  1.00  0.00     0.031 C 
ATOM     60  C   UNL A   1      43.244  29.413  33.845  1.00  0.00     0.031 A 
BRANCH  47  61
ATOM     61  C   UNL A   1      40.596  27.563  28.567  1.00  0.00    -0.014 A 
ATOM     62  C   UNL A   1      41.339  27.683  27.380  1.00  0.00     0.009 A 
ATOM     63  C   UNL A   1      39.713  26.483  28.709  1.00  0.00     0.009 A 
ATOM     64  C   UNL A   1      41.156  26.773  26.338  1.00  0.00     0.001 A 
ATOM     65  C   UNL A   1      39.557  25.555  27.678  1.00  0.00     0.001 A 
ATOM     66  C   UNL A   1      40.266  25.710  26.488  1.00  0.00     0.000 A 
ENDBRANCH  47  61
BRANCH  48  67
ATOM     67  C   UNL A   1      40.423  34.377  35.882  1.00  0.00    -0.014 A 
ATOM     68  C   UNL A   1      41.180  35.559  35.875  1.00  0.00     0.009 A 
ATOM     69  C   UNL A   1      39.570  34.125  36.968  1.00  0.00     0.009 A 
ATOM     70  C   UNL A   1      41.091  36.462  36.936  1.00  0.00     0.001 A 
ATOM     71  C   UNL A   1      39.465  35.043  38.016  1.00  0.00     0.001 A 
ATOM     72  C   UNL A   1      40.229  36.208  38.002  1.00  0.00     0.000 A 
ENDBRANCH  48  67
BRANCH  60  73
ATOM     73  C   UNL A   1      44.406  28.794  34.569  1.00  0.00    -0.014 A 
ATOM     74  C   UNL A   1      44.221  27.761  35.501  1.00  0.00     0.009 A 
ATOM     75  C   UNL A   1      45.712  29.195  34.246  1.00  0.00     0.009 A 
ATOM     76  C   UNL A   1      45.323  27.157  36.109  1.00  0.00     0.001 A 
ATOM     77  C   UNL A   1      46.811  28.571  34.835  1.00  0.00     0.001 A 
ATOM     78  C   UNL A   1      46.616  27.556  35.770  1.00  0.00     0.000 A 
ENDBRANCH  60  73
ENDBRANCH  34  35
ENDBRANCH  27  29
ENDBRANCH  26  27
ENDBRANCH  25  26
ENDBRANCH  24  25
ENDBRANCH  23  24
ENDBRANCH  22  23
ENDBRANCH  21  22
ENDBRANCH   1  21
TORSDOF 23
ENDMDL
MODEL 3
REMARK VINA RESULT:      -7.9      3.421      4.879
REMARK SMILES CC[C@@](C)(NC(=O)N(C)CCO)C(=O)OCCOCCOCCOC(=O)c1ccc(-c2c3nc(c(-c4ccccc4)c4ccc([nH]4)c(-c4ccccc4)c4nc(c(-c5ccccc5)c5ccc2[nH]5)C=C4)C=C3)cc1
REMARK SMILES IDX 18 1 17 2 16 3 15 4 13 5 14 6 3 7 4 8 2 9 1 10 5 11 6 12
REMARK SMILES IDX 7 14 8 15 9 16 10 17 11 18 12 19 19 21 20 22 21 23 22 24
REMARK SMILES IDX 23 25 24 26 25 27 26 28 27 29 28 30 74 31 29 32 73 33 30 34
REMARK SMILES IDX 31 35 32 36 67 37 33 38 72 39 66 40 68 41 34 42 71 43 65 44
REMARK SMILES IDX 64 45 35 47 57 48 42 49 56 50 43 51 46 52 55 53 69 54 44 55
REMARK SMILES IDX 45 56 54 58 70 59 47 60 36 61 37 62 41 63 38 64 40 65 39 66
REMARK SMILES IDX 58 67 59 68 63 69 60 70 62 71 61 72 48 73 49 74 53 75 50 76
REMARK SMILES IDX 52 77 51 78
REMARK H PARENT 5 13 12 20 68 46 46 57
REMARK Flexibility Score: inf
ROOT
ATOM      1  O   UNL A   1      32.351  27.384  26.386  1.00  0.00    -0.376 OA
ENDROOT
BRANCH   1   2
ATOM      2  C   UNL A   1      32.506  26.259  25.511  1.00  0.00     0.202 C 
BRANCH   2   3
ATOM      3  C   UNL A   1      33.608  25.281  25.911  1.00  0.00     0.261 C 
BRANCH   3   4
ATOM      4  O   UNL A   1      33.276  23.964  25.417  1.00  0.00    -0.462 OA
BRANCH   4   5
ATOM      5  C   UNL A   1      34.112  22.976  25.800  1.00  0.00     0.331 C 
ATOM      6  O   UNL A   1      34.503  22.845  26.957  1.00  0.00    -0.249 OA
BRANCH   5   7
ATOM      7  C   UNL A   1      34.490  21.988  24.663  1.00  0.00     0.136 C 
ATOM      8  C   UNL A   1      33.239  21.842  23.780  1.00  0.00     0.047 C 
BRANCH   7   9
ATOM      9  C   UNL A   1      35.649  22.674  23.838  1.00  0.00     0.037 C 
ATOM     10  C   UNL A   1      36.652  23.575  24.541  1.00  0.00     0.007 C 
ENDBRANCH   7   9
BRANCH   7  11
ATOM     11  N   UNL A   1      35.062  20.615  24.886  1.00  0.00    -0.322 N 
ATOM     12  C   UNL A   1      34.885  19.302  24.760  1.00  0.00     0.318 C 
ATOM     13  H   UNL A   1      35.944  20.742  25.305  1.00  0.00     0.166 HD
ATOM     14  O   UNL A   1      35.942  18.657  24.745  1.00  0.00    -0.249 OA
BRANCH  12  15
ATOM     15  N   UNL A   1      33.696  18.662  24.771  1.00  0.00    -0.326 N 
ATOM     16  C   UNL A   1      32.754  18.583  25.861  1.00  0.00     0.148 C 
BRANCH  15  17
ATOM     17  C   UNL A   1      33.348  17.898  23.557  1.00  0.00     0.149 C 
BRANCH  17  18
ATOM     18  C   UNL A   1      32.207  18.506  22.737  1.00  0.00     0.177 C 
BRANCH  18  19
ATOM     19  O   UNL A   1      31.770  17.644  21.691  1.00  0.00    -0.395 OA
ATOM     20  H   UNL A   1      31.185  16.963  22.058  1.00  0.00     0.210 HD
ENDBRANCH  18  19
ENDBRANCH  17  18
ENDBRANCH  15  17
ENDBRANCH  12  15
ENDBRANCH   7  11
ENDBRANCH   5   7
ENDBRANCH   4   5
ENDBRANCH   3   4
ENDBRANCH   2   3
ENDBRANCH   1   2
BRANCH   1  21
ATOM     21  C   UNL A   1      32.637  28.659  25.823  1.00  0.00     0.188 C 
BRANCH  21  22
ATOM     22  C   UNL A   1      32.229  29.872  26.661  1.00  0.00     0.188 C 
BRANCH  22  23
ATOM     23  O   UNL A   1      31.399  30.837  26.019  1.00  0.00    -0.376 OA
BRANCH  23  24
ATOM     24  C   UNL A   1      31.431  32.128  26.644  1.00  0.00     0.202 C 
BRANCH  24  25
ATOM     25  C   UNL A   1      32.682  32.330  27.511  1.00  0.00     0.261 C 
BRANCH  25  26
ATOM     26  O   UNL A   1      33.008  33.725  27.566  1.00  0.00    -0.460 OA
BRANCH  26  27
ATOM     27  C   UNL A   1      33.295  34.225  28.794  1.00  0.00     0.338 C 
ATOM     28  O   UNL A   1      32.572  34.905  29.501  1.00  0.00    -0.246 OA
BRANCH  27  29
ATOM     29  C   UNL A   1      34.562  33.602  29.249  1.00  0.00     0.060 A 
ATOM     30  C   UNL A   1      35.734  33.853  28.518  1.00  0.00     0.016 A 
ATOM     31  C   UNL A   1      34.625  32.892  30.454  1.00  0.00     0.016 A 
ATOM     32  C   UNL A   1      36.966  33.392  28.985  1.00  0.00     0.010 A 
ATOM     33  C   UNL A   1      35.852  32.434  30.920  1.00  0.00     0.010 A 
ATOM     34  C   UNL A   1      37.023  32.662  30.178  1.00  0.00    -0.014 A 
BRANCH  34  35
ATOM     35  C   UNL A   1      38.238  31.925  30.584  1.00  0.00     0.031 A 
ATOM     36  C   UNL A   1      39.217  32.648  31.460  1.00  0.00     0.074 A 
ATOM     37  C   UNL A   1      38.527  30.713  30.083  1.00  0.00     0.049 A 
ATOM     38  N   UNL A   1      40.452  32.345  31.755  1.00  0.00    -0.248 NA
ATOM     39  C   UNL A   1      38.740  33.909  32.053  1.00  0.00     0.031 C 
ATOM     40  C   UNL A   1      37.649  29.911  29.235  1.00  0.00     0.029 A 
ATOM     41  N   UNL A   1      39.676  29.970  30.183  1.00  0.00    -0.354 N 
ATOM     42  C   UNL A   1      40.912  33.397  32.535  1.00  0.00     0.074 A 
ATOM     43  C   UNL A   1      39.830  34.350  32.655  1.00  0.00     0.031 C 
ATOM     44  C   UNL A   1      38.306  28.799  28.860  1.00  0.00     0.029 A 
ATOM     45  C   UNL A   1      39.662  28.837  29.407  1.00  0.00     0.049 A 
ATOM     46  H   UNL A   1      40.436  30.222  30.756  1.00  0.00     0.167 HD
ATOM     47  C   UNL A   1      42.134  33.563  33.094  1.00  0.00     0.031 A 
ATOM     48  C   UNL A   1      40.648  27.960  29.133  1.00  0.00     0.031 A 
ATOM     49  C   UNL A   1      43.209  32.622  32.951  1.00  0.00     0.049 A 
ATOM     50  C   UNL A   1      42.012  28.173  29.735  1.00  0.00     0.074 A 
ATOM     51  C   UNL A   1      44.478  32.671  33.497  1.00  0.00     0.029 A 
ATOM     52  N   UNL A   1      43.141  31.466  32.190  1.00  0.00    -0.354 N 
ATOM     53  N   UNL A   1      42.432  29.150  30.505  1.00  0.00    -0.248 NA
ATOM     54  C   UNL A   1      43.036  27.163  29.434  1.00  0.00     0.031 C 
ATOM     55  C   UNL A   1      45.194  31.566  33.026  1.00  0.00     0.029 A 
ATOM     56  C   UNL A   1      44.352  30.801  32.233  1.00  0.00     0.049 A 
ATOM     57  H   UNL A   1      42.347  31.162  31.693  1.00  0.00     0.167 HD
ATOM     58  C   UNL A   1      43.759  28.858  30.802  1.00  0.00     0.074 A 
ATOM     59  C   UNL A   1      44.072  27.612  30.132  1.00  0.00     0.031 C 
ATOM     60  C   UNL A   1      44.637  29.557  31.563  1.00  0.00     0.031 A 
BRANCH  47  61
ATOM     61  C   UNL A   1      42.365  34.837  33.853  1.00  0.00    -0.014 A 
ATOM     62  C   UNL A   1      42.829  35.999  33.213  1.00  0.00     0.009 A 
ATOM     63  C   UNL A   1      42.151  34.866  35.239  1.00  0.00     0.009 A 
ATOM     64  C   UNL A   1      43.127  37.143  33.954  1.00  0.00     0.001 A 
ATOM     65  C   UNL A   1      42.418  36.022  35.973  1.00  0.00     0.001 A 
ATOM     66  C   UNL A   1      42.921  37.154  35.333  1.00  0.00     0.000 A 
ENDBRANCH  47  61
BRANCH  48  67
ATOM     67  C   UNL A   1      40.384  26.815  28.224  1.00  0.00    -0.014 A 
ATOM     68  C   UNL A   1      40.802  26.857  26.885  1.00  0.00     0.009 A 
ATOM     69  C   UNL A   1      39.733  25.664  28.695  1.00  0.00     0.009 A 
ATOM     70  C   UNL A   1      40.562  25.775  26.035  1.00  0.00     0.001 A 
ATOM     71  C   UNL A   1      39.518  24.573  27.849  1.00  0.00     0.001 A 
ATOM     72  C   UNL A   1      39.928  24.632  26.518  1.00  0.00     0.000 A 
ENDBRANCH  48  67
BRANCH  60  73
ATOM     73  C   UNL A   1      46.007  28.972  31.758  1.00  0.00    -0.014 A 
ATOM     74  C   UNL A   1      47.080  29.329  30.929  1.00  0.00     0.009 A 
ATOM     75  C   UNL A   1      46.241  28.115  32.846  1.00  0.00     0.009 A 
ATOM     76  C   UNL A   1      48.358  28.822  31.175  1.00  0.00     0.001 A 
ATOM     77  C   UNL A   1      47.523  27.633  33.105  1.00  0.00     0.001 A 
ATOM     78  C   UNL A   1      48.580  27.982  32.266  1.00  0.00     0.000 A 
ENDBRANCH  60  73
ENDBRANCH  34  35
ENDBRANCH  27  29
ENDBRANCH  26  27
ENDBRANCH  25  26
ENDBRANCH  24  25
ENDBRANCH  23  24
ENDBRANCH  22  23
ENDBRANCH  21  22
ENDBRANCH   1  21
TORSDOF 23
ENDMDL
