MODEL 1
REMARK VINA RESULT:     -11.3      0.000      0.000
REMARK SMILES Cc1ccc(S(=O)(=O)n2cc(C(=O)C(=O)N[C@@H](Cc3c[nH]c4ccccc34)C(=O)NCC(=O)OCCOCCOCCOC(=O)c3ccc(-c4c5nc(c(-c6ccccc6)c6ccc([nH]6)c(-c6ccccc6)c6nc(c(-c7ccccc7)c7ccc4[nH]7)C=C6)C=C5)cc3)c3ccccc32)cc1
REMARK SMILES IDX 36 1 35 2 34 3 32 4 33 5 31 6 30 7 28 8 29 9 17 11 16 12
REMARK SMILES IDX 14 13 15 14 12 16 13 17 11 18 9 19 10 20 99 21 94 22 98 23
REMARK SMILES IDX 95 24 97 25 96 26 6 27 7 28 8 29 5 30 1 31 2 32 3 33 101 34
REMARK SMILES IDX 4 35 100 36 18 37 19 38 20 39 27 40 21 41 22 42 26 43 23 45
REMARK SMILES IDX 25 46 24 47 37 48 38 49 39 50 40 51 41 52 42 53 43 54 44 55
REMARK SMILES IDX 45 56 46 57 47 58 93 59 48 60 92 61 49 62 50 63 51 64 86 65
REMARK SMILES IDX 52 66 91 67 85 68 87 69 53 70 90 71 84 72 83 73 54 75 76 76
REMARK SMILES IDX 61 77 75 78 62 79 65 80 74 81 88 82 63 83 64 84 73 86 89 87
REMARK SMILES IDX 66 88 55 89 56 90 60 91 57 92 59 93 58 94 77 95 78 96 82 97
REMARK SMILES IDX 79 98 81 99 80 100 67 101 68 102 72 103 69 104 71 105 70 106
REMARK H PARENT 30 10 16 15 21 44 87 74 65 85
REMARK Flexibility Score: inf
ROOT
ATOM      1  C   UNL A   1      34.607  23.168  26.578  1.00  0.00     0.202 C 
ENDROOT
BRANCH   1   2
ATOM      2  C   UNL A   1      33.688  22.547  27.631  1.00  0.00     0.261 C 
BRANCH   2   3
ATOM      3  O   UNL A   1      32.158  22.960  27.551  1.00  0.00    -0.462 OA
BRANCH   3   4
ATOM      4  C   UNL A   1      30.953  23.122  26.874  1.00  0.00     0.325 C 
ATOM      5  O   UNL A   1      29.934  23.172  27.580  1.00  0.00    -0.250 OA
BRANCH   4   6
ATOM      6  C   UNL A   1      30.672  23.141  25.226  1.00  0.00     0.238 C 
BRANCH   6   7
ATOM      7  N   UNL A   1      31.800  23.811  24.398  1.00  0.00    -0.343 N 
ATOM      8  C   UNL A   1      32.235  25.030  23.915  1.00  0.00     0.243 C 
ATOM      9  O   UNL A   1      33.031  24.884  22.964  1.00  0.00    -0.273 OA
ATOM     10  H   UNL A   1      32.435  23.115  24.114  1.00  0.00     0.164 HD
BRANCH   8  11
ATOM     11  C   UNL A   1      32.008  26.593  24.390  1.00  0.00     0.176 C 
BRANCH  11  12
ATOM     12  N   UNL A   1      33.156  27.591  24.261  1.00  0.00    -0.337 N 
ATOM     13  C   UNL A   1      33.924  28.499  25.017  1.00  0.00     0.293 C 
ATOM     14  O   UNL A   1      34.864  29.074  24.466  1.00  0.00    -0.265 OA
ATOM     15  H   UNL A   1      33.467  27.605  23.327  1.00  0.00     0.164 HD
BRANCH  13  16
ATOM     16  C   UNL A   1      33.682  28.832  26.480  1.00  0.00     0.252 C 
ATOM     17  O   UNL A   1      33.071  27.946  27.087  1.00  0.00    -0.283 OA
BRANCH  16  18
ATOM     18  C   UNL A   1      34.167  30.035  27.260  1.00  0.00     0.054 A 
ATOM     19  N   UNL A   1      34.429  31.639  28.871  1.00  0.00    -0.240 N 
ATOM     20  C   UNL A   1      33.680  31.293  27.711  1.00  0.00     0.117 A 
ATOM     21  C   UNL A   1      35.377  30.606  29.043  1.00  0.00     0.065 A 
ATOM     22  C   UNL A   1      35.480  29.994  27.806  1.00  0.00     0.012 A 
ATOM     23  C   UNL A   1      36.333  30.369  30.049  1.00  0.00     0.028 A 
ATOM     24  C   UNL A   1      36.691  29.368  27.454  1.00  0.00     0.011 A 
ATOM     25  C   UNL A   1      37.544  29.797  29.671  1.00  0.00     0.002 A 
ATOM     26  C   UNL A   1      37.746  29.364  28.368  1.00  0.00     0.001 A 
BRANCH  19  27
ATOM     27  S   UNL A   1      35.087  33.139  29.506  1.00  0.00     0.268 S 
ATOM     28  O   UNL A   1      34.202  33.368  30.640  1.00  0.00    -0.201 OA
ATOM     29  O   UNL A   1      34.994  33.955  28.298  1.00  0.00    -0.201 OA
BRANCH  27  30
ATOM     30  C   UNL A   1      36.618  33.804  30.082  1.00  0.00     0.088 A 
ATOM     31  C   UNL A   1      40.902  34.355  30.652  1.00  0.00     0.044 C 
ATOM     32  C   UNL A   1      39.411  34.241  30.476  1.00  0.00    -0.051 A 
ATOM     33  C   UNL A   1      38.953  33.854  29.229  1.00  0.00     0.005 A 
ATOM     34  C   UNL A   1      38.462  34.442  31.507  1.00  0.00     0.005 A 
ATOM     35  C   UNL A   1      37.594  33.659  29.045  1.00  0.00     0.022 A 
ATOM     36  C   UNL A   1      37.060  34.217  31.325  1.00  0.00     0.022 A 
ENDBRANCH  27  30
ENDBRANCH  19  27
ENDBRANCH  16  18
ENDBRANCH  13  16
ENDBRANCH  11  12
BRANCH  11  37
ATOM     37  C   UNL A   1      30.550  27.084  24.083  1.00  0.00     0.072 C 
BRANCH  37  38
ATOM     38  C   UNL A   1      30.445  28.120  22.993  1.00  0.00    -0.020 A 
ATOM     39  C   UNL A   1      31.460  28.702  22.250  1.00  0.00     0.087 A 
ATOM     40  C   UNL A   1      29.265  28.833  22.667  1.00  0.00     0.003 A 
ATOM     41  N   UNL A   1      30.963  29.845  21.671  1.00  0.00    -0.361 N 
ATOM     42  C   UNL A   1      29.662  30.021  22.062  1.00  0.00     0.046 A 
ATOM     43  C   UNL A   1      27.940  28.663  23.051  1.00  0.00     0.010 A 
ATOM     44  H   UNL A   1      31.464  30.442  21.068  1.00  0.00     0.166 HD
ATOM     45  C   UNL A   1      28.840  31.138  22.003  1.00  0.00     0.026 A 
ATOM     46  C   UNL A   1      27.222  29.826  23.236  1.00  0.00     0.001 A 
ATOM     47  C   UNL A   1      27.674  31.037  22.747  1.00  0.00     0.002 A 
ENDBRANCH  37  38
ENDBRANCH  11  37
ENDBRANCH   8  11
ENDBRANCH   6   7
ENDBRANCH   4   6
ENDBRANCH   3   4
ENDBRANCH   2   3
ENDBRANCH   1   2
BRANCH   1  48
ATOM     48  O   UNL A   1      35.576  22.249  26.141  1.00  0.00    -0.376 OA
BRANCH  48  49
ATOM     49  C   UNL A   1      36.817  22.860  25.802  1.00  0.00     0.188 C 
BRANCH  49  50
ATOM     50  C   UNL A   1      37.997  21.935  25.460  1.00  0.00     0.188 C 
BRANCH  50  51
ATOM     51  O   UNL A   1      37.634  20.768  24.729  1.00  0.00    -0.376 OA
BRANCH  51  52
ATOM     52  C   UNL A   1      38.346  19.561  24.953  1.00  0.00     0.202 C 
BRANCH  52  53
ATOM     53  C   UNL A   1      39.430  19.752  26.014  1.00  0.00     0.261 C 
BRANCH  53  54
ATOM     54  O   UNL A   1      40.661  19.186  25.514  1.00  0.00    -0.460 OA
BRANCH  54  55
ATOM     55  C   UNL A   1      41.728  19.434  26.326  1.00  0.00     0.338 C 
ATOM     56  O   UNL A   1      42.355  18.598  26.921  1.00  0.00    -0.246 OA
BRANCH  55  57
ATOM     57  C   UNL A   1      41.775  20.911  26.605  1.00  0.00     0.060 A 
ATOM     58  C   UNL A   1      42.177  21.695  25.568  1.00  0.00     0.016 A 
ATOM     59  C   UNL A   1      41.703  21.529  27.863  1.00  0.00     0.016 A 
ATOM     60  C   UNL A   1      42.697  22.964  25.878  1.00  0.00     0.010 A 
ATOM     61  C   UNL A   1      42.279  22.829  28.114  1.00  0.00     0.010 A 
ATOM     62  C   UNL A   1      42.944  23.555  27.123  1.00  0.00    -0.014 A 
BRANCH  62  63
ATOM     63  C   UNL A   1      43.904  24.763  27.459  1.00  0.00     0.031 A 
ATOM     64  C   UNL A   1      44.943  25.144  26.453  1.00  0.00     0.074 A 
ATOM     65  C   UNL A   1      44.256  25.519  28.580  1.00  0.00     0.049 A 
ATOM     66  N   UNL A   1      45.117  26.273  25.836  1.00  0.00    -0.248 NA
ATOM     67  C   UNL A   1      46.071  24.239  26.341  1.00  0.00     0.031 C 
ATOM     68  C   UNL A   1      44.619  26.942  28.435  1.00  0.00     0.029 A 
ATOM     69  N   UNL A   1      44.113  25.475  29.984  1.00  0.00    -0.354 N 
ATOM     70  C   UNL A   1      46.388  26.240  25.304  1.00  0.00     0.074 A 
ATOM     71  C   UNL A   1      46.882  24.889  25.517  1.00  0.00     0.031 C 
ATOM     72  C   UNL A   1      44.742  27.540  29.621  1.00  0.00     0.029 A 
ATOM     73  C   UNL A   1      44.596  26.573  30.669  1.00  0.00     0.049 A 
ATOM     74  H   UNL A   1      43.697  24.712  30.445  1.00  0.00     0.167 HD
ATOM     75  C   UNL A   1      47.346  27.205  25.358  1.00  0.00     0.031 A 
ATOM     76  C   UNL A   1      44.936  26.720  31.978  1.00  0.00     0.031 A 
ATOM     77  C   UNL A   1      47.430  28.078  26.526  1.00  0.00     0.049 A 
ATOM     78  C   UNL A   1      46.237  27.503  32.067  1.00  0.00     0.074 A 
ATOM     79  C   UNL A   1      46.696  29.151  26.993  1.00  0.00     0.029 A 
ATOM     80  N   UNL A   1      48.395  27.848  27.516  1.00  0.00    -0.354 N 
ATOM     81  N   UNL A   1      46.683  28.271  31.103  1.00  0.00    -0.248 NA
ATOM     82  C   UNL A   1      47.250  27.302  33.105  1.00  0.00     0.031 C 
ATOM     83  C   UNL A   1      47.122  29.448  28.326  1.00  0.00     0.029 A 
ATOM     84  C   UNL A   1      48.119  28.557  28.700  1.00  0.00     0.049 A 
ATOM     85  H   UNL A   1      49.175  27.260  27.399  1.00  0.00     0.167 HD
ATOM     86  C   UNL A   1      48.054  28.241  31.140  1.00  0.00     0.074 A 
ATOM     87  C   UNL A   1      48.332  27.847  32.517  1.00  0.00     0.031 C 
ATOM     88  C   UNL A   1      48.820  28.272  29.991  1.00  0.00     0.031 A 
BRANCH  75  89
ATOM     89  C   UNL A   1      47.902  27.455  23.978  1.00  0.00    -0.014 A 
ATOM     90  C   UNL A   1      47.166  28.195  23.051  1.00  0.00     0.009 A 
ATOM     91  C   UNL A   1      49.096  26.844  23.509  1.00  0.00     0.009 A 
ATOM     92  C   UNL A   1      47.573  28.272  21.711  1.00  0.00     0.001 A 
ATOM     93  C   UNL A   1      49.504  26.922  22.178  1.00  0.00     0.001 A 
ATOM     94  C   UNL A   1      48.729  27.627  21.273  1.00  0.00     0.000 A 
ENDBRANCH  75  89
BRANCH  76  95
ATOM     95  C   UNL A   1      44.406  25.707  32.940  1.00  0.00    -0.014 A 
ATOM     96  C   UNL A   1      45.009  24.433  32.957  1.00  0.00     0.009 A 
ATOM     97  C   UNL A   1      43.563  26.024  34.012  1.00  0.00     0.009 A 
ATOM     98  C   UNL A   1      44.846  23.555  34.041  1.00  0.00     0.001 A 
ATOM     99  C   UNL A   1      43.405  25.152  35.104  1.00  0.00     0.001 A 
ATOM    100  C   UNL A   1      44.067  23.929  35.130  1.00  0.00     0.000 A 
ENDBRANCH  76  95
BRANCH  88 101
ATOM    101  C   UNL A   1      50.301  27.922  30.011  1.00  0.00    -0.014 A 
ATOM    102  C   UNL A   1      51.349  28.859  29.945  1.00  0.00     0.009 A 
ATOM    103  C   UNL A   1      50.686  26.579  30.174  1.00  0.00     0.009 A 
ATOM    104  C   UNL A   1      52.696  28.473  29.932  1.00  0.00     0.001 A 
ATOM    105  C   UNL A   1      52.032  26.193  30.242  1.00  0.00     0.001 A 
ATOM    106  C   UNL A   1      53.038  27.138  30.088  1.00  0.00     0.000 A 
ENDBRANCH  88 101
ENDBRANCH  62  63
ENDBRANCH  55  57
ENDBRANCH  54  55
ENDBRANCH  53  54
ENDBRANCH  52  53
ENDBRANCH  51  52
ENDBRANCH  50  51
ENDBRANCH  49  50
ENDBRANCH  48  49
ENDBRANCH   1  48
TORSDOF 26
ENDMDL
MODEL 2
REMARK VINA RESULT:     -11.1      1.390      2.078
REMARK SMILES Cc1ccc(S(=O)(=O)n2cc(C(=O)C(=O)N[C@@H](Cc3c[nH]c4ccccc34)C(=O)NCC(=O)OCCOCCOCCOC(=O)c3ccc(-c4c5nc(c(-c6ccccc6)c6ccc([nH]6)c(-c6ccccc6)c6nc(c(-c7ccccc7)c7ccc4[nH]7)C=C6)C=C5)cc3)c3ccccc32)cc1
REMARK SMILES IDX 36 1 35 2 34 3 32 4 33 5 31 6 30 7 28 8 29 9 17 11 16 12
REMARK SMILES IDX 14 13 15 14 12 16 13 17 11 18 9 19 10 20 99 21 94 22 98 23
REMARK SMILES IDX 95 24 97 25 96 26 6 27 7 28 8 29 5 30 1 31 2 32 3 33 101 34
REMARK SMILES IDX 4 35 100 36 18 37 19 38 20 39 27 40 21 41 22 42 26 43 23 45
REMARK SMILES IDX 25 46 24 47 37 48 38 49 39 50 40 51 41 52 42 53 43 54 44 55
REMARK SMILES IDX 45 56 46 57 47 58 93 59 48 60 92 61 49 62 50 63 51 64 86 65
REMARK SMILES IDX 52 66 91 67 85 68 87 69 53 70 90 71 84 72 83 73 54 75 76 76
REMARK SMILES IDX 61 77 75 78 62 79 65 80 74 81 88 82 63 83 64 84 73 86 89 87
REMARK SMILES IDX 66 88 55 89 56 90 60 91 57 92 59 93 58 94 77 95 78 96 82 97
REMARK SMILES IDX 79 98 81 99 80 100 67 101 68 102 72 103 69 104 71 105 70 106
REMARK H PARENT 30 10 16 15 21 44 87 74 65 85
REMARK Flexibility Score: inf
ROOT
ATOM      1  C   UNL A   1      34.741  23.535  26.191  1.00  0.00     0.202 C 
ENDROOT
BRANCH   1   2
ATOM      2  C   UNL A   1      33.966  22.775  27.268  1.00  0.00     0.261 C 
BRANCH   2   3
ATOM      3  O   UNL A   1      32.413  23.091  27.360  1.00  0.00    -0.462 OA
BRANCH   3   4
ATOM      4  C   UNL A   1      31.120  23.112  26.845  1.00  0.00     0.325 C 
ATOM      5  O   UNL A   1      30.203  22.967  27.668  1.00  0.00    -0.250 OA
BRANCH   4   6
ATOM      6  C   UNL A   1      30.631  23.188  25.248  1.00  0.00     0.238 C 
BRANCH   6   7
ATOM      7  N   UNL A   1      31.669  23.843  24.297  1.00  0.00    -0.343 N 
ATOM      8  C   UNL A   1      32.029  25.046  23.722  1.00  0.00     0.243 C 
ATOM      9  O   UNL A   1      32.749  24.871  22.716  1.00  0.00    -0.273 OA
ATOM     10  H   UNL A   1      32.298  23.149  23.996  1.00  0.00     0.164 HD
BRANCH   8  11
ATOM     11  C   UNL A   1      31.798  26.625  24.139  1.00  0.00     0.176 C 
BRANCH  11  12
ATOM     12  N   UNL A   1      32.944  27.620  23.972  1.00  0.00    -0.337 N 
ATOM     13  C   UNL A   1      33.603  28.671  24.641  1.00  0.00     0.293 C 
ATOM     14  O   UNL A   1      34.599  29.169  24.114  1.00  0.00    -0.265 OA
ATOM     15  H   UNL A   1      33.368  27.479  23.095  1.00  0.00     0.164 HD
BRANCH  13  16
ATOM     16  C   UNL A   1      33.179  29.248  25.982  1.00  0.00     0.252 C 
ATOM     17  O   UNL A   1      31.954  29.278  26.133  1.00  0.00    -0.283 OA
BRANCH  16  18
ATOM     18  C   UNL A   1      34.058  29.686  27.134  1.00  0.00     0.054 A 
ATOM     19  N   UNL A   1      35.868  30.255  28.413  1.00  0.00    -0.240 N 
ATOM     20  C   UNL A   1      35.081  29.156  27.969  1.00  0.00     0.117 A 
ATOM     21  C   UNL A   1      35.258  31.411  27.877  1.00  0.00     0.065 A 
ATOM     22  C   UNL A   1      33.961  31.034  27.575  1.00  0.00     0.012 A 
ATOM     23  C   UNL A   1      35.625  32.770  27.917  1.00  0.00     0.028 A 
ATOM     24  C   UNL A   1      32.946  32.008  27.599  1.00  0.00     0.011 A 
ATOM     25  C   UNL A   1      34.606  33.714  27.992  1.00  0.00     0.002 A 
ATOM     26  C   UNL A   1      33.276  33.329  27.904  1.00  0.00     0.001 A 
BRANCH  19  27
ATOM     27  S   UNL A   1      36.658  30.668  29.927  1.00  0.00     0.268 S 
ATOM     28  O   UNL A   1      38.025  30.883  29.472  1.00  0.00    -0.201 OA
ATOM     29  O   UNL A   1      36.297  29.483  30.700  1.00  0.00    -0.201 OA
BRANCH  27  30
ATOM     30  C   UNL A   1      36.515  31.826  31.251  1.00  0.00     0.088 A 
ATOM     31  C   UNL A   1      35.016  35.106  33.696  1.00  0.00     0.044 C 
ATOM     32  C   UNL A   1      35.568  33.943  32.917  1.00  0.00    -0.051 A 
ATOM     33  C   UNL A   1      34.656  33.141  32.253  1.00  0.00     0.005 A 
ATOM     34  C   UNL A   1      36.946  33.656  32.770  1.00  0.00     0.005 A 
ATOM     35  C   UNL A   1      35.126  32.107  31.459  1.00  0.00     0.022 A 
ATOM     36  C   UNL A   1      37.435  32.603  31.930  1.00  0.00     0.022 A 
ENDBRANCH  27  30
ENDBRANCH  19  27
ENDBRANCH  16  18
ENDBRANCH  13  16
ENDBRANCH  11  12
BRANCH  11  37
ATOM     37  C   UNL A   1      30.339  27.101  23.814  1.00  0.00     0.072 C 
BRANCH  37  38
ATOM     38  C   UNL A   1      30.246  28.215  22.802  1.00  0.00    -0.020 A 
ATOM     39  C   UNL A   1      31.246  28.751  22.008  1.00  0.00     0.087 A 
ATOM     40  C   UNL A   1      29.118  29.055  22.628  1.00  0.00     0.003 A 
ATOM     41  N   UNL A   1      30.817  29.972  21.546  1.00  0.00    -0.361 N 
ATOM     42  C   UNL A   1      29.577  30.241  22.064  1.00  0.00     0.046 A 
ATOM     43  C   UNL A   1      27.819  28.982  23.119  1.00  0.00     0.010 A 
ATOM     44  H   UNL A   1      31.322  30.561  20.938  1.00  0.00     0.166 HD
ATOM     45  C   UNL A   1      28.866  31.430  22.147  1.00  0.00     0.026 A 
ATOM     46  C   UNL A   1      27.238  30.191  23.439  1.00  0.00     0.001 A 
ATOM     47  C   UNL A   1      27.763  31.386  22.985  1.00  0.00     0.002 A 
ENDBRANCH  37  38
ENDBRANCH  11  37
ENDBRANCH   8  11
ENDBRANCH   6   7
ENDBRANCH   4   6
ENDBRANCH   3   4
ENDBRANCH   2   3
ENDBRANCH   1   2
BRANCH   1  48
ATOM     48  O   UNL A   1      35.679  22.704  25.556  1.00  0.00    -0.376 OA
BRANCH  48  49
ATOM     49  C   UNL A   1      37.026  23.126  25.750  1.00  0.00     0.188 C 
BRANCH  49  50
ATOM     50  C   UNL A   1      38.134  22.075  25.573  1.00  0.00     0.188 C 
BRANCH  50  51
ATOM     51  O   UNL A   1      37.668  20.796  25.154  1.00  0.00    -0.376 OA
BRANCH  51  52
ATOM     52  C   UNL A   1      38.601  19.743  24.974  1.00  0.00     0.202 C 
BRANCH  52  53
ATOM     53  C   UNL A   1      39.673  19.767  26.065  1.00  0.00     0.261 C 
BRANCH  53  54
ATOM     54  O   UNL A   1      40.956  19.525  25.448  1.00  0.00    -0.460 OA
BRANCH  54  55
ATOM     55  C   UNL A   1      41.993  19.610  26.329  1.00  0.00     0.338 C 
ATOM     56  O   UNL A   1      42.529  18.673  26.861  1.00  0.00    -0.246 OA
BRANCH  55  57
ATOM     57  C   UNL A   1      42.127  21.043  26.762  1.00  0.00     0.060 A 
ATOM     58  C   UNL A   1      42.584  21.907  25.815  1.00  0.00     0.016 A 
ATOM     59  C   UNL A   1      42.083  21.528  28.079  1.00  0.00     0.016 A 
ATOM     60  C   UNL A   1      43.177  23.102  26.259  1.00  0.00     0.010 A 
ATOM     61  C   UNL A   1      42.734  22.756  28.467  1.00  0.00     0.010 A 
ATOM     62  C   UNL A   1      43.450  23.542  27.559  1.00  0.00    -0.014 A 
BRANCH  62  63
ATOM     63  C   UNL A   1      44.478  24.647  28.023  1.00  0.00     0.031 A 
ATOM     64  C   UNL A   1      45.629  24.967  27.123  1.00  0.00     0.074 A 
ATOM     65  C   UNL A   1      44.797  25.330  29.199  1.00  0.00     0.049 A 
ATOM     66  N   UNL A   1      45.953  26.095  26.568  1.00  0.00    -0.248 NA
ATOM     67  C   UNL A   1      46.680  23.968  27.066  1.00  0.00     0.031 C 
ATOM     68  C   UNL A   1      45.294  26.719  29.143  1.00  0.00     0.029 A 
ATOM     69  N   UNL A   1      44.531  25.252  30.583  1.00  0.00    -0.354 N 
ATOM     70  C   UNL A   1      47.257  25.966  26.143  1.00  0.00     0.074 A 
ATOM     71  C   UNL A   1      47.612  24.569  26.340  1.00  0.00     0.031 C 
ATOM     72  C   UNL A   1      45.366  27.263  30.358  1.00  0.00     0.029 A 
ATOM     73  C   UNL A   1      45.046  26.279  31.350  1.00  0.00     0.049 A 
ATOM     74  H   UNL A   1      44.012  24.515  30.977  1.00  0.00     0.167 HD
ATOM     75  C   UNL A   1      48.287  26.839  26.315  1.00  0.00     0.031 A 
ATOM     76  C   UNL A   1      45.285  26.350  32.687  1.00  0.00     0.031 A 
ATOM     77  C   UNL A   1      48.346  27.661  27.520  1.00  0.00     0.049 A 
ATOM     78  C   UNL A   1      46.636  27.010  32.916  1.00  0.00     0.074 A 
ATOM     79  C   UNL A   1      47.670  28.779  27.968  1.00  0.00     0.029 A 
ATOM     80  N   UNL A   1      49.198  27.313  28.577  1.00  0.00    -0.354 N 
ATOM     81  N   UNL A   1      47.228  27.767  32.024  1.00  0.00    -0.248 NA
ATOM     82  C   UNL A   1      47.535  26.684  34.025  1.00  0.00     0.031 C 
ATOM     83  C   UNL A   1      48.004  28.992  29.343  1.00  0.00     0.029 A 
ATOM     84  C   UNL A   1      48.885  28.003  29.761  1.00  0.00     0.049 A 
ATOM     85  H   UNL A   1      49.932  26.660  28.500  1.00  0.00     0.167 HD
ATOM     86  C   UNL A   1      48.583  27.613  32.173  1.00  0.00     0.074 A 
ATOM     87  C   UNL A   1      48.707  27.149  33.551  1.00  0.00     0.031 C 
ATOM     88  C   UNL A   1      49.445  27.613  31.093  1.00  0.00     0.031 A 
BRANCH  75  89
ATOM     89  C   UNL A   1      48.979  27.083  24.996  1.00  0.00    -0.014 A 
ATOM     90  C   UNL A   1      50.276  27.598  24.972  1.00  0.00     0.009 A 
ATOM     91  C   UNL A   1      48.317  26.950  23.746  1.00  0.00     0.009 A 
ATOM     92  C   UNL A   1      50.859  28.013  23.766  1.00  0.00     0.001 A 
ATOM     93  C   UNL A   1      48.897  27.358  22.545  1.00  0.00     0.001 A 
ATOM     94  C   UNL A   1      50.168  27.906  22.559  1.00  0.00     0.000 A 
ENDBRANCH  75  89
BRANCH  76  95
ATOM     95  C   UNL A   1      44.589  25.358  33.560  1.00  0.00    -0.014 A 
ATOM     96  C   UNL A   1      43.541  25.821  34.383  1.00  0.00     0.009 A 
ATOM     97  C   UNL A   1      44.706  23.971  33.402  1.00  0.00     0.009 A 
ATOM     98  C   UNL A   1      42.603  24.940  34.946  1.00  0.00     0.001 A 
ATOM     99  C   UNL A   1      43.763  23.087  33.956  1.00  0.00     0.001 A 
ATOM    100  C   UNL A   1      42.697  23.574  34.706  1.00  0.00     0.000 A 
ENDBRANCH  76  95
BRANCH  88 101
ATOM    101  C   UNL A   1      50.883  27.131  31.221  1.00  0.00    -0.014 A 
ATOM    102  C   UNL A   1      51.269  25.786  31.378  1.00  0.00     0.009 A 
ATOM    103  C   UNL A   1      51.930  28.063  31.112  1.00  0.00     0.009 A 
ATOM    104  C   UNL A   1      52.609  25.407  31.526  1.00  0.00     0.001 A 
ATOM    105  C   UNL A   1      53.277  27.680  31.180  1.00  0.00     0.001 A 
ATOM    106  C   UNL A   1      53.616  26.355  31.420  1.00  0.00     0.000 A 
ENDBRANCH  88 101
ENDBRANCH  62  63
ENDBRANCH  55  57
ENDBRANCH  54  55
ENDBRANCH  53  54
ENDBRANCH  52  53
ENDBRANCH  51  52
ENDBRANCH  50  51
ENDBRANCH  49  50
ENDBRANCH  48  49
ENDBRANCH   1  48
TORSDOF 26
ENDMDL
MODEL 3
REMARK VINA RESULT:     -10.6      2.351      3.465
REMARK SMILES Cc1ccc(S(=O)(=O)n2cc(C(=O)C(=O)N[C@@H](Cc3c[nH]c4ccccc34)C(=O)NCC(=O)OCCOCCOCCOC(=O)c3ccc(-c4c5nc(c(-c6ccccc6)c6ccc([nH]6)c(-c6ccccc6)c6nc(c(-c7ccccc7)c7ccc4[nH]7)C=C6)C=C5)cc3)c3ccccc32)cc1
REMARK SMILES IDX 36 1 35 2 34 3 32 4 33 5 31 6 30 7 28 8 29 9 17 11 16 12
REMARK SMILES IDX 14 13 15 14 12 16 13 17 11 18 9 19 10 20 99 21 94 22 98 23
REMARK SMILES IDX 95 24 97 25 96 26 6 27 7 28 8 29 5 30 1 31 2 32 3 33 101 34
REMARK SMILES IDX 4 35 100 36 18 37 19 38 20 39 27 40 21 41 22 42 26 43 23 45
REMARK SMILES IDX 25 46 24 47 37 48 38 49 39 50 40 51 41 52 42 53 43 54 44 55
REMARK SMILES IDX 45 56 46 57 47 58 93 59 48 60 92 61 49 62 50 63 51 64 86 65
REMARK SMILES IDX 52 66 91 67 85 68 87 69 53 70 90 71 84 72 83 73 54 75 76 76
REMARK SMILES IDX 61 77 75 78 62 79 65 80 74 81 88 82 63 83 64 84 73 86 89 87
REMARK SMILES IDX 66 88 55 89 56 90 60 91 57 92 59 93 58 94 77 95 78 96 82 97
REMARK SMILES IDX 79 98 81 99 80 100 67 101 68 102 72 103 69 104 71 105 70 106
REMARK H PARENT 30 10 16 15 21 44 87 74 65 85
REMARK Flexibility Score: inf
ROOT
ATOM      1  C   UNL A   1      34.480  22.892  26.937  1.00  0.00     0.202 C 
ENDROOT
BRANCH   1   2
ATOM      2  C   UNL A   1      33.363  22.222  27.739  1.00  0.00     0.261 C 
BRANCH   2   3
ATOM      3  O   UNL A   1      31.944  22.930  27.680  1.00  0.00    -0.462 OA
BRANCH   3   4
ATOM      4  C   UNL A   1      30.678  23.124  27.136  1.00  0.00     0.325 C 
ATOM      5  O   UNL A   1      29.720  22.833  27.867  1.00  0.00    -0.250 OA
BRANCH   4   6
ATOM      6  C   UNL A   1      30.267  23.586  25.581  1.00  0.00     0.238 C 
BRANCH   6   7
ATOM      7  N   UNL A   1      31.458  24.119  24.742  1.00  0.00    -0.343 N 
ATOM      8  C   UNL A   1      32.056  25.281  24.294  1.00  0.00     0.243 C 
ATOM      9  O   UNL A   1      32.794  25.062  23.310  1.00  0.00    -0.273 OA
ATOM     10  H   UNL A   1      31.974  23.351  24.408  1.00  0.00     0.164 HD
BRANCH   8  11
ATOM     11  C   UNL A   1      32.079  26.837  24.841  1.00  0.00     0.176 C 
BRANCH  11  12
ATOM     12  N   UNL A   1      33.363  27.653  24.727  1.00  0.00    -0.337 N 
ATOM     13  C   UNL A   1      34.002  28.793  25.259  1.00  0.00     0.293 C 
ATOM     14  O   UNL A   1      35.151  29.045  24.893  1.00  0.00    -0.265 OA
ATOM     15  H   UNL A   1      33.947  27.243  24.050  1.00  0.00     0.164 HD
BRANCH  13  16
ATOM     16  C   UNL A   1      33.379  29.749  26.262  1.00  0.00     0.252 C 
ATOM     17  O   UNL A   1      32.166  29.912  26.090  1.00  0.00    -0.283 OA
BRANCH  16  18
ATOM     18  C   UNL A   1      34.034  30.420  27.449  1.00  0.00     0.054 A 
ATOM     19  N   UNL A   1      35.569  31.378  28.851  1.00  0.00    -0.240 N 
ATOM     20  C   UNL A   1      35.010  30.134  28.444  1.00  0.00     0.117 A 
ATOM     21  C   UNL A   1      34.870  32.371  28.129  1.00  0.00     0.065 A 
ATOM     22  C   UNL A   1      33.689  31.771  27.729  1.00  0.00     0.012 A 
ATOM     23  C   UNL A   1      35.030  33.769  28.062  1.00  0.00     0.028 A 
ATOM     24  C   UNL A   1      32.549  32.573  27.535  1.00  0.00     0.011 A 
ATOM     25  C   UNL A   1      33.884  34.545  27.922  1.00  0.00     0.002 A 
ATOM     26  C   UNL A   1      32.645  33.952  27.730  1.00  0.00     0.001 A 
BRANCH  19  27
ATOM     27  S   UNL A   1      36.096  32.044  30.388  1.00  0.00     0.268 S 
ATOM     28  O   UNL A   1      34.815  32.240  31.055  1.00  0.00    -0.201 OA
ATOM     29  O   UNL A   1      36.869  33.178  29.889  1.00  0.00    -0.201 OA
BRANCH  27  30
ATOM     30  C   UNL A   1      37.165  31.646  31.735  1.00  0.00     0.088 A 
ATOM     31  C   UNL A   1      40.760  30.564  33.945  1.00  0.00     0.044 C 
ATOM     32  C   UNL A   1      39.489  30.969  33.249  1.00  0.00    -0.051 A 
ATOM     33  C   UNL A   1      39.611  31.808  32.155  1.00  0.00     0.005 A 
ATOM     34  C   UNL A   1      38.198  30.506  33.599  1.00  0.00     0.005 A 
ATOM     35  C   UNL A   1      38.474  32.142  31.436  1.00  0.00     0.022 A 
ATOM     36  C   UNL A   1      37.026  30.830  32.843  1.00  0.00     0.022 A 
ENDBRANCH  27  30
ENDBRANCH  19  27
ENDBRANCH  16  18
ENDBRANCH  13  16
ENDBRANCH  11  12
BRANCH  11  37
ATOM     37  C   UNL A   1      30.709  27.558  24.589  1.00  0.00     0.072 C 
BRANCH  37  38
ATOM     38  C   UNL A   1      30.627  28.335  23.299  1.00  0.00    -0.020 A 
ATOM     39  C   UNL A   1      31.660  28.811  22.509  1.00  0.00     0.087 A 
ATOM     40  C   UNL A   1      29.438  28.888  22.763  1.00  0.00     0.003 A 
ATOM     41  N   UNL A   1      31.148  29.775  21.673  1.00  0.00    -0.361 N 
ATOM     42  C   UNL A   1      29.816  29.947  21.944  1.00  0.00     0.046 A 
ATOM     43  C   UNL A   1      28.100  28.719  23.100  1.00  0.00     0.010 A 
ATOM     44  H   UNL A   1      31.659  30.264  20.987  1.00  0.00     0.166 HD
ATOM     45  C   UNL A   1      28.945  30.973  21.603  1.00  0.00     0.026 A 
ATOM     46  C   UNL A   1      27.315  29.848  22.993  1.00  0.00     0.001 A 
ATOM     47  C   UNL A   1      27.738  30.956  22.284  1.00  0.00     0.002 A 
ENDBRANCH  37  38
ENDBRANCH  11  37
ENDBRANCH   8  11
ENDBRANCH   6   7
ENDBRANCH   4   6
ENDBRANCH   3   4
ENDBRANCH   2   3
ENDBRANCH   1   2
BRANCH   1  48
ATOM     48  O   UNL A   1      35.308  21.939  26.321  1.00  0.00    -0.376 OA
BRANCH  48  49
ATOM     49  C   UNL A   1      36.458  22.509  25.704  1.00  0.00     0.188 C 
BRANCH  49  50
ATOM     50  C   UNL A   1      37.662  21.585  25.450  1.00  0.00     0.188 C 
BRANCH  50  51
ATOM     51  O   UNL A   1      37.314  20.279  25.000  1.00  0.00    -0.376 OA
BRANCH  51  52
ATOM     52  C   UNL A   1      38.314  19.275  24.950  1.00  0.00     0.202 C 
BRANCH  52  53
ATOM     53  C   UNL A   1      39.418  19.546  25.973  1.00  0.00     0.261 C 
BRANCH  53  54
ATOM     54  O   UNL A   1      40.667  19.702  25.266  1.00  0.00    -0.460 OA
BRANCH  54  55
ATOM     55  C   UNL A   1      41.749  19.711  26.094  1.00  0.00     0.338 C 
ATOM     56  O   UNL A   1      42.364  18.737  26.442  1.00  0.00    -0.246 OA
BRANCH  55  57
ATOM     57  C   UNL A   1      41.834  21.064  26.744  1.00  0.00     0.060 A 
ATOM     58  C   UNL A   1      41.266  22.089  26.051  1.00  0.00     0.016 A 
ATOM     59  C   UNL A   1      42.644  21.422  27.833  1.00  0.00     0.016 A 
ATOM     60  C   UNL A   1      41.713  23.391  26.335  1.00  0.00     0.010 A 
ATOM     61  C   UNL A   1      43.083  22.780  28.050  1.00  0.00     0.010 A 
ATOM     62  C   UNL A   1      42.731  23.825  27.192  1.00  0.00    -0.014 A 
BRANCH  62  63
ATOM     63  C   UNL A   1      43.500  25.204  27.179  1.00  0.00     0.031 A 
ATOM     64  C   UNL A   1      44.993  25.182  27.081  1.00  0.00     0.074 A 
ATOM     65  C   UNL A   1      43.221  26.543  27.463  1.00  0.00     0.049 A 
ATOM     66  N   UNL A   1      45.767  25.701  26.178  1.00  0.00    -0.248 NA
ATOM     67  C   UNL A   1      45.695  24.766  28.280  1.00  0.00     0.031 C 
ATOM     68  C   UNL A   1      43.902  27.621  26.719  1.00  0.00     0.029 A 
ATOM     69  N   UNL A   1      42.217  27.314  28.086  1.00  0.00    -0.354 N 
ATOM     70  C   UNL A   1      47.037  25.724  26.711  1.00  0.00     0.074 A 
ATOM     71  C   UNL A   1      46.964  24.988  27.963  1.00  0.00     0.031 C 
ATOM     72  C   UNL A   1      43.377  28.815  26.994  1.00  0.00     0.029 A 
ATOM     73  C   UNL A   1      42.387  28.683  28.022  1.00  0.00     0.049 A 
ATOM     74  H   UNL A   1      41.444  26.903  28.537  1.00  0.00     0.167 HD
ATOM     75  C   UNL A   1      47.929  26.751  26.712  1.00  0.00     0.031 A 
ATOM     76  C   UNL A   1      41.843  29.679  28.773  1.00  0.00     0.031 A 
ATOM     77  C   UNL A   1      47.449  28.128  26.783  1.00  0.00     0.049 A 
ATOM     78  C   UNL A   1      42.926  30.691  29.114  1.00  0.00     0.074 A 
ATOM     79  C   UNL A   1      46.851  28.996  25.889  1.00  0.00     0.029 A 
ATOM     80  N   UNL A   1      47.484  28.832  27.994  1.00  0.00    -0.354 N 
ATOM     81  N   UNL A   1      44.040  30.811  28.433  1.00  0.00    -0.248 NA
ATOM     82  C   UNL A   1      42.973  31.459  30.360  1.00  0.00     0.031 C 
ATOM     83  C   UNL A   1      46.389  30.142  26.610  1.00  0.00     0.029 A 
ATOM     84  C   UNL A   1      46.690  29.992  27.957  1.00  0.00     0.049 A 
ATOM     85  H   UNL A   1      48.004  28.548  28.780  1.00  0.00     0.167 HD
ATOM     86  C   UNL A   1      45.024  31.207  29.302  1.00  0.00     0.074 A 
ATOM     87  C   UNL A   1      44.269  31.823  30.389  1.00  0.00     0.031 C 
ATOM     88  C   UNL A   1      46.326  30.759  29.189  1.00  0.00     0.031 A 
BRANCH  75  89
ATOM     89  C   UNL A   1      49.272  26.266  26.221  1.00  0.00    -0.014 A 
ATOM     90  C   UNL A   1      50.074  25.476  27.046  1.00  0.00     0.009 A 
ATOM     91  C   UNL A   1      49.841  26.695  24.992  1.00  0.00     0.009 A 
ATOM     92  C   UNL A   1      51.396  25.180  26.688  1.00  0.00     0.001 A 
ATOM     93  C   UNL A   1      51.155  26.399  24.633  1.00  0.00     0.001 A 
ATOM     94  C   UNL A   1      51.940  25.650  25.493  1.00  0.00     0.000 A 
ENDBRANCH  75  89
BRANCH  76  95
ATOM     95  C   UNL A   1      40.614  29.351  29.556  1.00  0.00    -0.014 A 
ATOM     96  C   UNL A   1      39.363  29.564  28.942  1.00  0.00     0.009 A 
ATOM     97  C   UNL A   1      40.623  28.584  30.728  1.00  0.00     0.009 A 
ATOM     98  C   UNL A   1      38.192  28.960  29.428  1.00  0.00     0.001 A 
ATOM     99  C   UNL A   1      39.454  27.970  31.212  1.00  0.00     0.001 A 
ATOM    100  C   UNL A   1      38.244  28.137  30.547  1.00  0.00     0.000 A 
ENDBRANCH  76  95
BRANCH  88 101
ATOM    101  C   UNL A   1      47.331  30.939  30.318  1.00  0.00    -0.014 A 
ATOM    102  C   UNL A   1      47.750  29.917  31.191  1.00  0.00     0.009 A 
ATOM    103  C   UNL A   1      47.957  32.187  30.487  1.00  0.00     0.009 A 
ATOM    104  C   UNL A   1      48.654  30.151  32.236  1.00  0.00     0.001 A 
ATOM    105  C   UNL A   1      48.922  32.408  31.480  1.00  0.00     0.001 A 
ATOM    106  C   UNL A   1      49.246  31.397  32.376  1.00  0.00     0.000 A 
ENDBRANCH  88 101
ENDBRANCH  62  63
ENDBRANCH  55  57
ENDBRANCH  54  55
ENDBRANCH  53  54
ENDBRANCH  52  53
ENDBRANCH  51  52
ENDBRANCH  50  51
ENDBRANCH  49  50
ENDBRANCH  48  49
ENDBRANCH   1  48
TORSDOF 26
ENDMDL
