MODEL 1
REMARK VINA RESULT:      -9.8      0.000      0.000
REMARK SMILES CCc1[nH]nc(-n2cccc2)c1C(=O)OCCOCCOCCOC(=O)c1ccc(-c2c3nc(c(-c4ccccc4)c4ccc([nH]4)c(-c4ccccc4)c4nc(c(-c5ccccc5)c5ccc2[nH]5)C=C4)C=C3)cc1
REMARK SMILES IDX 20 1 19 2 18 3 17 4 16 5 15 6 13 7 14 8 12 9 3 10 4 11 5 12
REMARK SMILES IDX 6 14 2 15 1 16 7 17 8 18 11 19 9 20 10 21 21 22 22 23 23 24
REMARK SMILES IDX 24 25 25 26 26 27 27 28 28 29 74 30 29 31 73 32 30 33 31 34
REMARK SMILES IDX 32 35 67 36 33 37 72 38 66 39 68 40 34 41 71 42 65 43 64 44
REMARK SMILES IDX 35 46 57 47 42 48 56 49 43 50 46 51 55 52 69 53 44 54 45 55
REMARK SMILES IDX 54 57 70 58 47 59 36 60 37 61 41 62 38 63 40 64 39 65 58 66
REMARK SMILES IDX 59 67 63 68 60 69 62 70 61 71 48 72 49 73 53 74 50 75 52 76
REMARK SMILES IDX 51 77
REMARK H PARENT 4 13 68 45 46 56
REMARK Flexibility Score: inf
ROOT
ATOM      1  C   UNL A   1      33.819  28.792  26.194  1.00  0.00     0.188 C 
ENDROOT
BRANCH   1   2
ATOM      2  C   UNL A   1      33.614  27.293  25.890  1.00  0.00     0.188 C 
BRANCH   2   3
ATOM      3  O   UNL A   1      32.256  26.919  25.807  1.00  0.00    -0.376 OA
BRANCH   3   4
ATOM      4  C   UNL A   1      31.935  25.580  26.138  1.00  0.00     0.202 C 
BRANCH   4   5
ATOM      5  C   UNL A   1      33.060  24.547  26.361  1.00  0.00     0.261 C 
BRANCH   5   6
ATOM      6  O   UNL A   1      32.687  23.169  26.489  1.00  0.00    -0.459 OA
BRANCH   6   7
ATOM      7  C   UNL A   1      33.430  22.230  25.833  1.00  0.00     0.343 C 
ATOM      8  O   UNL A   1      33.655  21.116  26.266  1.00  0.00    -0.246 OA
BRANCH   7   9
ATOM      9  C   UNL A   1      33.822  22.677  24.500  1.00  0.00     0.125 A 
ATOM     10  C   UNL A   1      33.032  22.807  23.357  1.00  0.00     0.052 A 
ATOM     11  N   UNL A   1      33.879  23.225  22.362  1.00  0.00    -0.280 N 
ATOM     12  N   UNL A   1      35.154  23.364  22.754  1.00  0.00    -0.156 NA
ATOM     13  H   UNL A   1      33.578  23.406  21.441  1.00  0.00     0.190 HD
ATOM     14  C   UNL A   1      35.121  22.998  24.039  1.00  0.00     0.173 A 
BRANCH  10  15
ATOM     15  C   UNL A   1      31.581  22.511  23.130  1.00  0.00     0.053 C 
ATOM     16  C   UNL A   1      30.654  23.711  23.253  1.00  0.00     0.011 C 
ENDBRANCH  10  15
BRANCH  14  17
ATOM     17  N   UNL A   1      36.360  22.730  24.676  1.00  0.00    -0.306 N 
ATOM     18  C   UNL A   1      37.021  23.588  25.536  1.00  0.00     0.093 A 
ATOM     19  C   UNL A   1      37.047  21.537  24.660  1.00  0.00     0.093 A 
ATOM     20  C   UNL A   1      38.171  22.972  25.979  1.00  0.00     0.020 A 
ATOM     21  C   UNL A   1      38.194  21.678  25.412  1.00  0.00     0.020 A 
ENDBRANCH  14  17
ENDBRANCH   7   9
ENDBRANCH   6   7
ENDBRANCH   5   6
ENDBRANCH   4   5
ENDBRANCH   3   4
ENDBRANCH   2   3
ENDBRANCH   1   2
BRANCH   1  22
ATOM     22  O   UNL A   1      32.920  29.802  25.743  1.00  0.00    -0.376 OA
BRANCH  22  23
ATOM     23  C   UNL A   1      32.428  30.826  26.598  1.00  0.00     0.202 C 
BRANCH  23  24
ATOM     24  C   UNL A   1      33.343  31.457  27.649  1.00  0.00     0.261 C 
BRANCH  24  25
ATOM     25  O   UNL A   1      33.869  32.711  27.267  1.00  0.00    -0.460 OA
BRANCH  25  26
ATOM     26  C   UNL A   1      33.238  33.727  27.884  1.00  0.00     0.338 C 
ATOM     27  O   UNL A   1      32.146  34.205  27.628  1.00  0.00    -0.246 OA
BRANCH  26  28
ATOM     28  C   UNL A   1      34.128  34.265  28.916  1.00  0.00     0.060 A 
ATOM     29  C   UNL A   1      35.431  34.481  28.456  1.00  0.00     0.016 A 
ATOM     30  C   UNL A   1      33.830  33.777  30.191  1.00  0.00     0.016 A 
ATOM     31  C   UNL A   1      36.435  33.829  29.119  1.00  0.00     0.010 A 
ATOM     32  C   UNL A   1      34.812  33.058  30.811  1.00  0.00     0.010 A 
ATOM     33  C   UNL A   1      36.087  33.050  30.229  1.00  0.00    -0.014 A 
BRANCH  33  34
ATOM     34  C   UNL A   1      37.156  32.354  30.921  1.00  0.00     0.031 A 
ATOM     35  C   UNL A   1      37.456  31.045  30.169  1.00  0.00     0.074 A 
ATOM     36  C   UNL A   1      37.604  32.986  32.051  1.00  0.00     0.049 A 
ATOM     37  N   UNL A   1      38.134  30.014  30.548  1.00  0.00    -0.248 NA
ATOM     38  C   UNL A   1      36.904  30.831  28.792  1.00  0.00     0.031 C 
ATOM     39  C   UNL A   1      37.123  34.297  32.573  1.00  0.00     0.029 A 
ATOM     40  N   UNL A   1      38.534  32.659  33.004  1.00  0.00    -0.354 N 
ATOM     41  C   UNL A   1      38.245  29.143  29.445  1.00  0.00     0.074 A 
ATOM     42  C   UNL A   1      37.427  29.671  28.403  1.00  0.00     0.031 C 
ATOM     43  C   UNL A   1      37.683  34.580  33.773  1.00  0.00     0.029 A 
ATOM     44  C   UNL A   1      38.591  33.511  34.137  1.00  0.00     0.049 A 
ATOM     45  H   UNL A   1      39.128  31.879  32.907  1.00  0.00     0.167 HD
ATOM     46  C   UNL A   1      39.084  28.073  29.432  1.00  0.00     0.031 A 
ATOM     47  C   UNL A   1      39.281  33.313  35.302  1.00  0.00     0.031 A 
ATOM     48  C   UNL A   1      39.628  27.862  30.729  1.00  0.00     0.049 A 
ATOM     49  C   UNL A   1      40.065  32.091  35.064  1.00  0.00     0.074 A 
ATOM     50  C   UNL A   1      39.058  27.377  31.878  1.00  0.00     0.029 A 
ATOM     51  N   UNL A   1      40.761  28.566  31.049  1.00  0.00    -0.354 N 
ATOM     52  N   UNL A   1      41.093  32.006  34.276  1.00  0.00    -0.248 NA
ATOM     53  C   UNL A   1      39.591  30.833  35.651  1.00  0.00     0.031 C 
ATOM     54  C   UNL A   1      39.569  28.235  32.875  1.00  0.00     0.029 A 
ATOM     55  C   UNL A   1      40.586  29.028  32.333  1.00  0.00     0.049 A 
ATOM     56  H   UNL A   1      41.546  28.712  30.473  1.00  0.00     0.167 HD
ATOM     57  C   UNL A   1      41.135  30.665  33.988  1.00  0.00     0.074 A 
ATOM     58  C   UNL A   1      40.438  29.991  35.064  1.00  0.00     0.031 C 
ATOM     59  C   UNL A   1      41.272  30.240  32.705  1.00  0.00     0.031 A 
BRANCH  46  60
ATOM     60  C   UNL A   1      39.613  27.257  28.299  1.00  0.00    -0.014 A 
ATOM     61  C   UNL A   1      39.654  25.856  28.483  1.00  0.00     0.009 A 
ATOM     62  C   UNL A   1      40.360  27.798  27.248  1.00  0.00     0.009 A 
ATOM     63  C   UNL A   1      40.507  25.045  27.736  1.00  0.00     0.001 A 
ATOM     64  C   UNL A   1      41.190  26.976  26.471  1.00  0.00     0.001 A 
ATOM     65  C   UNL A   1      41.293  25.611  26.742  1.00  0.00     0.000 A 
ENDBRANCH  46  60
BRANCH  47  66
ATOM     66  C   UNL A   1      39.353  33.876  36.700  1.00  0.00    -0.014 A 
ATOM     67  C   UNL A   1      40.114  34.968  37.120  1.00  0.00     0.009 A 
ATOM     68  C   UNL A   1      38.499  33.314  37.692  1.00  0.00     0.009 A 
ATOM     69  C   UNL A   1      39.945  35.520  38.412  1.00  0.00     0.001 A 
ATOM     70  C   UNL A   1      38.287  33.884  38.950  1.00  0.00     0.001 A 
ATOM     71  C   UNL A   1      39.006  35.006  39.308  1.00  0.00     0.000 A 
ENDBRANCH  47  66
BRANCH  59  72
ATOM     72  C   UNL A   1      41.796  31.279  31.720  1.00  0.00    -0.014 A 
ATOM     73  C   UNL A   1      43.170  31.528  31.622  1.00  0.00     0.009 A 
ATOM     74  C   UNL A   1      40.948  32.092  30.945  1.00  0.00     0.009 A 
ATOM     75  C   UNL A   1      43.670  32.545  30.794  1.00  0.00     0.001 A 
ATOM     76  C   UNL A   1      41.440  33.114  30.118  1.00  0.00     0.001 A 
ATOM     77  C   UNL A   1      42.807  33.340  30.044  1.00  0.00     0.000 A 
ENDBRANCH  59  72
ENDBRANCH  33  34
ENDBRANCH  26  28
ENDBRANCH  25  26
ENDBRANCH  24  25
ENDBRANCH  23  24
ENDBRANCH  22  23
ENDBRANCH   1  22
TORSDOF 19
ENDMDL
MODEL 2
REMARK VINA RESULT:      -9.7      1.415      2.670
REMARK SMILES CCc1[nH]nc(-n2cccc2)c1C(=O)OCCOCCOCCOC(=O)c1ccc(-c2c3nc(c(-c4ccccc4)c4ccc([nH]4)c(-c4ccccc4)c4nc(c(-c5ccccc5)c5ccc2[nH]5)C=C4)C=C3)cc1
REMARK SMILES IDX 20 1 19 2 18 3 17 4 16 5 15 6 13 7 14 8 12 9 3 10 4 11 5 12
REMARK SMILES IDX 6 14 2 15 1 16 7 17 8 18 11 19 9 20 10 21 21 22 22 23 23 24
REMARK SMILES IDX 24 25 25 26 26 27 27 28 28 29 74 30 29 31 73 32 30 33 31 34
REMARK SMILES IDX 32 35 67 36 33 37 72 38 66 39 68 40 34 41 71 42 65 43 64 44
REMARK SMILES IDX 35 46 57 47 42 48 56 49 43 50 46 51 55 52 69 53 44 54 45 55
REMARK SMILES IDX 54 57 70 58 47 59 36 60 37 61 41 62 38 63 40 64 39 65 58 66
REMARK SMILES IDX 59 67 63 68 60 69 62 70 61 71 48 72 49 73 53 74 50 75 52 76
REMARK SMILES IDX 51 77
REMARK H PARENT 4 13 68 45 46 56
REMARK Flexibility Score: inf
ROOT
ATOM      1  C   UNL A   1      31.891  28.742  24.651  1.00  0.00     0.188 C 
ENDROOT
BRANCH   1   2
ATOM      2  C   UNL A   1      31.444  28.745  23.173  1.00  0.00     0.188 C 
BRANCH   2   3
ATOM      3  O   UNL A   1      31.837  27.588  22.467  1.00  0.00    -0.376 OA
BRANCH   3   4
ATOM      4  C   UNL A   1      33.087  27.017  22.809  1.00  0.00     0.202 C 
BRANCH   4   5
ATOM      5  C   UNL A   1      33.167  25.543  23.258  1.00  0.00     0.261 C 
BRANCH   5   6
ATOM      6  O   UNL A   1      34.364  25.110  23.919  1.00  0.00    -0.459 OA
BRANCH   6   7
ATOM      7  C   UNL A   1      34.409  25.159  25.282  1.00  0.00     0.343 C 
ATOM      8  O   UNL A   1      34.063  26.122  25.940  1.00  0.00    -0.246 OA
BRANCH   7   9
ATOM      9  C   UNL A   1      34.807  23.880  25.862  1.00  0.00     0.125 A 
ATOM     10  C   UNL A   1      36.077  23.305  25.914  1.00  0.00     0.052 A 
ATOM     11  N   UNL A   1      35.912  22.088  26.527  1.00  0.00    -0.280 N 
ATOM     12  N   UNL A   1      34.643  21.816  26.865  1.00  0.00    -0.156 NA
ATOM     13  H   UNL A   1      36.659  21.470  26.703  1.00  0.00     0.190 HD
ATOM     14  C   UNL A   1      33.974  22.888  26.430  1.00  0.00     0.173 A 
BRANCH  10  15
ATOM     15  C   UNL A   1      37.394  23.784  25.382  1.00  0.00     0.053 C 
ATOM     16  C   UNL A   1      38.502  23.897  26.419  1.00  0.00     0.011 C 
ENDBRANCH  10  15
BRANCH  14  17
ATOM     17  N   UNL A   1      32.561  22.788  26.347  1.00  0.00    -0.306 N 
ATOM     18  C   UNL A   1      31.670  23.208  27.318  1.00  0.00     0.093 A 
ATOM     19  C   UNL A   1      31.831  22.389  25.251  1.00  0.00     0.093 A 
ATOM     20  C   UNL A   1      30.387  22.979  26.872  1.00  0.00     0.020 A 
ATOM     21  C   UNL A   1      30.491  22.446  25.567  1.00  0.00     0.020 A 
ENDBRANCH  14  17
ENDBRANCH   7   9
ENDBRANCH   6   7
ENDBRANCH   5   6
ENDBRANCH   4   5
ENDBRANCH   3   4
ENDBRANCH   2   3
ENDBRANCH   1   2
BRANCH   1  22
ATOM     22  O   UNL A   1      32.971  29.538  25.132  1.00  0.00    -0.376 OA
BRANCH  22  23
ATOM     23  C   UNL A   1      33.160  29.814  26.514  1.00  0.00     0.202 C 
BRANCH  23  24
ATOM     24  C   UNL A   1      32.589  31.091  27.131  1.00  0.00     0.261 C 
BRANCH  24  25
ATOM     25  O   UNL A   1      33.561  32.082  27.390  1.00  0.00    -0.460 OA
BRANCH  25  26
ATOM     26  C   UNL A   1      33.000  33.260  27.720  1.00  0.00     0.338 C 
ATOM     27  O   UNL A   1      31.964  33.746  27.301  1.00  0.00    -0.246 OA
BRANCH  26  28
ATOM     28  C   UNL A   1      33.895  33.955  28.648  1.00  0.00     0.060 A 
ATOM     29  C   UNL A   1      35.167  34.183  28.115  1.00  0.00     0.016 A 
ATOM     30  C   UNL A   1      33.670  33.598  29.981  1.00  0.00     0.016 A 
ATOM     31  C   UNL A   1      36.228  33.660  28.803  1.00  0.00     0.010 A 
ATOM     32  C   UNL A   1      34.711  33.004  30.635  1.00  0.00     0.010 A 
ATOM     33  C   UNL A   1      35.963  32.995  30.005  1.00  0.00    -0.014 A 
BRANCH  33  34
ATOM     34  C   UNL A   1      37.092  32.435  30.725  1.00  0.00     0.031 A 
ATOM     35  C   UNL A   1      37.527  31.137  30.024  1.00  0.00     0.074 A 
ATOM     36  C   UNL A   1      37.468  33.150  31.832  1.00  0.00     0.049 A 
ATOM     37  N   UNL A   1      38.302  30.193  30.442  1.00  0.00    -0.248 NA
ATOM     38  C   UNL A   1      37.007  30.818  28.654  1.00  0.00     0.031 C 
ATOM     39  C   UNL A   1      36.856  34.425  32.303  1.00  0.00     0.029 A 
ATOM     40  N   UNL A   1      38.421  32.954  32.798  1.00  0.00    -0.354 N 
ATOM     41  C   UNL A   1      38.506  29.298  29.372  1.00  0.00     0.074 A 
ATOM     42  C   UNL A   1      37.646  29.702  28.310  1.00  0.00     0.031 C 
ATOM     43  C   UNL A   1      37.377  34.807  33.493  1.00  0.00     0.029 A 
ATOM     44  C   UNL A   1      38.385  33.848  33.898  1.00  0.00     0.049 A 
ATOM     45  H   UNL A   1      39.091  32.234  32.732  1.00  0.00     0.167 HD
ATOM     46  C   UNL A   1      39.449  28.318  29.401  1.00  0.00     0.031 A 
ATOM     47  C   UNL A   1      39.086  33.763  35.072  1.00  0.00     0.031 A 
ATOM     48  C   UNL A   1      40.003  28.210  30.706  1.00  0.00     0.049 A 
ATOM     49  C   UNL A   1      39.989  32.618  34.881  1.00  0.00     0.074 A 
ATOM     50  C   UNL A   1      39.478  27.713  31.871  1.00  0.00     0.029 A 
ATOM     51  N   UNL A   1      41.059  29.035  31.002  1.00  0.00    -0.354 N 
ATOM     52  N   UNL A   1      41.025  32.608  34.099  1.00  0.00    -0.248 NA
ATOM     53  C   UNL A   1      39.640  31.342  35.513  1.00  0.00     0.031 C 
ATOM     54  C   UNL A   1      39.894  28.655  32.837  1.00  0.00     0.029 A 
ATOM     55  C   UNL A   1      40.831  29.525  32.267  1.00  0.00     0.049 A 
ATOM     56  H   UNL A   1      41.828  29.238  30.423  1.00  0.00     0.167 HD
ATOM     57  C   UNL A   1      41.203  31.268  33.861  1.00  0.00     0.074 A 
ATOM     58  C   UNL A   1      40.570  30.568  34.960  1.00  0.00     0.031 C 
ATOM     59  C   UNL A   1      41.389  30.813  32.596  1.00  0.00     0.031 A 
BRANCH  46  60
ATOM     60  C   UNL A   1      40.063  27.517  28.301  1.00  0.00    -0.014 A 
ATOM     61  C   UNL A   1      40.448  26.192  28.609  1.00  0.00     0.009 A 
ATOM     62  C   UNL A   1      40.575  28.089  27.131  1.00  0.00     0.009 A 
ATOM     63  C   UNL A   1      41.406  25.515  27.856  1.00  0.00     0.001 A 
ATOM     64  C   UNL A   1      41.511  27.392  26.353  1.00  0.00     0.001 A 
ATOM     65  C   UNL A   1      41.954  26.126  26.737  1.00  0.00     0.000 A 
ENDBRANCH  46  60
BRANCH  47  66
ATOM     66  C   UNL A   1      39.093  34.382  36.448  1.00  0.00    -0.014 A 
ATOM     67  C   UNL A   1      38.561  33.828  37.613  1.00  0.00     0.009 A 
ATOM     68  C   UNL A   1      39.786  35.615  36.624  1.00  0.00     0.009 A 
ATOM     69  C   UNL A   1      38.804  34.418  38.877  1.00  0.00     0.001 A 
ATOM     70  C   UNL A   1      40.076  36.174  37.871  1.00  0.00     0.001 A 
ATOM     71  C   UNL A   1      39.593  35.561  39.009  1.00  0.00     0.000 A 
ENDBRANCH  47  66
BRANCH  59  72
ATOM     72  C   UNL A   1      41.812  31.862  31.574  1.00  0.00    -0.014 A 
ATOM     73  C   UNL A   1      43.165  32.186  31.414  1.00  0.00     0.009 A 
ATOM     74  C   UNL A   1      40.888  32.611  30.822  1.00  0.00     0.009 A 
ATOM     75  C   UNL A   1      43.572  33.215  30.551  1.00  0.00     0.001 A 
ATOM     76  C   UNL A   1      41.286  33.645  29.960  1.00  0.00     0.001 A 
ATOM     77  C   UNL A   1      42.634  33.946  29.825  1.00  0.00     0.000 A 
ENDBRANCH  59  72
ENDBRANCH  33  34
ENDBRANCH  26  28
ENDBRANCH  25  26
ENDBRANCH  24  25
ENDBRANCH  23  24
ENDBRANCH  22  23
ENDBRANCH   1  22
TORSDOF 19
ENDMDL
MODEL 3
REMARK VINA RESULT:      -9.5      1.767      3.139
REMARK SMILES CCc1[nH]nc(-n2cccc2)c1C(=O)OCCOCCOCCOC(=O)c1ccc(-c2c3nc(c(-c4ccccc4)c4ccc([nH]4)c(-c4ccccc4)c4nc(c(-c5ccccc5)c5ccc2[nH]5)C=C4)C=C3)cc1
REMARK SMILES IDX 20 1 19 2 18 3 17 4 16 5 15 6 13 7 14 8 12 9 3 10 4 11 5 12
REMARK SMILES IDX 6 14 2 15 1 16 7 17 8 18 11 19 9 20 10 21 21 22 22 23 23 24
REMARK SMILES IDX 24 25 25 26 26 27 27 28 28 29 74 30 29 31 73 32 30 33 31 34
REMARK SMILES IDX 32 35 67 36 33 37 72 38 66 39 68 40 34 41 71 42 65 43 64 44
REMARK SMILES IDX 35 46 57 47 42 48 56 49 43 50 46 51 55 52 69 53 44 54 45 55
REMARK SMILES IDX 54 57 70 58 47 59 36 60 37 61 41 62 38 63 40 64 39 65 58 66
REMARK SMILES IDX 59 67 63 68 60 69 62 70 61 71 48 72 49 73 53 74 50 75 52 76
REMARK SMILES IDX 51 77
REMARK H PARENT 4 13 68 45 46 56
REMARK Flexibility Score: inf
ROOT
ATOM      1  C   UNL A   1      31.405  28.478  26.490  1.00  0.00     0.188 C 
ENDROOT
BRANCH   1   2
ATOM      2  C   UNL A   1      31.674  26.993  26.165  1.00  0.00     0.188 C 
BRANCH   2   3
ATOM      3  O   UNL A   1      32.864  26.500  26.742  1.00  0.00    -0.376 OA
BRANCH   3   4
ATOM      4  C   UNL A   1      33.960  26.283  25.872  1.00  0.00     0.202 C 
BRANCH   4   5
ATOM      5  C   UNL A   1      33.916  26.816  24.425  1.00  0.00     0.261 C 
BRANCH   5   6
ATOM      6  O   UNL A   1      34.161  25.886  23.362  1.00  0.00    -0.459 OA
BRANCH   6   7
ATOM      7  C   UNL A   1      33.261  25.817  22.338  1.00  0.00     0.343 C 
ATOM      8  O   UNL A   1      33.494  26.182  21.201  1.00  0.00    -0.246 OA
BRANCH   7   9
ATOM      9  C   UNL A   1      32.028  25.145  22.737  1.00  0.00     0.125 A 
ATOM     10  C   UNL A   1      31.759  23.777  22.789  1.00  0.00     0.052 A 
ATOM     11  N   UNL A   1      30.451  23.667  23.190  1.00  0.00    -0.280 N 
ATOM     12  N   UNL A   1      29.842  24.845  23.389  1.00  0.00    -0.156 NA
ATOM     13  H   UNL A   1      30.001  22.801  23.320  1.00  0.00     0.190 HD
ATOM     14  C   UNL A   1      30.789  25.736  23.081  1.00  0.00     0.173 A 
BRANCH  10  15
ATOM     15  C   UNL A   1      32.612  22.596  22.435  1.00  0.00     0.053 C 
ATOM     16  C   UNL A   1      32.645  21.492  23.481  1.00  0.00     0.011 C 
ENDBRANCH  10  15
BRANCH  14  17
ATOM     17  N   UNL A   1      30.384  27.081  22.882  1.00  0.00    -0.306 N 
ATOM     18  C   UNL A   1      29.196  27.633  23.324  1.00  0.00     0.093 A 
ATOM     19  C   UNL A   1      31.144  28.094  22.343  1.00  0.00     0.093 A 
ATOM     20  C   UNL A   1      29.167  28.965  22.975  1.00  0.00     0.020 A 
ATOM     21  C   UNL A   1      30.397  29.253  22.339  1.00  0.00     0.020 A 
ENDBRANCH  14  17
ENDBRANCH   7   9
ENDBRANCH   6   7
ENDBRANCH   5   6
ENDBRANCH   4   5
ENDBRANCH   3   4
ENDBRANCH   2   3
ENDBRANCH   1   2
BRANCH   1  22
ATOM     22  O   UNL A   1      32.013  29.547  25.770  1.00  0.00    -0.376 OA
BRANCH  22  23
ATOM     23  C   UNL A   1      32.989  30.402  26.352  1.00  0.00     0.202 C 
BRANCH  23  24
ATOM     24  C   UNL A   1      32.562  31.556  27.260  1.00  0.00     0.261 C 
BRANCH  24  25
ATOM     25  O   UNL A   1      33.618  32.425  27.612  1.00  0.00    -0.460 OA
BRANCH  25  26
ATOM     26  C   UNL A   1      33.165  33.631  28.001  1.00  0.00     0.338 C 
ATOM     27  O   UNL A   1      32.165  34.219  27.627  1.00  0.00    -0.246 OA
BRANCH  26  28
ATOM     28  C   UNL A   1      34.137  34.211  28.932  1.00  0.00     0.060 A 
ATOM     29  C   UNL A   1      35.409  34.361  28.372  1.00  0.00     0.016 A 
ATOM     30  C   UNL A   1      33.916  33.815  30.254  1.00  0.00     0.016 A 
ATOM     31  C   UNL A   1      36.442  33.726  29.007  1.00  0.00     0.010 A 
ATOM     32  C   UNL A   1      34.922  33.113  30.853  1.00  0.00     0.010 A 
ATOM     33  C   UNL A   1      36.153  33.031  30.188  1.00  0.00    -0.014 A 
BRANCH  33  34
ATOM     34  C   UNL A   1      37.251  32.353  30.852  1.00  0.00     0.031 A 
ATOM     35  C   UNL A   1      37.493  31.006  30.148  1.00  0.00     0.074 A 
ATOM     36  C   UNL A   1      37.771  33.030  31.924  1.00  0.00     0.049 A 
ATOM     37  N   UNL A   1      38.179  29.983  30.537  1.00  0.00    -0.248 NA
ATOM     38  C   UNL A   1      36.861  30.736  28.816  1.00  0.00     0.031 C 
ATOM     39  C   UNL A   1      37.336  34.372  32.408  1.00  0.00     0.029 A 
ATOM     40  N   UNL A   1      38.749  32.735  32.837  1.00  0.00    -0.354 N 
ATOM     41  C   UNL A   1      38.217  29.060  29.472  1.00  0.00     0.074 A 
ATOM     42  C   UNL A   1      37.348  29.551  28.454  1.00  0.00     0.031 C 
ATOM     43  C   UNL A   1      37.966  34.702  33.560  1.00  0.00     0.029 A 
ATOM     44  C   UNL A   1      38.880  33.638  33.923  1.00  0.00     0.049 A 
ATOM     45  H   UNL A   1      39.327  31.943  32.745  1.00  0.00     0.167 HD
ATOM     46  C   UNL A   1      39.041  27.979  29.464  1.00  0.00     0.031 A 
ATOM     47  C   UNL A   1      39.633  33.485  35.056  1.00  0.00     0.031 A 
ATOM     48  C   UNL A   1      39.655  27.821  30.737  1.00  0.00     0.049 A 
ATOM     49  C   UNL A   1      40.387  32.242  34.833  1.00  0.00     0.074 A 
ATOM     50  C   UNL A   1      39.145  27.399  31.937  1.00  0.00     0.029 A 
ATOM     51  N   UNL A   1      40.813  28.522  30.958  1.00  0.00    -0.354 N 
ATOM     52  N   UNL A   1      41.368  32.105  33.994  1.00  0.00    -0.248 NA
ATOM     53  C   UNL A   1      39.932  31.020  35.505  1.00  0.00     0.031 C 
ATOM     54  C   UNL A   1      39.722  28.296  32.863  1.00  0.00     0.029 A 
ATOM     55  C   UNL A   1      40.716  29.047  32.227  1.00  0.00     0.049 A 
ATOM     56  H   UNL A   1      41.565  28.630  30.333  1.00  0.00     0.167 HD
ATOM     57  C   UNL A   1      41.377  30.751  33.768  1.00  0.00     0.074 A 
ATOM     58  C   UNL A   1      40.734  30.139  34.913  1.00  0.00     0.031 C 
ATOM     59  C   UNL A   1      41.436  30.265  32.502  1.00  0.00     0.031 A 
BRANCH  46  60
ATOM     60  C   UNL A   1      39.495  27.103  28.343  1.00  0.00    -0.014 A 
ATOM     61  C   UNL A   1      39.437  25.706  28.557  1.00  0.00     0.009 A 
ATOM     62  C   UNL A   1      40.266  27.566  27.272  1.00  0.00     0.009 A 
ATOM     63  C   UNL A   1      40.219  24.820  27.818  1.00  0.00     0.001 A 
ATOM     64  C   UNL A   1      41.024  26.669  26.504  1.00  0.00     0.001 A 
ATOM     65  C   UNL A   1      41.031  25.307  26.804  1.00  0.00     0.000 A 
ENDBRANCH  46  60
BRANCH  47  66
ATOM     66  C   UNL A   1      39.791  34.112  36.420  1.00  0.00    -0.014 A 
ATOM     67  C   UNL A   1      38.852  34.107  37.452  1.00  0.00     0.009 A 
ATOM     68  C   UNL A   1      41.050  34.695  36.746  1.00  0.00     0.009 A 
ATOM     69  C   UNL A   1      39.194  34.559  38.750  1.00  0.00     0.001 A 
ATOM     70  C   UNL A   1      41.412  35.093  38.035  1.00  0.00     0.001 A 
ATOM     71  C   UNL A   1      40.481  35.010  39.049  1.00  0.00     0.000 A 
ENDBRANCH  47  66
BRANCH  59  72
ATOM     72  C   UNL A   1      41.916  31.248  31.440  1.00  0.00    -0.014 A 
ATOM     73  C   UNL A   1      43.262  31.269  31.054  1.00  0.00     0.009 A 
ATOM     74  C   UNL A   1      41.080  32.228  30.874  1.00  0.00     0.009 A 
ATOM     75  C   UNL A   1      43.748  32.228  30.152  1.00  0.00     0.001 A 
ATOM     76  C   UNL A   1      41.558  33.193  29.974  1.00  0.00     0.001 A 
ATOM     77  C   UNL A   1      42.899  33.191  29.613  1.00  0.00     0.000 A 
ENDBRANCH  59  72
ENDBRANCH  33  34
ENDBRANCH  26  28
ENDBRANCH  25  26
ENDBRANCH  24  25
ENDBRANCH  23  24
ENDBRANCH  22  23
ENDBRANCH   1  22
TORSDOF 19
ENDMDL
