MODEL 1
REMARK VINA RESULT:     -11.0      0.000      0.000
REMARK SMILES COc1ccc(C2=NN(C(=O)CCC(=O)OCCOCCOCCOC(=O)c3ccc(-c4c5nc(c(-c6ccccc6)c6ccc([nH]6)c(-c6ccccc6)c6nc(c(-c7ccccc7)c7ccc4[nH]7)C=C6)C=C5)cc3)[C@H](c3ccc(Cl)cc3Cl)C2)cc1
REMARK SMILES IDX 19 1 18 2 17 3 16 4 14 5 15 6 13 7 12 8 10 9 11 10 9 11 7 12
REMARK SMILES IDX 8 13 85 14 76 15 6 16 3 17 4 18 87 19 5 20 86 21 2 22 1 23
REMARK SMILES IDX 77 24 78 25 83 26 79 27 82 28 84 29 80 30 81 31 20 32 21 33
REMARK SMILES IDX 22 34 23 35 24 36 25 37 26 38 27 39 28 40 29 41 75 42 30 43
REMARK SMILES IDX 74 44 31 45 32 46 33 47 68 48 34 49 73 50 67 51 69 52 35 53
REMARK SMILES IDX 72 54 66 55 65 56 36 58 58 59 43 60 57 61 44 62 47 63 56 64
REMARK SMILES IDX 70 65 45 66 46 67 55 69 71 70 48 71 37 72 38 73 42 74 39 75
REMARK SMILES IDX 41 76 40 77 59 78 60 79 64 80 61 81 63 82 62 83 49 84 50 85
REMARK SMILES IDX 54 86 51 87 53 88 52 89
REMARK H PARENT 69 57 47 68
REMARK Flexibility Score: inf
ROOT
ATOM      1  O   UNL A   1      39.562  27.294  28.997  1.00  0.00    -0.376 OA
ENDROOT
BRANCH   1   2
ATOM      2  C   UNL A   1      39.161  25.959  28.542  1.00  0.00     0.202 C 
BRANCH   2   3
ATOM      3  C   UNL A   1      39.490  25.329  27.184  1.00  0.00     0.261 C 
BRANCH   3   4
ATOM      4  O   UNL A   1      38.486  24.420  26.822  1.00  0.00    -0.463 OA
BRANCH   4   5
ATOM      5  C   UNL A   1      38.864  23.194  26.460  1.00  0.00     0.306 C 
ATOM      6  O   UNL A   1      39.723  22.509  27.034  1.00  0.00    -0.252 OA
BRANCH   5   7
ATOM      7  C   UNL A   1      37.967  22.673  25.391  1.00  0.00     0.132 C 
BRANCH   7   8
ATOM      8  C   UNL A   1      36.735  23.507  25.030  1.00  0.00     0.114 C 
BRANCH   8   9
ATOM      9  C   UNL A   1      35.882  23.277  23.746  1.00  0.00     0.243 C 
ATOM     10  O   UNL A   1      36.654  23.162  22.759  1.00  0.00    -0.273 OA
BRANCH   9  11
ATOM     11  N   UNL A   1      34.463  23.099  23.551  1.00  0.00    -0.225 N 
ATOM     12  C   UNL A   1      33.092  21.389  23.921  1.00  0.00     0.071 C 
ATOM     13  N   UNL A   1      34.216  21.901  24.218  1.00  0.00    -0.174 NA
ATOM     14  C   UNL A   1      32.238  22.135  22.960  1.00  0.00     0.091 C 
ATOM     15  C   UNL A   1      32.843  23.657  22.897  1.00  0.00     0.149 C 
BRANCH  12  16
ATOM     16  C   UNL A   1      32.783  20.044  24.444  1.00  0.00    -0.002 A 
ATOM     17  C   UNL A   1      32.654  17.407  25.377  1.00  0.00     0.118 A 
ATOM     18  C   UNL A   1      32.802  18.469  26.276  1.00  0.00     0.047 A 
ATOM     19  C   UNL A   1      32.569  17.667  24.009  1.00  0.00     0.047 A 
ATOM     20  C   UNL A   1      32.895  19.786  25.811  1.00  0.00     0.014 A 
ATOM     21  C   UNL A   1      32.641  18.986  23.540  1.00  0.00     0.014 A 
BRANCH  17  22
ATOM     22  O   UNL A   1      32.542  16.161  25.932  1.00  0.00    -0.497 OA
ATOM     23  C   UNL A   1      32.911  15.087  25.071  1.00  0.00     0.278 C 
ENDBRANCH  17  22
ENDBRANCH  12  16
BRANCH  15  24
ATOM     24  C   UNL A   1      31.976  25.414  23.152  1.00  0.00    -0.004 A 
ATOM     25  C   UNL A   1      32.008  26.265  22.125  1.00  0.00     0.009 A 
ATOM     26  C   UNL A   1      31.003  26.107  24.282  1.00  0.00     0.047 A 
ATOM     27  C   UNL A   1      31.041  27.366  22.012  1.00  0.00     0.021 A 
ATOM     28  C   UNL A   1      30.291  27.325  24.183  1.00  0.00     0.041 A 
ATOM     29  Cl  UNL A   1      30.389  25.487  25.920  1.00  0.00    -0.084 Cl
ATOM     30  C   UNL A   1      30.209  27.887  22.970  1.00  0.00     0.042 A 
ATOM     31  Cl  UNL A   1      29.023  29.068  22.594  1.00  0.00    -0.084 Cl
ENDBRANCH  15  24
ENDBRANCH   9  11
ENDBRANCH   8   9
ENDBRANCH   7   8
ENDBRANCH   5   7
ENDBRANCH   4   5
ENDBRANCH   3   4
ENDBRANCH   2   3
ENDBRANCH   1   2
BRANCH   1  32
ATOM     32  C   UNL A   1      38.913  28.617  28.964  1.00  0.00     0.188 C 
BRANCH  32  33
ATOM     33  C   UNL A   1      37.856  29.616  30.163  1.00  0.00     0.188 C 
BRANCH  33  34
ATOM     34  O   UNL A   1      37.208  31.330  30.033  1.00  0.00    -0.376 OA
BRANCH  34  35
ATOM     35  C   UNL A   1      36.472  32.489  31.203  1.00  0.00     0.202 C 
BRANCH  35  36
ATOM     36  C   UNL A   1      36.801  32.971  33.010  1.00  0.00     0.261 C 
BRANCH  36  37
ATOM     37  O   UNL A   1      38.175  33.109  33.843  1.00  0.00    -0.460 OA
BRANCH  37  38
ATOM     38  C   UNL A   1      39.184  34.140  33.639  1.00  0.00     0.338 C 
ATOM     39  O   UNL A   1      39.094  35.233  34.192  1.00  0.00    -0.246 OA
BRANCH  38  40
ATOM     40  C   UNL A   1      40.124  34.033  32.294  1.00  0.00     0.060 A 
ATOM     41  C   UNL A   1      41.509  34.278  32.455  1.00  0.00     0.016 A 
ATOM     42  C   UNL A   1      39.725  34.029  30.943  1.00  0.00     0.016 A 
ATOM     43  C   UNL A   1      42.317  34.846  31.429  1.00  0.00     0.010 A 
ATOM     44  C   UNL A   1      40.663  34.318  29.857  1.00  0.00     0.010 A 
ATOM     45  C   UNL A   1      41.992  34.743  30.078  1.00  0.00    -0.014 A 
BRANCH  45  46
ATOM     46  C   UNL A   1      43.111  34.820  29.026  1.00  0.00     0.031 A 
ATOM     47  C   UNL A   1      44.074  33.692  28.653  1.00  0.00     0.074 A 
ATOM     48  C   UNL A   1      43.328  35.997  28.376  1.00  0.00     0.049 A 
ATOM     49  N   UNL A   1      45.268  33.773  28.095  1.00  0.00    -0.248 NA
ATOM     50  C   UNL A   1      43.628  32.308  28.865  1.00  0.00     0.031 C 
ATOM     51  C   UNL A   1      42.457  37.178  28.403  1.00  0.00     0.029 A 
ATOM     52  N   UNL A   1      44.384  36.419  27.582  1.00  0.00    -0.354 N 
ATOM     53  C   UNL A   1      45.738  32.467  27.941  1.00  0.00     0.074 A 
ATOM     54  C   UNL A   1      44.673  31.606  28.427  1.00  0.00     0.031 C 
ATOM     55  C   UNL A   1      43.009  38.174  27.708  1.00  0.00     0.029 A 
ATOM     56  C   UNL A   1      44.339  37.770  27.301  1.00  0.00     0.049 A 
ATOM     57  H   UNL A   1      45.092  35.818  27.255  1.00  0.00     0.167 HD
ATOM     58  C   UNL A   1      46.940  32.028  27.466  1.00  0.00     0.031 A 
ATOM     59  C   UNL A   1      45.264  38.654  26.882  1.00  0.00     0.031 A 
ATOM     60  C   UNL A   1      48.004  32.874  26.960  1.00  0.00     0.049 A 
ATOM     61  C   UNL A   1      46.659  38.202  26.596  1.00  0.00     0.074 A 
ATOM     62  C   UNL A   1      49.268  32.509  26.512  1.00  0.00     0.029 A 
ATOM     63  N   UNL A   1      47.933  34.251  26.829  1.00  0.00    -0.354 N 
ATOM     64  N   UNL A   1      47.143  36.988  26.598  1.00  0.00    -0.248 NA
ATOM     65  C   UNL A   1      47.640  39.247  26.273  1.00  0.00     0.031 C 
ATOM     66  C   UNL A   1      49.983  33.669  26.187  1.00  0.00     0.029 A 
ATOM     67  C   UNL A   1      49.143  34.752  26.363  1.00  0.00     0.049 A 
ATOM     68  H   UNL A   1      47.141  34.796  27.036  1.00  0.00     0.167 HD
ATOM     69  C   UNL A   1      48.482  37.120  26.257  1.00  0.00     0.074 A 
ATOM     70  C   UNL A   1      48.729  38.529  26.037  1.00  0.00     0.031 C 
ATOM     71  C   UNL A   1      49.416  36.149  26.146  1.00  0.00     0.031 A 
BRANCH  58  72
ATOM     72  C   UNL A   1      47.251  30.549  27.555  1.00  0.00    -0.014 A 
ATOM     73  C   UNL A   1      46.984  29.655  26.508  1.00  0.00     0.009 A 
ATOM     74  C   UNL A   1      47.929  30.064  28.691  1.00  0.00     0.009 A 
ATOM     75  C   UNL A   1      47.349  28.307  26.615  1.00  0.00     0.001 A 
ATOM     76  C   UNL A   1      48.315  28.725  28.785  1.00  0.00     0.001 A 
ATOM     77  C   UNL A   1      48.013  27.842  27.752  1.00  0.00     0.000 A 
ENDBRANCH  58  72
BRANCH  59  78
ATOM     78  C   UNL A   1      44.929  40.107  26.847  1.00  0.00    -0.014 A 
ATOM     79  C   UNL A   1      44.409  40.697  25.688  1.00  0.00     0.009 A 
ATOM     80  C   UNL A   1      45.138  40.911  27.984  1.00  0.00     0.009 A 
ATOM     81  C   UNL A   1      44.121  42.064  25.662  1.00  0.00     0.001 A 
ATOM     82  C   UNL A   1      44.812  42.268  27.966  1.00  0.00     0.001 A 
ATOM     83  C   UNL A   1      44.314  42.846  26.802  1.00  0.00     0.000 A 
ENDBRANCH  59  78
BRANCH  71  84
ATOM     84  C   UNL A   1      50.799  36.570  25.738  1.00  0.00    -0.014 A 
ATOM     85  C   UNL A   1      51.687  37.140  26.664  1.00  0.00     0.009 A 
ATOM     86  C   UNL A   1      51.228  36.385  24.414  1.00  0.00     0.009 A 
ATOM     87  C   UNL A   1      52.966  37.539  26.267  1.00  0.00     0.001 A 
ATOM     88  C   UNL A   1      52.516  36.760  24.026  1.00  0.00     0.001 A 
ATOM     89  C   UNL A   1      53.382  37.342  24.951  1.00  0.00     0.000 A 
ENDBRANCH  71  84
ENDBRANCH  45  46
ENDBRANCH  38  40
ENDBRANCH  37  38
ENDBRANCH  36  37
ENDBRANCH  35  36
ENDBRANCH  34  35
ENDBRANCH  33  34
ENDBRANCH  32  33
ENDBRANCH   1  32
TORSDOF 23
ENDMDL
MODEL 2
REMARK VINA RESULT:     -10.6      7.509     10.719
REMARK SMILES COc1ccc(C2=NN(C(=O)CCC(=O)OCCOCCOCCOC(=O)c3ccc(-c4c5nc(c(-c6ccccc6)c6ccc([nH]6)c(-c6ccccc6)c6nc(c(-c7ccccc7)c7ccc4[nH]7)C=C6)C=C5)cc3)[C@H](c3ccc(Cl)cc3Cl)C2)cc1
REMARK SMILES IDX 19 1 18 2 17 3 16 4 14 5 15 6 13 7 12 8 10 9 11 10 9 11 7 12
REMARK SMILES IDX 8 13 85 14 76 15 6 16 3 17 4 18 87 19 5 20 86 21 2 22 1 23
REMARK SMILES IDX 77 24 78 25 83 26 79 27 82 28 84 29 80 30 81 31 20 32 21 33
REMARK SMILES IDX 22 34 23 35 24 36 25 37 26 38 27 39 28 40 29 41 75 42 30 43
REMARK SMILES IDX 74 44 31 45 32 46 33 47 68 48 34 49 73 50 67 51 69 52 35 53
REMARK SMILES IDX 72 54 66 55 65 56 36 58 58 59 43 60 57 61 44 62 47 63 56 64
REMARK SMILES IDX 70 65 45 66 46 67 55 69 71 70 48 71 37 72 38 73 42 74 39 75
REMARK SMILES IDX 41 76 40 77 59 78 60 79 64 80 61 81 63 82 62 83 49 84 50 85
REMARK SMILES IDX 54 86 51 87 53 88 52 89
REMARK H PARENT 69 57 47 68
REMARK Flexibility Score: inf
ROOT
ATOM      1  O   UNL A   1      41.226  26.622  36.617  1.00  0.00    -0.376 OA
ENDROOT
BRANCH   1   2
ATOM      2  C   UNL A   1      41.468  27.827  35.818  1.00  0.00     0.202 C 
BRANCH   2   3
ATOM      3  C   UNL A   1      41.961  27.866  34.366  1.00  0.00     0.261 C 
BRANCH   3   4
ATOM      4  O   UNL A   1      42.932  28.867  34.217  1.00  0.00    -0.463 OA
BRANCH   4   5
ATOM      5  C   UNL A   1      43.586  28.924  33.057  1.00  0.00     0.306 C 
ATOM      6  O   UNL A   1      44.356  29.832  32.713  1.00  0.00    -0.252 OA
BRANCH   5   7
ATOM      7  C   UNL A   1      43.428  27.644  32.312  1.00  0.00     0.132 C 
BRANCH   7   8
ATOM      8  C   UNL A   1      43.629  27.677  30.794  1.00  0.00     0.114 C 
BRANCH   8   9
ATOM      9  C   UNL A   1      42.764  28.541  29.827  1.00  0.00     0.243 C 
ATOM     10  O   UNL A   1      43.313  29.663  29.681  1.00  0.00    -0.273 OA
BRANCH   9  11
ATOM     11  N   UNL A   1      41.576  28.237  29.066  1.00  0.00    -0.225 N 
ATOM     12  C   UNL A   1      40.825  26.369  28.121  1.00  0.00     0.071 C 
ATOM     13  N   UNL A   1      41.607  26.845  29.003  1.00  0.00    -0.174 NA
ATOM     14  C   UNL A   1      40.013  27.338  27.340  1.00  0.00     0.091 C 
ATOM     15  C   UNL A   1      40.059  28.749  28.172  1.00  0.00     0.149 C 
BRANCH  12  16
ATOM     16  C   UNL A   1      40.884  24.920  27.854  1.00  0.00    -0.002 A 
ATOM     17  C   UNL A   1      40.829  22.121  27.781  1.00  0.00     0.118 A 
ATOM     18  C   UNL A   1      39.755  22.863  27.278  1.00  0.00     0.047 A 
ATOM     19  C   UNL A   1      41.934  22.782  28.320  1.00  0.00     0.047 A 
ATOM     20  C   UNL A   1      39.767  24.261  27.338  1.00  0.00     0.014 A 
ATOM     21  C   UNL A   1      41.959  24.183  28.364  1.00  0.00     0.014 A 
BRANCH  17  22
ATOM     22  O   UNL A   1      40.736  20.762  27.647  1.00  0.00    -0.497 OA
ATOM     23  C   UNL A   1      41.255  20.245  26.423  1.00  0.00     0.278 C 
ENDBRANCH  17  22
ENDBRANCH  12  16
BRANCH  15  24
ATOM     24  C   UNL A   1      38.610  29.924  28.824  1.00  0.00    -0.004 A 
ATOM     25  C   UNL A   1      38.947  30.891  29.680  1.00  0.00     0.009 A 
ATOM     26  C   UNL A   1      37.030  30.183  28.450  1.00  0.00     0.047 A 
ATOM     27  C   UNL A   1      38.098  32.076  29.869  1.00  0.00     0.021 A 
ATOM     28  C   UNL A   1      36.197  31.239  28.887  1.00  0.00     0.041 A 
ATOM     29  Cl  UNL A   1      35.897  29.332  27.250  1.00  0.00    -0.084 Cl
ATOM     30  C   UNL A   1      36.792  32.272  29.497  1.00  0.00     0.042 A 
ATOM     31  Cl  UNL A   1      36.025  33.797  29.656  1.00  0.00    -0.084 Cl
ENDBRANCH  15  24
ENDBRANCH   9  11
ENDBRANCH   8   9
ENDBRANCH   7   8
ENDBRANCH   5   7
ENDBRANCH   4   5
ENDBRANCH   3   4
ENDBRANCH   2   3
ENDBRANCH   1   2
BRANCH   1  32
ATOM     32  C   UNL A   1      41.606  25.206  36.463  1.00  0.00     0.188 C 
BRANCH  32  33
ATOM     33  C   UNL A   1      42.520  24.203  35.154  1.00  0.00     0.188 C 
BRANCH  33  34
ATOM     34  O   UNL A   1      43.851  22.950  35.332  1.00  0.00    -0.376 OA
BRANCH  34  35
ATOM     35  C   UNL A   1      45.269  22.769  36.432  1.00  0.00     0.202 C 
BRANCH  35  36
ATOM     36  C   UNL A   1      46.522  23.957  37.223  1.00  0.00     0.261 C 
BRANCH  36  37
ATOM     37  O   UNL A   1      46.763  25.539  37.025  1.00  0.00    -0.460 OA
BRANCH  37  38
ATOM     38  C   UNL A   1      46.017  26.397  36.113  1.00  0.00     0.338 C 
ATOM     39  O   UNL A   1      44.863  26.733  36.362  1.00  0.00    -0.246 OA
BRANCH  38  40
ATOM     40  C   UNL A   1      46.522  26.471  34.549  1.00  0.00     0.060 A 
ATOM     41  C   UNL A   1      46.938  25.259  33.949  1.00  0.00     0.016 A 
ATOM     42  C   UNL A   1      46.892  27.605  33.800  1.00  0.00     0.016 A 
ATOM     43  C   UNL A   1      47.942  25.200  32.941  1.00  0.00     0.010 A 
ATOM     44  C   UNL A   1      47.679  27.498  32.570  1.00  0.00     0.010 A 
ATOM     45  C   UNL A   1      48.233  26.282  32.112  1.00  0.00    -0.014 A 
BRANCH  45  46
ATOM     46  C   UNL A   1      48.844  26.025  30.725  1.00  0.00     0.031 A 
ATOM     47  C   UNL A   1      50.326  26.129  30.360  1.00  0.00     0.074 A 
ATOM     48  C   UNL A   1      48.019  25.716  29.686  1.00  0.00     0.049 A 
ATOM     49  N   UNL A   1      50.876  26.324  29.176  1.00  0.00    -0.248 NA
ATOM     50  C   UNL A   1      51.313  25.928  31.430  1.00  0.00     0.031 C 
ATOM     51  C   UNL A   1      46.594  25.379  29.778  1.00  0.00     0.029 A 
ATOM     52  N   UNL A   1      48.251  25.673  28.319  1.00  0.00    -0.354 N 
ATOM     53  C   UNL A   1      52.260  26.324  29.361  1.00  0.00     0.074 A 
ATOM     54  C   UNL A   1      52.467  26.065  30.776  1.00  0.00     0.031 C 
ATOM     55  C   UNL A   1      46.082  25.199  28.559  1.00  0.00     0.029 A 
ATOM     56  C   UNL A   1      47.092  25.545  27.580  1.00  0.00     0.049 A 
ATOM     57  H   UNL A   1      49.148  25.727  27.918  1.00  0.00     0.167 HD
ATOM     58  C   UNL A   1      53.257  26.542  28.455  1.00  0.00     0.031 A 
ATOM     59  C   UNL A   1      46.791  25.787  26.290  1.00  0.00     0.031 A 
ATOM     60  C   UNL A   1      53.066  26.783  27.037  1.00  0.00     0.049 A 
ATOM     61  C   UNL A   1      47.849  26.266  25.350  1.00  0.00     0.074 A 
ATOM     62  C   UNL A   1      54.020  27.063  26.066  1.00  0.00     0.029 A 
ATOM     63  N   UNL A   1      51.845  26.770  26.384  1.00  0.00    -0.354 N 
ATOM     64  N   UNL A   1      49.130  26.413  25.565  1.00  0.00    -0.248 NA
ATOM     65  C   UNL A   1      47.414  26.633  23.996  1.00  0.00     0.031 C 
ATOM     66  C   UNL A   1      53.367  27.296  24.848  1.00  0.00     0.029 A 
ATOM     67  C   UNL A   1      52.014  27.090  25.042  1.00  0.00     0.049 A 
ATOM     68  H   UNL A   1      50.982  26.563  26.808  1.00  0.00     0.167 HD
ATOM     69  C   UNL A   1      49.658  26.872  24.367  1.00  0.00     0.074 A 
ATOM     70  C   UNL A   1      48.564  26.961  23.424  1.00  0.00     0.031 C 
ATOM     71  C   UNL A   1      50.941  27.194  24.088  1.00  0.00     0.031 A 
BRANCH  58  72
ATOM     72  C   UNL A   1      54.679  26.642  28.961  1.00  0.00    -0.014 A 
ATOM     73  C   UNL A   1      55.622  25.620  28.776  1.00  0.00     0.009 A 
ATOM     74  C   UNL A   1      55.108  27.847  29.551  1.00  0.00     0.009 A 
ATOM     75  C   UNL A   1      56.945  25.787  29.208  1.00  0.00     0.001 A 
ATOM     76  C   UNL A   1      56.433  28.021  29.958  1.00  0.00     0.001 A 
ATOM     77  C   UNL A   1      57.349  26.985  29.798  1.00  0.00     0.000 A 
ENDBRANCH  58  72
BRANCH  59  78
ATOM     78  C   UNL A   1      45.370  25.716  25.841  1.00  0.00    -0.014 A 
ATOM     79  C   UNL A   1      44.786  24.493  25.491  1.00  0.00     0.009 A 
ATOM     80  C   UNL A   1      44.594  26.888  25.757  1.00  0.00     0.009 A 
ATOM     81  C   UNL A   1      43.462  24.445  25.050  1.00  0.00     0.001 A 
ATOM     82  C   UNL A   1      43.260  26.831  25.354  1.00  0.00     0.001 A 
ATOM     83  C   UNL A   1      42.697  25.611  24.990  1.00  0.00     0.000 A 
ENDBRANCH  59  78
BRANCH  71  84
ATOM     84  C   UNL A   1      51.247  27.650  22.689  1.00  0.00    -0.014 A 
ATOM     85  C   UNL A   1      51.235  29.013  22.351  1.00  0.00     0.009 A 
ATOM     86  C   UNL A   1      51.562  26.709  21.697  1.00  0.00     0.009 A 
ATOM     87  C   UNL A   1      51.508  29.420  21.042  1.00  0.00     0.001 A 
ATOM     88  C   UNL A   1      51.861  27.121  20.396  1.00  0.00     0.001 A 
ATOM     89  C   UNL A   1      51.828  28.475  20.069  1.00  0.00     0.000 A 
ENDBRANCH  71  84
ENDBRANCH  45  46
ENDBRANCH  38  40
ENDBRANCH  37  38
ENDBRANCH  36  37
ENDBRANCH  35  36
ENDBRANCH  34  35
ENDBRANCH  33  34
ENDBRANCH  32  33
ENDBRANCH   1  32
TORSDOF 23
ENDMDL
MODEL 3
REMARK VINA RESULT:     -10.6      7.573     11.602
REMARK SMILES COc1ccc(C2=NN(C(=O)CCC(=O)OCCOCCOCCOC(=O)c3ccc(-c4c5nc(c(-c6ccccc6)c6ccc([nH]6)c(-c6ccccc6)c6nc(c(-c7ccccc7)c7ccc4[nH]7)C=C6)C=C5)cc3)[C@H](c3ccc(Cl)cc3Cl)C2)cc1
REMARK SMILES IDX 19 1 18 2 17 3 16 4 14 5 15 6 13 7 12 8 10 9 11 10 9 11 7 12
REMARK SMILES IDX 8 13 85 14 76 15 6 16 3 17 4 18 87 19 5 20 86 21 2 22 1 23
REMARK SMILES IDX 77 24 78 25 83 26 79 27 82 28 84 29 80 30 81 31 20 32 21 33
REMARK SMILES IDX 22 34 23 35 24 36 25 37 26 38 27 39 28 40 29 41 75 42 30 43
REMARK SMILES IDX 74 44 31 45 32 46 33 47 68 48 34 49 73 50 67 51 69 52 35 53
REMARK SMILES IDX 72 54 66 55 65 56 36 58 58 59 43 60 57 61 44 62 47 63 56 64
REMARK SMILES IDX 70 65 45 66 46 67 55 69 71 70 48 71 37 72 38 73 42 74 39 75
REMARK SMILES IDX 41 76 40 77 59 78 60 79 64 80 61 81 63 82 62 83 49 84 50 85
REMARK SMILES IDX 54 86 51 87 53 88 52 89
REMARK H PARENT 69 57 47 68
REMARK Flexibility Score: inf
ROOT
ATOM      1  O   UNL A   1      43.375  27.724  25.143  1.00  0.00    -0.376 OA
ENDROOT
BRANCH   1   2
ATOM      2  C   UNL A   1      44.532  27.059  25.750  1.00  0.00     0.202 C 
BRANCH   2   3
ATOM      3  C   UNL A   1      44.647  25.567  26.083  1.00  0.00     0.261 C 
BRANCH   3   4
ATOM      4  O   UNL A   1      45.001  25.402  27.429  1.00  0.00    -0.463 OA
BRANCH   4   5
ATOM      5  C   UNL A   1      44.079  25.682  28.349  1.00  0.00     0.306 C 
ATOM      6  O   UNL A   1      44.108  26.650  29.123  1.00  0.00    -0.252 OA
BRANCH   5   7
ATOM      7  C   UNL A   1      42.899  24.788  28.184  1.00  0.00     0.132 C 
BRANCH   7   8
ATOM      8  C   UNL A   1      41.508  25.422  28.291  1.00  0.00     0.114 C 
BRANCH   8   9
ATOM      9  C   UNL A   1      40.186  24.662  27.970  1.00  0.00     0.243 C 
ATOM     10  O   UNL A   1      39.218  25.308  28.448  1.00  0.00    -0.273 OA
BRANCH   9  11
ATOM     11  N   UNL A   1      39.921  23.477  27.191  1.00  0.00    -0.225 N 
ATOM     12  C   UNL A   1      38.117  22.750  26.112  1.00  0.00     0.071 C 
ATOM     13  N   UNL A   1      38.694  23.772  26.600  1.00  0.00    -0.174 NA
ATOM     14  C   UNL A   1      38.829  21.451  26.224  1.00  0.00     0.091 C 
ATOM     15  C   UNL A   1      40.389  21.813  26.578  1.00  0.00     0.149 C 
BRANCH  12  16
ATOM     16  C   UNL A   1      36.744  22.910  25.599  1.00  0.00    -0.002 A 
ATOM     17  C   UNL A   1      34.343  23.360  24.231  1.00  0.00     0.118 A 
ATOM     18  C   UNL A   1      34.919  22.086  24.246  1.00  0.00     0.047 A 
ATOM     19  C   UNL A   1      34.968  24.410  24.903  1.00  0.00     0.047 A 
ATOM     20  C   UNL A   1      36.133  21.863  24.905  1.00  0.00     0.014 A 
ATOM     21  C   UNL A   1      36.175  24.188  25.582  1.00  0.00     0.014 A 
BRANCH  17  22
ATOM     22  O   UNL A   1      33.139  23.467  23.586  1.00  0.00    -0.497 OA
ATOM     23  C   UNL A   1      32.083  24.007  24.378  1.00  0.00     0.278 C 
ENDBRANCH  17  22
ENDBRANCH  12  16
BRANCH  15  24
ATOM     24  C   UNL A   1      42.079  21.275  25.708  1.00  0.00    -0.004 A 
ATOM     25  C   UNL A   1      42.795  22.235  25.120  1.00  0.00     0.009 A 
ATOM     26  C   UNL A   1      43.010  19.920  25.653  1.00  0.00     0.047 A 
ATOM     27  C   UNL A   1      44.233  22.069  24.861  1.00  0.00     0.021 A 
ATOM     28  C   UNL A   1      44.323  19.791  25.145  1.00  0.00     0.041 A 
ATOM     29  Cl  UNL A   1      42.750  18.223  26.358  1.00  0.00    -0.084 Cl
ATOM     30  C   UNL A   1      44.986  20.922  24.871  1.00  0.00     0.042 A 
ATOM     31  Cl  UNL A   1      46.693  20.958  24.709  1.00  0.00    -0.084 Cl
ENDBRANCH  15  24
ENDBRANCH   9  11
ENDBRANCH   8   9
ENDBRANCH   7   8
ENDBRANCH   5   7
ENDBRANCH   4   5
ENDBRANCH   3   4
ENDBRANCH   2   3
ENDBRANCH   1   2
BRANCH   1  32
ATOM     32  C   UNL A   1      42.195  28.415  25.694  1.00  0.00     0.188 C 
BRANCH  32  33
ATOM     33  C   UNL A   1      41.716  29.097  27.385  1.00  0.00     0.188 C 
BRANCH  33  34
ATOM     34  O   UNL A   1      40.339  28.630  28.508  1.00  0.00    -0.376 OA
BRANCH  34  35
ATOM     35  C   UNL A   1      38.550  28.853  28.466  1.00  0.00     0.202 C 
BRANCH  35  36
ATOM     36  C   UNL A   1      37.361  30.044  27.587  1.00  0.00     0.261 C 
BRANCH  36  37
ATOM     37  O   UNL A   1      36.903  31.549  27.942  1.00  0.00    -0.460 OA
BRANCH  37  38
ATOM     38  C   UNL A   1      36.047  31.928  29.058  1.00  0.00     0.338 C 
ATOM     39  O   UNL A   1      35.076  32.661  28.892  1.00  0.00    -0.246 OA
BRANCH  38  40
ATOM     40  C   UNL A   1      36.673  31.811  30.575  1.00  0.00     0.060 A 
ATOM     41  C   UNL A   1      38.080  31.898  30.699  1.00  0.00     0.016 A 
ATOM     42  C   UNL A   1      36.052  31.334  31.746  1.00  0.00     0.016 A 
ATOM     43  C   UNL A   1      38.810  31.219  31.716  1.00  0.00     0.010 A 
ATOM     44  C   UNL A   1      36.823  30.924  32.920  1.00  0.00     0.010 A 
ATOM     45  C   UNL A   1      38.234  30.850  32.929  1.00  0.00    -0.014 A 
BRANCH  45  46
ATOM     46  C   UNL A   1      39.130  30.682  34.168  1.00  0.00     0.031 A 
ATOM     47  C   UNL A   1      39.260  31.674  35.325  1.00  0.00     0.074 A 
ATOM     48  C   UNL A   1      39.931  29.585  34.261  1.00  0.00     0.049 A 
ATOM     49  N   UNL A   1      40.252  31.818  36.185  1.00  0.00    -0.248 NA
ATOM     50  C   UNL A   1      38.125  32.567  35.598  1.00  0.00     0.031 C 
ATOM     51  C   UNL A   1      39.884  28.399  33.398  1.00  0.00     0.029 A 
ATOM     52  N   UNL A   1      40.987  29.297  35.113  1.00  0.00    -0.354 N 
ATOM     53  C   UNL A   1      39.890  32.845  37.060  1.00  0.00     0.074 A 
ATOM     54  C   UNL A   1      38.560  33.260  36.650  1.00  0.00     0.031 C 
ATOM     55  C   UNL A   1      40.856  27.548  33.731  1.00  0.00     0.029 A 
ATOM     56  C   UNL A   1      41.694  28.174  34.731  1.00  0.00     0.049 A 
ATOM     57  H   UNL A   1      41.208  29.836  35.906  1.00  0.00     0.167 HD
ATOM     58  C   UNL A   1      40.600  33.402  38.084  1.00  0.00     0.031 A 
ATOM     59  C   UNL A   1      42.928  27.721  35.025  1.00  0.00     0.031 A 
ATOM     60  C   UNL A   1      41.921  32.985  38.516  1.00  0.00     0.049 A 
ATOM     61  C   UNL A   1      43.801  28.479  35.970  1.00  0.00     0.074 A 
ATOM     62  C   UNL A   1      42.725  33.533  39.509  1.00  0.00     0.029 A 
ATOM     63  N   UNL A   1      42.632  31.920  37.990  1.00  0.00    -0.354 N 
ATOM     64  N   UNL A   1      43.514  29.536  36.682  1.00  0.00    -0.248 NA
ATOM     65  C   UNL A   1      45.178  27.991  36.135  1.00  0.00     0.031 C 
ATOM     66  C   UNL A   1      43.948  32.849  39.526  1.00  0.00     0.029 A 
ATOM     67  C   UNL A   1      43.880  31.830  38.595  1.00  0.00     0.049 A 
ATOM     68  H   UNL A   1      42.302  31.314  37.289  1.00  0.00     0.167 HD
ATOM     69  C   UNL A   1      44.667  29.831  37.394  1.00  0.00     0.074 A 
ATOM     70  C   UNL A   1      45.652  28.831  37.044  1.00  0.00     0.031 C 
ATOM     71  C   UNL A   1      44.880  30.851  38.257  1.00  0.00     0.031 A 
BRANCH  58  72
ATOM     72  C   UNL A   1      40.027  34.619  38.777  1.00  0.00    -0.014 A 
ATOM     73  C   UNL A   1      40.123  35.911  38.240  1.00  0.00     0.009 A 
ATOM     74  C   UNL A   1      39.277  34.440  39.956  1.00  0.00     0.009 A 
ATOM     75  C   UNL A   1      39.520  36.997  38.889  1.00  0.00     0.001 A 
ATOM     76  C   UNL A   1      38.656  35.519  40.588  1.00  0.00     0.001 A 
ATOM     77  C   UNL A   1      38.789  36.801  40.062  1.00  0.00     0.000 A 
ENDBRANCH  58  72
BRANCH  59  78
ATOM     78  C   UNL A   1      43.472  26.542  34.289  1.00  0.00    -0.014 A 
ATOM     79  C   UNL A   1      43.238  25.239  34.746  1.00  0.00     0.009 A 
ATOM     80  C   UNL A   1      44.235  26.725  33.121  1.00  0.00     0.009 A 
ATOM     81  C   UNL A   1      43.773  24.145  34.061  1.00  0.00     0.001 A 
ATOM     82  C   UNL A   1      44.734  25.628  32.417  1.00  0.00     0.001 A 
ATOM     83  C   UNL A   1      44.512  24.339  32.893  1.00  0.00     0.000 A 
ENDBRANCH  59  78
BRANCH  71  84
ATOM     84  C   UNL A   1      46.229  30.924  38.914  1.00  0.00    -0.014 A 
ATOM     85  C   UNL A   1      46.509  30.194  40.081  1.00  0.00     0.009 A 
ATOM     86  C   UNL A   1      47.239  31.723  38.356  1.00  0.00     0.009 A 
ATOM     87  C   UNL A   1      47.764  30.282  40.688  1.00  0.00     0.001 A 
ATOM     88  C   UNL A   1      48.502  31.788  38.950  1.00  0.00     0.001 A 
ATOM     89  C   UNL A   1      48.761  31.073  40.119  1.00  0.00     0.000 A 
ENDBRANCH  71  84
ENDBRANCH  45  46
ENDBRANCH  38  40
ENDBRANCH  37  38
ENDBRANCH  36  37
ENDBRANCH  35  36
ENDBRANCH  34  35
ENDBRANCH  33  34
ENDBRANCH  32  33
ENDBRANCH   1  32
TORSDOF 23
ENDMDL
