MODEL 1
REMARK VINA RESULT:      -8.4      0.000      0.000
REMARK SMILES COc1ccc(OC)c(/C=C2\S/C(=[NH+]\c3ccc(C(=O)OCCOCCOCCOC(=O)c4ccc(-c5c6nc(c(-c7ccccc7)c7ccc([nH]7)c(-c7ccccc7)c7nc(c(-c8ccccc8)c8ccc5[nH]8)C=C7)C=C6)cc4)cc3)N(C)C2=O)c1
REMARK SMILES IDX 25 1 24 2 23 3 22 4 21 5 19 6 20 7 18 8 15 9 16 10 82 11
REMARK SMILES IDX 17 12 81 13 14 14 10 15 11 16 12 17 85 18 13 19 83 20 86 21
REMARK SMILES IDX 84 22 9 24 3 25 4 26 87 27 5 28 6 29 2 30 1 31 7 32 8 33
REMARK SMILES IDX 26 34 27 35 28 36 29 37 30 38 31 39 32 40 33 41 34 42 80 43
REMARK SMILES IDX 35 44 79 45 36 46 37 47 38 48 73 49 39 50 78 51 72 52 74 53
REMARK SMILES IDX 40 54 77 55 71 56 70 57 41 59 63 60 48 61 62 62 49 63 52 64
REMARK SMILES IDX 61 65 75 66 50 67 51 68 60 70 76 71 53 72 42 73 43 74 47 75
REMARK SMILES IDX 44 76 46 77 45 78 64 79 65 80 69 81 66 82 68 83 67 84 54 85
REMARK SMILES IDX 55 86 59 87 56 88 58 89 57 90
REMARK H PARENT 14 23 74 58 52 69
REMARK Flexibility Score: inf
ROOT
ATOM      1  C   UNL A   1      38.203  32.182  41.481  1.00  0.00     0.188 C 
ENDROOT
BRANCH   1   2
ATOM      2  O   UNL A   1      37.932  31.460  40.297  1.00  0.00    -0.376 OA
BRANCH   2   3
ATOM      3  C   UNL A   1      37.147  32.030  39.259  1.00  0.00     0.202 C 
BRANCH   3   4
ATOM      4  C   UNL A   1      37.660  32.888  38.076  1.00  0.00     0.261 C 
BRANCH   4   5
ATOM      5  O   UNL A   1      36.812  33.079  36.943  1.00  0.00    -0.460 OA
BRANCH   5   6
ATOM      6  C   UNL A   1      37.382  32.886  35.728  1.00  0.00     0.338 C 
ATOM      7  O   UNL A   1      38.216  32.044  35.442  1.00  0.00    -0.246 OA
BRANCH   6   8
ATOM      8  C   UNL A   1      36.689  33.733  34.724  1.00  0.00     0.060 A 
ATOM      9  C   UNL A   1      35.218  35.118  32.785  1.00  0.00     0.125 A 
ATOM     10  C   UNL A   1      34.648  34.849  34.032  1.00  0.00     0.052 A 
ATOM     11  C   UNL A   1      36.581  34.847  32.588  1.00  0.00     0.052 A 
ATOM     12  C   UNL A   1      35.368  34.122  34.984  1.00  0.00     0.020 A 
ATOM     13  C   UNL A   1      37.321  34.155  33.552  1.00  0.00     0.020 A 
BRANCH   9  14
ATOM     14  N   UNL A   1      34.443  35.473  31.659  1.00  0.00    -0.234 N 
ATOM     15  C   UNL A   1      36.632  32.677  28.484  1.00  0.00     0.036 C 
ATOM     16  C   UNL A   1      35.494  33.132  29.032  1.00  0.00     0.110 C 
ATOM     17  S   UNL A   1      35.017  32.977  30.667  1.00  0.00     0.007 SA
ATOM     18  C   UNL A   1      34.631  34.166  28.389  1.00  0.00     0.348 C 
ATOM     19  C   UNL A   1      34.440  34.634  30.667  1.00  0.00     0.324 C 
ATOM     20  N   UNL A   1      34.074  34.960  29.384  1.00  0.00    -0.189 N 
ATOM     21  O   UNL A   1      34.573  34.346  27.182  1.00  0.00    -0.240 OA
ATOM     22  C   UNL A   1      33.403  36.199  29.063  1.00  0.00     0.301 C 
ATOM     23  H   UNL A   1      33.930  36.313  31.628  1.00  0.00     0.313 HD
BRANCH  15  24
ATOM     24  C   UNL A   1      37.695  31.996  29.253  1.00  0.00     0.022 A 
ATOM     25  C   UNL A   1      38.707  29.896  29.941  1.00  0.00     0.119 A 
ATOM     26  C   UNL A   1      39.495  30.560  30.877  1.00  0.00     0.050 A 
ATOM     27  C   UNL A   1      37.789  30.599  29.154  1.00  0.00     0.058 A 
ATOM     28  C   UNL A   1      39.437  31.947  30.962  1.00  0.00     0.051 A 
ATOM     29  C   UNL A   1      38.586  32.669  30.120  1.00  0.00     0.126 A 
BRANCH  25  30
ATOM     30  O   UNL A   1      38.818  28.533  29.898  1.00  0.00    -0.497 OA
ATOM     31  C   UNL A   1      39.879  28.063  30.729  1.00  0.00     0.278 C 
ENDBRANCH  25  30
BRANCH  29  32
ATOM     32  O   UNL A   1      38.647  34.027  30.309  1.00  0.00    -0.496 OA
ATOM     33  C   UNL A   1      39.460  34.738  29.383  1.00  0.00     0.278 C 
ENDBRANCH  29  32
ENDBRANCH  15  24
ENDBRANCH   9  14
ENDBRANCH   6   8
ENDBRANCH   5   6
ENDBRANCH   4   5
ENDBRANCH   3   4
ENDBRANCH   2   3
ENDBRANCH   1   2
BRANCH   1  34
ATOM     34  C   UNL A   1      39.286  33.270  41.386  1.00  0.00     0.188 C 
BRANCH  34  35
ATOM     35  O   UNL A   1      38.735  34.541  41.112  1.00  0.00    -0.376 OA
BRANCH  35  36
ATOM     36  C   UNL A   1      39.597  35.531  40.575  1.00  0.00     0.202 C 
BRANCH  36  37
ATOM     37  C   UNL A   1      39.106  36.712  39.705  1.00  0.00     0.261 C 
BRANCH  37  38
ATOM     38  O   UNL A   1      39.648  36.878  38.386  1.00  0.00    -0.460 OA
BRANCH  38  39
ATOM     39  C   UNL A   1      40.992  36.833  38.239  1.00  0.00     0.338 C 
ATOM     40  O   UNL A   1      41.828  37.389  38.921  1.00  0.00    -0.246 OA
BRANCH  39  41
ATOM     41  C   UNL A   1      41.292  35.829  37.190  1.00  0.00     0.060 A 
ATOM     42  C   UNL A   1      42.615  35.410  36.996  1.00  0.00     0.016 A 
ATOM     43  C   UNL A   1      40.264  35.296  36.409  1.00  0.00     0.016 A 
ATOM     44  C   UNL A   1      42.916  34.470  36.006  1.00  0.00     0.010 A 
ATOM     45  C   UNL A   1      40.570  34.371  35.404  1.00  0.00     0.010 A 
ATOM     46  C   UNL A   1      41.900  33.972  35.178  1.00  0.00    -0.014 A 
BRANCH  46  47
ATOM     47  C   UNL A   1      42.240  33.160  33.980  1.00  0.00     0.031 A 
ATOM     48  C   UNL A   1      42.362  31.667  34.131  1.00  0.00     0.074 A 
ATOM     49  C   UNL A   1      42.437  33.730  32.778  1.00  0.00     0.049 A 
ATOM     50  N   UNL A   1      42.704  30.767  33.244  1.00  0.00    -0.248 NA
ATOM     51  C   UNL A   1      42.059  31.116  35.462  1.00  0.00     0.031 C 
ATOM     52  C   UNL A   1      42.313  35.156  32.482  1.00  0.00     0.029 A 
ATOM     53  N   UNL A   1      42.797  33.167  31.576  1.00  0.00    -0.354 N 
ATOM     54  C   UNL A   1      42.673  29.549  33.912  1.00  0.00     0.074 A 
ATOM     55  C   UNL A   1      42.302  29.826  35.282  1.00  0.00     0.031 C 
ATOM     56  C   UNL A   1      42.606  35.359  31.185  1.00  0.00     0.029 A 
ATOM     57  C   UNL A   1      42.974  34.085  30.569  1.00  0.00     0.049 A 
ATOM     58  H   UNL A   1      42.917  32.199  31.449  1.00  0.00     0.167 HD
ATOM     59  C   UNL A   1      42.927  28.310  33.429  1.00  0.00     0.031 A 
ATOM     60  C   UNL A   1      43.411  33.921  29.303  1.00  0.00     0.031 A 
ATOM     61  C   UNL A   1      43.306  28.031  32.069  1.00  0.00     0.049 A 
ATOM     62  C   UNL A   1      43.763  32.538  28.812  1.00  0.00     0.074 A 
ATOM     63  C   UNL A   1      43.558  26.803  31.482  1.00  0.00     0.029 A 
ATOM     64  N   UNL A   1      43.502  28.991  31.090  1.00  0.00    -0.354 N 
ATOM     65  N   UNL A   1      43.688  31.390  29.442  1.00  0.00    -0.248 NA
ATOM     66  C   UNL A   1      44.253  32.430  27.430  1.00  0.00     0.031 C 
ATOM     67  C   UNL A   1      43.973  27.025  30.166  1.00  0.00     0.029 A 
ATOM     68  C   UNL A   1      43.906  28.385  29.912  1.00  0.00     0.049 A 
ATOM     69  H   UNL A   1      43.374  29.959  31.214  1.00  0.00     0.167 HD
ATOM     70  C   UNL A   1      44.087  30.425  28.523  1.00  0.00     0.074 A 
ATOM     71  C   UNL A   1      44.386  31.119  27.289  1.00  0.00     0.031 C 
ATOM     72  C   UNL A   1      44.196  29.084  28.686  1.00  0.00     0.031 A 
BRANCH  59  73
ATOM     73  C   UNL A   1      42.841  27.155  34.388  1.00  0.00    -0.014 A 
ATOM     74  C   UNL A   1      43.982  26.647  35.028  1.00  0.00     0.009 A 
ATOM     75  C   UNL A   1      41.588  26.605  34.698  1.00  0.00     0.009 A 
ATOM     76  C   UNL A   1      43.871  25.595  35.940  1.00  0.00     0.001 A 
ATOM     77  C   UNL A   1      41.477  25.574  35.633  1.00  0.00     0.001 A 
ATOM     78  C   UNL A   1      42.619  25.065  36.247  1.00  0.00     0.000 A 
ENDBRANCH  59  73
BRANCH  60  79
ATOM     79  C   UNL A   1      43.582  35.097  28.406  1.00  0.00    -0.014 A 
ATOM     80  C   UNL A   1      44.803  35.787  28.347  1.00  0.00     0.009 A 
ATOM     81  C   UNL A   1      42.503  35.568  27.641  1.00  0.00     0.009 A 
ATOM     82  C   UNL A   1      44.928  36.943  27.570  1.00  0.00     0.001 A 
ATOM     83  C   UNL A   1      42.641  36.702  26.839  1.00  0.00     0.001 A 
ATOM     84  C   UNL A   1      43.848  37.397  26.814  1.00  0.00     0.000 A 
ENDBRANCH  60  79
BRANCH  72  85
ATOM     85  C   UNL A   1      44.608  28.268  27.491  1.00  0.00    -0.014 A 
ATOM     86  C   UNL A   1      43.728  28.028  26.424  1.00  0.00     0.009 A 
ATOM     87  C   UNL A   1      45.919  27.768  27.413  1.00  0.00     0.009 A 
ATOM     88  C   UNL A   1      44.140  27.272  25.324  1.00  0.00     0.001 A 
ATOM     89  C   UNL A   1      46.339  27.043  26.297  1.00  0.00     0.001 A 
ATOM     90  C   UNL A   1      45.446  26.786  25.258  1.00  0.00     0.000 A 
ENDBRANCH  72  85
ENDBRANCH  46  47
ENDBRANCH  39  41
ENDBRANCH  38  39
ENDBRANCH  37  38
ENDBRANCH  36  37
ENDBRANCH  35  36
ENDBRANCH  34  35
ENDBRANCH   1  34
TORSDOF 21
ENDMDL
MODEL 2
REMARK VINA RESULT:      -8.3      0.417      5.536
REMARK SMILES COc1ccc(OC)c(/C=C2\S/C(=[NH+]\c3ccc(C(=O)OCCOCCOCCOC(=O)c4ccc(-c5c6nc(c(-c7ccccc7)c7ccc([nH]7)c(-c7ccccc7)c7nc(c(-c8ccccc8)c8ccc5[nH]8)C=C7)C=C6)cc4)cc3)N(C)C2=O)c1
REMARK SMILES IDX 25 1 24 2 23 3 22 4 21 5 19 6 20 7 18 8 15 9 16 10 82 11
REMARK SMILES IDX 17 12 81 13 14 14 10 15 11 16 12 17 85 18 13 19 83 20 86 21
REMARK SMILES IDX 84 22 9 24 3 25 4 26 87 27 5 28 6 29 2 30 1 31 7 32 8 33
REMARK SMILES IDX 26 34 27 35 28 36 29 37 30 38 31 39 32 40 33 41 34 42 80 43
REMARK SMILES IDX 35 44 79 45 36 46 37 47 38 48 73 49 39 50 78 51 72 52 74 53
REMARK SMILES IDX 40 54 77 55 71 56 70 57 41 59 63 60 48 61 62 62 49 63 52 64
REMARK SMILES IDX 61 65 75 66 50 67 51 68 60 70 76 71 53 72 42 73 43 74 47 75
REMARK SMILES IDX 44 76 46 77 45 78 64 79 65 80 69 81 66 82 68 83 67 84 54 85
REMARK SMILES IDX 55 86 59 87 56 88 58 89 57 90
REMARK H PARENT 14 23 74 58 52 69
REMARK Flexibility Score: inf
ROOT
ATOM      1  C   UNL A   1      38.154  31.721  41.387  1.00  0.00     0.188 C 
ENDROOT
BRANCH   1   2
ATOM      2  O   UNL A   1      37.779  31.136  40.156  1.00  0.00    -0.376 OA
BRANCH   2   3
ATOM      3  C   UNL A   1      37.100  31.895  39.165  1.00  0.00     0.202 C 
BRANCH   3   4
ATOM      4  C   UNL A   1      37.748  32.696  38.009  1.00  0.00     0.261 C 
BRANCH   4   5
ATOM      5  O   UNL A   1      36.957  33.016  36.863  1.00  0.00    -0.460 OA
BRANCH   5   6
ATOM      6  C   UNL A   1      37.591  32.968  35.666  1.00  0.00     0.338 C 
ATOM      7  O   UNL A   1      38.532  32.254  35.370  1.00  0.00    -0.246 OA
BRANCH   6   8
ATOM      8  C   UNL A   1      36.834  33.782  34.681  1.00  0.00     0.060 A 
ATOM      9  C   UNL A   1      35.240  35.106  32.796  1.00  0.00     0.125 A 
ATOM     10  C   UNL A   1      34.753  34.882  34.087  1.00  0.00     0.052 A 
ATOM     11  C   UNL A   1      36.586  34.823  32.520  1.00  0.00     0.052 A 
ATOM     12  C   UNL A   1      35.534  34.185  35.014  1.00  0.00     0.020 A 
ATOM     13  C   UNL A   1      37.388  34.162  33.456  1.00  0.00     0.020 A 
BRANCH   9  14
ATOM     14  N   UNL A   1      34.392  35.424  31.713  1.00  0.00    -0.234 N 
ATOM     15  C   UNL A   1      36.438  32.602  28.467  1.00  0.00     0.036 C 
ATOM     16  C   UNL A   1      35.326  33.049  29.072  1.00  0.00     0.110 C 
ATOM     17  S   UNL A   1      34.952  32.919  30.736  1.00  0.00     0.007 SA
ATOM     18  C   UNL A   1      34.408  34.054  28.463  1.00  0.00     0.348 C 
ATOM     19  C   UNL A   1      34.346  34.565  30.739  1.00  0.00     0.324 C 
ATOM     20  N   UNL A   1      33.897  34.859  29.474  1.00  0.00    -0.189 N 
ATOM     21  O   UNL A   1      34.274  34.208  27.258  1.00  0.00    -0.240 OA
ATOM     22  C   UNL A   1      33.185  36.080  29.171  1.00  0.00     0.301 C 
ATOM     23  H   UNL A   1      33.863  36.254  31.697  1.00  0.00     0.313 HD
BRANCH  15  24
ATOM     24  C   UNL A   1      37.557  31.955  29.183  1.00  0.00     0.022 A 
ATOM     25  C   UNL A   1      38.611  29.887  29.905  1.00  0.00     0.119 A 
ATOM     26  C   UNL A   1      39.477  30.595  30.733  1.00  0.00     0.050 A 
ATOM     27  C   UNL A   1      37.635  30.554  29.157  1.00  0.00     0.058 A 
ATOM     28  C   UNL A   1      39.435  31.985  30.742  1.00  0.00     0.051 A 
ATOM     29  C   UNL A   1      38.521  32.667  29.933  1.00  0.00     0.126 A 
BRANCH  25  30
ATOM     30  O   UNL A   1      38.711  28.523  29.931  1.00  0.00    -0.497 OA
ATOM     31  C   UNL A   1      39.853  28.090  30.668  1.00  0.00     0.278 C 
ENDBRANCH  25  30
BRANCH  29  32
ATOM     32  O   UNL A   1      38.605  34.033  30.038  1.00  0.00    -0.496 OA
ATOM     33  C   UNL A   1      39.880  34.592  29.750  1.00  0.00     0.278 C 
ENDBRANCH  29  32
ENDBRANCH  15  24
ENDBRANCH   9  14
ENDBRANCH   6   8
ENDBRANCH   5   6
ENDBRANCH   4   5
ENDBRANCH   3   4
ENDBRANCH   2   3
ENDBRANCH   1   2
BRANCH   1  34
ATOM     34  C   UNL A   1      39.287  32.760  41.332  1.00  0.00     0.188 C 
BRANCH  34  35
ATOM     35  O   UNL A   1      38.790  34.076  41.212  1.00  0.00    -0.376 OA
BRANCH  35  36
ATOM     36  C   UNL A   1      39.646  35.054  40.644  1.00  0.00     0.202 C 
BRANCH  36  37
ATOM     37  C   UNL A   1      39.136  36.329  39.933  1.00  0.00     0.261 C 
BRANCH  37  38
ATOM     38  O   UNL A   1      39.611  36.627  38.612  1.00  0.00    -0.460 OA
BRANCH  38  39
ATOM     39  C   UNL A   1      40.936  36.848  38.446  1.00  0.00     0.338 C 
ATOM     40  O   UNL A   1      41.686  37.436  39.196  1.00  0.00    -0.246 OA
BRANCH  39  41
ATOM     41  C   UNL A   1      41.368  36.083  37.251  1.00  0.00     0.060 A 
ATOM     42  C   UNL A   1      40.404  35.619  36.346  1.00  0.00     0.016 A 
ATOM     43  C   UNL A   1      42.723  35.836  37.023  1.00  0.00     0.016 A 
ATOM     44  C   UNL A   1      40.793  34.890  35.218  1.00  0.00     0.010 A 
ATOM     45  C   UNL A   1      43.109  35.087  35.905  1.00  0.00     0.010 A 
ATOM     46  C   UNL A   1      42.146  34.588  35.010  1.00  0.00    -0.014 A 
BRANCH  46  47
ATOM     47  C   UNL A   1      42.543  33.621  33.953  1.00  0.00     0.031 A 
ATOM     48  C   UNL A   1      42.834  34.142  32.571  1.00  0.00     0.074 A 
ATOM     49  C   UNL A   1      42.648  32.304  34.207  1.00  0.00     0.049 A 
ATOM     50  N   UNL A   1      43.140  33.484  31.481  1.00  0.00    -0.248 NA
ATOM     51  C   UNL A   1      42.768  35.603  32.393  1.00  0.00     0.031 C 
ATOM     52  C   UNL A   1      42.433  31.670  35.507  1.00  0.00     0.029 A 
ATOM     53  N   UNL A   1      42.953  31.258  33.369  1.00  0.00    -0.354 N 
ATOM     54  C   UNL A   1      43.287  34.446  30.489  1.00  0.00     0.074 A 
ATOM     55  C   UNL A   1      43.014  35.729  31.098  1.00  0.00     0.031 C 
ATOM     56  C   UNL A   1      42.601  30.342  35.375  1.00  0.00     0.029 A 
ATOM     57  C   UNL A   1      42.896  30.028  33.978  1.00  0.00     0.049 A 
ATOM     58  H   UNL A   1      43.190  31.379  32.421  1.00  0.00     0.167 HD
ATOM     59  C   UNL A   1      43.622  34.278  29.188  1.00  0.00     0.031 A 
ATOM     60  C   UNL A   1      43.037  28.790  33.462  1.00  0.00     0.031 A 
ATOM     61  C   UNL A   1      43.884  33.002  28.575  1.00  0.00     0.049 A 
ATOM     62  C   UNL A   1      43.333  28.626  31.992  1.00  0.00     0.074 A 
ATOM     63  C   UNL A   1      44.257  32.738  27.268  1.00  0.00     0.029 A 
ATOM     64  N   UNL A   1      43.787  31.781  29.220  1.00  0.00    -0.354 N 
ATOM     65  N   UNL A   1      43.512  29.546  31.074  1.00  0.00    -0.248 NA
ATOM     66  C   UNL A   1      43.454  27.249  31.489  1.00  0.00     0.031 C 
ATOM     67  C   UNL A   1      44.318  31.351  27.106  1.00  0.00     0.029 A 
ATOM     68  C   UNL A   1      44.058  30.756  28.330  1.00  0.00     0.049 A 
ATOM     69  H   UNL A   1      43.559  31.660  30.170  1.00  0.00     0.167 HD
ATOM     70  C   UNL A   1      43.800  28.861  29.899  1.00  0.00     0.074 A 
ATOM     71  C   UNL A   1      43.790  27.450  30.223  1.00  0.00     0.031 C 
ATOM     72  C   UNL A   1      44.051  29.354  28.662  1.00  0.00     0.031 A 
BRANCH  59  73
ATOM     73  C   UNL A   1      43.689  35.504  28.320  1.00  0.00    -0.014 A 
ATOM     74  C   UNL A   1      42.578  35.942  27.582  1.00  0.00     0.009 A 
ATOM     75  C   UNL A   1      44.868  36.265  28.287  1.00  0.00     0.009 A 
ATOM     76  C   UNL A   1      42.656  37.102  26.809  1.00  0.00     0.001 A 
ATOM     77  C   UNL A   1      44.933  37.441  27.537  1.00  0.00     0.001 A 
ATOM     78  C   UNL A   1      43.830  37.855  26.793  1.00  0.00     0.000 A 
ENDBRANCH  59  73
BRANCH  60  79
ATOM     79  C   UNL A   1      42.867  27.590  34.327  1.00  0.00    -0.014 A 
ATOM     80  C   UNL A   1      43.966  27.010  34.980  1.00  0.00     0.009 A 
ATOM     81  C   UNL A   1      41.607  26.987  34.463  1.00  0.00     0.009 A 
ATOM     82  C   UNL A   1      43.813  25.832  35.718  1.00  0.00     0.001 A 
ATOM     83  C   UNL A   1      41.450  25.830  35.230  1.00  0.00     0.001 A 
ATOM     84  C   UNL A   1      42.554  25.246  35.845  1.00  0.00     0.000 A 
ENDBRANCH  60  79
BRANCH  72  85
ATOM     85  C   UNL A   1      44.386  28.371  27.574  1.00  0.00    -0.014 A 
ATOM     86  C   UNL A   1      45.708  27.974  27.320  1.00  0.00     0.009 A 
ATOM     87  C   UNL A   1      43.350  27.797  26.818  1.00  0.00     0.009 A 
ATOM     88  C   UNL A   1      45.989  27.054  26.308  1.00  0.00     0.001 A 
ATOM     89  C   UNL A   1      43.630  26.850  25.830  1.00  0.00     0.001 A 
ATOM     90  C   UNL A   1      44.950  26.488  25.569  1.00  0.00     0.000 A 
ENDBRANCH  72  85
ENDBRANCH  46  47
ENDBRANCH  39  41
ENDBRANCH  38  39
ENDBRANCH  37  38
ENDBRANCH  36  37
ENDBRANCH  35  36
ENDBRANCH  34  35
ENDBRANCH   1  34
TORSDOF 21
ENDMDL
MODEL 3
REMARK VINA RESULT:      -7.7      6.885     11.171
REMARK SMILES COc1ccc(OC)c(/C=C2\S/C(=[NH+]\c3ccc(C(=O)OCCOCCOCCOC(=O)c4ccc(-c5c6nc(c(-c7ccccc7)c7ccc([nH]7)c(-c7ccccc7)c7nc(c(-c8ccccc8)c8ccc5[nH]8)C=C7)C=C6)cc4)cc3)N(C)C2=O)c1
REMARK SMILES IDX 25 1 24 2 23 3 22 4 21 5 19 6 20 7 18 8 15 9 16 10 82 11
REMARK SMILES IDX 17 12 81 13 14 14 10 15 11 16 12 17 85 18 13 19 83 20 86 21
REMARK SMILES IDX 84 22 9 24 3 25 4 26 87 27 5 28 6 29 2 30 1 31 7 32 8 33
REMARK SMILES IDX 26 34 27 35 28 36 29 37 30 38 31 39 32 40 33 41 34 42 80 43
REMARK SMILES IDX 35 44 79 45 36 46 37 47 38 48 73 49 39 50 78 51 72 52 74 53
REMARK SMILES IDX 40 54 77 55 71 56 70 57 41 59 63 60 48 61 62 62 49 63 52 64
REMARK SMILES IDX 61 65 75 66 50 67 51 68 60 70 76 71 53 72 42 73 43 74 47 75
REMARK SMILES IDX 44 76 46 77 45 78 64 79 65 80 69 81 66 82 68 83 67 84 54 85
REMARK SMILES IDX 55 86 59 87 56 88 58 89 57 90
REMARK H PARENT 14 23 74 58 52 69
REMARK Flexibility Score: inf
ROOT
ATOM      1  C   UNL A   1      31.406  30.448  26.703  1.00  0.00     0.188 C 
ENDROOT
BRANCH   1   2
ATOM      2  O   UNL A   1      31.053  30.550  25.338  1.00  0.00    -0.376 OA
BRANCH   2   3
ATOM      3  C   UNL A   1      31.414  29.534  24.413  1.00  0.00     0.202 C 
BRANCH   3   4
ATOM      4  C   UNL A   1      31.648  28.036  24.729  1.00  0.00     0.261 C 
BRANCH   4   5
ATOM      5  O   UNL A   1      30.737  27.070  24.205  1.00  0.00    -0.460 OA
BRANCH   5   6
ATOM      6  C   UNL A   1      31.073  26.512  23.017  1.00  0.00     0.338 C 
ATOM      7  O   UNL A   1      31.251  27.098  21.963  1.00  0.00    -0.246 OA
BRANCH   6   8
ATOM      8  C   UNL A   1      31.397  25.078  23.225  1.00  0.00     0.060 A 
ATOM      9  C   UNL A   1      31.911  22.328  23.368  1.00  0.00     0.125 A 
ATOM     10  C   UNL A   1      32.688  23.141  22.537  1.00  0.00     0.052 A 
ATOM     11  C   UNL A   1      31.004  22.932  24.251  1.00  0.00     0.052 A 
ATOM     12  C   UNL A   1      32.404  24.505  22.435  1.00  0.00     0.020 A 
ATOM     13  C   UNL A   1      30.742  24.304  24.185  1.00  0.00     0.020 A 
BRANCH   9  14
ATOM     14  N   UNL A   1      31.864  20.924  23.223  1.00  0.00    -0.234 N 
ATOM     15  C   UNL A   1      36.164  19.963  25.033  1.00  0.00     0.036 C 
ATOM     16  C   UNL A   1      34.847  19.708  24.987  1.00  0.00     0.110 C 
ATOM     17  S   UNL A   1      33.584  20.799  25.361  1.00  0.00     0.007 SA
ATOM     18  C   UNL A   1      34.261  18.550  24.250  1.00  0.00     0.348 C 
ATOM     19  C   UNL A   1      32.671  20.235  23.973  1.00  0.00     0.324 C 
ATOM     20  N   UNL A   1      33.036  18.935  23.720  1.00  0.00    -0.189 N 
ATOM     21  O   UNL A   1      34.860  17.505  24.042  1.00  0.00    -0.240 OA
ATOM     22  C   UNL A   1      32.353  18.118  22.743  1.00  0.00     0.301 C 
ATOM     23  H   UNL A   1      31.249  20.490  22.589  1.00  0.00     0.313 HD
BRANCH  15  24
ATOM     24  C   UNL A   1      36.730  21.284  25.379  1.00  0.00     0.022 A 
ATOM     25  C   UNL A   1      36.385  23.683  25.559  1.00  0.00     0.119 A 
ATOM     26  C   UNL A   1      37.749  23.885  25.746  1.00  0.00     0.050 A 
ATOM     27  C   UNL A   1      35.877  22.397  25.344  1.00  0.00     0.058 A 
ATOM     28  C   UNL A   1      38.601  22.788  25.817  1.00  0.00     0.051 A 
ATOM     29  C   UNL A   1      38.094  21.492  25.691  1.00  0.00     0.126 A 
BRANCH  25  30
ATOM     30  O   UNL A   1      35.597  24.801  25.510  1.00  0.00    -0.497 OA
ATOM     31  C   UNL A   1      34.229  24.495  25.778  1.00  0.00     0.278 C 
ENDBRANCH  25  30
BRANCH  29  32
ATOM     32  O   UNL A   1      39.049  20.513  25.795  1.00  0.00    -0.496 OA
ATOM     33  C   UNL A   1      40.229  20.882  26.498  1.00  0.00     0.278 C 
ENDBRANCH  29  32
ENDBRANCH  15  24
ENDBRANCH   9  14
ENDBRANCH   6   8
ENDBRANCH   5   6
ENDBRANCH   4   5
ENDBRANCH   3   4
ENDBRANCH   2   3
ENDBRANCH   1   2
BRANCH   1  34
ATOM     34  C   UNL A   1      32.562  31.345  27.178  1.00  0.00     0.188 C 
BRANCH  34  35
ATOM     35  O   UNL A   1      33.822  30.809  26.834  1.00  0.00    -0.376 OA
BRANCH  35  36
ATOM     36  C   UNL A   1      34.139  29.512  27.310  1.00  0.00     0.202 C 
BRANCH  36  37
ATOM     37  C   UNL A   1      35.545  29.103  27.809  1.00  0.00     0.261 C 
BRANCH  37  38
ATOM     38  O   UNL A   1      36.285  30.017  28.632  1.00  0.00    -0.460 OA
BRANCH  38  39
ATOM     39  C   UNL A   1      36.969  29.516  29.687  1.00  0.00     0.338 C 
ATOM     40  O   UNL A   1      36.526  29.204  30.772  1.00  0.00    -0.246 OA
BRANCH  39  41
ATOM     41  C   UNL A   1      38.352  29.240  29.229  1.00  0.00     0.060 A 
ATOM     42  C   UNL A   1      39.308  28.799  30.154  1.00  0.00     0.016 A 
ATOM     43  C   UNL A   1      38.698  29.406  27.887  1.00  0.00     0.016 A 
ATOM     44  C   UNL A   1      40.618  28.541  29.741  1.00  0.00     0.010 A 
ATOM     45  C   UNL A   1      40.016  29.169  27.479  1.00  0.00     0.010 A 
ATOM     46  C   UNL A   1      40.990  28.760  28.407  1.00  0.00    -0.014 A 
BRANCH  46  47
ATOM     47  C   UNL A   1      42.422  28.717  28.012  1.00  0.00     0.031 A 
ATOM     48  C   UNL A   1      42.966  27.451  27.407  1.00  0.00     0.074 A 
ATOM     49  C   UNL A   1      43.231  29.778  28.183  1.00  0.00     0.049 A 
ATOM     50  N   UNL A   1      44.190  27.163  27.041  1.00  0.00    -0.248 NA
ATOM     51  C   UNL A   1      42.000  26.361  27.186  1.00  0.00     0.031 C 
ATOM     52  C   UNL A   1      42.828  31.077  28.720  1.00  0.00     0.029 A 
ATOM     53  N   UNL A   1      44.574  29.923  27.927  1.00  0.00    -0.354 N 
ATOM     54  C   UNL A   1      44.144  25.858  26.563  1.00  0.00     0.074 A 
ATOM     55  C   UNL A   1      42.778  25.402  26.707  1.00  0.00     0.031 C 
ATOM     56  C   UNL A   1      43.904  31.882  28.766  1.00  0.00     0.029 A 
ATOM     57  C   UNL A   1      45.078  31.146  28.299  1.00  0.00     0.049 A 
ATOM     58  H   UNL A   1      45.123  29.217  27.517  1.00  0.00     0.167 HD
ATOM     59  C   UNL A   1      45.145  25.107  26.048  1.00  0.00     0.031 A 
ATOM     60  C   UNL A   1      46.345  31.608  28.291  1.00  0.00     0.031 A 
ATOM     61  C   UNL A   1      46.507  25.553  25.914  1.00  0.00     0.049 A 
ATOM     62  C   UNL A   1      47.457  30.722  27.785  1.00  0.00     0.074 A 
ATOM     63  C   UNL A   1      47.585  24.869  25.378  1.00  0.00     0.029 A 
ATOM     64  N   UNL A   1      46.980  26.786  26.329  1.00  0.00    -0.354 N 
ATOM     65  N   UNL A   1      47.392  29.507  27.297  1.00  0.00    -0.248 NA
ATOM     66  C   UNL A   1      48.817  31.279  27.823  1.00  0.00     0.031 C 
ATOM     67  C   UNL A   1      48.725  25.664  25.533  1.00  0.00     0.029 A 
ATOM     68  C   UNL A   1      48.342  26.871  26.094  1.00  0.00     0.049 A 
ATOM     69  H   UNL A   1      46.429  27.497  26.731  1.00  0.00     0.167 HD
ATOM     70  C   UNL A   1      48.693  29.170  26.939  1.00  0.00     0.074 A 
ATOM     71  C   UNL A   1      49.522  30.315  27.249  1.00  0.00     0.031 C 
ATOM     72  C   UNL A   1      49.159  28.017  26.401  1.00  0.00     0.031 A 
BRANCH  59  73
ATOM     73  C   UNL A   1      44.818  23.702  25.624  1.00  0.00    -0.014 A 
ATOM     74  C   UNL A   1      44.296  22.765  26.529  1.00  0.00     0.009 A 
ATOM     75  C   UNL A   1      44.982  23.329  24.281  1.00  0.00     0.009 A 
ATOM     76  C   UNL A   1      43.969  21.477  26.102  1.00  0.00     0.001 A 
ATOM     77  C   UNL A   1      44.626  22.050  23.850  1.00  0.00     0.001 A 
ATOM     78  C   UNL A   1      44.127  21.122  24.762  1.00  0.00     0.000 A 
ENDBRANCH  59  73
BRANCH  60  79
ATOM     79  C   UNL A   1      46.653  32.969  28.811  1.00  0.00    -0.014 A 
ATOM     80  C   UNL A   1      46.959  33.170  30.167  1.00  0.00     0.009 A 
ATOM     81  C   UNL A   1      46.593  34.084  27.961  1.00  0.00     0.009 A 
ATOM     82  C   UNL A   1      47.160  34.461  30.665  1.00  0.00     0.001 A 
ATOM     83  C   UNL A   1      46.828  35.369  28.454  1.00  0.00     0.001 A 
ATOM     84  C   UNL A   1      47.098  35.558  29.808  1.00  0.00     0.000 A 
ENDBRANCH  60  79
BRANCH  72  85
ATOM     85  C   UNL A   1      50.624  27.947  26.065  1.00  0.00    -0.014 A 
ATOM     86  C   UNL A   1      51.141  28.535  24.899  1.00  0.00     0.009 A 
ATOM     87  C   UNL A   1      51.509  27.319  26.956  1.00  0.00     0.009 A 
ATOM     88  C   UNL A   1      52.507  28.461  24.616  1.00  0.00     0.001 A 
ATOM     89  C   UNL A   1      52.879  27.277  26.688  1.00  0.00     0.001 A 
ATOM     90  C   UNL A   1      53.375  27.838  25.513  1.00  0.00     0.000 A 
ENDBRANCH  72  85
ENDBRANCH  46  47
ENDBRANCH  39  41
ENDBRANCH  38  39
ENDBRANCH  37  38
ENDBRANCH  36  37
ENDBRANCH  35  36
ENDBRANCH  34  35
ENDBRANCH   1  34
TORSDOF 21
ENDMDL
