MODEL 1
REMARK VINA RESULT:      -8.6      0.000      0.000
REMARK SMILES CCC[NH2+][C@@H]1COC[C@@H]1C(=O)N[C@@](C)(CC)C(=O)OCCOCCOCCOC(=O)c1ccc(-c2c3nc(c(-c4ccccc4)c4ccc([nH]4)c(-c4ccccc4)c4nc(c(-c5ccccc5)c5ccc2[nH]5)C=C4)C=C3)cc1
REMARK SMILES IDX 22 1 21 2 20 3 19 4 17 5 18 6 13 7 14 8 12 9 10 10 11 11
REMARK SMILES IDX 9 13 5 14 6 15 7 16 8 17 4 18 3 21 2 22 1 23 15 24 16 25
REMARK SMILES IDX 23 26 24 27 25 28 26 29 27 30 28 31 29 32 30 33 31 34 32 35
REMARK SMILES IDX 78 36 33 37 77 38 34 39 35 40 36 41 71 42 37 43 76 44 70 45
REMARK SMILES IDX 72 46 38 47 75 48 69 49 68 50 39 52 61 53 46 54 60 55 47 56
REMARK SMILES IDX 50 57 59 58 73 59 48 60 49 61 58 63 74 64 51 65 40 66 41 67
REMARK SMILES IDX 45 68 42 69 44 70 43 71 62 72 63 73 67 74 64 75 66 76 65 77
REMARK SMILES IDX 52 78 53 79 57 80 54 81 56 82 55 83
REMARK H PARENT 12 12 4 19 4 20 72 51 50 62
REMARK Flexibility Score: inf
ROOT
ATOM      1  O   UNL A   1      34.251  31.669  27.580  1.00  0.00    -0.376 OA
ENDROOT
BRANCH   1   2
ATOM      2  C   UNL A   1      33.091  30.890  27.277  1.00  0.00     0.202 C 
BRANCH   2   3
ATOM      3  C   UNL A   1      33.268  29.696  26.315  1.00  0.00     0.261 C 
BRANCH   3   4
ATOM      4  O   UNL A   1      33.309  28.417  26.972  1.00  0.00    -0.462 OA
BRANCH   4   5
ATOM      5  C   UNL A   1      32.137  27.709  26.971  1.00  0.00     0.331 C 
ATOM      6  O   UNL A   1      31.186  27.967  27.701  1.00  0.00    -0.249 OA
BRANCH   5   7
ATOM      7  C   UNL A   1      32.165  26.475  26.016  1.00  0.00     0.135 C 
ATOM      8  C   UNL A   1      33.699  26.213  25.898  1.00  0.00     0.047 C 
BRANCH   7   9
ATOM      9  N   UNL A   1      31.619  25.191  26.563  1.00  0.00    -0.340 N 
ATOM     10  C   UNL A   1      31.919  23.878  26.629  1.00  0.00     0.232 C 
ATOM     11  O   UNL A   1      31.617  23.365  27.721  1.00  0.00    -0.274 OA
ATOM     12  H   UNL A   1      30.765  25.361  27.023  1.00  0.00     0.164 HD
BRANCH  10  13
ATOM     13  C   UNL A   1      32.396  22.947  25.529  1.00  0.00     0.164 C 
ATOM     14  C   UNL A   1      33.860  22.783  25.178  1.00  0.00     0.223 C 
ATOM     15  C   UNL A   1      34.002  23.605  23.912  1.00  0.00     0.225 C 
ATOM     16  O   UNL A   1      32.742  23.516  23.231  1.00  0.00    -0.374 OA
ATOM     17  C   UNL A   1      31.729  23.137  24.181  1.00  0.00     0.180 C 
BRANCH  14  18
ATOM     18  N   UNL A   1      34.861  22.820  26.246  1.00  0.00    -0.341 N 
ATOM     19  H   UNL A   1      34.452  23.334  27.027  1.00  0.00     0.346 HD
ATOM     20  H   UNL A   1      35.080  21.840  26.425  1.00  0.00     0.346 HD
BRANCH  18  21
ATOM     21  C   UNL A   1      36.146  23.428  25.956  1.00  0.00     0.260 C 
BRANCH  21  22
ATOM     22  C   UNL A   1      37.416  22.582  25.623  1.00  0.00     0.058 C 
ATOM     23  C   UNL A   1      37.447  21.364  24.694  1.00  0.00     0.010 C 
ENDBRANCH  21  22
ENDBRANCH  18  21
ENDBRANCH  14  18
ENDBRANCH  10  13
ENDBRANCH   7   9
BRANCH   7  24
ATOM     24  C   UNL A   1      31.680  26.771  24.557  1.00  0.00     0.037 C 
ATOM     25  C   UNL A   1      30.710  27.926  24.330  1.00  0.00     0.007 C 
ENDBRANCH   7  24
ENDBRANCH   5   7
ENDBRANCH   4   5
ENDBRANCH   3   4
ENDBRANCH   2   3
ENDBRANCH   1   2
BRANCH   1  26
ATOM     26  C   UNL A   1      34.022  32.662  28.581  1.00  0.00     0.188 C 
BRANCH  26  27
ATOM     27  C   UNL A   1      35.222  33.610  28.760  1.00  0.00     0.188 C 
BRANCH  27  28
ATOM     28  O   UNL A   1      36.125  33.309  29.838  1.00  0.00    -0.376 OA
BRANCH  28  29
ATOM     29  C   UNL A   1      35.650  33.654  31.150  1.00  0.00     0.202 C 
BRANCH  29  30
ATOM     30  C   UNL A   1      35.131  32.409  31.924  1.00  0.00     0.261 C 
BRANCH  30  31
ATOM     31  O   UNL A   1      35.857  31.173  31.640  1.00  0.00    -0.460 OA
BRANCH  31  32
ATOM     32  C   UNL A   1      37.035  31.038  32.337  1.00  0.00     0.338 C 
ATOM     33  O   UNL A   1      37.186  31.316  33.514  1.00  0.00    -0.246 OA
BRANCH  32  34
ATOM     34  C   UNL A   1      38.173  30.544  31.492  1.00  0.00     0.060 A 
ATOM     35  C   UNL A   1      39.290  29.925  32.048  1.00  0.00     0.016 A 
ATOM     36  C   UNL A   1      38.183  30.759  30.116  1.00  0.00     0.016 A 
ATOM     37  C   UNL A   1      40.338  29.407  31.298  1.00  0.00     0.010 A 
ATOM     38  C   UNL A   1      39.266  30.307  29.341  1.00  0.00     0.010 A 
ATOM     39  C   UNL A   1      40.343  29.621  29.933  1.00  0.00    -0.014 A 
BRANCH  39  40
ATOM     40  C   UNL A   1      41.552  29.275  29.169  1.00  0.00     0.031 A 
ATOM     41  C   UNL A   1      41.658  27.889  28.619  1.00  0.00     0.074 A 
ATOM     42  C   UNL A   1      42.511  30.187  28.944  1.00  0.00     0.049 A 
ATOM     43  N   UNL A   1      42.712  27.239  28.212  1.00  0.00    -0.248 NA
ATOM     44  C   UNL A   1      40.398  27.132  28.514  1.00  0.00     0.031 C 
ATOM     45  C   UNL A   1      42.413  31.616  29.243  1.00  0.00     0.029 A 
ATOM     46  N   UNL A   1      43.774  30.034  28.433  1.00  0.00    -0.354 N 
ATOM     47  C   UNL A   1      42.254  25.974  27.867  1.00  0.00     0.074 A 
ATOM     48  C   UNL A   1      40.823  25.961  28.066  1.00  0.00     0.031 C 
ATOM     49  C   UNL A   1      43.593  32.199  28.971  1.00  0.00     0.029 A 
ATOM     50  C   UNL A   1      44.540  31.169  28.553  1.00  0.00     0.049 A 
ATOM     51  H   UNL A   1      44.097  29.200  28.023  1.00  0.00     0.167 HD
ATOM     52  C   UNL A   1      42.987  24.911  27.465  1.00  0.00     0.031 A 
ATOM     53  C   UNL A   1      45.871  31.321  28.423  1.00  0.00     0.031 A 
ATOM     54  C   UNL A   1      44.414  24.968  27.303  1.00  0.00     0.049 A 
ATOM     55  C   UNL A   1      46.693  30.102  28.097  1.00  0.00     0.074 A 
ATOM     56  C   UNL A   1      45.294  23.957  26.968  1.00  0.00     0.029 A 
ATOM     57  N   UNL A   1      45.168  26.123  27.470  1.00  0.00    -0.354 N 
ATOM     58  N   UNL A   1      46.293  28.870  27.881  1.00  0.00    -0.248 NA
ATOM     59  C   UNL A   1      48.148  30.284  28.018  1.00  0.00     0.031 C 
ATOM     60  C   UNL A   1      46.586  24.492  26.979  1.00  0.00     0.029 A 
ATOM     61  C   UNL A   1      46.505  25.847  27.264  1.00  0.00     0.049 A 
ATOM     62  H   UNL A   1      44.802  27.007  27.701  1.00  0.00     0.167 HD
ATOM     63  C   UNL A   1      47.440  28.134  27.618  1.00  0.00     0.074 A 
ATOM     64  C   UNL A   1      48.551  29.064  27.691  1.00  0.00     0.031 C 
ATOM     65  C   UNL A   1      47.573  26.813  27.343  1.00  0.00     0.031 A 
BRANCH  52  66
ATOM     66  C   UNL A   1      42.270  23.603  27.302  1.00  0.00    -0.014 A 
ATOM     67  C   UNL A   1      41.795  22.871  28.401  1.00  0.00     0.009 A 
ATOM     68  C   UNL A   1      42.095  23.078  26.011  1.00  0.00     0.009 A 
ATOM     69  C   UNL A   1      41.189  21.625  28.211  1.00  0.00     0.001 A 
ATOM     70  C   UNL A   1      41.466  21.846  25.823  1.00  0.00     0.001 A 
ATOM     71  C   UNL A   1      41.022  21.116  26.924  1.00  0.00     0.000 A 
ENDBRANCH  52  66
BRANCH  53  72
ATOM     72  C   UNL A   1      46.510  32.636  28.701  1.00  0.00    -0.014 A 
ATOM     73  C   UNL A   1      46.948  32.967  29.992  1.00  0.00     0.009 A 
ATOM     74  C   UNL A   1      46.684  33.576  27.671  1.00  0.00     0.009 A 
ATOM     75  C   UNL A   1      47.530  34.212  30.247  1.00  0.00     0.001 A 
ATOM     76  C   UNL A   1      47.293  34.808  27.922  1.00  0.00     0.001 A 
ATOM     77  C   UNL A   1      47.710  35.128  29.211  1.00  0.00     0.000 A 
ENDBRANCH  53  72
BRANCH  65  78
ATOM     78  C   UNL A   1      48.959  26.321  27.055  1.00  0.00    -0.014 A 
ATOM     79  C   UNL A   1      49.717  25.661  28.033  1.00  0.00     0.009 A 
ATOM     80  C   UNL A   1      49.491  26.481  25.765  1.00  0.00     0.009 A 
ATOM     81  C   UNL A   1      50.998  25.196  27.733  1.00  0.00     0.001 A 
ATOM     82  C   UNL A   1      50.760  25.993  25.462  1.00  0.00     0.001 A 
ATOM     83  C   UNL A   1      51.515  25.358  26.447  1.00  0.00     0.000 A 
ENDBRANCH  65  78
ENDBRANCH  39  40
ENDBRANCH  32  34
ENDBRANCH  31  32
ENDBRANCH  30  31
ENDBRANCH  29  30
ENDBRANCH  28  29
ENDBRANCH  27  28
ENDBRANCH  26  27
ENDBRANCH   1  26
TORSDOF 23
ENDMDL
MODEL 2
REMARK VINA RESULT:      -8.4      4.431      6.933
REMARK SMILES CCC[NH2+][C@@H]1COC[C@@H]1C(=O)N[C@@](C)(CC)C(=O)OCCOCCOCCOC(=O)c1ccc(-c2c3nc(c(-c4ccccc4)c4ccc([nH]4)c(-c4ccccc4)c4nc(c(-c5ccccc5)c5ccc2[nH]5)C=C4)C=C3)cc1
REMARK SMILES IDX 22 1 21 2 20 3 19 4 17 5 18 6 13 7 14 8 12 9 10 10 11 11
REMARK SMILES IDX 9 13 5 14 6 15 7 16 8 17 4 18 3 21 2 22 1 23 15 24 16 25
REMARK SMILES IDX 23 26 24 27 25 28 26 29 27 30 28 31 29 32 30 33 31 34 32 35
REMARK SMILES IDX 78 36 33 37 77 38 34 39 35 40 36 41 71 42 37 43 76 44 70 45
REMARK SMILES IDX 72 46 38 47 75 48 69 49 68 50 39 52 61 53 46 54 60 55 47 56
REMARK SMILES IDX 50 57 59 58 73 59 48 60 49 61 58 63 74 64 51 65 40 66 41 67
REMARK SMILES IDX 45 68 42 69 44 70 43 71 62 72 63 73 67 74 64 75 66 76 65 77
REMARK SMILES IDX 52 78 53 79 57 80 54 81 56 82 55 83
REMARK H PARENT 12 12 4 19 4 20 72 51 50 62
REMARK Flexibility Score: inf
ROOT
ATOM      1  O   UNL A   1      32.799  29.459  25.980  1.00  0.00    -0.376 OA
ENDROOT
BRANCH   1   2
ATOM      2  C   UNL A   1      32.726  28.735  24.748  1.00  0.00     0.202 C 
BRANCH   2   3
ATOM      3  C   UNL A   1      33.993  27.981  24.292  1.00  0.00     0.261 C 
BRANCH   3   4
ATOM      4  O   UNL A   1      33.729  26.684  23.728  1.00  0.00    -0.462 OA
BRANCH   4   5
ATOM      5  C   UNL A   1      33.004  25.829  24.513  1.00  0.00     0.331 C 
ATOM      6  O   UNL A   1      33.299  25.556  25.672  1.00  0.00    -0.249 OA
BRANCH   5   7
ATOM      7  C   UNL A   1      31.817  25.155  23.756  1.00  0.00     0.135 C 
ATOM      8  C   UNL A   1      32.437  24.942  22.341  1.00  0.00     0.047 C 
BRANCH   7   9
ATOM      9  N   UNL A   1      31.437  23.774  24.198  1.00  0.00    -0.340 N 
ATOM     10  C   UNL A   1      32.004  22.605  24.557  1.00  0.00     0.232 C 
ATOM     11  O   UNL A   1      31.403  22.039  25.487  1.00  0.00    -0.274 OA
ATOM     12  H   UNL A   1      30.457  23.695  24.239  1.00  0.00     0.164 HD
BRANCH  10  13
ATOM     13  C   UNL A   1      33.131  21.840  23.887  1.00  0.00     0.164 C 
ATOM     14  C   UNL A   1      33.465  20.405  24.238  1.00  0.00     0.223 C 
ATOM     15  C   UNL A   1      34.696  20.545  25.112  1.00  0.00     0.225 C 
ATOM     16  O   UNL A   1      35.400  21.700  24.633  1.00  0.00    -0.374 OA
ATOM     17  C   UNL A   1      34.481  22.528  23.897  1.00  0.00     0.180 C 
BRANCH  14  18
ATOM     18  N   UNL A   1      32.381  19.477  24.566  1.00  0.00    -0.341 N 
ATOM     19  H   UNL A   1      31.706  19.988  25.135  1.00  0.00     0.346 HD
ATOM     20  H   UNL A   1      32.042  19.151  23.660  1.00  0.00     0.346 HD
BRANCH  18  21
ATOM     21  C   UNL A   1      32.715  18.262  25.282  1.00  0.00     0.260 C 
BRANCH  21  22
ATOM     22  C   UNL A   1      33.135  16.946  24.551  1.00  0.00     0.058 C 
ATOM     23  C   UNL A   1      33.880  16.879  23.214  1.00  0.00     0.010 C 
ENDBRANCH  21  22
ENDBRANCH  18  21
ENDBRANCH  14  18
ENDBRANCH  10  13
ENDBRANCH   7   9
BRANCH   7  24
ATOM     24  C   UNL A   1      30.578  26.086  23.532  1.00  0.00     0.037 C 
ATOM     25  C   UNL A   1      30.629  27.110  22.403  1.00  0.00     0.007 C 
ENDBRANCH   7  24
ENDBRANCH   5   7
ENDBRANCH   4   5
ENDBRANCH   3   4
ENDBRANCH   2   3
ENDBRANCH   1   2
BRANCH   1  26
ATOM     26  C   UNL A   1      33.972  29.169  26.740  1.00  0.00     0.188 C 
BRANCH  26  27
ATOM     27  C   UNL A   1      34.408  30.347  27.629  1.00  0.00     0.188 C 
BRANCH  27  28
ATOM     28  O   UNL A   1      33.942  31.652  27.242  1.00  0.00    -0.376 OA
BRANCH  28  29
ATOM     29  C   UNL A   1      32.536  31.882  27.432  1.00  0.00     0.202 C 
BRANCH  29  30
ATOM     30  C   UNL A   1      32.179  33.393  27.335  1.00  0.00     0.261 C 
BRANCH  30  31
ATOM     31  O   UNL A   1      33.248  34.296  27.757  1.00  0.00    -0.460 OA
BRANCH  31  32
ATOM     32  C   UNL A   1      33.371  34.428  29.120  1.00  0.00     0.338 C 
ATOM     33  O   UNL A   1      32.543  34.948  29.849  1.00  0.00    -0.246 OA
BRANCH  32  34
ATOM     34  C   UNL A   1      34.670  33.900  29.655  1.00  0.00     0.060 A 
ATOM     35  C   UNL A   1      34.723  33.047  30.755  1.00  0.00     0.016 A 
ATOM     36  C   UNL A   1      35.883  34.310  29.108  1.00  0.00     0.016 A 
ATOM     37  C   UNL A   1      35.899  32.496  31.248  1.00  0.00     0.010 A 
ATOM     38  C   UNL A   1      37.093  33.821  29.633  1.00  0.00     0.010 A 
ATOM     39  C   UNL A   1      37.099  32.905  30.701  1.00  0.00    -0.014 A 
BRANCH  39  40
ATOM     40  C   UNL A   1      38.350  32.499  31.363  1.00  0.00     0.031 A 
ATOM     41  C   UNL A   1      39.114  31.357  30.774  1.00  0.00     0.074 A 
ATOM     42  C   UNL A   1      38.807  33.159  32.439  1.00  0.00     0.049 A 
ATOM     43  N   UNL A   1      40.030  30.606  31.318  1.00  0.00    -0.248 NA
ATOM     44  C   UNL A   1      38.797  31.014  29.376  1.00  0.00     0.031 C 
ATOM     45  C   UNL A   1      38.263  34.412  32.962  1.00  0.00     0.029 A 
ATOM     46  N   UNL A   1      39.823  32.844  33.303  1.00  0.00    -0.354 N 
ATOM     47  C   UNL A   1      40.351  29.660  30.353  1.00  0.00     0.074 A 
ATOM     48  C   UNL A   1      39.570  29.957  29.176  1.00  0.00     0.031 C 
ATOM     49  C   UNL A   1      38.910  34.726  34.097  1.00  0.00     0.029 A 
ATOM     50  C   UNL A   1      39.854  33.657  34.410  1.00  0.00     0.049 A 
ATOM     51  H   UNL A   1      40.463  32.112  33.147  1.00  0.00     0.167 HD
ATOM     52  C   UNL A   1      41.196  28.610  30.475  1.00  0.00     0.031 A 
ATOM     53  C   UNL A   1      40.510  33.493  35.575  1.00  0.00     0.031 A 
ATOM     54  C   UNL A   1      41.936  28.344  31.678  1.00  0.00     0.049 A 
ATOM     55  C   UNL A   1      41.350  32.254  35.745  1.00  0.00     0.074 A 
ATOM     56  C   UNL A   1      42.774  27.285  31.968  1.00  0.00     0.029 A 
ATOM     57  N   UNL A   1      41.916  29.165  32.798  1.00  0.00    -0.354 N 
ATOM     58  N   UNL A   1      41.575  31.285  34.887  1.00  0.00    -0.248 NA
ATOM     59  C   UNL A   1      42.007  32.072  37.045  1.00  0.00     0.031 C 
ATOM     60  C   UNL A   1      43.224  27.442  33.284  1.00  0.00     0.029 A 
ATOM     61  C   UNL A   1      42.712  28.628  33.791  1.00  0.00     0.049 A 
ATOM     62  H   UNL A   1      41.410  30.006  32.873  1.00  0.00     0.167 HD
ATOM     63  C   UNL A   1      42.417  30.390  35.532  1.00  0.00     0.074 A 
ATOM     64  C   UNL A   1      42.670  30.940  36.851  1.00  0.00     0.031 C 
ATOM     65  C   UNL A   1      42.936  29.220  35.086  1.00  0.00     0.031 A 
BRANCH  52  66
ATOM     66  C   UNL A   1      41.252  27.637  29.334  1.00  0.00    -0.014 A 
ATOM     67  C   UNL A   1      42.306  27.634  28.408  1.00  0.00     0.009 A 
ATOM     68  C   UNL A   1      40.201  26.721  29.167  1.00  0.00     0.009 A 
ATOM     69  C   UNL A   1      42.290  26.754  27.322  1.00  0.00     0.001 A 
ATOM     70  C   UNL A   1      40.199  25.826  28.096  1.00  0.00     0.001 A 
ATOM     71  C   UNL A   1      41.239  25.850  27.168  1.00  0.00     0.000 A 
ENDBRANCH  52  66
BRANCH  53  72
ATOM     72  C   UNL A   1      40.316  34.459  36.691  1.00  0.00    -0.014 A 
ATOM     73  C   UNL A   1      39.308  34.264  37.647  1.00  0.00     0.009 A 
ATOM     74  C   UNL A   1      41.142  35.590  36.805  1.00  0.00     0.009 A 
ATOM     75  C   UNL A   1      39.122  35.187  38.681  1.00  0.00     0.001 A 
ATOM     76  C   UNL A   1      40.974  36.495  37.856  1.00  0.00     0.001 A 
ATOM     77  C   UNL A   1      39.959  36.296  38.790  1.00  0.00     0.000 A 
ENDBRANCH  53  72
BRANCH  65  78
ATOM     78  C   UNL A   1      43.862  28.495  36.016  1.00  0.00    -0.014 A 
ATOM     79  C   UNL A   1      43.396  27.480  36.864  1.00  0.00     0.009 A 
ATOM     80  C   UNL A   1      45.231  28.805  36.001  1.00  0.00     0.009 A 
ATOM     81  C   UNL A   1      44.283  26.809  37.707  1.00  0.00     0.001 A 
ATOM     82  C   UNL A   1      46.118  28.114  36.825  1.00  0.00     0.001 A 
ATOM     83  C   UNL A   1      45.642  27.123  37.682  1.00  0.00     0.000 A 
ENDBRANCH  65  78
ENDBRANCH  39  40
ENDBRANCH  32  34
ENDBRANCH  31  32
ENDBRANCH  30  31
ENDBRANCH  29  30
ENDBRANCH  28  29
ENDBRANCH  27  28
ENDBRANCH  26  27
ENDBRANCH   1  26
TORSDOF 23
ENDMDL
MODEL 3
REMARK VINA RESULT:      -8.2      2.006      3.716
REMARK SMILES CCC[NH2+][C@@H]1COC[C@@H]1C(=O)N[C@@](C)(CC)C(=O)OCCOCCOCCOC(=O)c1ccc(-c2c3nc(c(-c4ccccc4)c4ccc([nH]4)c(-c4ccccc4)c4nc(c(-c5ccccc5)c5ccc2[nH]5)C=C4)C=C3)cc1
REMARK SMILES IDX 22 1 21 2 20 3 19 4 17 5 18 6 13 7 14 8 12 9 10 10 11 11
REMARK SMILES IDX 9 13 5 14 6 15 7 16 8 17 4 18 3 21 2 22 1 23 15 24 16 25
REMARK SMILES IDX 23 26 24 27 25 28 26 29 27 30 28 31 29 32 30 33 31 34 32 35
REMARK SMILES IDX 78 36 33 37 77 38 34 39 35 40 36 41 71 42 37 43 76 44 70 45
REMARK SMILES IDX 72 46 38 47 75 48 69 49 68 50 39 52 61 53 46 54 60 55 47 56
REMARK SMILES IDX 50 57 59 58 73 59 48 60 49 61 58 63 74 64 51 65 40 66 41 67
REMARK SMILES IDX 45 68 42 69 44 70 43 71 62 72 63 73 67 74 64 75 66 76 65 77
REMARK SMILES IDX 52 78 53 79 57 80 54 81 56 82 55 83
REMARK H PARENT 12 12 4 19 4 20 72 51 50 62
REMARK Flexibility Score: inf
ROOT
ATOM      1  O   UNL A   1      33.694  33.386  29.483  1.00  0.00    -0.376 OA
ENDROOT
BRANCH   1   2
ATOM      2  C   UNL A   1      34.040  33.115  28.122  1.00  0.00     0.202 C 
BRANCH   2   3
ATOM      3  C   UNL A   1      34.489  31.679  27.775  1.00  0.00     0.261 C 
BRANCH   3   4
ATOM      4  O   UNL A   1      33.491  30.906  27.085  1.00  0.00    -0.462 OA
BRANCH   4   5
ATOM      5  C   UNL A   1      33.877  29.653  26.688  1.00  0.00     0.331 C 
ATOM      6  O   UNL A   1      34.968  29.161  26.956  1.00  0.00    -0.249 OA
BRANCH   5   7
ATOM      7  C   UNL A   1      32.827  28.948  25.773  1.00  0.00     0.135 C 
ATOM      8  C   UNL A   1      31.718  30.040  25.679  1.00  0.00     0.047 C 
BRANCH   7   9
ATOM      9  N   UNL A   1      33.229  28.714  24.349  1.00  0.00    -0.340 N 
ATOM     10  C   UNL A   1      32.683  28.592  23.121  1.00  0.00     0.232 C 
ATOM     11  O   UNL A   1      33.370  29.124  22.231  1.00  0.00    -0.274 OA
ATOM     12  H   UNL A   1      34.207  28.617  24.289  1.00  0.00     0.164 HD
BRANCH  10  13
ATOM     13  C   UNL A   1      31.480  27.777  22.683  1.00  0.00     0.164 C 
ATOM     14  C   UNL A   1      30.056  28.214  22.953  1.00  0.00     0.223 C 
ATOM     15  C   UNL A   1      29.645  27.341  24.122  1.00  0.00     0.225 C 
ATOM     16  O   UNL A   1      30.351  26.101  23.964  1.00  0.00    -0.374 OA
ATOM     17  C   UNL A   1      31.489  26.323  23.110  1.00  0.00     0.180 C 
BRANCH  14  18
ATOM     18  N   UNL A   1      29.721  29.639  22.892  1.00  0.00    -0.341 N 
ATOM     19  H   UNL A   1      30.121  30.080  23.721  1.00  0.00     0.346 HD
ATOM     20  H   UNL A   1      30.098  29.951  21.997  1.00  0.00     0.346 HD
BRANCH  18  21
ATOM     21  C   UNL A   1      28.320  30.009  22.842  1.00  0.00     0.260 C 
BRANCH  21  22
ATOM     22  C   UNL A   1      27.850  31.466  22.529  1.00  0.00     0.058 C 
ATOM     23  C   UNL A   1      28.761  32.696  22.478  1.00  0.00     0.010 C 
ENDBRANCH  21  22
ENDBRANCH  18  21
ENDBRANCH  14  18
ENDBRANCH  10  13
ENDBRANCH   7   9
BRANCH   7  24
ATOM     24  C   UNL A   1      32.132  27.704  26.423  1.00  0.00     0.037 C 
ATOM     25  C   UNL A   1      31.169  27.929  27.585  1.00  0.00     0.007 C 
ENDBRANCH   7  24
ENDBRANCH   5   7
ENDBRANCH   4   5
ENDBRANCH   3   4
ENDBRANCH   2   3
ENDBRANCH   1   2
BRANCH   1  26
ATOM     26  C   UNL A   1      34.203  34.633  29.959  1.00  0.00     0.188 C 
BRANCH  26  27
ATOM     27  C   UNL A   1      34.188  34.729  31.495  1.00  0.00     0.188 C 
BRANCH  27  28
ATOM     28  O   UNL A   1      33.831  33.534  32.212  1.00  0.00    -0.376 OA
BRANCH  28  29
ATOM     29  C   UNL A   1      34.793  32.469  32.147  1.00  0.00     0.202 C 
BRANCH  29  30
ATOM     30  C   UNL A   1      35.953  32.675  33.163  1.00  0.00     0.261 C 
BRANCH  30  31
ATOM     31  O   UNL A   1      37.286  32.427  32.618  1.00  0.00    -0.460 OA
BRANCH  31  32
ATOM     32  C   UNL A   1      37.661  31.103  32.623  1.00  0.00     0.338 C 
ATOM     33  O   UNL A   1      37.113  30.225  33.268  1.00  0.00    -0.246 OA
BRANCH  32  34
ATOM     34  C   UNL A   1      38.866  30.823  31.776  1.00  0.00     0.060 A 
ATOM     35  C   UNL A   1      38.850  30.983  30.392  1.00  0.00     0.016 A 
ATOM     36  C   UNL A   1      40.032  30.314  32.344  1.00  0.00     0.016 A 
ATOM     37  C   UNL A   1      39.958  30.785  29.579  1.00  0.00     0.010 A 
ATOM     38  C   UNL A   1      41.148  30.039  31.532  1.00  0.00     0.010 A 
ATOM     39  C   UNL A   1      41.112  30.282  30.147  1.00  0.00    -0.014 A 
BRANCH  39  40
ATOM     40  C   UNL A   1      42.209  29.861  29.260  1.00  0.00     0.031 A 
ATOM     41  C   UNL A   1      42.200  28.452  28.759  1.00  0.00     0.074 A 
ATOM     42  C   UNL A   1      43.165  30.725  28.885  1.00  0.00     0.049 A 
ATOM     43  N   UNL A   1      43.174  27.746  28.258  1.00  0.00    -0.248 NA
ATOM     44  C   UNL A   1      40.911  27.742  28.835  1.00  0.00     0.031 C 
ATOM     45  C   UNL A   1      43.152  32.167  29.134  1.00  0.00     0.029 A 
ATOM     46  N   UNL A   1      44.351  30.504  28.235  1.00  0.00    -0.354 N 
ATOM     47  C   UNL A   1      42.635  26.489  28.022  1.00  0.00     0.074 A 
ATOM     48  C   UNL A   1      41.239  26.539  28.390  1.00  0.00     0.031 C 
ATOM     49  C   UNL A   1      44.311  32.693  28.700  1.00  0.00     0.029 A 
ATOM     50  C   UNL A   1      45.165  31.611  28.216  1.00  0.00     0.049 A 
ATOM     51  H   UNL A   1      44.594  29.643  27.824  1.00  0.00     0.167 HD
ATOM     52  C   UNL A   1      43.278  25.383  27.582  1.00  0.00     0.031 A 
ATOM     53  C   UNL A   1      46.475  31.706  27.923  1.00  0.00     0.031 A 
ATOM     54  C   UNL A   1      44.676  25.378  27.250  1.00  0.00     0.049 A 
ATOM     55  C   UNL A   1      47.209  30.444  27.553  1.00  0.00     0.074 A 
ATOM     56  C   UNL A   1      45.473  24.321  26.855  1.00  0.00     0.029 A 
ATOM     57  N   UNL A   1      45.483  26.507  27.278  1.00  0.00    -0.354 N 
ATOM     58  N   UNL A   1      46.744  29.221  27.438  1.00  0.00    -0.248 NA
ATOM     59  C   UNL A   1      48.650  30.566  27.295  1.00  0.00     0.031 C 
ATOM     60  C   UNL A   1      46.776  24.805  26.691  1.00  0.00     0.029 A 
ATOM     61  C   UNL A   1      46.776  26.172  26.927  1.00  0.00     0.049 A 
ATOM     62  H   UNL A   1      45.179  27.414  27.513  1.00  0.00     0.167 HD
ATOM     63  C   UNL A   1      47.825  28.432  27.072  1.00  0.00     0.074 A 
ATOM     64  C   UNL A   1      48.969  29.320  26.974  1.00  0.00     0.031 C 
ATOM     65  C   UNL A   1      47.878  27.097  26.839  1.00  0.00     0.031 A 
BRANCH  52  66
ATOM     66  C   UNL A   1      42.501  24.099  27.559  1.00  0.00    -0.014 A 
ATOM     67  C   UNL A   1      41.599  23.791  26.530  1.00  0.00     0.009 A 
ATOM     68  C   UNL A   1      42.658  23.189  28.618  1.00  0.00     0.009 A 
ATOM     69  C   UNL A   1      40.847  22.613  26.579  1.00  0.00     0.001 A 
ATOM     70  C   UNL A   1      41.924  22.003  28.652  1.00  0.00     0.001 A 
ATOM     71  C   UNL A   1      41.012  21.720  27.637  1.00  0.00     0.000 A 
ENDBRANCH  52  66
BRANCH  53  72
ATOM     72  C   UNL A   1      47.188  33.005  28.069  1.00  0.00    -0.014 A 
ATOM     73  C   UNL A   1      47.819  33.350  29.273  1.00  0.00     0.009 A 
ATOM     74  C   UNL A   1      47.238  33.913  26.998  1.00  0.00     0.009 A 
ATOM     75  C   UNL A   1      48.471  34.580  29.405  1.00  0.00     0.001 A 
ATOM     76  C   UNL A   1      47.915  35.129  27.123  1.00  0.00     0.001 A 
ATOM     77  C   UNL A   1      48.525  35.465  28.329  1.00  0.00     0.000 A 
ENDBRANCH  53  72
BRANCH  65  78
ATOM     78  C   UNL A   1      49.203  26.541  26.409  1.00  0.00    -0.014 A 
ATOM     79  C   UNL A   1      49.661  26.682  25.092  1.00  0.00     0.009 A 
ATOM     80  C   UNL A   1      50.022  25.908  27.358  1.00  0.00     0.009 A 
ATOM     81  C   UNL A   1      50.906  26.171  24.723  1.00  0.00     0.001 A 
ATOM     82  C   UNL A   1      51.275  25.422  26.993  1.00  0.00     0.001 A 
ATOM     83  C   UNL A   1      51.713  25.546  25.675  1.00  0.00     0.000 A 
ENDBRANCH  65  78
ENDBRANCH  39  40
ENDBRANCH  32  34
ENDBRANCH  31  32
ENDBRANCH  30  31
ENDBRANCH  29  30
ENDBRANCH  28  29
ENDBRANCH  27  28
ENDBRANCH  26  27
ENDBRANCH   1  26
TORSDOF 23
ENDMDL
