MODEL 1
REMARK VINA RESULT:     -10.6      0.000      0.000
REMARK SMILES CC1(C)C(n2c(SCC(=O)OCCOCCOCCOC(=O)c3ccc(-c4c5nc(c(-c6ccccc6)c6ccc([nH]6)c(-c6ccccc6)c6nc(c(-c7ccccc7)c7ccc4[nH]7)C=C6)C=C5)cc3)nc3cnccc32)C1(C)C
REMARK SMILES IDX 15 1 14 2 13 3 12 4 11 5 9 6 10 7 8 8 7 9 6 10 5 11 77 12
REMARK SMILES IDX 71 13 72 14 76 15 73 16 75 17 74 18 4 19 1 20 2 21 3 22
REMARK SMILES IDX 78 23 79 24 80 25 16 26 17 27 18 28 19 29 20 30 21 31 22 32
REMARK SMILES IDX 23 33 24 34 70 35 25 36 69 37 26 38 27 39 28 40 63 41 29 42
REMARK SMILES IDX 68 43 62 44 64 45 30 46 67 47 61 48 60 49 31 51 53 52 38 53
REMARK SMILES IDX 52 54 39 55 42 56 51 57 65 58 40 59 41 60 50 62 66 63 43 64
REMARK SMILES IDX 32 65 33 66 37 67 34 68 36 69 35 70 54 71 55 72 59 73 56 74
REMARK SMILES IDX 58 75 57 76 44 77 45 78 49 79 46 80 48 81 47 82
REMARK H PARENT 64 50 42 61
REMARK Flexibility Score: inf
ROOT
ATOM      1  C   UNL A   1      34.633  33.785  31.947  1.00  0.00     0.188 C 
ENDROOT
BRANCH   1   2
ATOM      2  O   UNL A   1      35.012  33.587  30.591  1.00  0.00    -0.376 OA
BRANCH   2   3
ATOM      3  C   UNL A   1      34.136  34.147  29.607  1.00  0.00     0.202 C 
BRANCH   3   4
ATOM      4  C   UNL A   1      34.148  33.464  28.226  1.00  0.00     0.261 C 
BRANCH   4   5
ATOM      5  O   UNL A   1      33.836  32.075  28.418  1.00  0.00    -0.463 OA
BRANCH   5   6
ATOM      6  C   UNL A   1      34.468  31.155  27.644  1.00  0.00     0.316 C 
ATOM      7  O   UNL A   1      35.673  30.936  27.681  1.00  0.00    -0.251 OA
BRANCH   6   8
ATOM      8  C   UNL A   1      33.504  30.365  26.776  1.00  0.00     0.200 C 
BRANCH   8   9
ATOM      9  S   UNL A   1      33.674  28.593  27.037  1.00  0.00    -0.076 SA
BRANCH   9  10
ATOM     10  C   UNL A   1      33.310  27.949  25.466  1.00  0.00     0.169 A 
ATOM     11  N   UNL A   1      32.652  26.734  25.294  1.00  0.00    -0.315 N 
ATOM     12  C   UNL A   1      31.466  27.127  24.608  1.00  0.00     0.072 A 
ATOM     13  N   UNL A   1      33.019  28.796  24.506  1.00  0.00    -0.221 NA
ATOM     14  C   UNL A   1      31.797  28.383  24.061  1.00  0.00     0.108 A 
ATOM     15  C   UNL A   1      30.172  26.655  24.324  1.00  0.00     0.049 A 
ATOM     16  C   UNL A   1      30.887  29.077  23.241  1.00  0.00     0.141 A 
ATOM     17  C   UNL A   1      29.336  27.391  23.487  1.00  0.00     0.113 A 
ATOM     18  N   UNL A   1      29.671  28.564  22.942  1.00  0.00    -0.262 NA
BRANCH  11  19
ATOM     19  C   UNL A   1      33.091  25.384  25.989  1.00  0.00     0.102 C 
ATOM     20  C   UNL A   1      34.145  23.174  27.118  1.00  0.00     0.014 C 
ATOM     21  C   UNL A   1      33.476  23.844  25.894  1.00  0.00    -0.007 C 
ATOM     22  C   UNL A   1      32.723  22.708  25.268  1.00  0.00     0.014 C 
ATOM     23  C   UNL A   1      34.236  24.696  24.981  1.00  0.00    -0.007 C 
ATOM     24  C   UNL A   1      35.683  24.245  25.049  1.00  0.00     0.014 C 
ATOM     25  C   UNL A   1      33.872  24.850  23.542  1.00  0.00     0.014 C 
ENDBRANCH  11  19
ENDBRANCH   9  10
ENDBRANCH   8   9
ENDBRANCH   6   8
ENDBRANCH   5   6
ENDBRANCH   4   5
ENDBRANCH   3   4
ENDBRANCH   2   3
ENDBRANCH   1   2
BRANCH   1  26
ATOM     26  C   UNL A   1      35.044  35.090  32.613  1.00  0.00     0.188 C 
BRANCH  26  27
ATOM     27  O   UNL A   1      36.265  34.856  33.328  1.00  0.00    -0.376 OA
BRANCH  27  28
ATOM     28  C   UNL A   1      36.627  33.478  33.499  1.00  0.00     0.202 C 
BRANCH  28  29
ATOM     29  C   UNL A   1      38.168  33.174  33.369  1.00  0.00     0.261 C 
BRANCH  29  30
ATOM     30  O   UNL A   1      38.928  34.001  32.402  1.00  0.00    -0.460 OA
BRANCH  30  31
ATOM     31  C   UNL A   1      38.719  33.883  31.046  1.00  0.00     0.338 C 
ATOM     32  O   UNL A   1      37.962  34.603  30.409  1.00  0.00    -0.246 OA
BRANCH  31  33
ATOM     33  C   UNL A   1      39.415  32.682  30.404  1.00  0.00     0.060 A 
ATOM     34  C   UNL A   1      38.609  31.713  29.832  1.00  0.00     0.016 A 
ATOM     35  C   UNL A   1      40.800  32.422  30.339  1.00  0.00     0.016 A 
ATOM     36  C   UNL A   1      39.151  30.446  29.513  1.00  0.00     0.010 A 
ATOM     37  C   UNL A   1      41.357  31.139  30.010  1.00  0.00     0.010 A 
ATOM     38  C   UNL A   1      40.524  30.071  29.721  1.00  0.00    -0.014 A 
BRANCH  38  39
ATOM     39  C   UNL A   1      40.841  28.568  29.740  1.00  0.00     0.031 A 
ATOM     40  C   UNL A   1      41.561  28.233  30.980  1.00  0.00     0.074 A 
ATOM     41  C   UNL A   1      40.699  27.457  28.946  1.00  0.00     0.049 A 
ATOM     42  N   UNL A   1      42.827  28.012  31.116  1.00  0.00    -0.248 NA
ATOM     43  C   UNL A   1      40.785  28.372  32.218  1.00  0.00     0.031 C 
ATOM     44  C   UNL A   1      39.831  27.263  27.788  1.00  0.00     0.029 A 
ATOM     45  N   UNL A   1      41.412  26.237  28.976  1.00  0.00    -0.354 N 
ATOM     46  C   UNL A   1      42.980  27.805  32.471  1.00  0.00     0.074 A 
ATOM     47  C   UNL A   1      41.750  28.214  33.117  1.00  0.00     0.031 C 
ATOM     48  C   UNL A   1      40.068  26.062  27.215  1.00  0.00     0.029 A 
ATOM     49  C   UNL A   1      41.044  25.310  27.990  1.00  0.00     0.049 A 
ATOM     50  H   UNL A   1      42.114  26.051  29.639  1.00  0.00     0.167 HD
ATOM     51  C   UNL A   1      43.913  26.949  32.942  1.00  0.00     0.031 A 
ATOM     52  C   UNL A   1      41.438  24.023  27.746  1.00  0.00     0.031 A 
ATOM     53  C   UNL A   1      45.048  26.757  32.092  1.00  0.00     0.049 A 
ATOM     54  C   UNL A   1      42.769  23.733  28.336  1.00  0.00     0.074 A 
ATOM     55  C   UNL A   1      46.163  27.487  31.742  1.00  0.00     0.029 A 
ATOM     56  N   UNL A   1      44.959  25.717  31.210  1.00  0.00    -0.354 N 
ATOM     57  N   UNL A   1      43.904  24.108  27.815  1.00  0.00    -0.248 NA
ATOM     58  C   UNL A   1      42.871  23.082  29.639  1.00  0.00     0.031 C 
ATOM     59  C   UNL A   1      46.706  26.884  30.570  1.00  0.00     0.029 A 
ATOM     60  C   UNL A   1      45.905  25.804  30.217  1.00  0.00     0.049 A 
ATOM     61  H   UNL A   1      44.295  24.992  31.279  1.00  0.00     0.167 HD
ATOM     62  C   UNL A   1      44.797  24.088  28.868  1.00  0.00     0.074 A 
ATOM     63  C   UNL A   1      44.157  23.308  29.915  1.00  0.00     0.031 C 
ATOM     64  C   UNL A   1      45.759  25.045  28.986  1.00  0.00     0.031 A 
BRANCH  51  65
ATOM     65  C   UNL A   1      43.444  25.936  33.940  1.00  0.00    -0.014 A 
ATOM     66  C   UNL A   1      42.513  26.293  34.947  1.00  0.00     0.009 A 
ATOM     67  C   UNL A   1      43.784  24.592  33.819  1.00  0.00     0.009 A 
ATOM     68  C   UNL A   1      42.050  25.378  35.884  1.00  0.00     0.001 A 
ATOM     69  C   UNL A   1      43.275  23.657  34.727  1.00  0.00     0.001 A 
ATOM     70  C   UNL A   1      42.434  24.052  35.771  1.00  0.00     0.000 A 
ENDBRANCH  51  65
BRANCH  52  71
ATOM     71  C   UNL A   1      40.708  22.938  26.990  1.00  0.00    -0.014 A 
ATOM     72  C   UNL A   1      39.375  23.106  26.571  1.00  0.00     0.009 A 
ATOM     73  C   UNL A   1      41.242  21.642  26.823  1.00  0.00     0.009 A 
ATOM     74  C   UNL A   1      38.623  22.073  25.996  1.00  0.00     0.001 A 
ATOM     75  C   UNL A   1      40.477  20.588  26.284  1.00  0.00     0.001 A 
ATOM     76  C   UNL A   1      39.168  20.806  25.867  1.00  0.00     0.000 A 
ENDBRANCH  52  71
BRANCH  64  77
ATOM     77  C   UNL A   1      46.503  25.488  27.759  1.00  0.00    -0.014 A 
ATOM     78  C   UNL A   1      46.037  26.638  27.094  1.00  0.00     0.009 A 
ATOM     79  C   UNL A   1      47.596  24.806  27.206  1.00  0.00     0.009 A 
ATOM     80  C   UNL A   1      46.630  27.083  25.910  1.00  0.00     0.001 A 
ATOM     81  C   UNL A   1      48.206  25.264  26.031  1.00  0.00     0.001 A 
ATOM     82  C   UNL A   1      47.717  26.396  25.380  1.00  0.00     0.000 A 
ENDBRANCH  64  77
ENDBRANCH  38  39
ENDBRANCH  31  33
ENDBRANCH  30  31
ENDBRANCH  29  30
ENDBRANCH  28  29
ENDBRANCH  27  28
ENDBRANCH  26  27
ENDBRANCH   1  26
TORSDOF 20
ENDMDL
MODEL 2
REMARK VINA RESULT:     -10.2      1.686      2.779
REMARK SMILES CC1(C)C(n2c(SCC(=O)OCCOCCOCCOC(=O)c3ccc(-c4c5nc(c(-c6ccccc6)c6ccc([nH]6)c(-c6ccccc6)c6nc(c(-c7ccccc7)c7ccc4[nH]7)C=C6)C=C5)cc3)nc3cnccc32)C1(C)C
REMARK SMILES IDX 15 1 14 2 13 3 12 4 11 5 9 6 10 7 8 8 7 9 6 10 5 11 77 12
REMARK SMILES IDX 71 13 72 14 76 15 73 16 75 17 74 18 4 19 1 20 2 21 3 22
REMARK SMILES IDX 78 23 79 24 80 25 16 26 17 27 18 28 19 29 20 30 21 31 22 32
REMARK SMILES IDX 23 33 24 34 70 35 25 36 69 37 26 38 27 39 28 40 63 41 29 42
REMARK SMILES IDX 68 43 62 44 64 45 30 46 67 47 61 48 60 49 31 51 53 52 38 53
REMARK SMILES IDX 52 54 39 55 42 56 51 57 65 58 40 59 41 60 50 62 66 63 43 64
REMARK SMILES IDX 32 65 33 66 37 67 34 68 36 69 35 70 54 71 55 72 59 73 56 74
REMARK SMILES IDX 58 75 57 76 44 77 45 78 49 79 46 80 48 81 47 82
REMARK H PARENT 64 50 42 61
REMARK Flexibility Score: inf
ROOT
ATOM      1  C   UNL A   1      34.010  31.751  27.999  1.00  0.00     0.188 C 
ENDROOT
BRANCH   1   2
ATOM      2  O   UNL A   1      33.636  30.793  27.017  1.00  0.00    -0.376 OA
BRANCH   2   3
ATOM      3  C   UNL A   1      34.320  29.536  27.075  1.00  0.00     0.202 C 
BRANCH   3   4
ATOM      4  C   UNL A   1      33.556  28.326  26.506  1.00  0.00     0.261 C 
BRANCH   4   5
ATOM      5  O   UNL A   1      32.497  28.824  25.673  1.00  0.00    -0.463 OA
BRANCH   5   6
ATOM      6  C   UNL A   1      32.667  28.806  24.325  1.00  0.00     0.316 C 
ATOM      7  O   UNL A   1      31.846  29.231  23.522  1.00  0.00    -0.251 OA
BRANCH   6   8
ATOM      8  C   UNL A   1      34.029  28.267  23.919  1.00  0.00     0.200 C 
BRANCH   8   9
ATOM      9  S   UNL A   1      33.939  27.319  22.393  1.00  0.00    -0.076 SA
BRANCH   9  10
ATOM     10  C   UNL A   1      33.002  25.936  22.870  1.00  0.00     0.169 A 
ATOM     11  N   UNL A   1      33.144  25.335  24.117  1.00  0.00    -0.315 N 
ATOM     12  C   UNL A   1      31.847  25.500  24.683  1.00  0.00     0.072 A 
ATOM     13  N   UNL A   1      31.768  25.847  22.429  1.00  0.00    -0.221 NA
ATOM     14  C   UNL A   1      31.021  25.726  23.564  1.00  0.00     0.108 A 
ATOM     15  C   UNL A   1      31.200  25.486  25.932  1.00  0.00     0.049 A 
ATOM     16  C   UNL A   1      29.629  25.872  23.711  1.00  0.00     0.141 A 
ATOM     17  C   UNL A   1      29.814  25.618  25.993  1.00  0.00     0.113 A 
ATOM     18  N   UNL A   1      29.033  25.794  24.923  1.00  0.00    -0.262 NA
BRANCH  11  19
ATOM     19  C   UNL A   1      34.531  24.882  24.728  1.00  0.00     0.102 C 
ATOM     20  C   UNL A   1      36.983  24.040  25.466  1.00  0.00     0.014 C 
ATOM     21  C   UNL A   1      35.469  23.750  25.334  1.00  0.00    -0.007 C 
ATOM     22  C   UNL A   1      35.214  22.805  26.470  1.00  0.00     0.014 C 
ATOM     23  C   UNL A   1      34.870  23.391  24.049  1.00  0.00    -0.007 C 
ATOM     24  C   UNL A   1      35.960  22.747  23.214  1.00  0.00     0.014 C 
ATOM     25  C   UNL A   1      33.650  22.538  23.946  1.00  0.00     0.014 C 
ENDBRANCH  11  19
ENDBRANCH   9  10
ENDBRANCH   8   9
ENDBRANCH   6   8
ENDBRANCH   5   6
ENDBRANCH   4   5
ENDBRANCH   3   4
ENDBRANCH   2   3
ENDBRANCH   1   2
BRANCH   1  26
ATOM     26  C   UNL A   1      35.310  32.512  27.785  1.00  0.00     0.188 C 
BRANCH  26  27
ATOM     27  O   UNL A   1      35.061  33.899  28.050  1.00  0.00    -0.376 OA
BRANCH  27  28
ATOM     28  C   UNL A   1      34.052  34.167  29.036  1.00  0.00     0.202 C 
BRANCH  28  29
ATOM     29  C   UNL A   1      34.577  34.241  30.521  1.00  0.00     0.261 C 
BRANCH  29  30
ATOM     30  O   UNL A   1      35.008  32.964  31.136  1.00  0.00    -0.460 OA
BRANCH  30  31
ATOM     31  C   UNL A   1      36.279  32.811  31.644  1.00  0.00     0.338 C 
ATOM     32  O   UNL A   1      36.731  33.486  32.559  1.00  0.00    -0.246 OA
BRANCH  31  33
ATOM     33  C   UNL A   1      37.145  31.807  30.883  1.00  0.00     0.060 A 
ATOM     34  C   UNL A   1      36.589  30.568  30.612  1.00  0.00     0.016 A 
ATOM     35  C   UNL A   1      38.471  31.978  30.433  1.00  0.00     0.016 A 
ATOM     36  C   UNL A   1      37.420  29.497  30.206  1.00  0.00     0.010 A 
ATOM     37  C   UNL A   1      39.318  30.895  30.014  1.00  0.00     0.010 A 
ATOM     38  C   UNL A   1      38.844  29.594  30.026  1.00  0.00    -0.014 A 
BRANCH  38  39
ATOM     39  C   UNL A   1      39.637  28.279  30.020  1.00  0.00     0.031 A 
ATOM     40  C   UNL A   1      40.433  28.179  31.255  1.00  0.00     0.074 A 
ATOM     41  C   UNL A   1      39.864  27.196  29.207  1.00  0.00     0.049 A 
ATOM     42  N   UNL A   1      41.703  28.383  31.388  1.00  0.00    -0.248 NA
ATOM     43  C   UNL A   1      39.660  28.034  32.494  1.00  0.00     0.031 C 
ATOM     44  C   UNL A   1      39.103  26.746  28.045  1.00  0.00     0.029 A 
ATOM     45  N   UNL A   1      40.938  26.278  29.217  1.00  0.00    -0.354 N 
ATOM     46  C   UNL A   1      41.921  28.216  32.740  1.00  0.00     0.074 A 
ATOM     47  C   UNL A   1      40.628  28.187  33.392  1.00  0.00     0.031 C 
ATOM     48  C   UNL A   1      39.718  25.700  27.452  1.00  0.00     0.029 A 
ATOM     49  C   UNL A   1      40.891  25.297  28.215  1.00  0.00     0.049 A 
ATOM     50  H   UNL A   1      41.666  26.321  29.878  1.00  0.00     0.167 HD
ATOM     51  C   UNL A   1      43.086  27.706  33.197  1.00  0.00     0.031 A 
ATOM     52  C   UNL A   1      41.685  24.216  27.949  1.00  0.00     0.031 A 
ATOM     53  C   UNL A   1      44.216  27.912  32.345  1.00  0.00     0.049 A 
ATOM     54  C   UNL A   1      43.040  24.369  28.535  1.00  0.00     0.074 A 
ATOM     55  C   UNL A   1      45.029  28.973  32.009  1.00  0.00     0.029 A 
ATOM     56  N   UNL A   1      44.469  26.915  31.446  1.00  0.00    -0.354 N 
ATOM     57  N   UNL A   1      43.986  25.105  28.022  1.00  0.00    -0.248 NA
ATOM     58  C   UNL A   1      43.356  23.766  29.828  1.00  0.00     0.031 C 
ATOM     59  C   UNL A   1      45.733  28.601  30.828  1.00  0.00     0.029 A 
ATOM     60  C   UNL A   1      45.330  27.324  30.455  1.00  0.00     0.049 A 
ATOM     61  H   UNL A   1      44.081  26.011  31.502  1.00  0.00     0.167 HD
ATOM     62  C   UNL A   1      44.842  25.362  29.076  1.00  0.00     0.074 A 
ATOM     63  C   UNL A   1      44.498  24.398  30.108  1.00  0.00     0.031 C 
ATOM     64  C   UNL A   1      45.436  26.580  29.211  1.00  0.00     0.031 A 
BRANCH  51  65
ATOM     65  C   UNL A   1      42.979  26.579  34.177  1.00  0.00    -0.014 A 
ATOM     66  C   UNL A   1      44.051  25.666  34.347  1.00  0.00     0.009 A 
ATOM     67  C   UNL A   1      41.902  26.483  35.053  1.00  0.00     0.009 A 
ATOM     68  C   UNL A   1      43.990  24.614  35.252  1.00  0.00     0.001 A 
ATOM     69  C   UNL A   1      41.863  25.459  36.005  1.00  0.00     0.001 A 
ATOM     70  C   UNL A   1      42.888  24.512  36.085  1.00  0.00     0.000 A 
ENDBRANCH  51  65
BRANCH  52  71
ATOM     71  C   UNL A   1      41.348  22.964  27.174  1.00  0.00    -0.014 A 
ATOM     72  C   UNL A   1      40.014  22.574  26.954  1.00  0.00     0.009 A 
ATOM     73  C   UNL A   1      42.330  22.025  26.791  1.00  0.00     0.009 A 
ATOM     74  C   UNL A   1      39.666  21.351  26.366  1.00  0.00     0.001 A 
ATOM     75  C   UNL A   1      41.985  20.775  26.237  1.00  0.00     0.001 A 
ATOM     76  C   UNL A   1      40.652  20.440  26.021  1.00  0.00     0.000 A 
ENDBRANCH  52  71
BRANCH  64  77
ATOM     77  C   UNL A   1      45.988  27.262  27.993  1.00  0.00    -0.014 A 
ATOM     78  C   UNL A   1      47.359  27.096  27.719  1.00  0.00     0.009 A 
ATOM     79  C   UNL A   1      45.243  28.090  27.141  1.00  0.00     0.009 A 
ATOM     80  C   UNL A   1      47.969  27.746  26.644  1.00  0.00     0.001 A 
ATOM     81  C   UNL A   1      45.848  28.725  26.050  1.00  0.00     0.001 A 
ATOM     82  C   UNL A   1      47.211  28.559  25.808  1.00  0.00     0.000 A 
ENDBRANCH  64  77
ENDBRANCH  38  39
ENDBRANCH  31  33
ENDBRANCH  30  31
ENDBRANCH  29  30
ENDBRANCH  28  29
ENDBRANCH  27  28
ENDBRANCH  26  27
ENDBRANCH   1  26
TORSDOF 20
ENDMDL
MODEL 3
REMARK VINA RESULT:     -10.2      2.450      4.645
REMARK SMILES CC1(C)C(n2c(SCC(=O)OCCOCCOCCOC(=O)c3ccc(-c4c5nc(c(-c6ccccc6)c6ccc([nH]6)c(-c6ccccc6)c6nc(c(-c7ccccc7)c7ccc4[nH]7)C=C6)C=C5)cc3)nc3cnccc32)C1(C)C
REMARK SMILES IDX 15 1 14 2 13 3 12 4 11 5 9 6 10 7 8 8 7 9 6 10 5 11 77 12
REMARK SMILES IDX 71 13 72 14 76 15 73 16 75 17 74 18 4 19 1 20 2 21 3 22
REMARK SMILES IDX 78 23 79 24 80 25 16 26 17 27 18 28 19 29 20 30 21 31 22 32
REMARK SMILES IDX 23 33 24 34 70 35 25 36 69 37 26 38 27 39 28 40 63 41 29 42
REMARK SMILES IDX 68 43 62 44 64 45 30 46 67 47 61 48 60 49 31 51 53 52 38 53
REMARK SMILES IDX 52 54 39 55 42 56 51 57 65 58 40 59 41 60 50 62 66 63 43 64
REMARK SMILES IDX 32 65 33 66 37 67 34 68 36 69 35 70 54 71 55 72 59 73 56 74
REMARK SMILES IDX 58 75 57 76 44 77 45 78 49 79 46 80 48 81 47 82
REMARK H PARENT 64 50 42 61
REMARK Flexibility Score: inf
ROOT
ATOM      1  C   UNL A   1      33.300  30.817  27.181  1.00  0.00     0.188 C 
ENDROOT
BRANCH   1   2
ATOM      2  O   UNL A   1      32.946  29.743  26.320  1.00  0.00    -0.376 OA
BRANCH   2   3
ATOM      3  C   UNL A   1      33.948  28.737  26.128  1.00  0.00     0.202 C 
BRANCH   3   4
ATOM      4  C   UNL A   1      33.467  27.277  26.232  1.00  0.00     0.261 C 
BRANCH   4   5
ATOM      5  O   UNL A   1      33.198  26.805  24.902  1.00  0.00    -0.463 OA
BRANCH   5   6
ATOM      6  C   UNL A   1      32.357  25.750  24.746  1.00  0.00     0.316 C 
ATOM      7  O   UNL A   1      31.334  25.582  25.398  1.00  0.00    -0.251 OA
BRANCH   6   8
ATOM      8  C   UNL A   1      32.783  24.831  23.613  1.00  0.00     0.200 C 
BRANCH   8   9
ATOM      9  S   UNL A   1      34.574  24.754  23.459  1.00  0.00    -0.076 SA
BRANCH   9  10
ATOM     10  C   UNL A   1      35.031  23.865  24.880  1.00  0.00     0.169 A 
ATOM     11  N   UNL A   1      35.247  22.490  24.861  1.00  0.00    -0.315 N 
ATOM     12  C   UNL A   1      36.616  22.393  25.245  1.00  0.00     0.072 A 
ATOM     13  N   UNL A   1      35.804  24.463  25.759  1.00  0.00    -0.221 NA
ATOM     14  C   UNL A   1      36.872  23.623  25.882  1.00  0.00     0.108 A 
ATOM     15  C   UNL A   1      37.694  21.490  25.194  1.00  0.00     0.049 A 
ATOM     16  C   UNL A   1      38.123  23.886  26.470  1.00  0.00     0.141 A 
ATOM     17  C   UNL A   1      38.897  21.816  25.818  1.00  0.00     0.113 A 
ATOM     18  N   UNL A   1      39.119  22.970  26.452  1.00  0.00    -0.262 NA
BRANCH  11  19
ATOM     19  C   UNL A   1      34.223  21.442  24.265  1.00  0.00     0.102 C 
ATOM     20  C   UNL A   1      32.247  19.873  23.317  1.00  0.00     0.014 C 
ATOM     21  C   UNL A   1      33.224  20.222  24.465  1.00  0.00    -0.007 C 
ATOM     22  C   UNL A   1      33.461  18.890  25.112  1.00  0.00     0.014 C 
ATOM     23  C   UNL A   1      32.969  21.342  25.370  1.00  0.00    -0.007 C 
ATOM     24  C   UNL A   1      31.468  21.556  25.403  1.00  0.00     0.014 C 
ATOM     25  C   UNL A   1      33.467  21.363  26.776  1.00  0.00     0.014 C 
ENDBRANCH  11  19
ENDBRANCH   9  10
ENDBRANCH   8   9
ENDBRANCH   6   8
ENDBRANCH   5   6
ENDBRANCH   4   5
ENDBRANCH   3   4
ENDBRANCH   2   3
ENDBRANCH   1   2
BRANCH   1  26
ATOM     26  C   UNL A   1      34.771  30.984  27.536  1.00  0.00     0.188 C 
BRANCH  26  27
ATOM     27  O   UNL A   1      35.040  32.386  27.661  1.00  0.00    -0.376 OA
BRANCH  27  28
ATOM     28  C   UNL A   1      34.017  33.156  28.310  1.00  0.00     0.202 C 
BRANCH  28  29
ATOM     29  C   UNL A   1      34.383  33.667  29.756  1.00  0.00     0.261 C 
BRANCH  29  30
ATOM     30  O   UNL A   1      34.410  32.647  30.831  1.00  0.00    -0.460 OA
BRANCH  30  31
ATOM     31  C   UNL A   1      35.581  32.332  31.485  1.00  0.00     0.338 C 
ATOM     32  O   UNL A   1      35.907  32.808  32.564  1.00  0.00    -0.246 OA
BRANCH  31  33
ATOM     33  C   UNL A   1      36.522  31.427  30.689  1.00  0.00     0.060 A 
ATOM     34  C   UNL A   1      36.282  30.064  30.739  1.00  0.00     0.016 A 
ATOM     35  C   UNL A   1      37.637  31.809  29.915  1.00  0.00     0.016 A 
ATOM     36  C   UNL A   1      37.278  29.158  30.302  1.00  0.00     0.010 A 
ATOM     37  C   UNL A   1      38.649  30.894  29.464  1.00  0.00     0.010 A 
ATOM     38  C   UNL A   1      38.558  29.547  29.774  1.00  0.00    -0.014 A 
BRANCH  38  39
ATOM     39  C   UNL A   1      39.662  28.480  29.766  1.00  0.00     0.031 A 
ATOM     40  C   UNL A   1      40.261  28.381  31.106  1.00  0.00     0.074 A 
ATOM     41  C   UNL A   1      40.287  27.625  28.891  1.00  0.00     0.049 A 
ATOM     42  N   UNL A   1      41.397  28.862  31.496  1.00  0.00    -0.248 NA
ATOM     43  C   UNL A   1      39.377  27.861  32.156  1.00  0.00     0.031 C 
ATOM     44  C   UNL A   1      39.855  27.194  27.564  1.00  0.00     0.029 A 
ATOM     45  N   UNL A   1      41.552  27.003  28.995  1.00  0.00    -0.354 N 
ATOM     46  C   UNL A   1      41.446  28.541  32.837  1.00  0.00     0.074 A 
ATOM     47  C   UNL A   1      40.124  28.100  33.230  1.00  0.00     0.031 C 
ATOM     48  C   UNL A   1      40.807  26.434  26.980  1.00  0.00     0.029 A 
ATOM     49  C   UNL A   1      41.916  26.211  27.896  1.00  0.00     0.049 A 
ATOM     50  H   UNL A   1      42.134  27.116  29.780  1.00  0.00     0.167 HD
ATOM     51  C   UNL A   1      42.622  28.261  33.440  1.00  0.00     0.031 A 
ATOM     52  C   UNL A   1      42.998  25.408  27.661  1.00  0.00     0.031 A 
ATOM     53  C   UNL A   1      43.773  28.865  32.842  1.00  0.00     0.049 A 
ATOM     54  C   UNL A   1      44.161  25.789  28.502  1.00  0.00     0.074 A 
ATOM     55  C   UNL A   1      44.316  30.130  32.786  1.00  0.00     0.029 A 
ATOM     56  N   UNL A   1      44.412  28.113  31.898  1.00  0.00    -0.354 N 
ATOM     57  N   UNL A   1      44.944  26.802  28.260  1.00  0.00    -0.248 NA
ATOM     58  C   UNL A   1      44.427  25.084  29.754  1.00  0.00     0.031 C 
ATOM     59  C   UNL A   1      45.263  30.130  31.721  1.00  0.00     0.029 A 
ATOM     60  C   UNL A   1      45.273  28.868  31.137  1.00  0.00     0.049 A 
ATOM     61  H   UNL A   1      44.273  27.145  31.778  1.00  0.00     0.167 HD
ATOM     62  C   UNL A   1      45.534  27.089  29.477  1.00  0.00     0.074 A 
ATOM     63  C   UNL A   1      45.305  25.920  30.311  1.00  0.00     0.031 C 
ATOM     64  C   UNL A   1      45.757  28.377  29.858  1.00  0.00     0.031 A 
BRANCH  51  65
ATOM     65  C   UNL A   1      42.672  27.002  34.249  1.00  0.00    -0.014 A 
ATOM     66  C   UNL A   1      43.423  25.886  33.803  1.00  0.00     0.009 A 
ATOM     67  C   UNL A   1      42.115  26.941  35.523  1.00  0.00     0.009 A 
ATOM     68  C   UNL A   1      43.498  24.706  34.530  1.00  0.00     0.001 A 
ATOM     69  C   UNL A   1      42.236  25.772  36.284  1.00  0.00     0.001 A 
ATOM     70  C   UNL A   1      42.900  24.651  35.779  1.00  0.00     0.000 A 
ENDBRANCH  51  65
BRANCH  52  71
ATOM     71  C   UNL A   1      43.125  24.250  26.700  1.00  0.00    -0.014 A 
ATOM     72  C   UNL A   1      42.684  22.959  27.045  1.00  0.00     0.009 A 
ATOM     73  C   UNL A   1      43.850  24.346  25.492  1.00  0.00     0.009 A 
ATOM     74  C   UNL A   1      42.914  21.837  26.238  1.00  0.00     0.001 A 
ATOM     75  C   UNL A   1      44.121  23.214  24.697  1.00  0.00     0.001 A 
ATOM     76  C   UNL A   1      43.649  21.959  25.069  1.00  0.00     0.000 A 
ENDBRANCH  52  71
BRANCH  64  77
ATOM     77  C   UNL A   1      46.286  29.355  28.849  1.00  0.00    -0.014 A 
ATOM     78  C   UNL A   1      45.386  30.305  28.330  1.00  0.00     0.009 A 
ATOM     79  C   UNL A   1      47.598  29.354  28.354  1.00  0.00     0.009 A 
ATOM     80  C   UNL A   1      45.776  31.211  27.341  1.00  0.00     0.001 A 
ATOM     81  C   UNL A   1      47.996  30.276  27.379  1.00  0.00     0.001 A 
ATOM     82  C   UNL A   1      47.083  31.197  26.868  1.00  0.00     0.000 A 
ENDBRANCH  64  77
ENDBRANCH  38  39
ENDBRANCH  31  33
ENDBRANCH  30  31
ENDBRANCH  29  30
ENDBRANCH  28  29
ENDBRANCH  27  28
ENDBRANCH  26  27
ENDBRANCH   1  26
TORSDOF 20
ENDMDL
