MODEL 1
REMARK VINA RESULT:     -10.9      0.000      0.000
REMARK SMILES COc1ccc(NC2=[NH+]C(=O)/C(=C\c3ccccc3C(=O)OCCOCCOCCOC(=O)c3ccc(-c4c5nc(c(-c6ccccc6)c6ccc([nH]6)c(-c6ccccc6)c6nc(c(-c7ccccc7)c7ccc4[nH]7)C=C6)C=C5)cc3)S2)cc1
REMARK SMILES IDX 26 1 25 2 24 3 23 4 22 5 20 6 21 7 19 8 14 9 15 10 16 11
REMARK SMILES IDX 18 12 17 13 13 14 7 15 8 16 9 18 82 19 10 20 12 22 11 23
REMARK SMILES IDX 6 24 3 25 4 26 84 27 5 28 83 29 2 30 1 31 27 32 28 33 29 34
REMARK SMILES IDX 30 35 31 36 32 37 33 38 34 39 35 40 81 41 36 42 80 43 37 44
REMARK SMILES IDX 38 45 39 46 74 47 40 48 79 49 73 50 75 51 41 52 78 53 72 54
REMARK SMILES IDX 71 55 42 57 64 58 49 59 63 60 50 61 53 62 62 63 76 64 51 65
REMARK SMILES IDX 52 66 61 68 77 69 54 70 43 71 44 72 48 73 45 74 47 75 46 76
REMARK SMILES IDX 65 77 66 78 70 79 67 80 69 81 68 82 55 83 56 84 60 85 57 86
REMARK SMILES IDX 59 87 58 88
REMARK H PARENT 7 17 9 21 75 56 53 67
REMARK Flexibility Score: inf
ROOT
ATOM      1  C   UNL A   1      40.505  21.299  27.057  1.00  0.00     0.188 C 
ENDROOT
BRANCH   1   2
ATOM      2  O   UNL A   1      39.967  22.231  26.146  1.00  0.00    -0.376 OA
BRANCH   2   3
ATOM      3  C   UNL A   1      38.564  22.370  25.999  1.00  0.00     0.202 C 
BRANCH   3   4
ATOM      4  C   UNL A   1      37.658  21.300  25.374  1.00  0.00     0.261 C 
BRANCH   4   5
ATOM      5  O   UNL A   1      36.297  21.288  25.816  1.00  0.00    -0.460 OA
BRANCH   5   6
ATOM      6  C   UNL A   1      35.356  21.326  24.835  1.00  0.00     0.338 C 
ATOM      7  O   UNL A   1      35.250  22.197  23.987  1.00  0.00    -0.246 OA
BRANCH   6   8
ATOM      8  C   UNL A   1      34.583  20.051  24.784  1.00  0.00     0.067 A 
ATOM      9  C   UNL A   1      33.186  19.937  24.972  1.00  0.00    -0.010 A 
ATOM     10  C   UNL A   1      32.608  18.656  24.941  1.00  0.00     0.009 A 
ATOM     11  C   UNL A   1      33.392  17.516  24.739  1.00  0.00     0.001 A 
ATOM     12  C   UNL A   1      35.360  18.894  24.588  1.00  0.00     0.016 A 
ATOM     13  C   UNL A   1      34.768  17.633  24.574  1.00  0.00     0.001 A 
BRANCH   9  14
ATOM     14  C   UNL A   1      32.299  21.062  25.310  1.00  0.00     0.033 C 
ATOM     15  N   UNL A   1      31.250  25.372  22.956  1.00  0.00    -0.235 N 
ATOM     16  C   UNL A   1      31.406  24.066  23.299  1.00  0.00     0.322 C 
ATOM     17  H   UNL A   1      30.814  25.514  22.086  1.00  0.00     0.313 HD
ATOM     18  N   UNL A   1      31.737  23.176  22.416  1.00  0.00    -0.199 N 
ATOM     19  S   UNL A   1      31.109  23.455  24.914  1.00  0.00     0.006 SA
ATOM     20  C   UNL A   1      31.912  21.926  22.954  1.00  0.00     0.346 C 
ATOM     21  H   UNL A   1      31.851  23.376  21.459  1.00  0.00     0.316 HD
ATOM     22  C   UNL A   1      31.799  21.950  24.441  1.00  0.00     0.110 C 
ATOM     23  O   UNL A   1      32.154  20.915  22.304  1.00  0.00    -0.240 OA
BRANCH  15  24
ATOM     24  C   UNL A   1      31.603  26.554  23.629  1.00  0.00     0.125 A 
ATOM     25  C   UNL A   1      32.485  28.859  25.009  1.00  0.00     0.119 A 
ATOM     26  C   UNL A   1      31.165  28.752  24.581  1.00  0.00     0.051 A 
ATOM     27  C   UNL A   1      33.369  27.812  24.764  1.00  0.00     0.051 A 
ATOM     28  C   UNL A   1      30.732  27.619  23.881  1.00  0.00     0.055 A 
ATOM     29  C   UNL A   1      32.931  26.679  24.071  1.00  0.00     0.055 A 
BRANCH  25  30
ATOM     30  O   UNL A   1      32.804  29.989  25.709  1.00  0.00    -0.497 OA
ATOM     31  C   UNL A   1      31.985  30.217  26.853  1.00  0.00     0.278 C 
ENDBRANCH  25  30
ENDBRANCH  15  24
ENDBRANCH   9  14
ENDBRANCH   6   8
ENDBRANCH   5   6
ENDBRANCH   4   5
ENDBRANCH   3   4
ENDBRANCH   2   3
ENDBRANCH   1   2
BRANCH   1  32
ATOM     32  C   UNL A   1      40.961  19.913  26.550  1.00  0.00     0.188 C 
BRANCH  32  33
ATOM     33  O   UNL A   1      42.000  19.809  25.602  1.00  0.00    -0.376 OA
BRANCH  33  34
ATOM     34  C   UNL A   1      43.231  20.473  25.832  1.00  0.00     0.202 C 
BRANCH  34  35
ATOM     35  C   UNL A   1      43.760  21.640  24.975  1.00  0.00     0.261 C 
BRANCH  35  36
ATOM     36  O   UNL A   1      43.148  22.923  25.157  1.00  0.00    -0.460 OA
BRANCH  36  37
ATOM     37  C   UNL A   1      43.998  23.981  25.197  1.00  0.00     0.338 C 
ATOM     38  O   UNL A   1      44.826  24.301  24.363  1.00  0.00    -0.246 OA
BRANCH  37  39
ATOM     39  C   UNL A   1      43.637  24.837  26.346  1.00  0.00     0.060 A 
ATOM     40  C   UNL A   1      42.639  24.402  27.232  1.00  0.00     0.016 A 
ATOM     41  C   UNL A   1      44.274  26.060  26.545  1.00  0.00     0.016 A 
ATOM     42  C   UNL A   1      42.283  25.189  28.328  1.00  0.00     0.010 A 
ATOM     43  C   UNL A   1      43.893  26.862  27.625  1.00  0.00     0.010 A 
ATOM     44  C   UNL A   1      42.885  26.438  28.512  1.00  0.00    -0.014 A 
BRANCH  44  45
ATOM     45  C   UNL A   1      42.367  27.380  29.534  1.00  0.00     0.031 A 
ATOM     46  C   UNL A   1      43.034  27.419  30.879  1.00  0.00     0.074 A 
ATOM     47  C   UNL A   1      41.310  28.173  29.284  1.00  0.00     0.049 A 
ATOM     48  N   UNL A   1      42.691  28.073  31.959  1.00  0.00    -0.248 NA
ATOM     49  C   UNL A   1      44.252  26.605  31.026  1.00  0.00     0.031 C 
ATOM     50  C   UNL A   1      40.607  28.275  28.007  1.00  0.00     0.029 A 
ATOM     51  N   UNL A   1      40.633  29.035  30.112  1.00  0.00    -0.354 N 
ATOM     52  C   UNL A   1      43.638  27.738  32.918  1.00  0.00     0.074 A 
ATOM     53  C   UNL A   1      44.557  26.806  32.299  1.00  0.00     0.031 C 
ATOM     54  C   UNL A   1      39.584  29.138  28.143  1.00  0.00     0.029 A 
ATOM     55  C   UNL A   1      39.534  29.612  29.524  1.00  0.00     0.049 A 
ATOM     56  H   UNL A   1      40.910  29.221  31.039  1.00  0.00     0.167 HD
ATOM     57  C   UNL A   1      43.735  28.165  34.199  1.00  0.00     0.031 A 
ATOM     58  C   UNL A   1      38.578  30.402  30.053  1.00  0.00     0.031 A 
ATOM     59  C   UNL A   1      42.808  29.071  34.821  1.00  0.00     0.049 A 
ATOM     60  C   UNL A   1      38.647  30.780  31.512  1.00  0.00     0.074 A 
ATOM     61  C   UNL A   1      42.831  29.574  36.111  1.00  0.00     0.029 A 
ATOM     62  N   UNL A   1      41.685  29.600  34.204  1.00  0.00    -0.354 N 
ATOM     63  N   UNL A   1      39.561  30.480  32.403  1.00  0.00    -0.248 NA
ATOM     64  C   UNL A   1      37.549  31.607  32.035  1.00  0.00     0.031 C 
ATOM     65  C   UNL A   1      41.682  30.350  36.296  1.00  0.00     0.029 A 
ATOM     66  C   UNL A   1      40.986  30.393  35.099  1.00  0.00     0.049 A 
ATOM     67  H   UNL A   1      41.424  29.436  33.270  1.00  0.00     0.167 HD
ATOM     68  C   UNL A   1      39.164  31.106  33.581  1.00  0.00     0.074 A 
ATOM     69  C   UNL A   1      37.936  31.814  33.286  1.00  0.00     0.031 C 
ATOM     70  C   UNL A   1      39.765  31.095  34.796  1.00  0.00     0.031 A 
BRANCH  57  71
ATOM     71  C   UNL A   1      44.861  27.613  35.028  1.00  0.00    -0.014 A 
ATOM     72  C   UNL A   1      46.105  28.258  35.096  1.00  0.00     0.009 A 
ATOM     73  C   UNL A   1      44.660  26.445  35.781  1.00  0.00     0.009 A 
ATOM     74  C   UNL A   1      47.137  27.724  35.871  1.00  0.00     0.001 A 
ATOM     75  C   UNL A   1      45.682  25.931  36.580  1.00  0.00     0.001 A 
ATOM     76  C   UNL A   1      46.923  26.564  36.617  1.00  0.00     0.000 A 
ENDBRANCH  57  71
BRANCH  58  77
ATOM     77  C   UNL A   1      37.441  30.867  29.212  1.00  0.00    -0.014 A 
ATOM     78  C   UNL A   1      37.360  32.203  28.790  1.00  0.00     0.009 A 
ATOM     79  C   UNL A   1      36.409  29.983  28.855  1.00  0.00     0.009 A 
ATOM     80  C   UNL A   1      36.261  32.650  28.054  1.00  0.00     0.001 A 
ATOM     81  C   UNL A   1      35.328  30.425  28.091  1.00  0.00     0.001 A 
ATOM     82  C   UNL A   1      35.248  31.761  27.700  1.00  0.00     0.000 A 
ENDBRANCH  58  77
BRANCH  70  83
ATOM     83  C   UNL A   1      39.132  31.904  35.896  1.00  0.00    -0.014 A 
ATOM     84  C   UNL A   1      38.215  31.333  36.792  1.00  0.00     0.009 A 
ATOM     85  C   UNL A   1      39.506  33.247  36.072  1.00  0.00     0.009 A 
ATOM     86  C   UNL A   1      37.666  32.098  37.825  1.00  0.00     0.001 A 
ATOM     87  C   UNL A   1      38.982  33.999  37.124  1.00  0.00     0.001 A 
ATOM     88  C   UNL A   1      38.055  33.427  37.995  1.00  0.00     0.000 A 
ENDBRANCH  70  83
ENDBRANCH  44  45
ENDBRANCH  37  39
ENDBRANCH  36  37
ENDBRANCH  35  36
ENDBRANCH  34  35
ENDBRANCH  33  34
ENDBRANCH  32  33
ENDBRANCH   1  32
TORSDOF 20
ENDMDL
MODEL 2
REMARK VINA RESULT:     -10.1      2.883      9.546
REMARK SMILES COc1ccc(NC2=[NH+]C(=O)/C(=C\c3ccccc3C(=O)OCCOCCOCCOC(=O)c3ccc(-c4c5nc(c(-c6ccccc6)c6ccc([nH]6)c(-c6ccccc6)c6nc(c(-c7ccccc7)c7ccc4[nH]7)C=C6)C=C5)cc3)S2)cc1
REMARK SMILES IDX 26 1 25 2 24 3 23 4 22 5 20 6 21 7 19 8 14 9 15 10 16 11
REMARK SMILES IDX 18 12 17 13 13 14 7 15 8 16 9 18 82 19 10 20 12 22 11 23
REMARK SMILES IDX 6 24 3 25 4 26 84 27 5 28 83 29 2 30 1 31 27 32 28 33 29 34
REMARK SMILES IDX 30 35 31 36 32 37 33 38 34 39 35 40 81 41 36 42 80 43 37 44
REMARK SMILES IDX 38 45 39 46 74 47 40 48 79 49 73 50 75 51 41 52 78 53 72 54
REMARK SMILES IDX 71 55 42 57 64 58 49 59 63 60 50 61 53 62 62 63 76 64 51 65
REMARK SMILES IDX 52 66 61 68 77 69 54 70 43 71 44 72 48 73 45 74 47 75 46 76
REMARK SMILES IDX 65 77 66 78 70 79 67 80 69 81 68 82 55 83 56 84 60 85 57 86
REMARK SMILES IDX 59 87 58 88
REMARK H PARENT 7 17 9 21 75 56 53 67
REMARK Flexibility Score: inf
ROOT
ATOM      1  C   UNL A   1      33.656  33.184  28.598  1.00  0.00     0.188 C 
ENDROOT
BRANCH   1   2
ATOM      2  O   UNL A   1      33.119  32.860  27.334  1.00  0.00    -0.376 OA
BRANCH   2   3
ATOM      3  C   UNL A   1      32.117  31.866  27.210  1.00  0.00     0.202 C 
BRANCH   3   4
ATOM      4  C   UNL A   1      32.388  30.428  26.746  1.00  0.00     0.261 C 
BRANCH   4   5
ATOM      5  O   UNL A   1      31.344  29.797  25.997  1.00  0.00    -0.460 OA
BRANCH   5   6
ATOM      6  C   UNL A   1      31.570  29.666  24.662  1.00  0.00     0.338 C 
ATOM      7  O   UNL A   1      32.618  29.303  24.152  1.00  0.00    -0.246 OA
BRANCH   6   8
ATOM      8  C   UNL A   1      30.304  29.818  23.887  1.00  0.00     0.067 A 
ATOM      9  C   UNL A   1      29.872  28.951  22.857  1.00  0.00    -0.010 A 
ATOM     10  C   UNL A   1      28.674  29.254  22.185  1.00  0.00     0.009 A 
ATOM     11  C   UNL A   1      27.930  30.390  22.516  1.00  0.00     0.001 A 
ATOM     12  C   UNL A   1      29.547  30.960  24.206  1.00  0.00     0.016 A 
ATOM     13  C   UNL A   1      28.370  31.248  23.517  1.00  0.00     0.001 A 
BRANCH   9  14
ATOM     14  C   UNL A   1      30.645  27.803  22.357  1.00  0.00     0.033 C 
ATOM     15  N   UNL A   1      32.081  23.496  24.503  1.00  0.00    -0.235 N 
ATOM     16  C   UNL A   1      31.373  24.539  23.995  1.00  0.00     0.322 C 
ATOM     17  H   UNL A   1      31.528  22.756  24.841  1.00  0.00     0.313 HD
ATOM     18  N   UNL A   1      30.277  24.943  24.559  1.00  0.00    -0.199 N 
ATOM     19  S   UNL A   1      31.819  25.375  22.521  1.00  0.00     0.006 SA
ATOM     20  C   UNL A   1      29.735  26.045  23.947  1.00  0.00     0.346 C 
ATOM     21  H   UNL A   1      29.875  24.504  25.343  1.00  0.00     0.316 HD
ATOM     22  C   UNL A   1      30.623  26.565  22.869  1.00  0.00     0.110 C 
ATOM     23  O   UNL A   1      28.665  26.558  24.256  1.00  0.00    -0.240 OA
BRANCH  15  24
ATOM     24  C   UNL A   1      33.466  23.290  24.629  1.00  0.00     0.125 A 
ATOM     25  C   UNL A   1      36.256  23.026  25.000  1.00  0.00     0.119 A 
ATOM     26  C   UNL A   1      35.578  22.196  24.111  1.00  0.00     0.051 A 
ATOM     27  C   UNL A   1      35.549  24.000  25.698  1.00  0.00     0.051 A 
ATOM     28  C   UNL A   1      34.193  22.314  23.941  1.00  0.00     0.055 A 
ATOM     29  C   UNL A   1      34.167  24.120  25.520  1.00  0.00     0.055 A 
BRANCH  25  30
ATOM     30  O   UNL A   1      37.610  22.853  25.075  1.00  0.00    -0.497 OA
ATOM     31  C   UNL A   1      38.009  21.547  25.483  1.00  0.00     0.278 C 
ENDBRANCH  25  30
ENDBRANCH  15  24
ENDBRANCH   9  14
ENDBRANCH   6   8
ENDBRANCH   5   6
ENDBRANCH   4   5
ENDBRANCH   3   4
ENDBRANCH   2   3
ENDBRANCH   1   2
BRANCH   1  32
ATOM     32  C   UNL A   1      34.798  34.219  28.697  1.00  0.00     0.188 C 
BRANCH  32  33
ATOM     33  O   UNL A   1      34.521  35.597  28.596  1.00  0.00    -0.376 OA
BRANCH  33  34
ATOM     34  C   UNL A   1      33.189  36.060  28.749  1.00  0.00     0.202 C 
BRANCH  34  35
ATOM     35  C   UNL A   1      32.662  36.789  30.001  1.00  0.00     0.261 C 
BRANCH  35  36
ATOM     36  O   UNL A   1      33.417  36.649  31.211  1.00  0.00    -0.460 OA
BRANCH  36  37
ATOM     37  C   UNL A   1      33.000  35.671  32.056  1.00  0.00     0.338 C 
ATOM     38  O   UNL A   1      31.853  35.338  32.297  1.00  0.00    -0.246 OA
BRANCH  37  39
ATOM     39  C   UNL A   1      34.178  34.908  32.516  1.00  0.00     0.060 A 
ATOM     40  C   UNL A   1      35.461  35.381  32.203  1.00  0.00     0.016 A 
ATOM     41  C   UNL A   1      34.016  33.732  33.247  1.00  0.00     0.016 A 
ATOM     42  C   UNL A   1      36.590  34.682  32.631  1.00  0.00     0.010 A 
ATOM     43  C   UNL A   1      35.148  33.015  33.646  1.00  0.00     0.010 A 
ATOM     44  C   UNL A   1      36.439  33.477  33.328  1.00  0.00    -0.014 A 
BRANCH  44  45
ATOM     45  C   UNL A   1      37.613  32.610  33.594  1.00  0.00     0.031 A 
ATOM     46  C   UNL A   1      38.405  32.841  34.849  1.00  0.00     0.074 A 
ATOM     47  C   UNL A   1      37.985  31.649  32.730  1.00  0.00     0.049 A 
ATOM     48  N   UNL A   1      39.526  32.289  35.238  1.00  0.00    -0.248 NA
ATOM     49  C   UNL A   1      37.860  33.831  35.792  1.00  0.00     0.031 C 
ATOM     50  C   UNL A   1      37.275  31.285  31.506  1.00  0.00     0.029 A 
ATOM     51  N   UNL A   1      39.076  30.814  32.749  1.00  0.00    -0.354 N 
ATOM     52  C   UNL A   1      39.830  32.876  36.460  1.00  0.00     0.074 A 
ATOM     53  C   UNL A   1      38.787  33.842  36.737  1.00  0.00     0.031 C 
ATOM     54  C   UNL A   1      37.960  30.310  30.881  1.00  0.00     0.029 A 
ATOM     55  C   UNL A   1      39.176  30.016  31.636  1.00  0.00     0.049 A 
ATOM     56  H   UNL A   1      39.723  30.790  33.491  1.00  0.00     0.167 HD
ATOM     57  C   UNL A   1      40.881  32.636  37.277  1.00  0.00     0.031 A 
ATOM     58  C   UNL A   1      40.156  29.172  31.255  1.00  0.00     0.031 A 
ATOM     59  C   UNL A   1      41.931  31.694  36.990  1.00  0.00     0.049 A 
ATOM     60  C   UNL A   1      41.372  28.999  32.131  1.00  0.00     0.074 A 
ATOM     61  C   UNL A   1      43.031  31.371  37.764  1.00  0.00     0.029 A 
ATOM     62  N   UNL A   1      42.016  30.936  35.833  1.00  0.00    -0.354 N 
ATOM     63  N   UNL A   1      41.637  29.538  33.297  1.00  0.00    -0.248 NA
ATOM     64  C   UNL A   1      42.424  28.099  31.635  1.00  0.00     0.031 C 
ATOM     65  C   UNL A   1      43.820  30.469  37.043  1.00  0.00     0.029 A 
ATOM     66  C   UNL A   1      43.173  30.174  35.855  1.00  0.00     0.049 A 
ATOM     67  H   UNL A   1      41.355  30.939  35.105  1.00  0.00     0.167 HD
ATOM     68  C   UNL A   1      42.867  29.019  33.686  1.00  0.00     0.074 A 
ATOM     69  C   UNL A   1      43.289  28.112  32.639  1.00  0.00     0.031 C 
ATOM     70  C   UNL A   1      43.583  29.272  34.810  1.00  0.00     0.031 A 
BRANCH  57  71
ATOM     71  C   UNL A   1      40.973  33.444  38.542  1.00  0.00    -0.014 A 
ATOM     72  C   UNL A   1      40.377  33.009  39.734  1.00  0.00     0.009 A 
ATOM     73  C   UNL A   1      41.699  34.646  38.544  1.00  0.00     0.009 A 
ATOM     74  C   UNL A   1      40.473  33.780  40.895  1.00  0.00     0.001 A 
ATOM     75  C   UNL A   1      41.821  35.398  39.714  1.00  0.00     0.001 A 
ATOM     76  C   UNL A   1      41.200  34.970  40.885  1.00  0.00     0.000 A 
ENDBRANCH  57  71
BRANCH  58  77
ATOM     77  C   UNL A   1      40.058  28.446  29.959  1.00  0.00    -0.014 A 
ATOM     78  C   UNL A   1      40.588  29.000  28.784  1.00  0.00     0.009 A 
ATOM     79  C   UNL A   1      39.400  27.207  29.884  1.00  0.00     0.009 A 
ATOM     80  C   UNL A   1      40.439  28.345  27.560  1.00  0.00     0.001 A 
ATOM     81  C   UNL A   1      39.282  26.538  28.665  1.00  0.00     0.001 A 
ATOM     82  C   UNL A   1      39.790  27.112  27.501  1.00  0.00     0.000 A 
ENDBRANCH  58  77
BRANCH  70  83
ATOM     83  C   UNL A   1      44.879  28.529  34.994  1.00  0.00    -0.014 A 
ATOM     84  C   UNL A   1      44.933  27.309  35.686  1.00  0.00     0.009 A 
ATOM     85  C   UNL A   1      46.054  29.032  34.413  1.00  0.00     0.009 A 
ATOM     86  C   UNL A   1      46.144  26.623  35.815  1.00  0.00     0.001 A 
ATOM     87  C   UNL A   1      47.255  28.328  34.515  1.00  0.00     0.001 A 
ATOM     88  C   UNL A   1      47.301  27.129  35.223  1.00  0.00     0.000 A 
ENDBRANCH  70  83
ENDBRANCH  44  45
ENDBRANCH  37  39
ENDBRANCH  36  37
ENDBRANCH  35  36
ENDBRANCH  34  35
ENDBRANCH  33  34
ENDBRANCH  32  33
ENDBRANCH   1  32
TORSDOF 20
ENDMDL
MODEL 3
REMARK VINA RESULT:     -10.1      6.137     12.920
REMARK SMILES COc1ccc(NC2=[NH+]C(=O)/C(=C\c3ccccc3C(=O)OCCOCCOCCOC(=O)c3ccc(-c4c5nc(c(-c6ccccc6)c6ccc([nH]6)c(-c6ccccc6)c6nc(c(-c7ccccc7)c7ccc4[nH]7)C=C6)C=C5)cc3)S2)cc1
REMARK SMILES IDX 26 1 25 2 24 3 23 4 22 5 20 6 21 7 19 8 14 9 15 10 16 11
REMARK SMILES IDX 18 12 17 13 13 14 7 15 8 16 9 18 82 19 10 20 12 22 11 23
REMARK SMILES IDX 6 24 3 25 4 26 84 27 5 28 83 29 2 30 1 31 27 32 28 33 29 34
REMARK SMILES IDX 30 35 31 36 32 37 33 38 34 39 35 40 81 41 36 42 80 43 37 44
REMARK SMILES IDX 38 45 39 46 74 47 40 48 79 49 73 50 75 51 41 52 78 53 72 54
REMARK SMILES IDX 71 55 42 57 64 58 49 59 63 60 50 61 53 62 62 63 76 64 51 65
REMARK SMILES IDX 52 66 61 68 77 69 54 70 43 71 44 72 48 73 45 74 47 75 46 76
REMARK SMILES IDX 65 77 66 78 70 79 67 80 69 81 68 82 55 83 56 84 60 85 57 86
REMARK SMILES IDX 59 87 58 88
REMARK H PARENT 7 17 9 21 75 56 53 67
REMARK Flexibility Score: inf
ROOT
ATOM      1  C   UNL A   1      35.544  34.402  34.327  1.00  0.00     0.188 C 
ENDROOT
BRANCH   1   2
ATOM      2  O   UNL A   1      36.892  34.774  34.143  1.00  0.00    -0.376 OA
BRANCH   2   3
ATOM      3  C   UNL A   1      37.898  34.300  35.022  1.00  0.00     0.202 C 
BRANCH   3   4
ATOM      4  C   UNL A   1      38.180  32.813  35.280  1.00  0.00     0.261 C 
BRANCH   4   5
ATOM      5  O   UNL A   1      38.771  32.085  34.199  1.00  0.00    -0.460 OA
BRANCH   5   6
ATOM      6  C   UNL A   1      39.601  31.069  34.554  1.00  0.00     0.338 C 
ATOM      7  O   UNL A   1      40.344  31.065  35.523  1.00  0.00    -0.246 OA
BRANCH   6   8
ATOM      8  C   UNL A   1      39.342  29.852  33.730  1.00  0.00     0.067 A 
ATOM      9  C   UNL A   1      40.332  28.948  33.279  1.00  0.00    -0.010 A 
ATOM     10  C   UNL A   1      39.936  27.870  32.468  1.00  0.00     0.009 A 
ATOM     11  C   UNL A   1      38.597  27.696  32.105  1.00  0.00     0.001 A 
ATOM     12  C   UNL A   1      38.000  29.667  33.351  1.00  0.00     0.016 A 
ATOM     13  C   UNL A   1      37.631  28.599  32.536  1.00  0.00     0.001 A 
BRANCH   9  14
ATOM     14  C   UNL A   1      41.776  29.116  33.508  1.00  0.00     0.033 C 
ATOM     15  N   UNL A   1      44.657  28.477  37.572  1.00  0.00    -0.235 N 
ATOM     16  C   UNL A   1      43.810  28.311  36.522  1.00  0.00     0.322 C 
ATOM     17  H   UNL A   1      44.848  27.653  38.074  1.00  0.00     0.313 HD
ATOM     18  N   UNL A   1      42.785  27.520  36.607  1.00  0.00    -0.199 N 
ATOM     19  S   UNL A   1      44.054  29.069  34.961  1.00  0.00     0.006 SA
ATOM     20  C   UNL A   1      42.008  27.527  35.475  1.00  0.00     0.346 C 
ATOM     21  H   UNL A   1      42.585  26.973  37.399  1.00  0.00     0.316 HD
ATOM     22  C   UNL A   1      42.482  28.543  34.492  1.00  0.00     0.110 C 
ATOM     23  O   UNL A   1      41.032  26.807  35.295  1.00  0.00    -0.240 OA
BRANCH  15  24
ATOM     24  C   UNL A   1      45.308  29.622  38.063  1.00  0.00     0.125 A 
ATOM     25  C   UNL A   1      46.775  31.820  39.067  1.00  0.00     0.119 A 
ATOM     26  C   UNL A   1      45.414  31.940  38.801  1.00  0.00     0.051 A 
ATOM     27  C   UNL A   1      47.409  30.601  38.847  1.00  0.00     0.051 A 
ATOM     28  C   UNL A   1      44.691  30.857  38.286  1.00  0.00     0.055 A 
ATOM     29  C   UNL A   1      46.682  29.520  38.340  1.00  0.00     0.055 A 
BRANCH  25  30
ATOM     30  O   UNL A   1      47.387  32.923  39.594  1.00  0.00    -0.497 OA
ATOM     31  C   UNL A   1      47.142  33.116  40.985  1.00  0.00     0.278 C 
ENDBRANCH  25  30
ENDBRANCH  15  24
ENDBRANCH   9  14
ENDBRANCH   6   8
ENDBRANCH   5   6
ENDBRANCH   4   5
ENDBRANCH   3   4
ENDBRANCH   2   3
ENDBRANCH   1   2
BRANCH   1  32
ATOM     32  C   UNL A   1      34.423  35.282  33.732  1.00  0.00     0.188 C 
BRANCH  32  33
ATOM     33  O   UNL A   1      34.741  36.370  32.893  1.00  0.00    -0.376 OA
BRANCH  33  34
ATOM     34  C   UNL A   1      33.706  37.056  32.209  1.00  0.00     0.202 C 
BRANCH  34  35
ATOM     35  C   UNL A   1      32.880  36.453  31.055  1.00  0.00     0.261 C 
BRANCH  35  36
ATOM     36  O   UNL A   1      33.559  36.214  29.816  1.00  0.00    -0.460 OA
BRANCH  36  37
ATOM     37  C   UNL A   1      33.355  34.991  29.259  1.00  0.00     0.338 C 
ATOM     38  O   UNL A   1      32.406  34.630  28.588  1.00  0.00    -0.246 OA
BRANCH  37  39
ATOM     39  C   UNL A   1      34.582  34.185  29.425  1.00  0.00     0.060 A 
ATOM     40  C   UNL A   1      34.726  33.392  30.574  1.00  0.00     0.016 A 
ATOM     41  C   UNL A   1      35.583  34.214  28.456  1.00  0.00     0.016 A 
ATOM     42  C   UNL A   1      35.872  32.616  30.752  1.00  0.00     0.010 A 
ATOM     43  C   UNL A   1      36.745  33.462  28.652  1.00  0.00     0.010 A 
ATOM     44  C   UNL A   1      36.902  32.671  29.807  1.00  0.00    -0.014 A 
BRANCH  44  45
ATOM     45  C   UNL A   1      38.213  32.034  30.085  1.00  0.00     0.031 A 
ATOM     46  C   UNL A   1      39.234  32.807  30.870  1.00  0.00     0.074 A 
ATOM     47  C   UNL A   1      38.503  30.802  29.632  1.00  0.00     0.049 A 
ATOM     48  N   UNL A   1      40.479  32.506  31.138  1.00  0.00    -0.248 NA
ATOM     49  C   UNL A   1      38.791  34.096  31.425  1.00  0.00     0.031 C 
ATOM     50  C   UNL A   1      37.586  29.925  28.908  1.00  0.00     0.029 A 
ATOM     51  N   UNL A   1      39.672  30.084  29.704  1.00  0.00    -0.354 N 
ATOM     52  C   UNL A   1      40.973  33.574  31.877  1.00  0.00     0.074 A 
ATOM     53  C   UNL A   1      39.900  34.539  31.995  1.00  0.00     0.031 C 
ATOM     54  C   UNL A   1      38.235  28.791  28.585  1.00  0.00     0.029 A 
ATOM     55  C   UNL A   1      39.621  28.883  29.039  1.00  0.00     0.049 A 
ATOM     56  H   UNL A   1      40.470  30.401  30.186  1.00  0.00     0.167 HD
ATOM     57  C   UNL A   1      42.207  33.738  32.407  1.00  0.00     0.031 A 
ATOM     58  C   UNL A   1      40.593  27.981  28.796  1.00  0.00     0.031 A 
ATOM     59  C   UNL A   1      43.280  32.790  32.267  1.00  0.00     0.049 A 
ATOM     60  C   UNL A   1      41.989  28.235  29.305  1.00  0.00     0.074 A 
ATOM     61  C   UNL A   1      44.563  32.861  32.782  1.00  0.00     0.029 A 
ATOM     62  N   UNL A   1      43.200  31.605  31.552  1.00  0.00    -0.354 N 
ATOM     63  N   UNL A   1      42.440  29.234  30.026  1.00  0.00    -0.248 NA
ATOM     64  C   UNL A   1      43.011  27.232  28.967  1.00  0.00     0.031 C 
ATOM     65  C   UNL A   1      45.280  31.754  32.317  1.00  0.00     0.029 A 
ATOM     66  C   UNL A   1      44.423  30.956  31.579  1.00  0.00     0.049 A 
ATOM     67  H   UNL A   1      42.394  31.276  31.094  1.00  0.00     0.167 HD
ATOM     68  C   UNL A   1      43.786  28.965  30.251  1.00  0.00     0.074 A 
ATOM     69  C   UNL A   1      44.075  27.702  29.604  1.00  0.00     0.031 C 
ATOM     70  C   UNL A   1      44.700  29.698  30.933  1.00  0.00     0.031 A 
BRANCH  57  71
ATOM     71  C   UNL A   1      42.477  35.018  33.147  1.00  0.00    -0.014 A 
ATOM     72  C   UNL A   1      43.159  36.085  32.542  1.00  0.00     0.009 A 
ATOM     73  C   UNL A   1      42.010  35.170  34.462  1.00  0.00     0.009 A 
ATOM     74  C   UNL A   1      43.401  37.263  33.252  1.00  0.00     0.001 A 
ATOM     75  C   UNL A   1      42.225  36.360  35.158  1.00  0.00     0.001 A 
ATOM     76  C   UNL A   1      42.928  37.402  34.557  1.00  0.00     0.000 A 
ENDBRANCH  57  71
BRANCH  58  77
ATOM     77  C   UNL A   1      40.298  26.760  27.996  1.00  0.00    -0.014 A 
ATOM     78  C   UNL A   1      39.614  25.676  28.568  1.00  0.00     0.009 A 
ATOM     79  C   UNL A   1      40.730  26.659  26.663  1.00  0.00     0.009 A 
ATOM     80  C   UNL A   1      39.394  24.509  27.834  1.00  0.00     0.001 A 
ATOM     81  C   UNL A   1      40.480  25.503  25.921  1.00  0.00     0.001 A 
ATOM     82  C   UNL A   1      39.822  24.424  26.510  1.00  0.00     0.000 A 
ENDBRANCH  58  77
BRANCH  70  83
ATOM     83  C   UNL A   1      46.092  29.140  31.056  1.00  0.00    -0.014 A 
ATOM     84  C   UNL A   1      47.071  29.390  30.082  1.00  0.00     0.009 A 
ATOM     85  C   UNL A   1      46.444  28.402  32.198  1.00  0.00     0.009 A 
ATOM     86  C   UNL A   1      48.366  28.887  30.236  1.00  0.00     0.001 A 
ATOM     87  C   UNL A   1      47.747  27.929  32.366  1.00  0.00     0.001 A 
ATOM     88  C   UNL A   1      48.705  28.165  31.381  1.00  0.00     0.000 A 
ENDBRANCH  70  83
ENDBRANCH  44  45
ENDBRANCH  37  39
ENDBRANCH  36  37
ENDBRANCH  35  36
ENDBRANCH  34  35
ENDBRANCH  33  34
ENDBRANCH  32  33
ENDBRANCH   1  32
TORSDOF 20
ENDMDL
