MODEL 1
REMARK VINA RESULT:      -7.2      0.000      0.000
REMARK SMILES CCN(CC)C(=O)/C(C#N)=C\c1ccc(O[C@H](C)C(=O)OCCOCCOCCOC(=O)c2ccc(-c3c4nc(c(-c5ccccc5)c5ccc([nH]5)c(-c5ccccc5)c5nc(c(-c6ccccc6)c6ccc3[nH]6)C=C5)C=C4)cc2)cc1
REMARK SMILES IDX 24 1 23 2 22 3 21 4 19 5 20 6 17 7 18 8 16 9 15 10 12 11
REMARK SMILES IDX 13 12 82 13 14 14 81 15 11 16 8 17 6 18 3 19 7 20 2 21 1 22
REMARK SMILES IDX 4 23 5 24 9 25 10 26 25 27 26 28 27 29 28 30 29 31 30 32
REMARK SMILES IDX 31 33 32 34 33 35 34 36 80 37 35 38 79 39 36 40 37 41 38 42
REMARK SMILES IDX 73 43 39 44 78 45 72 46 74 47 40 48 77 49 71 50 70 51 41 53
REMARK SMILES IDX 63 54 48 55 62 56 49 57 52 58 61 59 75 60 50 61 51 62 60 64
REMARK SMILES IDX 76 65 53 66 42 67 43 68 47 69 44 70 46 71 45 72 64 73 65 74
REMARK SMILES IDX 69 75 66 76 68 77 67 78 54 79 55 80 59 81 56 82 58 83 57 84
REMARK H PARENT 74 52 52 63
REMARK Flexibility Score: inf
ROOT
ATOM      1  O   UNL A   1      43.707  20.343  25.347  1.00  0.00    -0.376 OA
ENDROOT
BRANCH   1   2
ATOM      2  C   UNL A   1      42.826  19.233  25.476  1.00  0.00     0.202 C 
BRANCH   2   3
ATOM      3  C   UNL A   1      41.529  19.389  26.292  1.00  0.00     0.261 C 
BRANCH   3   4
ATOM      4  O   UNL A   1      41.510  20.428  27.297  1.00  0.00    -0.461 OA
BRANCH   4   5
ATOM      5  C   UNL A   1      41.043  21.634  26.881  1.00  0.00     0.347 C 
ATOM      6  O   UNL A   1      40.196  21.767  26.000  1.00  0.00    -0.248 OA
BRANCH   5   7
ATOM      7  C   UNL A   1      41.702  22.854  27.538  1.00  0.00     0.279 C 
ATOM      8  C   UNL A   1      43.026  22.830  28.304  1.00  0.00     0.066 C 
BRANCH   7   9
ATOM      9  O   UNL A   1      41.555  23.956  26.656  1.00  0.00    -0.479 OA
BRANCH   9  10
ATOM     10  C   UNL A   1      41.153  25.173  27.098  1.00  0.00     0.120 A 
ATOM     11  C   UNL A   1      39.960  27.648  27.395  1.00  0.00    -0.024 A 
ATOM     12  C   UNL A   1      39.848  26.711  28.416  1.00  0.00     0.012 A 
ATOM     13  C   UNL A   1      40.834  27.428  26.331  1.00  0.00     0.012 A 
ATOM     14  C   UNL A   1      40.483  25.480  28.280  1.00  0.00     0.047 A 
ATOM     15  C   UNL A   1      41.389  26.173  26.162  1.00  0.00     0.047 A 
BRANCH  11  16
ATOM     16  C   UNL A   1      39.108  28.822  27.408  1.00  0.00     0.033 C 
ATOM     17  C   UNL A   1      39.020  29.682  28.439  1.00  0.00     0.117 C 
BRANCH  17  18
ATOM     18  C   UNL A   1      39.786  29.637  29.756  1.00  0.00     0.264 C 
ATOM     19  N   UNL A   1      39.367  28.852  30.844  1.00  0.00    -0.339 N 
ATOM     20  O   UNL A   1      40.835  30.282  29.851  1.00  0.00    -0.268 OA
BRANCH  19  21
ATOM     21  C   UNL A   1      40.365  28.572  31.884  1.00  0.00     0.116 C 
ATOM     22  C   UNL A   1      39.704  28.103  33.173  1.00  0.00     0.027 C 
ENDBRANCH  19  21
BRANCH  19  23
ATOM     23  C   UNL A   1      38.014  28.361  31.149  1.00  0.00     0.116 C 
ATOM     24  C   UNL A   1      37.095  29.506  31.565  1.00  0.00     0.027 C 
ENDBRANCH  19  23
ENDBRANCH  17  18
BRANCH  17  25
ATOM     25  C   UNL A   1      37.923  30.728  28.312  1.00  0.00     0.105 C 
ATOM     26  N   UNL A   1      37.013  31.594  28.207  1.00  0.00    -0.192 NA
ENDBRANCH  17  25
ENDBRANCH  11  16
ENDBRANCH   9  10
ENDBRANCH   7   9
ENDBRANCH   5   7
ENDBRANCH   4   5
ENDBRANCH   3   4
ENDBRANCH   2   3
ENDBRANCH   1   2
BRANCH   1  27
ATOM     27  C   UNL A   1      44.983  20.154  24.752  1.00  0.00     0.188 C 
BRANCH  27  28
ATOM     28  C   UNL A   1      46.105  21.166  25.032  1.00  0.00     0.188 C 
BRANCH  28  29
ATOM     29  O   UNL A   1      45.848  22.052  26.092  1.00  0.00    -0.376 OA
BRANCH  29  30
ATOM     30  C   UNL A   1      45.626  23.415  25.799  1.00  0.00     0.202 C 
BRANCH  30  31
ATOM     31  C   UNL A   1      46.616  24.131  24.865  1.00  0.00     0.261 C 
BRANCH  31  32
ATOM     32  O   UNL A   1      47.319  25.266  25.407  1.00  0.00    -0.460 OA
BRANCH  32  33
ATOM     33  C   UNL A   1      46.865  26.497  25.078  1.00  0.00     0.338 C 
ATOM     34  O   UNL A   1      46.705  26.939  23.949  1.00  0.00    -0.246 OA
BRANCH  33  35
ATOM     35  C   UNL A   1      46.326  27.127  26.310  1.00  0.00     0.060 A 
ATOM     36  C   UNL A   1      44.936  27.149  26.508  1.00  0.00     0.016 A 
ATOM     37  C   UNL A   1      47.177  27.658  27.282  1.00  0.00     0.016 A 
ATOM     38  C   UNL A   1      44.394  27.722  27.662  1.00  0.00     0.010 A 
ATOM     39  C   UNL A   1      46.631  28.256  28.424  1.00  0.00     0.010 A 
ATOM     40  C   UNL A   1      45.236  28.320  28.608  1.00  0.00    -0.014 A 
BRANCH  40  41
ATOM     41  C   UNL A   1      44.664  29.183  29.674  1.00  0.00     0.031 A 
ATOM     42  C   UNL A   1      44.347  28.554  31.006  1.00  0.00     0.074 A 
ATOM     43  C   UNL A   1      44.436  30.496  29.487  1.00  0.00     0.049 A 
ATOM     44  N   UNL A   1      43.787  29.083  32.065  1.00  0.00    -0.248 NA
ATOM     45  C   UNL A   1      44.708  27.135  31.160  1.00  0.00     0.031 C 
ATOM     46  C   UNL A   1      44.737  31.248  28.271  1.00  0.00     0.029 A 
ATOM     47  N   UNL A   1      43.879  31.428  30.330  1.00  0.00    -0.354 N 
ATOM     48  C   UNL A   1      43.710  28.058  33.000  1.00  0.00     0.074 A 
ATOM     49  C   UNL A   1      44.260  26.874  32.379  1.00  0.00     0.031 C 
ATOM     50  C   UNL A   1      44.345  32.524  28.440  1.00  0.00     0.029 A 
ATOM     51  C   UNL A   1      43.732  32.671  29.760  1.00  0.00     0.049 A 
ATOM     52  H   UNL A   1      43.610  31.225  31.255  1.00  0.00     0.167 HD
ATOM     53  C   UNL A   1      43.224  28.095  34.263  1.00  0.00     0.031 A 
ATOM     54  C   UNL A   1      43.145  33.787  30.236  1.00  0.00     0.031 A 
ATOM     55  C   UNL A   1      42.669  29.267  34.885  1.00  0.00     0.049 A 
ATOM     56  C   UNL A   1      42.544  33.784  31.620  1.00  0.00     0.074 A 
ATOM     57  C   UNL A   1      42.181  29.407  36.173  1.00  0.00     0.029 A 
ATOM     58  N   UNL A   1      42.514  30.495  34.264  1.00  0.00    -0.354 N 
ATOM     59  N   UNL A   1      42.512  32.820  32.509  1.00  0.00    -0.248 NA
ATOM     60  C   UNL A   1      41.904  35.031  32.069  1.00  0.00     0.031 C 
ATOM     61  C   UNL A   1      41.664  30.698  36.307  1.00  0.00     0.029 A 
ATOM     62  C   UNL A   1      41.903  31.387  35.129  1.00  0.00     0.049 A 
ATOM     63  H   UNL A   1      42.796  30.703  33.344  1.00  0.00     0.167 HD
ATOM     64  C   UNL A   1      41.881  33.353  33.628  1.00  0.00     0.074 A 
ATOM     65  C   UNL A   1      41.564  34.730  33.315  1.00  0.00     0.031 C 
ATOM     66  C   UNL A   1      41.591  32.756  34.811  1.00  0.00     0.031 A 
BRANCH  53  67
ATOM     67  C   UNL A   1      43.227  26.813  35.048  1.00  0.00    -0.014 A 
ATOM     68  C   UNL A   1      42.055  26.067  35.246  1.00  0.00     0.009 A 
ATOM     69  C   UNL A   1      44.440  26.319  35.557  1.00  0.00     0.009 A 
ATOM     70  C   UNL A   1      42.093  24.868  35.962  1.00  0.00     0.001 A 
ATOM     71  C   UNL A   1      44.480  25.106  36.244  1.00  0.00     0.001 A 
ATOM     72  C   UNL A   1      43.306  24.386  36.454  1.00  0.00     0.000 A 
ENDBRANCH  53  67
BRANCH  54  73
ATOM     73  C   UNL A   1      43.049  35.008  29.386  1.00  0.00    -0.014 A 
ATOM     74  C   UNL A   1      44.130  35.896  29.274  1.00  0.00     0.009 A 
ATOM     75  C   UNL A   1      41.851  35.315  28.722  1.00  0.00     0.009 A 
ATOM     76  C   UNL A   1      44.001  37.081  28.543  1.00  0.00     0.001 A 
ATOM     77  C   UNL A   1      41.737  36.482  27.963  1.00  0.00     0.001 A 
ATOM     78  C   UNL A   1      42.807  37.370  27.885  1.00  0.00     0.000 A 
ENDBRANCH  54  73
BRANCH  66  79
ATOM     79  C   UNL A   1      40.938  33.598  35.875  1.00  0.00    -0.014 A 
ATOM     80  C   UNL A   1      39.602  33.401  36.254  1.00  0.00     0.009 A 
ATOM     81  C   UNL A   1      41.692  34.580  36.539  1.00  0.00     0.009 A 
ATOM     82  C   UNL A   1      39.022  34.197  37.246  1.00  0.00     0.001 A 
ATOM     83  C   UNL A   1      41.121  35.351  37.553  1.00  0.00     0.001 A 
ATOM     84  C   UNL A   1      39.783  35.167  37.897  1.00  0.00     0.000 A 
ENDBRANCH  66  79
ENDBRANCH  40  41
ENDBRANCH  33  35
ENDBRANCH  32  33
ENDBRANCH  31  32
ENDBRANCH  30  31
ENDBRANCH  29  30
ENDBRANCH  28  29
ENDBRANCH  27  28
ENDBRANCH   1  27
TORSDOF 24
ENDMDL
MODEL 2
REMARK VINA RESULT:      -6.8      5.688      7.897
REMARK SMILES CCN(CC)C(=O)/C(C#N)=C\c1ccc(O[C@H](C)C(=O)OCCOCCOCCOC(=O)c2ccc(-c3c4nc(c(-c5ccccc5)c5ccc([nH]5)c(-c5ccccc5)c5nc(c(-c6ccccc6)c6ccc3[nH]6)C=C5)C=C4)cc2)cc1
REMARK SMILES IDX 24 1 23 2 22 3 21 4 19 5 20 6 17 7 18 8 16 9 15 10 12 11
REMARK SMILES IDX 13 12 82 13 14 14 81 15 11 16 8 17 6 18 3 19 7 20 2 21 1 22
REMARK SMILES IDX 4 23 5 24 9 25 10 26 25 27 26 28 27 29 28 30 29 31 30 32
REMARK SMILES IDX 31 33 32 34 33 35 34 36 80 37 35 38 79 39 36 40 37 41 38 42
REMARK SMILES IDX 73 43 39 44 78 45 72 46 74 47 40 48 77 49 71 50 70 51 41 53
REMARK SMILES IDX 63 54 48 55 62 56 49 57 52 58 61 59 75 60 50 61 51 62 60 64
REMARK SMILES IDX 76 65 53 66 42 67 43 68 47 69 44 70 46 71 45 72 64 73 65 74
REMARK SMILES IDX 69 75 66 76 68 77 67 78 54 79 55 80 59 81 56 82 58 83 57 84
REMARK H PARENT 74 52 52 63
REMARK Flexibility Score: inf
ROOT
ATOM      1  O   UNL A   1      35.931  22.654  23.291  1.00  0.00    -0.376 OA
ENDROOT
BRANCH   1   2
ATOM      2  C   UNL A   1      34.782  23.336  22.803  1.00  0.00     0.202 C 
BRANCH   2   3
ATOM      3  C   UNL A   1      34.269  24.582  23.549  1.00  0.00     0.261 C 
BRANCH   3   4
ATOM      4  O   UNL A   1      33.102  25.236  23.001  1.00  0.00    -0.461 OA
BRANCH   4   5
ATOM      5  C   UNL A   1      33.355  26.285  22.174  1.00  0.00     0.347 C 
ATOM      6  O   UNL A   1      33.416  26.185  20.950  1.00  0.00    -0.248 OA
BRANCH   5   7
ATOM      7  C   UNL A   1      33.640  27.619  22.876  1.00  0.00     0.279 C 
ATOM      8  C   UNL A   1      34.655  28.661  22.402  1.00  0.00     0.066 C 
BRANCH   7   9
ATOM      9  O   UNL A   1      32.401  28.161  23.301  1.00  0.00    -0.479 OA
BRANCH   9  10
ATOM     10  C   UNL A   1      31.680  27.593  24.300  1.00  0.00     0.120 A 
ATOM     11  C   UNL A   1      30.187  25.890  25.884  1.00  0.00    -0.024 A 
ATOM     12  C   UNL A   1      31.350  26.453  26.397  1.00  0.00     0.012 A 
ATOM     13  C   UNL A   1      29.665  26.338  24.671  1.00  0.00     0.012 A 
ATOM     14  C   UNL A   1      32.078  27.341  25.611  1.00  0.00     0.047 A 
ATOM     15  C   UNL A   1      30.438  27.151  23.862  1.00  0.00     0.047 A 
BRANCH  11  16
ATOM     16  C   UNL A   1      29.561  24.784  26.583  1.00  0.00     0.033 C 
ATOM     17  C   UNL A   1      29.938  23.498  26.456  1.00  0.00     0.117 C 
BRANCH  17  18
ATOM     18  C   UNL A   1      31.078  22.943  25.610  1.00  0.00     0.264 C 
ATOM     19  N   UNL A   1      32.226  22.365  26.180  1.00  0.00    -0.339 N 
ATOM     20  O   UNL A   1      30.966  22.968  24.380  1.00  0.00    -0.268 OA
BRANCH  19  21
ATOM     21  C   UNL A   1      33.049  21.522  25.303  1.00  0.00     0.116 C 
ATOM     22  C   UNL A   1      32.526  20.092  25.262  1.00  0.00     0.027 C 
ENDBRANCH  19  21
BRANCH  19  23
ATOM     23  C   UNL A   1      32.790  22.585  27.521  1.00  0.00     0.116 C 
ATOM     24  C   UNL A   1      34.309  22.708  27.464  1.00  0.00     0.027 C 
ENDBRANCH  19  23
ENDBRANCH  17  18
BRANCH  17  25
ATOM     25  C   UNL A   1      29.019  22.490  27.128  1.00  0.00     0.105 C 
ATOM     26  N   UNL A   1      28.258  21.654  27.685  1.00  0.00    -0.192 NA
ENDBRANCH  17  25
ENDBRANCH  11  16
ENDBRANCH   9  10
ENDBRANCH   7   9
ENDBRANCH   5   7
ENDBRANCH   4   5
ENDBRANCH   3   4
ENDBRANCH   2   3
ENDBRANCH   1   2
BRANCH   1  27
ATOM     27  C   UNL A   1      36.642  23.191  24.398  1.00  0.00     0.188 C 
BRANCH  27  28
ATOM     28  C   UNL A   1      37.728  22.345  25.081  1.00  0.00     0.188 C 
BRANCH  28  29
ATOM     29  O   UNL A   1      38.027  22.725  26.401  1.00  0.00    -0.376 OA
BRANCH  29  30
ATOM     30  C   UNL A   1      38.163  24.099  26.698  1.00  0.00     0.202 C 
BRANCH  30  31
ATOM     31  C   UNL A   1      39.331  24.538  27.596  1.00  0.00     0.261 C 
BRANCH  31  32
ATOM     32  O   UNL A   1      39.418  25.941  27.912  1.00  0.00    -0.460 OA
BRANCH  32  33
ATOM     33  C   UNL A   1      40.332  26.677  27.239  1.00  0.00     0.338 C 
ATOM     34  O   UNL A   1      40.643  26.556  26.061  1.00  0.00    -0.246 OA
BRANCH  33  35
ATOM     35  C   UNL A   1      40.693  27.841  28.086  1.00  0.00     0.060 A 
ATOM     36  C   UNL A   1      39.942  29.022  27.973  1.00  0.00     0.016 A 
ATOM     37  C   UNL A   1      41.735  27.764  29.013  1.00  0.00     0.016 A 
ATOM     38  C   UNL A   1      40.245  30.133  28.765  1.00  0.00     0.010 A 
ATOM     39  C   UNL A   1      42.055  28.888  29.786  1.00  0.00     0.010 A 
ATOM     40  C   UNL A   1      41.332  30.088  29.646  1.00  0.00    -0.014 A 
BRANCH  40  41
ATOM     41  C   UNL A   1      41.843  31.341  30.264  1.00  0.00     0.031 A 
ATOM     42  C   UNL A   1      41.202  31.816  31.541  1.00  0.00     0.074 A 
ATOM     43  C   UNL A   1      42.856  32.044  29.725  1.00  0.00     0.049 A 
ATOM     44  N   UNL A   1      41.428  32.906  32.231  1.00  0.00    -0.248 NA
ATOM     45  C   UNL A   1      40.161  30.946  32.114  1.00  0.00     0.031 C 
ATOM     46  C   UNL A   1      43.601  31.679  28.523  1.00  0.00     0.029 A 
ATOM     47  N   UNL A   1      43.423  33.230  30.126  1.00  0.00    -0.354 N 
ATOM     48  C   UNL A   1      40.545  32.861  33.304  1.00  0.00     0.074 A 
ATOM     49  C   UNL A   1      39.767  31.651  33.164  1.00  0.00     0.031 C 
ATOM     50  C   UNL A   1      44.517  32.633  28.273  1.00  0.00     0.029 A 
ATOM     51  C   UNL A   1      44.398  33.692  29.274  1.00  0.00     0.049 A 
ATOM     52  H   UNL A   1      43.156  33.705  30.946  1.00  0.00     0.167 HD
ATOM     53  C   UNL A   1      40.393  33.747  34.316  1.00  0.00     0.031 A 
ATOM     54  C   UNL A   1      45.093  34.847  29.284  1.00  0.00     0.031 A 
ATOM     55  C   UNL A   1      41.158  34.957  34.459  1.00  0.00     0.049 A 
ATOM     56  C   UNL A   1      44.854  35.854  30.383  1.00  0.00     0.074 A 
ATOM     57  C   UNL A   1      41.094  35.900  35.470  1.00  0.00     0.029 A 
ATOM     58  N   UNL A   1      42.115  35.399  33.560  1.00  0.00    -0.354 N 
ATOM     59  N   UNL A   1      44.044  35.782  31.412  1.00  0.00    -0.248 NA
ATOM     60  C   UNL A   1      45.633  37.100  30.322  1.00  0.00     0.031 C 
ATOM     61  C   UNL A   1      41.959  36.948  35.146  1.00  0.00     0.029 A 
ATOM     62  C   UNL A   1      42.620  36.620  33.973  1.00  0.00     0.049 A 
ATOM     63  H   UNL A   1      42.393  34.917  32.748  1.00  0.00     0.167 HD
ATOM     64  C   UNL A   1      44.242  36.954  32.135  1.00  0.00     0.074 A 
ATOM     65  C   UNL A   1      45.260  37.710  31.439  1.00  0.00     0.031 C 
ATOM     66  C   UNL A   1      43.634  37.366  33.276  1.00  0.00     0.031 A 
BRANCH  53  67
ATOM     67  C   UNL A   1      39.321  33.465  35.332  1.00  0.00    -0.014 A 
ATOM     68  C   UNL A   1      38.001  33.906  35.153  1.00  0.00     0.009 A 
ATOM     69  C   UNL A   1      39.632  32.699  36.467  1.00  0.00     0.009 A 
ATOM     70  C   UNL A   1      37.022  33.612  36.105  1.00  0.00     0.001 A 
ATOM     71  C   UNL A   1      38.646  32.379  37.400  1.00  0.00     0.001 A 
ATOM     72  C   UNL A   1      37.344  32.842  37.222  1.00  0.00     0.000 A 
ENDBRANCH  53  67
BRANCH  54  73
ATOM     73  C   UNL A   1      46.062  35.152  28.194  1.00  0.00    -0.014 A 
ATOM     74  C   UNL A   1      47.420  34.820  28.320  1.00  0.00     0.009 A 
ATOM     75  C   UNL A   1      45.637  35.827  27.038  1.00  0.00     0.009 A 
ATOM     76  C   UNL A   1      48.335  35.186  27.329  1.00  0.00     0.001 A 
ATOM     77  C   UNL A   1      46.548  36.160  26.033  1.00  0.00     0.001 A 
ATOM     78  C   UNL A   1      47.898  35.851  26.186  1.00  0.00     0.000 A 
ENDBRANCH  54  73
BRANCH  66  79
ATOM     79  C   UNL A   1      44.085  38.673  33.872  1.00  0.00    -0.014 A 
ATOM     80  C   UNL A   1      43.453  39.885  33.556  1.00  0.00     0.009 A 
ATOM     81  C   UNL A   1      45.140  38.683  34.801  1.00  0.00     0.009 A 
ATOM     82  C   UNL A   1      43.893  41.084  34.125  1.00  0.00     0.001 A 
ATOM     83  C   UNL A   1      45.555  39.876  35.395  1.00  0.00     0.001 A 
ATOM     84  C   UNL A   1      44.939  41.077  35.047  1.00  0.00     0.000 A 
ENDBRANCH  66  79
ENDBRANCH  40  41
ENDBRANCH  33  35
ENDBRANCH  32  33
ENDBRANCH  31  32
ENDBRANCH  30  31
ENDBRANCH  29  30
ENDBRANCH  28  29
ENDBRANCH  27  28
ENDBRANCH   1  27
TORSDOF 24
ENDMDL
MODEL 3
REMARK VINA RESULT:      -6.8      7.568     12.212
REMARK SMILES CCN(CC)C(=O)/C(C#N)=C\c1ccc(O[C@H](C)C(=O)OCCOCCOCCOC(=O)c2ccc(-c3c4nc(c(-c5ccccc5)c5ccc([nH]5)c(-c5ccccc5)c5nc(c(-c6ccccc6)c6ccc3[nH]6)C=C5)C=C4)cc2)cc1
REMARK SMILES IDX 24 1 23 2 22 3 21 4 19 5 20 6 17 7 18 8 16 9 15 10 12 11
REMARK SMILES IDX 13 12 82 13 14 14 81 15 11 16 8 17 6 18 3 19 7 20 2 21 1 22
REMARK SMILES IDX 4 23 5 24 9 25 10 26 25 27 26 28 27 29 28 30 29 31 30 32
REMARK SMILES IDX 31 33 32 34 33 35 34 36 80 37 35 38 79 39 36 40 37 41 38 42
REMARK SMILES IDX 73 43 39 44 78 45 72 46 74 47 40 48 77 49 71 50 70 51 41 53
REMARK SMILES IDX 63 54 48 55 62 56 49 57 52 58 61 59 75 60 50 61 51 62 60 64
REMARK SMILES IDX 76 65 53 66 42 67 43 68 47 69 44 70 46 71 45 72 64 73 65 74
REMARK SMILES IDX 69 75 66 76 68 77 67 78 54 79 55 80 59 81 56 82 58 83 57 84
REMARK H PARENT 74 52 52 63
REMARK Flexibility Score: inf
ROOT
ATOM      1  O   UNL A   1      36.085  22.626  23.324  1.00  0.00    -0.376 OA
ENDROOT
BRANCH   1   2
ATOM      2  C   UNL A   1      34.984  23.369  22.815  1.00  0.00     0.202 C 
BRANCH   2   3
ATOM      3  C   UNL A   1      34.478  24.599  23.593  1.00  0.00     0.261 C 
BRANCH   3   4
ATOM      4  O   UNL A   1      33.231  25.183  23.151  1.00  0.00    -0.461 OA
BRANCH   4   5
ATOM      5  C   UNL A   1      33.349  26.220  22.280  1.00  0.00     0.347 C 
ATOM      6  O   UNL A   1      33.282  26.092  21.059  1.00  0.00    -0.248 OA
BRANCH   5   7
ATOM      7  C   UNL A   1      33.652  27.581  22.919  1.00  0.00     0.279 C 
ATOM      8  C   UNL A   1      34.665  28.596  22.385  1.00  0.00     0.066 C 
BRANCH   7   9
ATOM      9  O   UNL A   1      32.422  28.148  23.341  1.00  0.00    -0.479 OA
BRANCH   9  10
ATOM     10  C   UNL A   1      31.685  27.591  24.334  1.00  0.00     0.120 A 
ATOM     11  C   UNL A   1      30.176  25.901  25.916  1.00  0.00    -0.024 A 
ATOM     12  C   UNL A   1      31.317  26.492  26.446  1.00  0.00     0.012 A 
ATOM     13  C   UNL A   1      29.679  26.314  24.680  1.00  0.00     0.012 A 
ATOM     14  C   UNL A   1      32.052  27.374  25.659  1.00  0.00     0.047 A 
ATOM     15  C   UNL A   1      30.461  27.120  23.873  1.00  0.00     0.047 A 
BRANCH  11  16
ATOM     16  C   UNL A   1      29.548  24.801  26.623  1.00  0.00     0.033 C 
ATOM     17  C   UNL A   1      29.913  23.512  26.494  1.00  0.00     0.117 C 
BRANCH  17  18
ATOM     18  C   UNL A   1      31.040  22.946  25.637  1.00  0.00     0.264 C 
ATOM     19  N   UNL A   1      32.186  22.355  26.196  1.00  0.00    -0.339 N 
ATOM     20  O   UNL A   1      30.917  22.974  24.409  1.00  0.00    -0.268 OA
BRANCH  19  21
ATOM     21  C   UNL A   1      32.992  21.504  25.311  1.00  0.00     0.116 C 
ATOM     22  C   UNL A   1      32.501  20.063  25.332  1.00  0.00     0.027 C 
ENDBRANCH  19  21
BRANCH  19  23
ATOM     23  C   UNL A   1      32.764  22.566  27.532  1.00  0.00     0.116 C 
ATOM     24  C   UNL A   1      34.283  22.695  27.460  1.00  0.00     0.027 C 
ENDBRANCH  19  23
ENDBRANCH  17  18
BRANCH  17  25
ATOM     25  C   UNL A   1      28.993  22.512  27.177  1.00  0.00     0.105 C 
ATOM     26  N   UNL A   1      28.231  21.683  27.743  1.00  0.00    -0.192 NA
ENDBRANCH  17  25
ENDBRANCH  11  16
ENDBRANCH   9  10
ENDBRANCH   7   9
ENDBRANCH   5   7
ENDBRANCH   4   5
ENDBRANCH   3   4
ENDBRANCH   2   3
ENDBRANCH   1   2
BRANCH   1  27
ATOM     27  C   UNL A   1      36.841  23.153  24.405  1.00  0.00     0.188 C 
BRANCH  27  28
ATOM     28  C   UNL A   1      37.656  22.200  25.293  1.00  0.00     0.188 C 
BRANCH  28  29
ATOM     29  O   UNL A   1      38.210  22.793  26.440  1.00  0.00    -0.376 OA
BRANCH  29  30
ATOM     30  C   UNL A   1      39.265  23.720  26.283  1.00  0.00     0.202 C 
BRANCH  30  31
ATOM     31  C   UNL A   1      40.573  23.472  27.053  1.00  0.00     0.261 C 
BRANCH  31  32
ATOM     32  O   UNL A   1      41.763  24.096  26.533  1.00  0.00    -0.460 OA
BRANCH  32  33
ATOM     33  C   UNL A   1      42.643  23.308  25.873  1.00  0.00     0.338 C 
ATOM     34  O   UNL A   1      42.373  22.354  25.155  1.00  0.00    -0.246 OA
BRANCH  33  35
ATOM     35  C   UNL A   1      43.975  23.960  25.936  1.00  0.00     0.060 A 
ATOM     36  C   UNL A   1      45.125  23.172  25.766  1.00  0.00     0.016 A 
ATOM     37  C   UNL A   1      44.096  25.339  26.122  1.00  0.00     0.016 A 
ATOM     38  C   UNL A   1      46.395  23.754  25.806  1.00  0.00     0.010 A 
ATOM     39  C   UNL A   1      45.371  25.916  26.190  1.00  0.00     0.010 A 
ATOM     40  C   UNL A   1      46.528  25.124  26.063  1.00  0.00    -0.014 A 
BRANCH  40  41
ATOM     41  C   UNL A   1      47.860  25.693  26.401  1.00  0.00     0.031 A 
ATOM     42  C   UNL A   1      48.713  26.224  25.280  1.00  0.00     0.074 A 
ATOM     43  C   UNL A   1      48.311  25.754  27.668  1.00  0.00     0.049 A 
ATOM     44  N   UNL A   1      49.930  26.707  25.315  1.00  0.00    -0.248 NA
ATOM     45  C   UNL A   1      48.112  26.203  23.936  1.00  0.00     0.031 C 
ATOM     46  C   UNL A   1      47.577  25.323  28.855  1.00  0.00     0.029 A 
ATOM     47  N   UNL A   1      49.516  26.197  28.159  1.00  0.00    -0.354 N 
ATOM     48  C   UNL A   1      50.246  27.026  24.000  1.00  0.00     0.074 A 
ATOM     49  C   UNL A   1      49.104  26.664  23.189  1.00  0.00     0.031 C 
ATOM     50  C   UNL A   1      48.355  25.507  29.938  1.00  0.00     0.029 A 
ATOM     51  C   UNL A   1      49.653  26.033  29.517  1.00  0.00     0.049 A 
ATOM     52  H   UNL A   1      50.215  26.595  27.592  1.00  0.00     0.167 HD
ATOM     53  C   UNL A   1      51.383  27.571  23.508  1.00  0.00     0.031 A 
ATOM     54  C   UNL A   1      50.712  26.253  30.322  1.00  0.00     0.031 A 
ATOM     55  C   UNL A   1      52.525  27.927  24.306  1.00  0.00     0.049 A 
ATOM     56  C   UNL A   1      51.996  26.792  29.739  1.00  0.00     0.074 A 
ATOM     57  C   UNL A   1      53.710  28.514  23.898  1.00  0.00     0.029 A 
ATOM     58  N   UNL A   1      52.631  27.719  25.672  1.00  0.00    -0.354 N 
ATOM     59  N   UNL A   1      52.268  27.125  28.500  1.00  0.00    -0.248 NA
ATOM     60  C   UNL A   1      53.116  26.992  30.671  1.00  0.00     0.031 C 
ATOM     61  C   UNL A   1      54.562  28.594  25.002  1.00  0.00     0.029 A 
ATOM     62  C   UNL A   1      53.877  28.130  26.114  1.00  0.00     0.049 A 
ATOM     63  H   UNL A   1      51.927  27.335  26.242  1.00  0.00     0.167 HD
ATOM     64  C   UNL A   1      53.575  27.603  28.512  1.00  0.00     0.074 A 
ATOM     65  C   UNL A   1      54.033  27.535  29.883  1.00  0.00     0.031 C 
ATOM     66  C   UNL A   1      54.327  28.060  27.480  1.00  0.00     0.031 A 
BRANCH  53  67
ATOM     67  C   UNL A   1      51.470  27.774  22.021  1.00  0.00    -0.014 A 
ATOM     68  C   UNL A   1      51.923  26.760  21.164  1.00  0.00     0.009 A 
ATOM     69  C   UNL A   1      51.042  28.991  21.465  1.00  0.00     0.009 A 
ATOM     70  C   UNL A   1      51.974  26.970  19.783  1.00  0.00     0.001 A 
ATOM     71  C   UNL A   1      51.064  29.188  20.084  1.00  0.00     0.001 A 
ATOM     72  C   UNL A   1      51.537  28.181  19.246  1.00  0.00     0.000 A 
ENDBRANCH  53  67
BRANCH  54  73
ATOM     73  C   UNL A   1      50.634  25.926  31.774  1.00  0.00    -0.014 A 
ATOM     74  C   UNL A   1      50.289  26.906  32.717  1.00  0.00     0.009 A 
ATOM     75  C   UNL A   1      50.958  24.638  32.228  1.00  0.00     0.009 A 
ATOM     76  C   UNL A   1      50.301  26.612  34.084  1.00  0.00     0.001 A 
ATOM     77  C   UNL A   1      50.934  24.336  33.591  1.00  0.00     0.001 A 
ATOM     78  C   UNL A   1      50.620  25.327  34.519  1.00  0.00     0.000 A 
ENDBRANCH  54  73
BRANCH  66  79
ATOM     79  C   UNL A   1      55.709  28.566  27.796  1.00  0.00    -0.014 A 
ATOM     80  C   UNL A   1      56.833  27.728  27.734  1.00  0.00     0.009 A 
ATOM     81  C   UNL A   1      55.893  29.920  28.121  1.00  0.00     0.009 A 
ATOM     82  C   UNL A   1      58.105  28.225  28.033  1.00  0.00     0.001 A 
ATOM     83  C   UNL A   1      57.168  30.423  28.385  1.00  0.00     0.001 A 
ATOM     84  C   UNL A   1      58.272  29.572  28.352  1.00  0.00     0.000 A 
ENDBRANCH  66  79
ENDBRANCH  40  41
ENDBRANCH  33  35
ENDBRANCH  32  33
ENDBRANCH  31  32
ENDBRANCH  30  31
ENDBRANCH  29  30
ENDBRANCH  28  29
ENDBRANCH  27  28
ENDBRANCH   1  27
TORSDOF 24
ENDMDL
