MODEL 1
REMARK VINA RESULT:      -9.9      0.000      0.000
REMARK SMILES CCCCCNC(=O)N1Cc2nc[nH]c2C[C@@H]1C(=O)OCCOCCOCCOC(=O)c1ccc(-c2c3nc(c(-c4ccccc4)c4ccc([nH]4)c(-c4ccccc4)c4nc(c(-c5ccccc5)c5ccc2[nH]5)C=C4)C=C3)cc1
REMARK SMILES IDX 23 1 22 2 21 3 20 4 18 5 19 6 17 7 9 8 10 9 11 10 16 11
REMARK SMILES IDX 12 12 15 13 13 14 14 15 7 17 6 18 8 20 5 21 4 22 3 23 2 24
REMARK SMILES IDX 1 25 24 26 25 27 26 28 27 29 28 30 29 31 30 32 31 33 32 34
REMARK SMILES IDX 33 35 79 36 34 37 78 38 35 39 36 40 37 41 72 42 38 43 77 44
REMARK SMILES IDX 71 45 73 46 39 47 76 48 70 49 69 50 40 52 62 53 47 54 61 55
REMARK SMILES IDX 48 56 51 57 60 58 74 59 49 60 50 61 59 63 75 64 52 65 41 66
REMARK SMILES IDX 42 67 46 68 43 69 45 70 44 71 63 72 64 73 68 74 65 75 67 76
REMARK SMILES IDX 66 77 53 78 54 79 58 80 55 81 57 82 56 83
REMARK H PARENT 14 16 6 19 73 51 51 62
REMARK Flexibility Score: inf
ROOT
ATOM      1  O   UNL A   1      39.092  22.660  26.976  1.00  0.00    -0.376 OA
ENDROOT
BRANCH   1   2
ATOM      2  C   UNL A   1      38.759  23.741  26.119  1.00  0.00     0.202 C 
BRANCH   2   3
ATOM      3  C   UNL A   1      37.322  23.715  25.587  1.00  0.00     0.261 C 
BRANCH   3   4
ATOM      4  O   UNL A   1      36.922  22.696  24.646  1.00  0.00    -0.462 OA
BRANCH   4   5
ATOM      5  C   UNL A   1      35.747  22.773  23.981  1.00  0.00     0.329 C 
ATOM      6  O   UNL A   1      35.468  23.606  23.128  1.00  0.00    -0.250 OA
BRANCH   5   7
ATOM      7  C   UNL A   1      34.751  21.726  24.417  1.00  0.00     0.203 C 
ATOM      8  N   UNL A   1      33.581  22.180  25.228  1.00  0.00    -0.305 N 
ATOM      9  C   UNL A   1      32.458  21.204  25.281  1.00  0.00     0.180 C 
ATOM     10  C   UNL A   1      32.954  19.790  25.135  1.00  0.00     0.081 A 
ATOM     11  C   UNL A   1      35.391  20.416  24.948  1.00  0.00     0.093 C 
ATOM     12  N   UNL A   1      32.155  18.694  24.937  1.00  0.00    -0.240 NA
ATOM     13  C   UNL A   1      34.278  19.438  24.989  1.00  0.00     0.042 A 
ATOM     14  C   UNL A   1      32.984  17.700  24.693  1.00  0.00     0.197 A 
ATOM     15  N   UNL A   1      34.295  18.103  24.722  1.00  0.00    -0.348 N 
ATOM     16  H   UNL A   1      35.089  17.539  24.578  1.00  0.00     0.167 HD
BRANCH   8  17
ATOM     17  C   UNL A   1      33.773  22.932  26.368  1.00  0.00     0.318 C 
ATOM     18  N   UNL A   1      33.454  24.262  26.327  1.00  0.00    -0.338 N 
ATOM     19  H   UNL A   1      33.584  24.754  27.171  1.00  0.00     0.165 HD
ATOM     20  O   UNL A   1      34.125  22.445  27.440  1.00  0.00    -0.249 OA
BRANCH  18  21
ATOM     21  C   UNL A   1      32.953  25.051  25.218  1.00  0.00     0.117 C 
BRANCH  21  22
ATOM     22  C   UNL A   1      33.675  26.352  24.887  1.00  0.00     0.021 C 
BRANCH  22  23
ATOM     23  C   UNL A   1      33.509  27.490  25.905  1.00  0.00     0.002 C 
BRANCH  23  24
ATOM     24  C   UNL A   1      32.087  28.013  26.161  1.00  0.00    -0.003 C 
ATOM     25  C   UNL A   1      31.724  28.194  27.627  1.00  0.00     0.004 C 
ENDBRANCH  23  24
ENDBRANCH  22  23
ENDBRANCH  21  22
ENDBRANCH  18  21
ENDBRANCH   8  17
ENDBRANCH   5   7
ENDBRANCH   4   5
ENDBRANCH   3   4
ENDBRANCH   2   3
ENDBRANCH   1   2
BRANCH   1  26
ATOM     26  C   UNL A   1      39.985  21.683  26.471  1.00  0.00     0.188 C 
BRANCH  26  27
ATOM     27  C   UNL A   1      40.921  21.052  27.520  1.00  0.00     0.188 C 
BRANCH  27  28
ATOM     28  O   UNL A   1      41.952  20.126  27.185  1.00  0.00    -0.376 OA
BRANCH  28  29
ATOM     29  C   UNL A   1      42.159  19.727  25.840  1.00  0.00     0.202 C 
BRANCH  29  30
ATOM     30  C   UNL A   1      43.287  18.713  25.654  1.00  0.00     0.261 C 
BRANCH  30  31
ATOM     31  O   UNL A   1      44.554  19.305  25.385  1.00  0.00    -0.460 OA
BRANCH  31  32
ATOM     32  C   UNL A   1      44.659  19.905  24.181  1.00  0.00     0.338 C 
ATOM     33  O   UNL A   1      44.550  19.384  23.075  1.00  0.00    -0.246 OA
BRANCH  32  34
ATOM     34  C   UNL A   1      45.010  21.321  24.363  1.00  0.00     0.060 A 
ATOM     35  C   UNL A   1      46.075  21.605  25.223  1.00  0.00     0.016 A 
ATOM     36  C   UNL A   1      44.179  22.336  23.866  1.00  0.00     0.016 A 
ATOM     37  C   UNL A   1      46.151  22.860  25.784  1.00  0.00     0.010 A 
ATOM     38  C   UNL A   1      44.254  23.593  24.428  1.00  0.00     0.010 A 
ATOM     39  C   UNL A   1      45.166  23.799  25.461  1.00  0.00    -0.014 A 
BRANCH  39  40
ATOM     40  C   UNL A   1      45.029  24.937  26.347  1.00  0.00     0.031 A 
ATOM     41  C   UNL A   1      46.135  25.909  26.351  1.00  0.00     0.074 A 
ATOM     42  C   UNL A   1      43.920  25.107  27.094  1.00  0.00     0.049 A 
ATOM     43  N   UNL A   1      46.880  26.250  27.349  1.00  0.00    -0.248 NA
ATOM     44  C   UNL A   1      46.492  26.535  25.072  1.00  0.00     0.031 C 
ATOM     45  C   UNL A   1      42.654  24.373  26.989  1.00  0.00     0.029 A 
ATOM     46  N   UNL A   1      43.658  26.057  28.036  1.00  0.00    -0.354 N 
ATOM     47  C   UNL A   1      47.695  27.268  26.872  1.00  0.00     0.074 A 
ATOM     48  C   UNL A   1      47.503  27.318  25.443  1.00  0.00     0.031 C 
ATOM     49  C   UNL A   1      41.699  25.046  27.668  1.00  0.00     0.029 A 
ATOM     50  C   UNL A   1      42.311  26.180  28.342  1.00  0.00     0.049 A 
ATOM     51  H   UNL A   1      44.359  26.603  28.459  1.00  0.00     0.167 HD
ATOM     52  C   UNL A   1      48.292  28.155  27.709  1.00  0.00     0.031 A 
ATOM     53  C   UNL A   1      41.725  27.181  29.039  1.00  0.00     0.031 A 
ATOM     54  C   UNL A   1      48.369  27.675  29.063  1.00  0.00     0.049 A 
ATOM     55  C   UNL A   1      42.775  27.887  29.807  1.00  0.00     0.074 A 
ATOM     56  C   UNL A   1      48.933  26.576  29.679  1.00  0.00     0.029 A 
ATOM     57  N   UNL A   1      47.517  28.231  29.986  1.00  0.00    -0.354 N 
ATOM     58  N   UNL A   1      43.359  27.400  30.863  1.00  0.00    -0.248 NA
ATOM     59  C   UNL A   1      43.442  29.028  29.198  1.00  0.00     0.031 C 
ATOM     60  C   UNL A   1      48.080  26.280  30.781  1.00  0.00     0.029 A 
ATOM     61  C   UNL A   1      47.049  27.221  30.783  1.00  0.00     0.049 A 
ATOM     62  H   UNL A   1      47.286  29.185  30.061  1.00  0.00     0.167 HD
ATOM     63  C   UNL A   1      44.658  27.883  30.802  1.00  0.00     0.074 A 
ATOM     64  C   UNL A   1      44.607  28.984  29.849  1.00  0.00     0.031 C 
ATOM     65  C   UNL A   1      45.701  27.160  31.307  1.00  0.00     0.031 A 
BRANCH  52  66
ATOM     66  C   UNL A   1      48.445  29.613  27.362  1.00  0.00    -0.014 A 
ATOM     67  C   UNL A   1      49.733  30.174  27.330  1.00  0.00     0.009 A 
ATOM     68  C   UNL A   1      47.359  30.511  27.347  1.00  0.00     0.009 A 
ATOM     69  C   UNL A   1      49.920  31.561  27.343  1.00  0.00     0.001 A 
ATOM     70  C   UNL A   1      47.542  31.895  27.311  1.00  0.00     0.001 A 
ATOM     71  C   UNL A   1      48.825  32.420  27.337  1.00  0.00     0.000 A 
ENDBRANCH  52  66
BRANCH  53  72
ATOM     72  C   UNL A   1      40.341  27.688  28.945  1.00  0.00    -0.014 A 
ATOM     73  C   UNL A   1      39.501  27.682  30.068  1.00  0.00     0.009 A 
ATOM     74  C   UNL A   1      39.907  28.398  27.809  1.00  0.00     0.009 A 
ATOM     75  C   UNL A   1      38.288  28.383  30.064  1.00  0.00     0.001 A 
ATOM     76  C   UNL A   1      38.690  29.085  27.799  1.00  0.00     0.001 A 
ATOM     77  C   UNL A   1      37.887  29.090  28.933  1.00  0.00     0.000 A 
ENDBRANCH  53  72
BRANCH  65  78
ATOM     78  C   UNL A   1      45.388  26.009  32.231  1.00  0.00    -0.014 A 
ATOM     79  C   UNL A   1      44.785  24.819  31.789  1.00  0.00     0.009 A 
ATOM     80  C   UNL A   1      45.842  26.072  33.558  1.00  0.00     0.009 A 
ATOM     81  C   UNL A   1      44.600  23.742  32.660  1.00  0.00     0.001 A 
ATOM     82  C   UNL A   1      45.681  24.985  34.422  1.00  0.00     0.001 A 
ATOM     83  C   UNL A   1      45.053  23.825  33.975  1.00  0.00     0.000 A 
ENDBRANCH  65  78
ENDBRANCH  39  40
ENDBRANCH  32  34
ENDBRANCH  31  32
ENDBRANCH  30  31
ENDBRANCH  29  30
ENDBRANCH  28  29
ENDBRANCH  27  28
ENDBRANCH  26  27
ENDBRANCH   1  26
TORSDOF 22
ENDMDL
MODEL 2
REMARK VINA RESULT:      -9.7      1.227      3.537
REMARK SMILES CCCCCNC(=O)N1Cc2nc[nH]c2C[C@@H]1C(=O)OCCOCCOCCOC(=O)c1ccc(-c2c3nc(c(-c4ccccc4)c4ccc([nH]4)c(-c4ccccc4)c4nc(c(-c5ccccc5)c5ccc2[nH]5)C=C4)C=C3)cc1
REMARK SMILES IDX 23 1 22 2 21 3 20 4 18 5 19 6 17 7 9 8 10 9 11 10 16 11
REMARK SMILES IDX 12 12 15 13 13 14 14 15 7 17 6 18 8 20 5 21 4 22 3 23 2 24
REMARK SMILES IDX 1 25 24 26 25 27 26 28 27 29 28 30 29 31 30 32 31 33 32 34
REMARK SMILES IDX 33 35 79 36 34 37 78 38 35 39 36 40 37 41 72 42 38 43 77 44
REMARK SMILES IDX 71 45 73 46 39 47 76 48 70 49 69 50 40 52 62 53 47 54 61 55
REMARK SMILES IDX 48 56 51 57 60 58 74 59 49 60 50 61 59 63 75 64 52 65 41 66
REMARK SMILES IDX 42 67 46 68 43 69 45 70 44 71 63 72 64 73 68 74 65 75 67 76
REMARK SMILES IDX 66 77 53 78 54 79 58 80 55 81 57 82 56 83
REMARK H PARENT 14 16 6 19 73 51 51 62
REMARK Flexibility Score: inf
ROOT
ATOM      1  O   UNL A   1      38.220  20.614  24.989  1.00  0.00    -0.376 OA
ENDROOT
BRANCH   1   2
ATOM      2  C   UNL A   1      37.723  21.897  25.334  1.00  0.00     0.202 C 
BRANCH   2   3
ATOM      3  C   UNL A   1      36.247  21.920  25.750  1.00  0.00     0.261 C 
BRANCH   3   4
ATOM      4  O   UNL A   1      35.482  23.136  25.616  1.00  0.00    -0.462 OA
BRANCH   4   5
ATOM      5  C   UNL A   1      34.285  23.286  26.224  1.00  0.00     0.329 C 
ATOM      6  O   UNL A   1      33.898  22.648  27.196  1.00  0.00    -0.250 OA
BRANCH   5   7
ATOM      7  C   UNL A   1      33.409  24.323  25.563  1.00  0.00     0.203 C 
ATOM      8  N   UNL A   1      32.607  23.894  24.376  1.00  0.00    -0.305 N 
ATOM      9  C   UNL A   1      31.492  24.817  24.026  1.00  0.00     0.180 C 
ATOM     10  C   UNL A   1      31.804  26.232  24.435  1.00  0.00     0.081 A 
ATOM     11  C   UNL A   1      34.087  25.706  25.375  1.00  0.00     0.093 C 
ATOM     12  N   UNL A   1      30.904  27.266  24.438  1.00  0.00    -0.240 NA
ATOM     13  C   UNL A   1      32.977  26.630  25.040  1.00  0.00     0.042 A 
ATOM     14  C   UNL A   1      31.530  28.270  25.018  1.00  0.00     0.197 A 
ATOM     15  N   UNL A   1      32.805  27.932  25.396  1.00  0.00    -0.348 N 
ATOM     16  H   UNL A   1      33.462  28.516  25.838  1.00  0.00     0.167 HD
BRANCH   8  17
ATOM     17  C   UNL A   1      33.218  23.265  23.312  1.00  0.00     0.318 C 
ATOM     18  N   UNL A   1      33.131  21.902  23.229  1.00  0.00    -0.338 N 
ATOM     19  H   UNL A   1      33.560  21.498  22.440  1.00  0.00     0.165 HD
ATOM     20  O   UNL A   1      33.752  23.877  22.390  1.00  0.00    -0.249 OA
BRANCH  18  21
ATOM     21  C   UNL A   1      32.497  20.967  24.139  1.00  0.00     0.117 C 
BRANCH  21  22
ATOM     22  C   UNL A   1      32.810  19.485  23.968  1.00  0.00     0.021 C 
BRANCH  22  23
ATOM     23  C   UNL A   1      34.106  18.992  24.626  1.00  0.00     0.002 C 
BRANCH  23  24
ATOM     24  C   UNL A   1      34.515  17.530  24.385  1.00  0.00    -0.003 C 
ATOM     25  C   UNL A   1      34.025  16.934  23.074  1.00  0.00     0.004 C 
ENDBRANCH  23  24
ENDBRANCH  22  23
ENDBRANCH  21  22
ENDBRANCH  18  21
ENDBRANCH   8  17
ENDBRANCH   5   7
ENDBRANCH   4   5
ENDBRANCH   3   4
ENDBRANCH   2   3
ENDBRANCH   1   2
BRANCH   1  26
ATOM     26  C   UNL A   1      39.274  20.092  25.779  1.00  0.00     0.188 C 
BRANCH  26  27
ATOM     27  C   UNL A   1      40.233  21.147  26.362  1.00  0.00     0.188 C 
BRANCH  27  28
ATOM     28  O   UNL A   1      41.568  20.846  26.764  1.00  0.00    -0.376 OA
BRANCH  28  29
ATOM     29  C   UNL A   1      41.903  19.561  27.263  1.00  0.00     0.202 C 
BRANCH  29  30
ATOM     30  C   UNL A   1      42.624  18.667  26.254  1.00  0.00     0.261 C 
BRANCH  30  31
ATOM     31  O   UNL A   1      42.870  19.297  25.001  1.00  0.00    -0.460 OA
BRANCH  31  32
ATOM     32  C   UNL A   1      44.173  19.434  24.677  1.00  0.00     0.338 C 
ATOM     33  O   UNL A   1      44.974  18.544  24.406  1.00  0.00    -0.246 OA
BRANCH  32  34
ATOM     34  C   UNL A   1      44.557  20.851  24.761  1.00  0.00     0.060 A 
ATOM     35  C   UNL A   1      45.653  21.164  25.571  1.00  0.00     0.016 A 
ATOM     36  C   UNL A   1      43.731  21.852  24.228  1.00  0.00     0.016 A 
ATOM     37  C   UNL A   1      45.771  22.449  26.051  1.00  0.00     0.010 A 
ATOM     38  C   UNL A   1      43.848  23.138  24.709  1.00  0.00     0.010 A 
ATOM     39  C   UNL A   1      44.795  23.387  25.700  1.00  0.00    -0.014 A 
BRANCH  39  40
ATOM     40  C   UNL A   1      44.708  24.579  26.519  1.00  0.00     0.031 A 
ATOM     41  C   UNL A   1      45.879  25.471  26.514  1.00  0.00     0.074 A 
ATOM     42  C   UNL A   1      43.588  24.867  27.211  1.00  0.00     0.049 A 
ATOM     43  N   UNL A   1      46.611  25.815  27.522  1.00  0.00    -0.248 NA
ATOM     44  C   UNL A   1      46.326  25.999  25.219  1.00  0.00     0.031 C 
ATOM     45  C   UNL A   1      42.278  24.218  27.095  1.00  0.00     0.029 A 
ATOM     46  N   UNL A   1      43.361  25.884  28.090  1.00  0.00    -0.354 N 
ATOM     47  C   UNL A   1      47.513  26.746  27.024  1.00  0.00     0.074 A 
ATOM     48  C   UNL A   1      47.376  26.729  25.588  1.00  0.00     0.031 C 
ATOM     49  C   UNL A   1      41.350  24.992  27.698  1.00  0.00     0.029 A 
ATOM     50  C   UNL A   1      42.016  26.117  28.335  1.00  0.00     0.049 A 
ATOM     51  H   UNL A   1      44.083  26.404  28.511  1.00  0.00     0.167 HD
ATOM     52  C   UNL A   1      48.141  27.635  27.836  1.00  0.00     0.031 A 
ATOM     53  C   UNL A   1      41.479  27.194  28.954  1.00  0.00     0.031 A 
ATOM     54  C   UNL A   1      48.135  27.228  29.215  1.00  0.00     0.049 A 
ATOM     55  C   UNL A   1      42.548  27.867  29.724  1.00  0.00     0.074 A 
ATOM     56  C   UNL A   1      48.597  26.129  29.911  1.00  0.00     0.029 A 
ATOM     57  N   UNL A   1      47.293  27.892  30.073  1.00  0.00    -0.354 N 
ATOM     58  N   UNL A   1      43.057  27.401  30.828  1.00  0.00    -0.248 NA
ATOM     59  C   UNL A   1      43.316  28.923  29.082  1.00  0.00     0.031 C 
ATOM     60  C   UNL A   1      47.686  25.953  30.992  1.00  0.00     0.029 A 
ATOM     61  C   UNL A   1      46.725  26.963  30.903  1.00  0.00     0.049 A 
ATOM     62  H   UNL A   1      47.127  28.863  30.088  1.00  0.00     0.167 HD
ATOM     63  C   UNL A   1      44.389  27.788  30.792  1.00  0.00     0.074 A 
ATOM     64  C   UNL A   1      44.451  28.835  29.781  1.00  0.00     0.031 C 
ATOM     65  C   UNL A   1      45.359  27.024  31.376  1.00  0.00     0.031 A 
BRANCH  52  66
ATOM     66  C   UNL A   1      48.410  29.058  27.418  1.00  0.00    -0.014 A 
ATOM     67  C   UNL A   1      49.727  29.544  27.464  1.00  0.00     0.009 A 
ATOM     68  C   UNL A   1      47.385  30.011  27.255  1.00  0.00     0.009 A 
ATOM     69  C   UNL A   1      49.996  30.917  27.412  1.00  0.00     0.001 A 
ATOM     70  C   UNL A   1      47.653  31.378  27.154  1.00  0.00     0.001 A 
ATOM     71  C   UNL A   1      48.959  31.832  27.260  1.00  0.00     0.000 A 
ENDBRANCH  52  66
BRANCH  53  72
ATOM     72  C   UNL A   1      40.138  27.789  28.779  1.00  0.00    -0.014 A 
ATOM     73  C   UNL A   1      39.218  27.801  29.837  1.00  0.00     0.009 A 
ATOM     74  C   UNL A   1      39.833  28.559  27.640  1.00  0.00     0.009 A 
ATOM     75  C   UNL A   1      38.053  28.576  29.770  1.00  0.00     0.001 A 
ATOM     76  C   UNL A   1      38.664  29.321  27.566  1.00  0.00     0.001 A 
ATOM     77  C   UNL A   1      37.781  29.342  28.639  1.00  0.00     0.000 A 
ENDBRANCH  53  72
BRANCH  65  78
ATOM     78  C   UNL A   1      44.932  25.951  32.347  1.00  0.00    -0.014 A 
ATOM     79  C   UNL A   1      44.626  24.639  31.946  1.00  0.00     0.009 A 
ATOM     80  C   UNL A   1      44.974  26.234  33.721  1.00  0.00     0.009 A 
ATOM     81  C   UNL A   1      44.328  23.653  32.890  1.00  0.00     0.001 A 
ATOM     82  C   UNL A   1      44.702  25.241  34.665  1.00  0.00     0.001 A 
ATOM     83  C   UNL A   1      44.371  23.954  34.250  1.00  0.00     0.000 A 
ENDBRANCH  65  78
ENDBRANCH  39  40
ENDBRANCH  32  34
ENDBRANCH  31  32
ENDBRANCH  30  31
ENDBRANCH  29  30
ENDBRANCH  28  29
ENDBRANCH  27  28
ENDBRANCH  26  27
ENDBRANCH   1  26
TORSDOF 22
ENDMDL
MODEL 3
REMARK VINA RESULT:      -9.5      5.870     11.116
REMARK SMILES CCCCCNC(=O)N1Cc2nc[nH]c2C[C@@H]1C(=O)OCCOCCOCCOC(=O)c1ccc(-c2c3nc(c(-c4ccccc4)c4ccc([nH]4)c(-c4ccccc4)c4nc(c(-c5ccccc5)c5ccc2[nH]5)C=C4)C=C3)cc1
REMARK SMILES IDX 23 1 22 2 21 3 20 4 18 5 19 6 17 7 9 8 10 9 11 10 16 11
REMARK SMILES IDX 12 12 15 13 13 14 14 15 7 17 6 18 8 20 5 21 4 22 3 23 2 24
REMARK SMILES IDX 1 25 24 26 25 27 26 28 27 29 28 30 29 31 30 32 31 33 32 34
REMARK SMILES IDX 33 35 79 36 34 37 78 38 35 39 36 40 37 41 72 42 38 43 77 44
REMARK SMILES IDX 71 45 73 46 39 47 76 48 70 49 69 50 40 52 62 53 47 54 61 55
REMARK SMILES IDX 48 56 51 57 60 58 74 59 49 60 50 61 59 63 75 64 52 65 41 66
REMARK SMILES IDX 42 67 46 68 43 69 45 70 44 71 63 72 64 73 68 74 65 75 67 76
REMARK SMILES IDX 66 77 53 78 54 79 58 80 55 81 57 82 56 83
REMARK H PARENT 14 16 6 19 73 51 51 62
REMARK Flexibility Score: inf
ROOT
ATOM      1  O   UNL A   1      33.979  31.303  27.623  1.00  0.00    -0.376 OA
ENDROOT
BRANCH   1   2
ATOM      2  C   UNL A   1      34.704  30.083  27.650  1.00  0.00     0.202 C 
BRANCH   2   3
ATOM      3  C   UNL A   1      34.228  29.035  26.637  1.00  0.00     0.261 C 
BRANCH   3   4
ATOM      4  O   UNL A   1      32.817  28.873  26.379  1.00  0.00    -0.462 OA
BRANCH   4   5
ATOM      5  C   UNL A   1      32.335  27.770  25.766  1.00  0.00     0.329 C 
ATOM      6  O   UNL A   1      32.772  26.634  25.904  1.00  0.00    -0.250 OA
BRANCH   5   7
ATOM      7  C   UNL A   1      31.188  28.066  24.830  1.00  0.00     0.203 C 
ATOM      8  N   UNL A   1      30.683  26.944  23.979  1.00  0.00    -0.305 N 
ATOM      9  C   UNL A   1      29.334  27.180  23.395  1.00  0.00     0.180 C 
ATOM     10  C   UNL A   1      29.075  28.648  23.191  1.00  0.00     0.081 A 
ATOM     11  C   UNL A   1      31.320  29.406  24.059  1.00  0.00     0.093 C 
ATOM     12  N   UNL A   1      27.859  29.194  22.868  1.00  0.00    -0.240 NA
ATOM     13  C   UNL A   1      29.974  29.650  23.488  1.00  0.00     0.042 A 
ATOM     14  C   UNL A   1      28.030  30.498  22.953  1.00  0.00     0.197 A 
ATOM     15  N   UNL A   1      29.310  30.826  23.321  1.00  0.00    -0.348 N 
ATOM     16  H   UNL A   1      29.674  31.733  23.441  1.00  0.00     0.167 HD
BRANCH   8  17
ATOM     17  C   UNL A   1      31.555  26.217  23.196  1.00  0.00     0.318 C 
ATOM     18  N   UNL A   1      31.672  24.875  23.434  1.00  0.00    -0.338 N 
ATOM     19  H   UNL A   1      32.287  24.391  22.835  1.00  0.00     0.165 HD
ATOM     20  O   UNL A   1      32.156  26.699  22.239  1.00  0.00    -0.249 OA
BRANCH  18  21
ATOM     21  C   UNL A   1      31.021  24.063  24.443  1.00  0.00     0.117 C 
BRANCH  21  22
ATOM     22  C   UNL A   1      31.892  23.131  25.279  1.00  0.00     0.021 C 
BRANCH  22  23
ATOM     23  C   UNL A   1      32.987  22.372  24.516  1.00  0.00     0.002 C 
BRANCH  23  24
ATOM     24  C   UNL A   1      32.551  21.187  23.640  1.00  0.00    -0.003 C 
ATOM     25  C   UNL A   1      32.449  19.854  24.367  1.00  0.00     0.004 C 
ENDBRANCH  23  24
ENDBRANCH  22  23
ENDBRANCH  21  22
ENDBRANCH  18  21
ENDBRANCH   8  17
ENDBRANCH   5   7
ENDBRANCH   4   5
ENDBRANCH   3   4
ENDBRANCH   2   3
ENDBRANCH   1   2
BRANCH   1  26
ATOM     26  C   UNL A   1      34.703  32.493  27.882  1.00  0.00     0.188 C 
BRANCH  26  27
ATOM     27  C   UNL A   1      34.184  33.324  29.071  1.00  0.00     0.188 C 
BRANCH  27  28
ATOM     28  O   UNL A   1      33.181  34.329  28.938  1.00  0.00    -0.376 OA
BRANCH  28  29
ATOM     29  C   UNL A   1      33.517  35.704  29.021  1.00  0.00     0.202 C 
BRANCH  29  30
ATOM     30  C   UNL A   1      32.870  36.437  30.196  1.00  0.00     0.261 C 
BRANCH  30  31
ATOM     31  O   UNL A   1      33.571  36.282  31.426  1.00  0.00    -0.460 OA
BRANCH  31  32
ATOM     32  C   UNL A   1      33.080  35.329  32.246  1.00  0.00     0.338 C 
ATOM     33  O   UNL A   1      31.905  35.122  32.532  1.00  0.00    -0.246 OA
BRANCH  32  34
ATOM     34  C   UNL A   1      34.190  34.570  32.842  1.00  0.00     0.060 A 
ATOM     35  C   UNL A   1      35.315  35.299  33.237  1.00  0.00     0.016 A 
ATOM     36  C   UNL A   1      34.198  33.168  32.813  1.00  0.00     0.016 A 
ATOM     37  C   UNL A   1      36.518  34.639  33.356  1.00  0.00     0.010 A 
ATOM     38  C   UNL A   1      35.402  32.507  32.932  1.00  0.00     0.010 A 
ATOM     39  C   UNL A   1      36.559  33.268  33.088  1.00  0.00    -0.014 A 
BRANCH  39  40
ATOM     40  C   UNL A   1      37.861  32.690  32.822  1.00  0.00     0.031 A 
ATOM     41  C   UNL A   1      38.817  32.673  33.942  1.00  0.00     0.074 A 
ATOM     42  C   UNL A   1      38.154  32.160  31.618  1.00  0.00     0.049 A 
ATOM     43  N   UNL A   1      39.978  33.238  33.995  1.00  0.00    -0.248 NA
ATOM     44  C   UNL A   1      38.405  31.992  35.175  1.00  0.00     0.031 C 
ATOM     45  C   UNL A   1      37.224  31.874  30.520  1.00  0.00     0.029 A 
ATOM     46  N   UNL A   1      39.339  31.660  31.167  1.00  0.00    -0.354 N 
ATOM     47  C   UNL A   1      40.528  32.840  35.206  1.00  0.00     0.074 A 
ATOM     48  C   UNL A   1      39.476  32.181  35.943  1.00  0.00     0.031 C 
ATOM     49  C   UNL A   1      37.831  31.057  29.633  1.00  0.00     0.029 A 
ATOM     50  C   UNL A   1      39.213  30.862  30.040  1.00  0.00     0.049 A 
ATOM     51  H   UNL A   1      40.203  31.847  31.601  1.00  0.00     0.167 HD
ATOM     52  C   UNL A   1      41.867  32.870  35.425  1.00  0.00     0.031 A 
ATOM     53  C   UNL A   1      40.153  30.042  29.517  1.00  0.00     0.031 A 
ATOM     54  C   UNL A   1      42.560  33.737  34.510  1.00  0.00     0.049 A 
ATOM     55  C   UNL A   1      41.473  30.451  30.049  1.00  0.00     0.074 A 
ATOM     56  C   UNL A   1      42.491  35.079  34.195  1.00  0.00     0.029 A 
ATOM     57  N   UNL A   1      43.301  33.151  33.513  1.00  0.00    -0.354 N 
ATOM     58  N   UNL A   1      42.107  31.526  29.681  1.00  0.00    -0.248 NA
ATOM     59  C   UNL A   1      41.959  29.829  31.272  1.00  0.00     0.031 C 
ATOM     60  C   UNL A   1      42.826  35.162  32.813  1.00  0.00     0.029 A 
ATOM     61  C   UNL A   1      43.093  33.867  32.364  1.00  0.00     0.049 A 
ATOM     62  H   UNL A   1      43.878  32.359  33.608  1.00  0.00     0.167 HD
ATOM     63  C   UNL A   1      42.771  31.951  30.822  1.00  0.00     0.074 A 
ATOM     64  C   UNL A   1      42.762  30.799  31.715  1.00  0.00     0.031 C 
ATOM     65  C   UNL A   1      43.008  33.278  31.045  1.00  0.00     0.031 A 
BRANCH  52  66
ATOM     66  C   UNL A   1      42.578  31.803  36.217  1.00  0.00    -0.014 A 
ATOM     67  C   UNL A   1      43.254  32.166  37.394  1.00  0.00     0.009 A 
ATOM     68  C   UNL A   1      42.844  30.519  35.701  1.00  0.00     0.009 A 
ATOM     69  C   UNL A   1      44.191  31.311  37.986  1.00  0.00     0.001 A 
ATOM     70  C   UNL A   1      43.742  29.644  36.316  1.00  0.00     0.001 A 
ATOM     71  C   UNL A   1      44.436  30.052  37.444  1.00  0.00     0.000 A 
ENDBRANCH  52  66
BRANCH  53  72
ATOM     72  C   UNL A   1      39.970  28.807  28.727  1.00  0.00    -0.014 A 
ATOM     73  C   UNL A   1      40.514  28.695  27.440  1.00  0.00     0.009 A 
ATOM     74  C   UNL A   1      39.455  27.639  29.322  1.00  0.00     0.009 A 
ATOM     75  C   UNL A   1      40.568  27.457  26.785  1.00  0.00     0.001 A 
ATOM     76  C   UNL A   1      39.494  26.407  28.664  1.00  0.00     0.001 A 
ATOM     77  C   UNL A   1      40.066  26.313  27.400  1.00  0.00     0.000 A 
ENDBRANCH  53  72
BRANCH  65  78
ATOM     78  C   UNL A   1      42.852  34.233  29.888  1.00  0.00    -0.014 A 
ATOM     79  C   UNL A   1      43.883  34.486  28.966  1.00  0.00     0.009 A 
ATOM     80  C   UNL A   1      41.586  34.786  29.640  1.00  0.00     0.009 A 
ATOM     81  C   UNL A   1      43.664  35.305  27.854  1.00  0.00     0.001 A 
ATOM     82  C   UNL A   1      41.361  35.583  28.515  1.00  0.00     0.001 A 
ATOM     83  C   UNL A   1      42.401  35.848  27.627  1.00  0.00     0.000 A 
ENDBRANCH  65  78
ENDBRANCH  39  40
ENDBRANCH  32  34
ENDBRANCH  31  32
ENDBRANCH  30  31
ENDBRANCH  29  30
ENDBRANCH  28  29
ENDBRANCH  27  28
ENDBRANCH  26  27
ENDBRANCH   1  26
TORSDOF 22
ENDMDL
