MODEL 1
REMARK VINA RESULT:      -9.2      0.000      0.000
REMARK SMILES CC(C)n1cncc1[C@@H](O)[C@H](C)C(=O)OCCOCCOCCOC(=O)c1ccc(-c2c3nc(c(-c4ccccc4)c4ccc([nH]4)c(-c4ccccc4)c4nc(c(-c5ccccc5)c5ccc2[nH]5)C=C4)C=C3)cc1
REMARK SMILES IDX 19 1 18 2 17 3 16 4 15 5 13 6 14 7 11 8 12 9 9 10 8 11 4 12
REMARK SMILES IDX 5 13 6 14 7 15 2 16 1 17 3 18 10 19 20 21 21 22 22 23 23 24
REMARK SMILES IDX 24 25 25 26 26 27 27 28 28 29 74 30 29 31 73 32 30 33 31 34
REMARK SMILES IDX 32 35 67 36 33 37 72 38 66 39 68 40 34 41 71 42 65 43 64 44
REMARK SMILES IDX 35 46 57 47 42 48 56 49 43 50 46 51 55 52 69 53 44 54 45 55
REMARK SMILES IDX 54 57 70 58 47 59 36 60 37 61 41 62 38 63 40 64 39 65 58 66
REMARK SMILES IDX 59 67 63 68 60 69 62 70 61 71 48 72 49 73 53 74 50 75 52 76
REMARK SMILES IDX 51 77
REMARK H PARENT 10 20 68 45 46 56
REMARK Flexibility Score: inf
ROOT
ATOM      1  C   UNL A   1      33.529  30.307  26.877  1.00  0.00     0.188 C 
ENDROOT
BRANCH   1   2
ATOM      2  O   UNL A   1      33.210  29.013  27.337  1.00  0.00    -0.376 OA
BRANCH   2   3
ATOM      3  C   UNL A   1      32.089  28.359  26.767  1.00  0.00     0.202 C 
BRANCH   3   4
ATOM      4  C   UNL A   1      32.201  26.934  26.187  1.00  0.00     0.261 C 
BRANCH   4   5
ATOM      5  O   UNL A   1      33.438  26.600  25.531  1.00  0.00    -0.463 OA
BRANCH   5   6
ATOM      6  C   UNL A   1      33.498  26.822  24.196  1.00  0.00     0.311 C 
ATOM      7  O   UNL A   1      34.091  27.766  23.678  1.00  0.00    -0.252 OA
BRANCH   6   8
ATOM      8  C   UNL A   1      32.763  25.800  23.343  1.00  0.00     0.131 C 
ATOM      9  C   UNL A   1      32.390  26.151  21.902  1.00  0.00     0.023 C 
BRANCH   8  10
ATOM     10  C   UNL A   1      33.504  24.473  23.533  1.00  0.00     0.176 C 
BRANCH  10  11
ATOM     11  C   UNL A   1      32.718  23.484  24.317  1.00  0.00     0.067 A 
ATOM     12  N   UNL A   1      33.212  22.394  25.007  1.00  0.00    -0.330 N 
ATOM     13  C   UNL A   1      32.141  21.854  25.680  1.00  0.00     0.199 A 
ATOM     14  N   UNL A   1      31.031  22.523  25.487  1.00  0.00    -0.245 NA
ATOM     15  C   UNL A   1      31.372  23.532  24.644  1.00  0.00     0.137 A 
BRANCH  12  16
ATOM     16  C   UNL A   1      34.561  21.825  24.949  1.00  0.00     0.082 C 
ATOM     17  C   UNL A   1      35.477  22.203  26.121  1.00  0.00     0.031 C 
ATOM     18  C   UNL A   1      34.572  20.294  24.844  1.00  0.00     0.031 C 
ENDBRANCH  12  16
ENDBRANCH  10  11
BRANCH  10  19
ATOM     19  O   UNL A   1      33.760  23.855  22.277  1.00  0.00    -0.386 OA
ATOM     20  H   UNL A   1      32.922  23.726  21.803  1.00  0.00     0.211 HD
ENDBRANCH  10  19
ENDBRANCH   8  10
ENDBRANCH   6   8
ENDBRANCH   5   6
ENDBRANCH   4   5
ENDBRANCH   3   4
ENDBRANCH   2   3
ENDBRANCH   1   2
BRANCH   1  21
ATOM     21  C   UNL A   1      34.024  31.374  27.856  1.00  0.00     0.188 C 
BRANCH  21  22
ATOM     22  O   UNL A   1      34.806  32.480  27.485  1.00  0.00    -0.376 OA
BRANCH  22  23
ATOM     23  C   UNL A   1      34.810  33.734  28.155  1.00  0.00     0.202 C 
BRANCH  23  24
ATOM     24  C   UNL A   1      33.895  34.150  29.314  1.00  0.00     0.261 C 
BRANCH  24  25
ATOM     25  O   UNL A   1      34.531  34.767  30.402  1.00  0.00    -0.460 OA
BRANCH  25  26
ATOM     26  C   UNL A   1      33.737  34.959  31.473  1.00  0.00     0.338 C 
ATOM     27  O   UNL A   1      32.572  35.356  31.501  1.00  0.00    -0.246 OA
BRANCH  26  28
ATOM     28  C   UNL A   1      34.464  34.442  32.631  1.00  0.00     0.060 A 
ATOM     29  C   UNL A   1      35.502  35.212  33.142  1.00  0.00     0.016 A 
ATOM     30  C   UNL A   1      34.406  33.082  32.861  1.00  0.00     0.016 A 
ATOM     31  C   UNL A   1      36.723  34.600  33.107  1.00  0.00     0.010 A 
ATOM     32  C   UNL A   1      35.599  32.522  33.145  1.00  0.00     0.010 A 
ATOM     33  C   UNL A   1      36.722  33.248  32.798  1.00  0.00    -0.014 A 
BRANCH  33  34
ATOM     34  C   UNL A   1      37.910  32.523  32.421  1.00  0.00     0.031 A 
ATOM     35  C   UNL A   1      38.747  32.379  33.625  1.00  0.00     0.074 A 
ATOM     36  C   UNL A   1      38.135  32.003  31.187  1.00  0.00     0.049 A 
ATOM     37  N   UNL A   1      39.664  33.221  33.973  1.00  0.00    -0.248 NA
ATOM     38  C   UNL A   1      38.301  31.504  34.725  1.00  0.00     0.031 C 
ATOM     39  C   UNL A   1      37.339  31.987  29.948  1.00  0.00     0.029 A 
ATOM     40  N   UNL A   1      39.241  31.305  30.799  1.00  0.00    -0.354 N 
ATOM     41  C   UNL A   1      40.098  32.784  35.211  1.00  0.00     0.074 A 
ATOM     42  C   UNL A   1      39.045  31.960  35.733  1.00  0.00     0.031 C 
ATOM     43  C   UNL A   1      37.881  31.115  29.051  1.00  0.00     0.029 A 
ATOM     44  C   UNL A   1      39.139  30.623  29.579  1.00  0.00     0.049 A 
ATOM     45  H   UNL A   1      40.062  31.281  31.343  1.00  0.00     0.167 HD
ATOM     46  C   UNL A   1      41.422  32.816  35.511  1.00  0.00     0.031 A 
ATOM     47  C   UNL A   1      40.073  29.764  29.070  1.00  0.00     0.031 A 
ATOM     48  C   UNL A   1      42.137  33.638  34.564  1.00  0.00     0.049 A 
ATOM     49  C   UNL A   1      41.361  30.131  29.726  1.00  0.00     0.074 A 
ATOM     50  C   UNL A   1      42.111  34.976  34.228  1.00  0.00     0.029 A 
ATOM     51  N   UNL A   1      42.660  32.973  33.477  1.00  0.00    -0.354 N 
ATOM     52  N   UNL A   1      41.934  31.283  29.502  1.00  0.00    -0.248 NA
ATOM     53  C   UNL A   1      41.642  29.526  31.024  1.00  0.00     0.031 C 
ATOM     54  C   UNL A   1      42.186  34.998  32.803  1.00  0.00     0.029 A 
ATOM     55  C   UNL A   1      42.383  33.695  32.344  1.00  0.00     0.049 A 
ATOM     56  H   UNL A   1      43.151  32.120  33.509  1.00  0.00     0.167 HD
ATOM     57  C   UNL A   1      42.265  31.764  30.761  1.00  0.00     0.074 A 
ATOM     58  C   UNL A   1      42.080  30.619  31.664  1.00  0.00     0.031 C 
ATOM     59  C   UNL A   1      42.303  33.106  31.024  1.00  0.00     0.031 A 
BRANCH  46  60
ATOM     60  C   UNL A   1      42.109  31.723  36.286  1.00  0.00    -0.014 A 
ATOM     61  C   UNL A   1      42.949  32.102  37.344  1.00  0.00     0.009 A 
ATOM     62  C   UNL A   1      42.201  30.388  35.846  1.00  0.00     0.009 A 
ATOM     63  C   UNL A   1      43.886  31.213  37.878  1.00  0.00     0.001 A 
ATOM     64  C   UNL A   1      43.113  29.488  36.398  1.00  0.00     0.001 A 
ATOM     65  C   UNL A   1      43.976  29.910  37.398  1.00  0.00     0.000 A 
ENDBRANCH  46  60
BRANCH  47  66
ATOM     66  C   UNL A   1      39.861  28.412  28.472  1.00  0.00    -0.014 A 
ATOM     67  C   UNL A   1      40.447  28.023  27.248  1.00  0.00     0.009 A 
ATOM     68  C   UNL A   1      39.306  27.389  29.262  1.00  0.00     0.009 A 
ATOM     69  C   UNL A   1      40.484  26.670  26.850  1.00  0.00     0.001 A 
ATOM     70  C   UNL A   1      39.354  26.042  28.872  1.00  0.00     0.001 A 
ATOM     71  C   UNL A   1      39.950  25.680  27.669  1.00  0.00     0.000 A 
ENDBRANCH  47  66
BRANCH  59  72
ATOM     72  C   UNL A   1      42.097  34.066  29.871  1.00  0.00    -0.014 A 
ATOM     73  C   UNL A   1      40.853  34.624  29.511  1.00  0.00     0.009 A 
ATOM     74  C   UNL A   1      43.244  34.555  29.235  1.00  0.00     0.009 A 
ATOM     75  C   UNL A   1      40.767  35.613  28.518  1.00  0.00     0.001 A 
ATOM     76  C   UNL A   1      43.161  35.552  28.261  1.00  0.00     0.001 A 
ATOM     77  C   UNL A   1      41.925  36.075  27.894  1.00  0.00     0.000 A 
ENDBRANCH  59  72
ENDBRANCH  33  34
ENDBRANCH  26  28
ENDBRANCH  25  26
ENDBRANCH  24  25
ENDBRANCH  23  24
ENDBRANCH  22  23
ENDBRANCH  21  22
ENDBRANCH   1  21
TORSDOF 21
ENDMDL
MODEL 2
REMARK VINA RESULT:      -9.0      5.249     10.165
REMARK SMILES CC(C)n1cncc1[C@@H](O)[C@H](C)C(=O)OCCOCCOCCOC(=O)c1ccc(-c2c3nc(c(-c4ccccc4)c4ccc([nH]4)c(-c4ccccc4)c4nc(c(-c5ccccc5)c5ccc2[nH]5)C=C4)C=C3)cc1
REMARK SMILES IDX 19 1 18 2 17 3 16 4 15 5 13 6 14 7 11 8 12 9 9 10 8 11 4 12
REMARK SMILES IDX 5 13 6 14 7 15 2 16 1 17 3 18 10 19 20 21 21 22 22 23 23 24
REMARK SMILES IDX 24 25 25 26 26 27 27 28 28 29 74 30 29 31 73 32 30 33 31 34
REMARK SMILES IDX 32 35 67 36 33 37 72 38 66 39 68 40 34 41 71 42 65 43 64 44
REMARK SMILES IDX 35 46 57 47 42 48 56 49 43 50 46 51 55 52 69 53 44 54 45 55
REMARK SMILES IDX 54 57 70 58 47 59 36 60 37 61 41 62 38 63 40 64 39 65 58 66
REMARK SMILES IDX 59 67 63 68 60 69 62 70 61 71 48 72 49 73 53 74 50 75 52 76
REMARK SMILES IDX 51 77
REMARK H PARENT 10 20 68 45 46 56
REMARK Flexibility Score: inf
ROOT
ATOM      1  C   UNL A   1      38.444  23.474  26.516  1.00  0.00     0.188 C 
ENDROOT
BRANCH   1   2
ATOM      2  O   UNL A   1      37.140  23.091  26.138  1.00  0.00    -0.376 OA
BRANCH   2   3
ATOM      3  C   UNL A   1      36.539  23.759  25.043  1.00  0.00     0.202 C 
BRANCH   3   4
ATOM      4  C   UNL A   1      35.112  23.408  24.574  1.00  0.00     0.261 C 
BRANCH   4   5
ATOM      5  O   UNL A   1      34.231  24.515  24.306  1.00  0.00    -0.463 OA
BRANCH   5   6
ATOM      6  C   UNL A   1      33.085  24.568  25.027  1.00  0.00     0.311 C 
ATOM      7  O   UNL A   1      33.025  24.397  26.243  1.00  0.00    -0.252 OA
BRANCH   6   8
ATOM      8  C   UNL A   1      31.832  24.861  24.217  1.00  0.00     0.131 C 
ATOM      9  C   UNL A   1      31.165  23.733  23.428  1.00  0.00     0.023 C 
BRANCH   8  10
ATOM     10  C   UNL A   1      30.908  25.666  25.135  1.00  0.00     0.176 C 
BRANCH  10  11
ATOM     11  C   UNL A   1      30.768  27.083  24.709  1.00  0.00     0.067 A 
ATOM     12  N   UNL A   1      31.502  28.161  25.165  1.00  0.00    -0.330 N 
ATOM     13  C   UNL A   1      31.116  29.235  24.398  1.00  0.00     0.199 A 
ATOM     14  N   UNL A   1      30.223  28.917  23.493  1.00  0.00    -0.245 NA
ATOM     15  C   UNL A   1      29.996  27.590  23.675  1.00  0.00     0.137 A 
BRANCH  12  16
ATOM     16  C   UNL A   1      32.413  28.213  26.312  1.00  0.00     0.082 C 
ATOM     17  C   UNL A   1      33.906  28.226  25.957  1.00  0.00     0.031 C 
ATOM     18  C   UNL A   1      32.159  29.410  27.237  1.00  0.00     0.031 C 
ENDBRANCH  12  16
ENDBRANCH  10  11
BRANCH  10  19
ATOM     19  O   UNL A   1      29.591  25.127  25.121  1.00  0.00    -0.386 OA
ATOM     20  H   UNL A   1      29.637  24.158  25.133  1.00  0.00     0.211 HD
ENDBRANCH  10  19
ENDBRANCH   8  10
ENDBRANCH   6   8
ENDBRANCH   5   6
ENDBRANCH   4   5
ENDBRANCH   3   4
ENDBRANCH   2   3
ENDBRANCH   1   2
BRANCH   1  21
ATOM     21  C   UNL A   1      39.640  22.582  26.176  1.00  0.00     0.188 C 
BRANCH  21  22
ATOM     22  O   UNL A   1      40.103  21.541  26.998  1.00  0.00    -0.376 OA
BRANCH  22  23
ATOM     23  C   UNL A   1      40.565  20.281  26.529  1.00  0.00     0.202 C 
BRANCH  23  24
ATOM     24  C   UNL A   1      42.008  19.923  26.154  1.00  0.00     0.261 C 
BRANCH  24  25
ATOM     25  O   UNL A   1      42.723  20.914  25.462  1.00  0.00    -0.460 OA
BRANCH  25  26
ATOM     26  C   UNL A   1      44.032  20.643  25.299  1.00  0.00     0.338 C 
ATOM     27  O   UNL A   1      44.604  19.555  25.382  1.00  0.00    -0.246 OA
BRANCH  26  28
ATOM     28  C   UNL A   1      44.660  21.875  24.826  1.00  0.00     0.060 A 
ATOM     29  C   UNL A   1      45.915  22.197  25.330  1.00  0.00     0.016 A 
ATOM     30  C   UNL A   1      43.833  22.846  24.297  1.00  0.00     0.016 A 
ATOM     31  C   UNL A   1      45.957  23.381  26.011  1.00  0.00     0.010 A 
ATOM     32  C   UNL A   1      44.093  24.091  24.746  1.00  0.00     0.010 A 
ATOM     33  C   UNL A   1      44.835  24.188  25.907  1.00  0.00    -0.014 A 
BRANCH  33  34
ATOM     34  C   UNL A   1      44.581  25.305  26.783  1.00  0.00     0.031 A 
ATOM     35  C   UNL A   1      45.721  26.232  26.668  1.00  0.00     0.074 A 
ATOM     36  C   UNL A   1      43.441  25.477  27.500  1.00  0.00     0.049 A 
ATOM     37  N   UNL A   1      46.768  26.189  27.424  1.00  0.00    -0.248 NA
ATOM     38  C   UNL A   1      45.926  26.985  25.416  1.00  0.00     0.031 C 
ATOM     39  C   UNL A   1      42.204  24.685  27.616  1.00  0.00     0.029 A 
ATOM     40  N   UNL A   1      43.164  26.523  28.331  1.00  0.00    -0.354 N 
ATOM     41  C   UNL A   1      47.630  27.130  26.892  1.00  0.00     0.074 A 
ATOM     42  C   UNL A   1      47.207  27.337  25.536  1.00  0.00     0.031 C 
ATOM     43  C   UNL A   1      41.243  25.406  28.262  1.00  0.00     0.029 A 
ATOM     44  C   UNL A   1      41.830  26.642  28.742  1.00  0.00     0.049 A 
ATOM     45  H   UNL A   1      43.859  27.156  28.624  1.00  0.00     0.167 HD
ATOM     46  C   UNL A   1      48.350  27.929  27.721  1.00  0.00     0.031 A 
ATOM     47  C   UNL A   1      41.312  27.683  29.462  1.00  0.00     0.031 A 
ATOM     48  C   UNL A   1      48.328  27.413  29.069  1.00  0.00     0.049 A 
ATOM     49  C   UNL A   1      42.471  28.305  30.165  1.00  0.00     0.074 A 
ATOM     50  C   UNL A   1      48.786  26.259  29.673  1.00  0.00     0.029 A 
ATOM     51  N   UNL A   1      47.328  27.906  29.877  1.00  0.00    -0.354 N 
ATOM     52  N   UNL A   1      43.127  27.662  31.094  1.00  0.00    -0.248 NA
ATOM     53  C   UNL A   1      43.233  29.309  29.431  1.00  0.00     0.031 C 
ATOM     54  C   UNL A   1      47.739  25.870  30.562  1.00  0.00     0.029 A 
ATOM     55  C   UNL A   1      46.755  26.861  30.557  1.00  0.00     0.049 A 
ATOM     56  H   UNL A   1      47.067  28.852  29.954  1.00  0.00     0.167 HD
ATOM     57  C   UNL A   1      44.464  27.838  30.767  1.00  0.00     0.074 A 
ATOM     58  C   UNL A   1      44.468  28.888  29.738  1.00  0.00     0.031 C 
ATOM     59  C   UNL A   1      45.403  26.892  31.073  1.00  0.00     0.031 A 
BRANCH  46  60
ATOM     60  C   UNL A   1      48.595  29.388  27.437  1.00  0.00    -0.014 A 
ATOM     61  C   UNL A   1      49.851  29.751  26.927  1.00  0.00     0.009 A 
ATOM     62  C   UNL A   1      47.777  30.430  27.917  1.00  0.00     0.009 A 
ATOM     63  C   UNL A   1      50.293  31.077  26.968  1.00  0.00     0.001 A 
ATOM     64  C   UNL A   1      48.203  31.758  27.931  1.00  0.00     0.001 A 
ATOM     65  C   UNL A   1      49.474  32.078  27.480  1.00  0.00     0.000 A 
ENDBRANCH  46  60
BRANCH  47  66
ATOM     66  C   UNL A   1      40.050  28.443  29.216  1.00  0.00    -0.014 A 
ATOM     67  C   UNL A   1      39.698  28.937  27.942  1.00  0.00     0.009 A 
ATOM     68  C   UNL A   1      39.038  28.433  30.193  1.00  0.00     0.009 A 
ATOM     69  C   UNL A   1      38.389  29.382  27.664  1.00  0.00     0.001 A 
ATOM     70  C   UNL A   1      37.733  28.864  29.913  1.00  0.00     0.001 A 
ATOM     71  C   UNL A   1      37.404  29.332  28.646  1.00  0.00     0.000 A 
ENDBRANCH  47  66
BRANCH  59  72
ATOM     72  C   UNL A   1      44.969  25.694  31.893  1.00  0.00    -0.014 A 
ATOM     73  C   UNL A   1      44.460  24.497  31.350  1.00  0.00     0.009 A 
ATOM     74  C   UNL A   1      45.254  25.723  33.264  1.00  0.00     0.009 A 
ATOM     75  C   UNL A   1      44.211  23.383  32.167  1.00  0.00     0.001 A 
ATOM     76  C   UNL A   1      45.024  24.609  34.074  1.00  0.00     0.001 A 
ATOM     77  C   UNL A   1      44.495  23.443  33.530  1.00  0.00     0.000 A 
ENDBRANCH  59  72
ENDBRANCH  33  34
ENDBRANCH  26  28
ENDBRANCH  25  26
ENDBRANCH  24  25
ENDBRANCH  23  24
ENDBRANCH  22  23
ENDBRANCH  21  22
ENDBRANCH   1  21
TORSDOF 21
ENDMDL
MODEL 3
REMARK VINA RESULT:      -8.8      4.728      9.162
REMARK SMILES CC(C)n1cncc1[C@@H](O)[C@H](C)C(=O)OCCOCCOCCOC(=O)c1ccc(-c2c3nc(c(-c4ccccc4)c4ccc([nH]4)c(-c4ccccc4)c4nc(c(-c5ccccc5)c5ccc2[nH]5)C=C4)C=C3)cc1
REMARK SMILES IDX 19 1 18 2 17 3 16 4 15 5 13 6 14 7 11 8 12 9 9 10 8 11 4 12
REMARK SMILES IDX 5 13 6 14 7 15 2 16 1 17 3 18 10 19 20 21 21 22 22 23 23 24
REMARK SMILES IDX 24 25 25 26 26 27 27 28 28 29 74 30 29 31 73 32 30 33 31 34
REMARK SMILES IDX 32 35 67 36 33 37 72 38 66 39 68 40 34 41 71 42 65 43 64 44
REMARK SMILES IDX 35 46 57 47 42 48 56 49 43 50 46 51 55 52 69 53 44 54 45 55
REMARK SMILES IDX 54 57 70 58 47 59 36 60 37 61 41 62 38 63 40 64 39 65 58 66
REMARK SMILES IDX 59 67 63 68 60 69 62 70 61 71 48 72 49 73 53 74 50 75 52 76
REMARK SMILES IDX 51 77
REMARK H PARENT 10 20 68 45 46 56
REMARK Flexibility Score: inf
ROOT
ATOM      1  C   UNL A   1      47.376  27.894  24.864  1.00  0.00     0.188 C 
ENDROOT
BRANCH   1   2
ATOM      2  O   UNL A   1      46.420  28.930  24.913  1.00  0.00    -0.376 OA
BRANCH   2   3
ATOM      3  C   UNL A   1      45.867  29.268  26.173  1.00  0.00     0.202 C 
BRANCH   3   4
ATOM      4  C   UNL A   1      44.621  28.545  26.722  1.00  0.00     0.261 C 
BRANCH   4   5
ATOM      5  O   UNL A   1      43.996  27.584  25.850  1.00  0.00    -0.463 OA
BRANCH   5   6
ATOM      6  C   UNL A   1      42.687  27.784  25.562  1.00  0.00     0.311 C 
ATOM      7  O   UNL A   1      42.282  28.530  24.673  1.00  0.00    -0.252 OA
BRANCH   6   8
ATOM      8  C   UNL A   1      41.714  27.006  26.432  1.00  0.00     0.131 C 
ATOM      9  C   UNL A   1      40.402  27.662  26.866  1.00  0.00     0.023 C 
BRANCH   8  10
ATOM     10  C   UNL A   1      41.584  25.620  25.795  1.00  0.00     0.176 C 
BRANCH  10  11
ATOM     11  C   UNL A   1      42.292  24.564  26.566  1.00  0.00     0.067 A 
ATOM     12  N   UNL A   1      43.481  23.948  26.228  1.00  0.00    -0.330 N 
ATOM     13  C   UNL A   1      43.810  23.146  27.296  1.00  0.00     0.199 A 
ATOM     14  N   UNL A   1      42.943  23.225  28.275  1.00  0.00    -0.245 NA
ATOM     15  C   UNL A   1      41.997  24.096  27.838  1.00  0.00     0.137 A 
BRANCH  12  16
ATOM     16  C   UNL A   1      44.199  24.011  24.952  1.00  0.00     0.082 C 
ATOM     17  C   UNL A   1      45.630  24.561  25.037  1.00  0.00     0.031 C 
ATOM     18  C   UNL A   1      44.278  22.658  24.231  1.00  0.00     0.031 C 
ENDBRANCH  12  16
ENDBRANCH  10  11
BRANCH  10  19
ATOM     19  O   UNL A   1      40.221  25.213  25.746  1.00  0.00    -0.386 OA
ATOM     20  H   UNL A   1      39.756  25.719  25.061  1.00  0.00     0.211 HD
ENDBRANCH  10  19
ENDBRANCH   8  10
ENDBRANCH   6   8
ENDBRANCH   5   6
ENDBRANCH   4   5
ENDBRANCH   3   4
ENDBRANCH   2   3
ENDBRANCH   1   2
BRANCH   1  21
ATOM     21  C   UNL A   1      48.441  27.774  25.957  1.00  0.00     0.188 C 
BRANCH  21  22
ATOM     22  O   UNL A   1      48.522  26.703  26.861  1.00  0.00    -0.376 OA
BRANCH  22  23
ATOM     23  C   UNL A   1      47.513  26.354  27.800  1.00  0.00     0.202 C 
BRANCH  23  24
ATOM     24  C   UNL A   1      47.586  26.527  29.322  1.00  0.00     0.261 C 
BRANCH  24  25
ATOM     25  O   UNL A   1      46.362  26.449  30.005  1.00  0.00    -0.460 OA
BRANCH  25  26
ATOM     26  C   UNL A   1      45.792  27.642  30.260  1.00  0.00     0.338 C 
ATOM     27  O   UNL A   1      46.204  28.765  29.968  1.00  0.00    -0.246 OA
BRANCH  26  28
ATOM     28  C   UNL A   1      44.471  27.364  30.820  1.00  0.00     0.060 A 
ATOM     29  C   UNL A   1      43.526  26.774  29.987  1.00  0.00     0.016 A 
ATOM     30  C   UNL A   1      44.088  28.085  31.933  1.00  0.00     0.016 A 
ATOM     31  C   UNL A   1      42.404  27.528  29.791  1.00  0.00     0.010 A 
ATOM     32  C   UNL A   1      42.833  28.573  31.866  1.00  0.00     0.010 A 
ATOM     33  C   UNL A   1      42.260  28.637  30.610  1.00  0.00    -0.014 A 
BRANCH  33  34
ATOM     34  C   UNL A   1      41.319  29.697  30.346  1.00  0.00     0.031 A 
ATOM     35  C   UNL A   1      42.088  30.888  29.943  1.00  0.00     0.074 A 
ATOM     36  C   UNL A   1      39.969  29.556  30.385  1.00  0.00     0.049 A 
ATOM     37  N   UNL A   1      42.506  31.792  30.766  1.00  0.00    -0.248 NA
ATOM     38  C   UNL A   1      42.792  30.898  28.647  1.00  0.00     0.031 C 
ATOM     39  C   UNL A   1      39.092  28.406  30.667  1.00  0.00     0.029 A 
ATOM     40  N   UNL A   1      39.051  30.533  30.133  1.00  0.00    -0.354 N 
ATOM     41  C   UNL A   1      43.287  32.638  30.000  1.00  0.00     0.074 A 
ATOM     42  C   UNL A   1      43.668  31.886  28.839  1.00  0.00     0.031 C 
ATOM     43  C   UNL A   1      37.805  28.703  30.328  1.00  0.00     0.029 A 
ATOM     44  C   UNL A   1      37.731  30.101  29.952  1.00  0.00     0.049 A 
ATOM     45  H   UNL A   1      39.301  31.485  30.081  1.00  0.00     0.167 HD
ATOM     46  C   UNL A   1      43.217  33.981  30.195  1.00  0.00     0.031 A 
ATOM     47  C   UNL A   1      36.684  30.891  29.563  1.00  0.00     0.031 A 
ATOM     48  C   UNL A   1      42.553  34.278  31.443  1.00  0.00     0.049 A 
ATOM     49  C   UNL A   1      37.075  32.285  29.920  1.00  0.00     0.074 A 
ATOM     50  C   UNL A   1      42.831  34.030  32.772  1.00  0.00     0.029 A 
ATOM     51  N   UNL A   1      41.193  34.477  31.358  1.00  0.00    -0.354 N 
ATOM     52  N   UNL A   1      37.216  32.653  31.166  1.00  0.00    -0.248 NA
ATOM     53  C   UNL A   1      37.876  33.022  28.948  1.00  0.00     0.031 C 
ATOM     54  C   UNL A   1      41.582  33.639  33.340  1.00  0.00     0.029 A 
ATOM     55  C   UNL A   1      40.583  33.788  32.376  1.00  0.00     0.049 A 
ATOM     56  H   UNL A   1      40.736  35.023  30.679  1.00  0.00     0.167 HD
ATOM     57  C   UNL A   1      38.426  33.331  31.199  1.00  0.00     0.074 A 
ATOM     58  C   UNL A   1      38.778  33.547  29.788  1.00  0.00     0.031 C 
ATOM     59  C   UNL A   1      39.209  33.337  32.320  1.00  0.00     0.031 A 
BRANCH  46  60
ATOM     60  C   UNL A   1      43.253  34.972  29.063  1.00  0.00    -0.014 A 
ATOM     61  C   UNL A   1      42.039  35.556  28.668  1.00  0.00     0.009 A 
ATOM     62  C   UNL A   1      44.349  35.130  28.192  1.00  0.00     0.009 A 
ATOM     63  C   UNL A   1      41.912  36.194  27.431  1.00  0.00     0.001 A 
ATOM     64  C   UNL A   1      44.234  35.794  26.970  1.00  0.00     0.001 A 
ATOM     65  C   UNL A   1      43.005  36.303  26.578  1.00  0.00     0.000 A 
ENDBRANCH  46  60
BRANCH  47  66
ATOM     66  C   UNL A   1      35.651  30.614  28.520  1.00  0.00    -0.014 A 
ATOM     67  C   UNL A   1      35.503  29.347  27.918  1.00  0.00     0.009 A 
ATOM     68  C   UNL A   1      34.606  31.535  28.324  1.00  0.00     0.009 A 
ATOM     69  C   UNL A   1      34.352  29.021  27.169  1.00  0.00     0.001 A 
ATOM     70  C   UNL A   1      33.457  31.207  27.590  1.00  0.00     0.001 A 
ATOM     71  C   UNL A   1      33.325  29.947  27.018  1.00  0.00     0.000 A 
ENDBRANCH  47  66
BRANCH  59  72
ATOM     72  C   UNL A   1      38.664  32.687  33.575  1.00  0.00    -0.014 A 
ATOM     73  C   UNL A   1      38.804  31.320  33.891  1.00  0.00     0.009 A 
ATOM     74  C   UNL A   1      38.137  33.536  34.556  1.00  0.00     0.009 A 
ATOM     75  C   UNL A   1      38.392  30.823  35.138  1.00  0.00     0.001 A 
ATOM     76  C   UNL A   1      37.745  33.045  35.803  1.00  0.00     0.001 A 
ATOM     77  C   UNL A   1      37.863  31.689  36.092  1.00  0.00     0.000 A 
ENDBRANCH  59  72
ENDBRANCH  33  34
ENDBRANCH  26  28
ENDBRANCH  25  26
ENDBRANCH  24  25
ENDBRANCH  23  24
ENDBRANCH  22  23
ENDBRANCH  21  22
ENDBRANCH   1  21
TORSDOF 21
ENDMDL
