MODEL 1
REMARK VINA RESULT:      -9.4      0.000      0.000
REMARK SMILES O=C(COc1ccccc1/C=C1/SC(=O)N(c2ccc(F)cc2)C1=O)OCCOCCOCCOC(=O)c1ccc(-c2c3nc(c(-c4ccccc4)c4ccc([nH]4)c(-c4ccccc4)c4nc(c(-c5ccccc5)c5ccc2[nH]5)C=C4)C=C3)cc1
REMARK SMILES IDX 30 1 29 2 28 3 27 4 26 5 2 6 1 7 3 8 4 9 5 10 6 11 10 12
REMARK SMILES IDX 7 13 9 14 8 15 11 16 12 17 13 18 24 19 14 20 16 21 25 22
REMARK SMILES IDX 15 23 17 24 18 25 23 26 19 27 22 28 20 29 21 30 31 31 32 32
REMARK SMILES IDX 33 33 34 34 35 35 36 36 37 37 38 38 39 39 85 40 40 41 84 42
REMARK SMILES IDX 41 43 42 44 43 45 78 46 44 47 83 48 77 49 79 50 45 51 82 52
REMARK SMILES IDX 76 53 75 54 46 56 68 57 53 58 67 59 54 60 57 61 66 62 80 63
REMARK SMILES IDX 55 64 56 65 65 67 81 68 58 69 47 70 48 71 52 72 49 73 51 74
REMARK SMILES IDX 50 75 69 76 70 77 74 78 71 79 73 80 72 81 59 82 60 83 64 84
REMARK SMILES IDX 61 85 63 86 62 87
REMARK H PARENT 79 55 57 66
REMARK Flexibility Score: inf
ROOT
ATOM      1  C   UNL A   1      29.819  29.831  23.550  1.00  0.00     0.188 C 
ENDROOT
BRANCH   1   2
ATOM      2  O   UNL A   1      30.128  28.549  24.077  1.00  0.00    -0.376 OA
BRANCH   2   3
ATOM      3  C   UNL A   1      30.035  27.439  23.195  1.00  0.00     0.202 C 
BRANCH   3   4
ATOM      4  C   UNL A   1      29.301  26.251  23.792  1.00  0.00     0.261 C 
BRANCH   4   5
ATOM      5  O   UNL A   1      30.281  25.340  24.352  1.00  0.00    -0.461 OA
BRANCH   5   6
ATOM      6  C   UNL A   1      30.297  25.007  25.671  1.00  0.00     0.344 C 
ATOM      7  O   UNL A   1      29.868  25.781  26.524  1.00  0.00    -0.248 OA
BRANCH   6   8
ATOM      8  C   UNL A   1      30.837  23.652  26.030  1.00  0.00     0.351 C 
BRANCH   8   9
ATOM      9  O   UNL A   1      30.854  22.839  24.864  1.00  0.00    -0.481 OA
BRANCH   9  10
ATOM     10  C   UNL A   1      32.010  22.134  24.716  1.00  0.00     0.127 A 
ATOM     11  C   UNL A   1      32.097  21.032  25.573  1.00  0.00     0.047 A 
ATOM     12  C   UNL A   1      33.062  22.466  23.843  1.00  0.00     0.018 A 
ATOM     13  C   UNL A   1      33.212  20.208  25.537  1.00  0.00     0.004 A 
ATOM     14  C   UNL A   1      34.176  21.616  23.820  1.00  0.00     0.012 A 
ATOM     15  C   UNL A   1      34.249  20.497  24.657  1.00  0.00     0.001 A 
BRANCH  12  16
ATOM     16  C   UNL A   1      33.091  23.584  22.880  1.00  0.00     0.033 C 
ATOM     17  C   UNL A   1      33.409  24.875  23.075  1.00  0.00     0.084 C 
ATOM     18  S   UNL A   1      33.294  26.050  21.816  1.00  0.00    -0.022 SA
ATOM     19  C   UNL A   1      33.766  25.552  24.354  1.00  0.00     0.272 C 
ATOM     20  C   UNL A   1      33.382  27.395  22.943  1.00  0.00     0.298 C 
ATOM     21  N   UNL A   1      33.626  26.933  24.222  1.00  0.00    -0.236 N 
ATOM     22  O   UNL A   1      34.067  24.921  25.359  1.00  0.00    -0.268 OA
ATOM     23  O   UNL A   1      33.304  28.548  22.547  1.00  0.00    -0.260 OA
BRANCH  21  24
ATOM     24  C   UNL A   1      33.677  27.813  25.353  1.00  0.00     0.053 A 
ATOM     25  C   UNL A   1      32.636  27.853  26.295  1.00  0.00     0.030 A 
ATOM     26  C   UNL A   1      34.735  28.730  25.510  1.00  0.00     0.030 A 
ATOM     27  C   UNL A   1      32.621  28.802  27.323  1.00  0.00     0.041 A 
ATOM     28  C   UNL A   1      34.707  29.700  26.520  1.00  0.00     0.041 A 
ATOM     29  C   UNL A   1      33.645  29.731  27.412  1.00  0.00     0.123 A 
ATOM     30  F   UNL A   1      33.605  30.673  28.363  1.00  0.00    -0.207 F 
ENDBRANCH  21  24
ENDBRANCH  12  16
ENDBRANCH   9  10
ENDBRANCH   8   9
ENDBRANCH   6   8
ENDBRANCH   5   6
ENDBRANCH   4   5
ENDBRANCH   3   4
ENDBRANCH   2   3
ENDBRANCH   1   2
BRANCH   1  31
ATOM     31  C   UNL A   1      29.964  31.087  24.441  1.00  0.00     0.188 C 
BRANCH  31  32
ATOM     32  O   UNL A   1      31.040  31.161  25.362  1.00  0.00    -0.376 OA
BRANCH  32  33
ATOM     33  C   UNL A   1      30.912  32.021  26.486  1.00  0.00     0.202 C 
BRANCH  33  34
ATOM     34  C   UNL A   1      32.046  33.023  26.740  1.00  0.00     0.261 C 
BRANCH  34  35
ATOM     35  O   UNL A   1      32.003  33.555  28.076  1.00  0.00    -0.460 OA
BRANCH  35  36
ATOM     36  C   UNL A   1      32.904  34.543  28.360  1.00  0.00     0.338 C 
ATOM     37  O   UNL A   1      32.682  35.726  28.447  1.00  0.00    -0.246 OA
BRANCH  36  38
ATOM     38  C   UNL A   1      34.181  33.918  28.791  1.00  0.00     0.060 A 
ATOM     39  C   UNL A   1      34.186  33.201  29.998  1.00  0.00     0.016 A 
ATOM     40  C   UNL A   1      35.333  33.962  28.003  1.00  0.00     0.016 A 
ATOM     41  C   UNL A   1      35.346  32.547  30.431  1.00  0.00     0.010 A 
ATOM     42  C   UNL A   1      36.501  33.328  28.448  1.00  0.00     0.010 A 
ATOM     43  C   UNL A   1      36.521  32.640  29.675  1.00  0.00    -0.014 A 
BRANCH  43  44
ATOM     44  C   UNL A   1      37.825  32.216  30.252  1.00  0.00     0.031 A 
ATOM     45  C   UNL A   1      38.442  30.944  29.734  1.00  0.00     0.074 A 
ATOM     46  C   UNL A   1      38.440  32.904  31.232  1.00  0.00     0.049 A 
ATOM     47  N   UNL A   1      39.499  30.301  30.157  1.00  0.00    -0.248 NA
ATOM     48  C   UNL A   1      37.768  30.310  28.588  1.00  0.00     0.031 C 
ATOM     49  C   UNL A   1      37.991  34.174  31.796  1.00  0.00     0.029 A 
ATOM     50  N   UNL A   1      39.579  32.605  31.944  1.00  0.00    -0.354 N 
ATOM     51  C   UNL A   1      39.609  29.183  29.339  1.00  0.00     0.074 A 
ATOM     52  C   UNL A   1      38.510  29.229  28.402  1.00  0.00     0.031 C 
ATOM     53  C   UNL A   1      38.829  34.531  32.788  1.00  0.00     0.029 A 
ATOM     54  C   UNL A   1      39.850  33.496  32.954  1.00  0.00     0.049 A 
ATOM     55  H   UNL A   1      40.147  31.825  31.747  1.00  0.00     0.167 HD
ATOM     56  C   UNL A   1      40.536  28.199  29.369  1.00  0.00     0.031 A 
ATOM     57  C   UNL A   1      40.787  33.459  33.925  1.00  0.00     0.031 A 
ATOM     58  C   UNL A   1      41.623  28.130  30.305  1.00  0.00     0.049 A 
ATOM     59  C   UNL A   1      41.746  32.294  33.998  1.00  0.00     0.074 A 
ATOM     60  C   UNL A   1      42.627  27.182  30.386  1.00  0.00     0.029 A 
ATOM     61  N   UNL A   1      41.837  29.033  31.331  1.00  0.00    -0.354 N 
ATOM     62  N   UNL A   1      41.867  31.269  33.192  1.00  0.00    -0.248 NA
ATOM     63  C   UNL A   1      42.692  32.281  35.126  1.00  0.00     0.031 C 
ATOM     64  C   UNL A   1      43.414  27.476  31.503  1.00  0.00     0.029 A 
ATOM     65  C   UNL A   1      42.931  28.639  32.080  1.00  0.00     0.049 A 
ATOM     66  H   UNL A   1      41.292  29.835  31.502  1.00  0.00     0.167 HD
ATOM     67  C   UNL A   1      42.912  30.504  33.702  1.00  0.00     0.074 A 
ATOM     68  C   UNL A   1      43.405  31.192  34.874  1.00  0.00     0.031 C 
ATOM     69  C   UNL A   1      43.414  29.332  33.243  1.00  0.00     0.031 A 
BRANCH  56  70
ATOM     70  C   UNL A   1      40.390  27.080  28.381  1.00  0.00    -0.014 A 
ATOM     71  C   UNL A   1      39.640  25.934  28.683  1.00  0.00     0.009 A 
ATOM     72  C   UNL A   1      40.966  27.205  27.107  1.00  0.00     0.009 A 
ATOM     73  C   UNL A   1      39.483  24.925  27.732  1.00  0.00     0.001 A 
ATOM     74  C   UNL A   1      40.789  26.204  26.151  1.00  0.00     0.001 A 
ATOM     75  C   UNL A   1      40.052  25.064  26.466  1.00  0.00     0.000 A 
ENDBRANCH  56  70
BRANCH  57  76
ATOM     76  C   UNL A   1      40.838  34.516  34.972  1.00  0.00    -0.014 A 
ATOM     77  C   UNL A   1      41.709  35.609  34.849  1.00  0.00     0.009 A 
ATOM     78  C   UNL A   1      40.074  34.390  36.143  1.00  0.00     0.009 A 
ATOM     79  C   UNL A   1      41.842  36.533  35.891  1.00  0.00     0.001 A 
ATOM     80  C   UNL A   1      40.185  35.330  37.170  1.00  0.00     0.001 A 
ATOM     81  C   UNL A   1      41.079  36.393  37.049  1.00  0.00     0.000 A 
ENDBRANCH  57  76
BRANCH  69  82
ATOM     82  C   UNL A   1      44.569  28.725  33.990  1.00  0.00    -0.014 A 
ATOM     83  C   UNL A   1      45.892  29.094  33.704  1.00  0.00     0.009 A 
ATOM     84  C   UNL A   1      44.325  27.824  35.040  1.00  0.00     0.009 A 
ATOM     85  C   UNL A   1      46.950  28.553  34.439  1.00  0.00     0.001 A 
ATOM     86  C   UNL A   1      45.383  27.307  35.790  1.00  0.00     0.001 A 
ATOM     87  C   UNL A   1      46.695  27.667  35.484  1.00  0.00     0.000 A 
ENDBRANCH  69  82
ENDBRANCH  43  44
ENDBRANCH  36  38
ENDBRANCH  35  36
ENDBRANCH  34  35
ENDBRANCH  33  34
ENDBRANCH  32  33
ENDBRANCH  31  32
ENDBRANCH   1  31
TORSDOF 21
ENDMDL
MODEL 2
REMARK VINA RESULT:      -9.3      1.789      3.835
REMARK SMILES O=C(COc1ccccc1/C=C1/SC(=O)N(c2ccc(F)cc2)C1=O)OCCOCCOCCOC(=O)c1ccc(-c2c3nc(c(-c4ccccc4)c4ccc([nH]4)c(-c4ccccc4)c4nc(c(-c5ccccc5)c5ccc2[nH]5)C=C4)C=C3)cc1
REMARK SMILES IDX 30 1 29 2 28 3 27 4 26 5 2 6 1 7 3 8 4 9 5 10 6 11 10 12
REMARK SMILES IDX 7 13 9 14 8 15 11 16 12 17 13 18 24 19 14 20 16 21 25 22
REMARK SMILES IDX 15 23 17 24 18 25 23 26 19 27 22 28 20 29 21 30 31 31 32 32
REMARK SMILES IDX 33 33 34 34 35 35 36 36 37 37 38 38 39 39 85 40 40 41 84 42
REMARK SMILES IDX 41 43 42 44 43 45 78 46 44 47 83 48 77 49 79 50 45 51 82 52
REMARK SMILES IDX 76 53 75 54 46 56 68 57 53 58 67 59 54 60 57 61 66 62 80 63
REMARK SMILES IDX 55 64 56 65 65 67 81 68 58 69 47 70 48 71 52 72 49 73 51 74
REMARK SMILES IDX 50 75 69 76 70 77 74 78 71 79 73 80 72 81 59 82 60 83 64 84
REMARK SMILES IDX 61 85 63 86 62 87
REMARK H PARENT 79 55 57 66
REMARK Flexibility Score: inf
ROOT
ATOM      1  C   UNL A   1      29.261  30.372  23.196  1.00  0.00     0.188 C 
ENDROOT
BRANCH   1   2
ATOM      2  O   UNL A   1      29.664  29.013  23.288  1.00  0.00    -0.376 OA
BRANCH   2   3
ATOM      3  C   UNL A   1      30.067  28.368  22.088  1.00  0.00     0.202 C 
BRANCH   3   4
ATOM      4  C   UNL A   1      30.840  27.082  22.324  1.00  0.00     0.261 C 
BRANCH   4   5
ATOM      5  O   UNL A   1      32.169  27.235  21.767  1.00  0.00    -0.461 OA
BRANCH   5   6
ATOM      6  C   UNL A   1      33.275  26.707  22.359  1.00  0.00     0.344 C 
ATOM      7  O   UNL A   1      33.680  25.588  22.055  1.00  0.00    -0.248 OA
BRANCH   6   8
ATOM      8  C   UNL A   1      33.983  27.559  23.373  1.00  0.00     0.351 C 
BRANCH   8   9
ATOM      9  O   UNL A   1      33.083  28.549  23.853  1.00  0.00    -0.481 OA
BRANCH   9  10
ATOM     10  C   UNL A   1      33.108  28.688  25.208  1.00  0.00     0.127 A 
ATOM     11  C   UNL A   1      33.905  29.754  25.638  1.00  0.00     0.047 A 
ATOM     12  C   UNL A   1      32.459  27.843  26.128  1.00  0.00     0.018 A 
ATOM     13  C   UNL A   1      34.027  30.032  26.991  1.00  0.00     0.004 A 
ATOM     14  C   UNL A   1      32.593  28.147  27.489  1.00  0.00     0.012 A 
ATOM     15  C   UNL A   1      33.366  29.232  27.916  1.00  0.00     0.001 A 
BRANCH  12  16
ATOM     16  C   UNL A   1      31.580  26.701  25.810  1.00  0.00     0.033 C 
ATOM     17  C   UNL A   1      31.882  25.398  25.678  1.00  0.00     0.084 C 
ATOM     18  S   UNL A   1      30.705  24.225  25.213  1.00  0.00    -0.022 SA
ATOM     19  C   UNL A   1      33.222  24.750  25.761  1.00  0.00     0.272 C 
ATOM     20  C   UNL A   1      31.927  23.024  24.825  1.00  0.00     0.298 C 
ATOM     21  N   UNL A   1      33.181  23.485  25.176  1.00  0.00    -0.236 N 
ATOM     22  O   UNL A   1      34.194  25.330  26.229  1.00  0.00    -0.268 OA
ATOM     23  O   UNL A   1      31.610  21.931  24.380  1.00  0.00    -0.260 OA
BRANCH  21  24
ATOM     24  C   UNL A   1      34.372  22.734  24.906  1.00  0.00     0.053 A 
ATOM     25  C   UNL A   1      34.743  21.641  25.706  1.00  0.00     0.030 A 
ATOM     26  C   UNL A   1      35.256  23.121  23.880  1.00  0.00     0.030 A 
ATOM     27  C   UNL A   1      35.969  20.991  25.527  1.00  0.00     0.041 A 
ATOM     28  C   UNL A   1      36.496  22.491  23.719  1.00  0.00     0.041 A 
ATOM     29  C   UNL A   1      36.844  21.437  24.550  1.00  0.00     0.123 A 
ATOM     30  F   UNL A   1      38.039  20.850  24.412  1.00  0.00    -0.207 F 
ENDBRANCH  21  24
ENDBRANCH  12  16
ENDBRANCH   9  10
ENDBRANCH   8   9
ENDBRANCH   6   8
ENDBRANCH   5   6
ENDBRANCH   4   5
ENDBRANCH   3   4
ENDBRANCH   2   3
ENDBRANCH   1   2
BRANCH   1  31
ATOM     31  C   UNL A   1      29.528  31.338  24.375  1.00  0.00     0.188 C 
BRANCH  31  32
ATOM     32  O   UNL A   1      30.785  31.298  25.030  1.00  0.00    -0.376 OA
BRANCH  32  33
ATOM     33  C   UNL A   1      30.875  31.805  26.354  1.00  0.00     0.202 C 
BRANCH  33  34
ATOM     34  C   UNL A   1      31.857  32.958  26.602  1.00  0.00     0.261 C 
BRANCH  34  35
ATOM     35  O   UNL A   1      32.041  33.214  28.006  1.00  0.00    -0.460 OA
BRANCH  35  36
ATOM     36  C   UNL A   1      32.901  34.227  28.326  1.00  0.00     0.338 C 
ATOM     37  O   UNL A   1      32.623  35.388  28.505  1.00  0.00    -0.246 OA
BRANCH  36  38
ATOM     38  C   UNL A   1      34.225  33.644  28.664  1.00  0.00     0.060 A 
ATOM     39  C   UNL A   1      34.278  32.691  29.694  1.00  0.00     0.016 A 
ATOM     40  C   UNL A   1      35.381  33.958  27.945  1.00  0.00     0.016 A 
ATOM     41  C   UNL A   1      35.489  32.069  30.024  1.00  0.00     0.010 A 
ATOM     42  C   UNL A   1      36.597  33.353  28.292  1.00  0.00     0.010 A 
ATOM     43  C   UNL A   1      36.663  32.426  29.348  1.00  0.00    -0.014 A 
BRANCH  43  44
ATOM     44  C   UNL A   1      37.991  32.009  29.871  1.00  0.00     0.031 A 
ATOM     45  C   UNL A   1      38.566  30.710  29.374  1.00  0.00     0.074 A 
ATOM     46  C   UNL A   1      38.665  32.729  30.788  1.00  0.00     0.049 A 
ATOM     47  N   UNL A   1      39.638  30.072  29.766  1.00  0.00    -0.248 NA
ATOM     48  C   UNL A   1      37.825  30.038  28.292  1.00  0.00     0.031 C 
ATOM     49  C   UNL A   1      38.259  34.027  31.322  1.00  0.00     0.029 A 
ATOM     50  N   UNL A   1      39.837  32.445  31.450  1.00  0.00    -0.354 N 
ATOM     51  C   UNL A   1      39.692  28.921  28.990  1.00  0.00     0.074 A 
ATOM     52  C   UNL A   1      38.545  28.942  28.111  1.00  0.00     0.031 C 
ATOM     53  C   UNL A   1      39.153  34.414  32.253  1.00  0.00     0.029 A 
ATOM     54  C   UNL A   1      40.171  33.374  32.406  1.00  0.00     0.049 A 
ATOM     55  H   UNL A   1      40.386  31.651  31.254  1.00  0.00     0.167 HD
ATOM     56  C   UNL A   1      40.610  27.927  29.011  1.00  0.00     0.031 A 
ATOM     57  C   UNL A   1      41.159  33.364  33.326  1.00  0.00     0.031 A 
ATOM     58  C   UNL A   1      41.745  27.883  29.889  1.00  0.00     0.049 A 
ATOM     59  C   UNL A   1      42.109  32.191  33.396  1.00  0.00     0.074 A 
ATOM     60  C   UNL A   1      42.743  26.926  29.956  1.00  0.00     0.029 A 
ATOM     61  N   UNL A   1      42.023  28.824  30.865  1.00  0.00    -0.354 N 
ATOM     62  N   UNL A   1      42.176  31.133  32.627  1.00  0.00    -0.248 NA
ATOM     63  C   UNL A   1      43.114  32.213  34.472  1.00  0.00     0.031 C 
ATOM     64  C   UNL A   1      43.591  27.256  31.017  1.00  0.00     0.029 A 
ATOM     65  C   UNL A   1      43.152  28.447  31.570  1.00  0.00     0.049 A 
ATOM     66  H   UNL A   1      41.496  29.639  31.032  1.00  0.00     0.167 HD
ATOM     67  C   UNL A   1      43.239  30.376  33.112  1.00  0.00     0.074 A 
ATOM     68  C   UNL A   1      43.801  31.106  34.227  1.00  0.00     0.031 C 
ATOM     69  C   UNL A   1      43.704  29.181  32.676  1.00  0.00     0.031 A 
BRANCH  56  70
ATOM     70  C   UNL A   1      40.400  26.771  28.079  1.00  0.00    -0.014 A 
ATOM     71  C   UNL A   1      40.982  26.748  26.803  1.00  0.00     0.009 A 
ATOM     72  C   UNL A   1      39.654  25.663  28.511  1.00  0.00     0.009 A 
ATOM     73  C   UNL A   1      40.806  25.642  25.970  1.00  0.00     0.001 A 
ATOM     74  C   UNL A   1      39.499  24.550  27.685  1.00  0.00     0.001 A 
ATOM     75  C   UNL A   1      40.071  24.542  26.414  1.00  0.00     0.000 A 
ENDBRANCH  56  70
BRANCH  57  76
ATOM     76  C   UNL A   1      41.277  34.463  34.324  1.00  0.00    -0.014 A 
ATOM     77  C   UNL A   1      40.599  34.395  35.552  1.00  0.00     0.009 A 
ATOM     78  C   UNL A   1      42.002  35.625  34.016  1.00  0.00     0.009 A 
ATOM     79  C   UNL A   1      40.615  35.482  36.432  1.00  0.00     0.001 A 
ATOM     80  C   UNL A   1      42.042  36.697  34.910  1.00  0.00     0.001 A 
ATOM     81  C   UNL A   1      41.337  36.630  36.111  1.00  0.00     0.000 A 
ENDBRANCH  57  76
BRANCH  69  82
ATOM     82  C   UNL A   1      44.891  28.591  33.385  1.00  0.00    -0.014 A 
ATOM     83  C   UNL A   1      44.730  27.785  34.521  1.00  0.00     0.009 A 
ATOM     84  C   UNL A   1      46.182  28.790  32.868  1.00  0.00     0.009 A 
ATOM     85  C   UNL A   1      45.842  27.208  35.140  1.00  0.00     0.001 A 
ATOM     86  C   UNL A   1      47.288  28.190  33.472  1.00  0.00     0.001 A 
ATOM     87  C   UNL A   1      47.117  27.404  34.612  1.00  0.00     0.000 A 
ENDBRANCH  69  82
ENDBRANCH  43  44
ENDBRANCH  36  38
ENDBRANCH  35  36
ENDBRANCH  34  35
ENDBRANCH  33  34
ENDBRANCH  32  33
ENDBRANCH  31  32
ENDBRANCH   1  31
TORSDOF 21
ENDMDL
MODEL 3
REMARK VINA RESULT:      -9.0      4.103      8.320
REMARK SMILES O=C(COc1ccccc1/C=C1/SC(=O)N(c2ccc(F)cc2)C1=O)OCCOCCOCCOC(=O)c1ccc(-c2c3nc(c(-c4ccccc4)c4ccc([nH]4)c(-c4ccccc4)c4nc(c(-c5ccccc5)c5ccc2[nH]5)C=C4)C=C3)cc1
REMARK SMILES IDX 30 1 29 2 28 3 27 4 26 5 2 6 1 7 3 8 4 9 5 10 6 11 10 12
REMARK SMILES IDX 7 13 9 14 8 15 11 16 12 17 13 18 24 19 14 20 16 21 25 22
REMARK SMILES IDX 15 23 17 24 18 25 23 26 19 27 22 28 20 29 21 30 31 31 32 32
REMARK SMILES IDX 33 33 34 34 35 35 36 36 37 37 38 38 39 39 85 40 40 41 84 42
REMARK SMILES IDX 41 43 42 44 43 45 78 46 44 47 83 48 77 49 79 50 45 51 82 52
REMARK SMILES IDX 76 53 75 54 46 56 68 57 53 58 67 59 54 60 57 61 66 62 80 63
REMARK SMILES IDX 55 64 56 65 65 67 81 68 58 69 47 70 48 71 52 72 49 73 51 74
REMARK SMILES IDX 50 75 69 76 70 77 74 78 71 79 73 80 72 81 59 82 60 83 64 84
REMARK SMILES IDX 61 85 63 86 62 87
REMARK H PARENT 79 55 57 66
REMARK Flexibility Score: inf
ROOT
ATOM      1  C   UNL A   1      35.400  32.483  27.956  1.00  0.00     0.188 C 
ENDROOT
BRANCH   1   2
ATOM      2  O   UNL A   1      36.178  31.309  28.140  1.00  0.00    -0.376 OA
BRANCH   2   3
ATOM      3  C   UNL A   1      35.482  30.081  28.305  1.00  0.00     0.202 C 
BRANCH   3   4
ATOM      4  C   UNL A   1      34.836  29.575  27.027  1.00  0.00     0.261 C 
BRANCH   4   5
ATOM      5  O   UNL A   1      33.437  29.306  27.294  1.00  0.00    -0.461 OA
BRANCH   5   6
ATOM      6  C   UNL A   1      32.432  30.004  26.696  1.00  0.00     0.344 C 
ATOM      7  O   UNL A   1      32.298  31.210  26.891  1.00  0.00    -0.248 OA
BRANCH   6   8
ATOM      8  C   UNL A   1      31.521  29.242  25.778  1.00  0.00     0.351 C 
BRANCH   8   9
ATOM      9  O   UNL A   1      31.651  29.764  24.462  1.00  0.00    -0.481 OA
BRANCH   9  10
ATOM     10  C   UNL A   1      30.459  29.901  23.816  1.00  0.00     0.127 A 
ATOM     11  C   UNL A   1      29.610  30.833  24.421  1.00  0.00     0.047 A 
ATOM     12  C   UNL A   1      30.054  29.169  22.685  1.00  0.00     0.018 A 
ATOM     13  C   UNL A   1      28.360  31.093  23.877  1.00  0.00     0.004 A 
ATOM     14  C   UNL A   1      28.790  29.452  22.150  1.00  0.00     0.012 A 
ATOM     15  C   UNL A   1      27.953  30.406  22.739  1.00  0.00     0.001 A 
BRANCH  12  16
ATOM     16  C   UNL A   1      30.854  28.175  21.943  1.00  0.00     0.033 C 
ATOM     17  C   UNL A   1      31.220  26.932  22.299  1.00  0.00     0.084 C 
ATOM     18  S   UNL A   1      32.242  25.956  21.308  1.00  0.00    -0.022 SA
ATOM     19  C   UNL A   1      30.962  26.229  23.588  1.00  0.00     0.272 C 
ATOM     20  C   UNL A   1      32.589  24.835  22.616  1.00  0.00     0.298 C 
ATOM     21  N   UNL A   1      31.829  25.147  23.727  1.00  0.00    -0.236 N 
ATOM     22  O   UNL A   1      30.136  26.638  24.394  1.00  0.00    -0.268 OA
ATOM     23  O   UNL A   1      33.353  23.897  22.449  1.00  0.00    -0.260 OA
BRANCH  21  24
ATOM     24  C   UNL A   1      31.964  24.436  24.965  1.00  0.00     0.053 A 
ATOM     25  C   UNL A   1      33.094  24.600  25.783  1.00  0.00     0.030 A 
ATOM     26  C   UNL A   1      31.006  23.482  25.361  1.00  0.00     0.030 A 
ATOM     27  C   UNL A   1      33.289  23.811  26.921  1.00  0.00     0.041 A 
ATOM     28  C   UNL A   1      31.214  22.671  26.483  1.00  0.00     0.041 A 
ATOM     29  C   UNL A   1      32.358  22.838  27.248  1.00  0.00     0.123 A 
ATOM     30  F   UNL A   1      32.570  22.046  28.306  1.00  0.00    -0.207 F 
ENDBRANCH  21  24
ENDBRANCH  12  16
ENDBRANCH   9  10
ENDBRANCH   8   9
ENDBRANCH   6   8
ENDBRANCH   5   6
ENDBRANCH   4   5
ENDBRANCH   3   4
ENDBRANCH   2   3
ENDBRANCH   1   2
BRANCH   1  31
ATOM     31  C   UNL A   1      34.524  33.017  29.113  1.00  0.00     0.188 C 
BRANCH  31  32
ATOM     32  O   UNL A   1      35.063  33.984  29.999  1.00  0.00    -0.376 OA
BRANCH  32  33
ATOM     33  C   UNL A   1      34.318  34.332  31.158  1.00  0.00     0.202 C 
BRANCH  33  34
ATOM     34  C   UNL A   1      34.410  33.390  32.365  1.00  0.00     0.261 C 
BRANCH  34  35
ATOM     35  O   UNL A   1      35.369  32.338  32.153  1.00  0.00    -0.460 OA
BRANCH  35  36
ATOM     36  C   UNL A   1      36.377  32.248  33.072  1.00  0.00     0.338 C 
ATOM     37  O   UNL A   1      36.275  32.317  34.273  1.00  0.00    -0.246 OA
BRANCH  36  38
ATOM     38  C   UNL A   1      37.617  31.805  32.382  1.00  0.00     0.060 A 
ATOM     39  C   UNL A   1      37.741  32.085  31.013  1.00  0.00     0.016 A 
ATOM     40  C   UNL A   1      38.671  31.197  33.068  1.00  0.00     0.016 A 
ATOM     41  C   UNL A   1      38.907  31.737  30.320  1.00  0.00     0.010 A 
ATOM     42  C   UNL A   1      39.828  30.827  32.369  1.00  0.00     0.010 A 
ATOM     43  C   UNL A   1      39.943  31.071  30.988  1.00  0.00    -0.014 A 
BRANCH  43  44
ATOM     44  C   UNL A   1      41.046  30.433  30.223  1.00  0.00     0.031 A 
ATOM     45  C   UNL A   1      42.284  31.249  29.962  1.00  0.00     0.074 A 
ATOM     46  C   UNL A   1      40.958  29.181  29.735  1.00  0.00     0.049 A 
ATOM     47  N   UNL A   1      43.324  30.967  29.222  1.00  0.00    -0.248 NA
ATOM     48  C   UNL A   1      42.352  32.564  30.623  1.00  0.00     0.031 C 
ATOM     49  C   UNL A   1      39.847  28.257  29.949  1.00  0.00     0.029 A 
ATOM     50  N   UNL A   1      41.826  28.482  28.928  1.00  0.00    -0.354 N 
ATOM     51  C   UNL A   1      44.161  32.072  29.317  1.00  0.00     0.074 A 
ATOM     52  C   UNL A   1      43.508  33.031  30.178  1.00  0.00     0.031 C 
ATOM     53  C   UNL A   1      40.088  27.121  29.265  1.00  0.00     0.029 A 
ATOM     54  C   UNL A   1      41.349  27.255  28.535  1.00  0.00     0.049 A 
ATOM     55  H   UNL A   1      42.708  28.829  28.659  1.00  0.00     0.167 HD
ATOM     56  C   UNL A   1      45.364  32.277  28.732  1.00  0.00     0.031 A 
ATOM     57  C   UNL A   1      41.851  26.362  27.656  1.00  0.00     0.031 A 
ATOM     58  C   UNL A   1      46.018  31.342  27.861  1.00  0.00     0.049 A 
ATOM     59  C   UNL A   1      43.146  26.662  26.938  1.00  0.00     0.074 A 
ATOM     60  C   UNL A   1      47.253  31.457  27.249  1.00  0.00     0.029 A 
ATOM     61  N   UNL A   1      45.482  30.130  27.462  1.00  0.00    -0.354 N 
ATOM     62  N   UNL A   1      43.948  27.689  27.072  1.00  0.00    -0.248 NA
ATOM     63  C   UNL A   1      43.596  25.679  25.939  1.00  0.00     0.031 C 
ATOM     64  C   UNL A   1      47.438  30.341  26.428  1.00  0.00     0.029 A 
ATOM     65  C   UNL A   1      46.343  29.507  26.576  1.00  0.00     0.049 A 
ATOM     66  H   UNL A   1      44.619  29.766  27.764  1.00  0.00     0.167 HD
ATOM     67  C   UNL A   1      45.004  27.465  26.193  1.00  0.00     0.074 A 
ATOM     68  C   UNL A   1      44.752  26.197  25.546  1.00  0.00     0.031 C 
ATOM     69  C   UNL A   1      46.083  28.244  25.940  1.00  0.00     0.031 A 
BRANCH  56  70
ATOM     70  C   UNL A   1      46.039  33.593  28.981  1.00  0.00    -0.014 A 
ATOM     71  C   UNL A   1      46.932  33.764  30.049  1.00  0.00     0.009 A 
ATOM     72  C   UNL A   1      45.819  34.660  28.095  1.00  0.00     0.009 A 
ATOM     73  C   UNL A   1      47.580  34.986  30.234  1.00  0.00     0.001 A 
ATOM     74  C   UNL A   1      46.485  35.873  28.271  1.00  0.00     0.001 A 
ATOM     75  C   UNL A   1      47.361  36.036  29.343  1.00  0.00     0.000 A 
ENDBRANCH  56  70
BRANCH  57  76
ATOM     76  C   UNL A   1      41.105  25.116  27.329  1.00  0.00    -0.014 A 
ATOM     77  C   UNL A   1      39.968  25.154  26.507  1.00  0.00     0.009 A 
ATOM     78  C   UNL A   1      41.478  23.893  27.909  1.00  0.00     0.009 A 
ATOM     79  C   UNL A   1      39.201  24.002  26.303  1.00  0.00     0.001 A 
ATOM     80  C   UNL A   1      40.729  22.738  27.679  1.00  0.00     0.001 A 
ATOM     81  C   UNL A   1      39.583  22.796  26.888  1.00  0.00     0.000 A 
ENDBRANCH  57  76
BRANCH  69  82
ATOM     82  C   UNL A   1      47.088  27.745  24.940  1.00  0.00    -0.014 A 
ATOM     83  C   UNL A   1      48.083  26.827  25.308  1.00  0.00     0.009 A 
ATOM     84  C   UNL A   1      46.996  28.146  23.597  1.00  0.00     0.009 A 
ATOM     85  C   UNL A   1      48.981  26.339  24.355  1.00  0.00     0.001 A 
ATOM     86  C   UNL A   1      47.876  27.636  22.642  1.00  0.00     0.001 A 
ATOM     87  C   UNL A   1      48.873  26.738  23.024  1.00  0.00     0.000 A 
ENDBRANCH  69  82
ENDBRANCH  43  44
ENDBRANCH  36  38
ENDBRANCH  35  36
ENDBRANCH  34  35
ENDBRANCH  33  34
ENDBRANCH  32  33
ENDBRANCH  31  32
ENDBRANCH   1  31
TORSDOF 21
ENDMDL
