MODEL 1
REMARK VINA RESULT:      -9.4      0.000      0.000
REMARK SMILES C[C@@H](C(=O)OCCOCCOCCOC(=O)c1ccc(-c2c3nc(c(-c4ccccc4)c4ccc([nH]4)c(-c4ccccc4)c4nc(c(-c5ccccc5)c5ccc2[nH]5)C=C4)C=C3)cc1)c1ccc(Cc2ccoc2)cc1F
REMARK SMILES IDX 9 1 8 2 7 3 6 4 5 5 3 6 4 7 2 8 1 9 65 10 66 11 76 12 67 13
REMARK SMILES IDX 75 14 77 15 68 16 69 17 70 18 71 19 74 20 72 21 73 22 10 23
REMARK SMILES IDX 11 24 12 25 13 26 14 27 15 28 16 29 17 30 18 31 64 32 19 33
REMARK SMILES IDX 63 34 20 35 21 36 22 37 57 38 23 39 62 40 56 41 58 42 24 43
REMARK SMILES IDX 61 44 55 45 54 46 25 48 47 49 32 50 46 51 33 52 36 53 45 54
REMARK SMILES IDX 59 55 34 56 35 57 44 59 60 60 37 61 26 62 27 63 31 64 28 65
REMARK SMILES IDX 30 66 29 67 48 68 49 69 53 70 50 71 52 72 51 73 38 74 39 75
REMARK SMILES IDX 43 76 40 77 42 78 41 79
REMARK H PARENT 58 47 36 58
REMARK Flexibility Score: inf
ROOT
ATOM      1  C   UNL A   1      39.352  22.056  26.569  1.00  0.00     0.188 C 
ENDROOT
BRANCH   1   2
ATOM      2  O   UNL A   1      38.497  21.648  25.516  1.00  0.00    -0.376 OA
BRANCH   2   3
ATOM      3  C   UNL A   1      37.259  22.333  25.347  1.00  0.00     0.202 C 
BRANCH   3   4
ATOM      4  C   UNL A   1      36.037  21.584  24.781  1.00  0.00     0.261 C 
BRANCH   4   5
ATOM      5  O   UNL A   1      34.874  21.529  25.644  1.00  0.00    -0.463 OA
BRANCH   5   6
ATOM      6  C   UNL A   1      33.657  21.580  25.031  1.00  0.00     0.313 C 
ATOM      7  O   UNL A   1      33.312  20.793  24.155  1.00  0.00    -0.252 OA
BRANCH   6   8
ATOM      8  C   UNL A   1      32.727  22.712  25.526  1.00  0.00     0.129 C 
ATOM      9  C   UNL A   1      31.215  22.566  25.332  1.00  0.00     0.025 C 
BRANCH   8  10
ATOM     10  C   UNL A   1      33.207  24.066  25.013  1.00  0.00     0.002 A 
ATOM     11  C   UNL A   1      33.748  25.031  25.874  1.00  0.00     0.008 A 
ATOM     12  C   UNL A   1      33.060  24.411  23.669  1.00  0.00     0.127 A 
ATOM     13  C   UNL A   1      34.031  26.320  25.428  1.00  0.00     0.004 A 
ATOM     14  C   UNL A   1      33.345  25.698  23.209  1.00  0.00     0.043 A 
ATOM     15  F   UNL A   1      32.616  23.500  22.792  1.00  0.00    -0.207 F 
ATOM     16  C   UNL A   1      33.791  26.683  24.099  1.00  0.00    -0.041 A 
BRANCH  16  17
ATOM     17  C   UNL A   1      33.949  28.121  23.675  1.00  0.00     0.074 C 
BRANCH  17  18
ATOM     18  C   UNL A   1      32.886  28.904  24.382  1.00  0.00    -0.005 A 
ATOM     19  C   UNL A   1      32.963  29.671  25.588  1.00  0.00     0.046 A 
ATOM     20  C   UNL A   1      31.589  29.081  23.942  1.00  0.00     0.198 A 
ATOM     21  C   UNL A   1      31.734  30.258  25.770  1.00  0.00     0.195 A 
ATOM     22  O   UNL A   1      30.889  29.884  24.781  1.00  0.00    -0.472 OA
ENDBRANCH  17  18
ENDBRANCH  16  17
ENDBRANCH   8  10
ENDBRANCH   6   8
ENDBRANCH   5   6
ENDBRANCH   4   5
ENDBRANCH   3   4
ENDBRANCH   2   3
ENDBRANCH   1   2
BRANCH   1  23
ATOM     23  C   UNL A   1      40.786  22.484  26.222  1.00  0.00     0.188 C 
BRANCH  23  24
ATOM     24  O   UNL A   1      41.732  21.457  26.108  1.00  0.00    -0.376 OA
BRANCH  24  25
ATOM     25  C   UNL A   1      43.114  21.747  26.087  1.00  0.00     0.202 C 
BRANCH  25  26
ATOM     26  C   UNL A   1      43.856  22.420  24.917  1.00  0.00     0.261 C 
BRANCH  26  27
ATOM     27  O   UNL A   1      43.628  23.810  24.658  1.00  0.00    -0.460 OA
BRANCH  27  28
ATOM     28  C   UNL A   1      44.542  24.688  25.128  1.00  0.00     0.338 C 
ATOM     29  O   UNL A   1      45.688  24.837  24.735  1.00  0.00    -0.246 OA
BRANCH  28  30
ATOM     30  C   UNL A   1      43.854  25.593  26.079  1.00  0.00     0.060 A 
ATOM     31  C   UNL A   1      44.423  26.841  26.368  1.00  0.00     0.016 A 
ATOM     32  C   UNL A   1      42.654  25.214  26.687  1.00  0.00     0.016 A 
ATOM     33  C   UNL A   1      43.804  27.698  27.285  1.00  0.00     0.010 A 
ATOM     34  C   UNL A   1      42.045  26.068  27.615  1.00  0.00     0.010 A 
ATOM     35  C   UNL A   1      42.625  27.307  27.936  1.00  0.00    -0.014 A 
BRANCH  35  36
ATOM     36  C   UNL A   1      42.089  28.110  29.066  1.00  0.00     0.031 A 
ATOM     37  C   UNL A   1      42.842  28.122  30.366  1.00  0.00     0.074 A 
ATOM     38  C   UNL A   1      40.924  28.779  28.977  1.00  0.00     0.049 A 
ATOM     39  N   UNL A   1      42.547  28.727  31.488  1.00  0.00    -0.248 NA
ATOM     40  C   UNL A   1      44.068  27.312  30.416  1.00  0.00     0.031 C 
ATOM     41  C   UNL A   1      40.047  28.784  27.813  1.00  0.00     0.029 A 
ATOM     42  N   UNL A   1      40.274  29.573  29.894  1.00  0.00    -0.354 N 
ATOM     43  C   UNL A   1      43.525  28.336  32.392  1.00  0.00     0.074 A 
ATOM     44  C   UNL A   1      44.422  27.446  31.685  1.00  0.00     0.031 C 
ATOM     45  C   UNL A   1      38.986  29.566  28.078  1.00  0.00     0.029 A 
ATOM     46  C   UNL A   1      39.105  30.122  29.421  1.00  0.00     0.049 A 
ATOM     47  H   UNL A   1      40.615  29.735  30.803  1.00  0.00     0.167 HD
ATOM     48  C   UNL A   1      43.654  28.666  33.700  1.00  0.00     0.031 A 
ATOM     49  C   UNL A   1      38.233  30.974  29.999  1.00  0.00     0.031 A 
ATOM     50  C   UNL A   1      42.747  29.514  34.425  1.00  0.00     0.049 A 
ATOM     51  C   UNL A   1      38.440  31.382  31.436  1.00  0.00     0.074 A 
ATOM     52  C   UNL A   1      42.808  29.902  35.753  1.00  0.00     0.029 A 
ATOM     53  N   UNL A   1      41.607  30.095  33.893  1.00  0.00    -0.354 N 
ATOM     54  N   UNL A   1      39.407  31.053  32.258  1.00  0.00    -0.248 NA
ATOM     55  C   UNL A   1      37.420  32.261  32.031  1.00  0.00     0.031 C 
ATOM     56  C   UNL A   1      41.675  30.672  36.038  1.00  0.00     0.029 A 
ATOM     57  C   UNL A   1      40.949  30.824  34.870  1.00  0.00     0.049 A 
ATOM     58  H   UNL A   1      41.311  30.005  32.958  1.00  0.00     0.167 HD
ATOM     59  C   UNL A   1      39.101  31.671  33.465  1.00  0.00     0.074 A 
ATOM     60  C   UNL A   1      37.898  32.446  33.252  1.00  0.00     0.031 C 
ATOM     61  C   UNL A   1      39.743  31.580  34.655  1.00  0.00     0.031 A 
BRANCH  48  62
ATOM     62  C   UNL A   1      44.803  28.046  34.446  1.00  0.00    -0.014 A 
ATOM     63  C   UNL A   1      44.670  26.810  35.096  1.00  0.00     0.009 A 
ATOM     64  C   UNL A   1      46.041  28.707  34.485  1.00  0.00     0.009 A 
ATOM     65  C   UNL A   1      45.743  26.267  35.806  1.00  0.00     0.001 A 
ATOM     66  C   UNL A   1      47.121  28.146  35.167  1.00  0.00     0.001 A 
ATOM     67  C   UNL A   1      46.968  26.933  35.837  1.00  0.00     0.000 A 
ENDBRANCH  48  62
BRANCH  49  68
ATOM     68  C   UNL A   1      37.072  31.527  29.243  1.00  0.00    -0.014 A 
ATOM     69  C   UNL A   1      37.128  32.834  28.726  1.00  0.00     0.009 A 
ATOM     70  C   UNL A   1      35.889  30.792  29.075  1.00  0.00     0.009 A 
ATOM     71  C   UNL A   1      36.024  33.397  28.081  1.00  0.00     0.001 A 
ATOM     72  C   UNL A   1      34.800  31.342  28.392  1.00  0.00     0.001 A 
ATOM     73  C   UNL A   1      34.865  32.646  27.905  1.00  0.00     0.000 A 
ENDBRANCH  49  68
BRANCH  61  74
ATOM     74  C   UNL A   1      39.159  32.342  35.814  1.00  0.00    -0.014 A 
ATOM     75  C   UNL A   1      39.461  33.699  36.022  1.00  0.00     0.009 A 
ATOM     76  C   UNL A   1      38.275  31.702  36.695  1.00  0.00     0.009 A 
ATOM     77  C   UNL A   1      38.921  34.384  37.113  1.00  0.00     0.001 A 
ATOM     78  C   UNL A   1      37.712  32.399  37.766  1.00  0.00     0.001 A 
ATOM     79  C   UNL A   1      38.044  33.735  37.981  1.00  0.00     0.000 A 
ENDBRANCH  61  74
ENDBRANCH  35  36
ENDBRANCH  28  30
ENDBRANCH  27  28
ENDBRANCH  26  27
ENDBRANCH  25  26
ENDBRANCH  24  25
ENDBRANCH  23  24
ENDBRANCH   1  23
TORSDOF 20
ENDMDL
MODEL 2
REMARK VINA RESULT:      -9.3      3.240      9.079
REMARK SMILES C[C@@H](C(=O)OCCOCCOCCOC(=O)c1ccc(-c2c3nc(c(-c4ccccc4)c4ccc([nH]4)c(-c4ccccc4)c4nc(c(-c5ccccc5)c5ccc2[nH]5)C=C4)C=C3)cc1)c1ccc(Cc2ccoc2)cc1F
REMARK SMILES IDX 9 1 8 2 7 3 6 4 5 5 3 6 4 7 2 8 1 9 65 10 66 11 76 12 67 13
REMARK SMILES IDX 75 14 77 15 68 16 69 17 70 18 71 19 74 20 72 21 73 22 10 23
REMARK SMILES IDX 11 24 12 25 13 26 14 27 15 28 16 29 17 30 18 31 64 32 19 33
REMARK SMILES IDX 63 34 20 35 21 36 22 37 57 38 23 39 62 40 56 41 58 42 24 43
REMARK SMILES IDX 61 44 55 45 54 46 25 48 47 49 32 50 46 51 33 52 36 53 45 54
REMARK SMILES IDX 59 55 34 56 35 57 44 59 60 60 37 61 26 62 27 63 31 64 28 65
REMARK SMILES IDX 30 66 29 67 48 68 49 69 53 70 50 71 52 72 51 73 38 74 39 75
REMARK SMILES IDX 43 76 40 77 42 78 41 79
REMARK H PARENT 58 47 36 58
REMARK Flexibility Score: inf
ROOT
ATOM      1  C   UNL A   1      32.390  29.045  25.622  1.00  0.00     0.188 C 
ENDROOT
BRANCH   1   2
ATOM      2  O   UNL A   1      32.640  27.716  25.197  1.00  0.00    -0.376 OA
BRANCH   2   3
ATOM      3  C   UNL A   1      31.955  26.656  25.858  1.00  0.00     0.202 C 
BRANCH   3   4
ATOM      4  C   UNL A   1      32.680  25.322  26.126  1.00  0.00     0.261 C 
BRANCH   4   5
ATOM      5  O   UNL A   1      32.716  24.389  25.017  1.00  0.00    -0.463 OA
BRANCH   5   6
ATOM      6  C   UNL A   1      33.805  24.456  24.199  1.00  0.00     0.313 C 
ATOM      7  O   UNL A   1      34.054  25.426  23.489  1.00  0.00    -0.252 OA
BRANCH   6   8
ATOM      8  C   UNL A   1      34.719  23.210  24.231  1.00  0.00     0.129 C 
ATOM      9  C   UNL A   1      35.946  23.167  23.315  1.00  0.00     0.025 C 
BRANCH   8  10
ATOM     10  C   UNL A   1      33.896  21.934  24.088  1.00  0.00     0.002 A 
ATOM     11  C   UNL A   1      34.035  20.862  24.980  1.00  0.00     0.008 A 
ATOM     12  C   UNL A   1      33.018  21.769  23.015  1.00  0.00     0.127 A 
ATOM     13  C   UNL A   1      33.403  19.642  24.750  1.00  0.00     0.004 A 
ATOM     14  C   UNL A   1      32.375  20.553  22.776  1.00  0.00     0.043 A 
ATOM     15  F   UNL A   1      32.796  22.790  22.175  1.00  0.00    -0.207 F 
ATOM     16  C   UNL A   1      32.600  19.459  23.620  1.00  0.00    -0.041 A 
BRANCH  16  17
ATOM     17  C   UNL A   1      32.057  18.089  23.301  1.00  0.00     0.074 C 
BRANCH  17  18
ATOM     18  C   UNL A   1      32.946  17.097  23.985  1.00  0.00    -0.005 A 
ATOM     19  C   UNL A   1      32.774  16.422  25.235  1.00  0.00     0.046 A 
ATOM     20  C   UNL A   1      34.125  16.587  23.476  1.00  0.00     0.198 A 
ATOM     21  C   UNL A   1      33.833  15.558  25.374  1.00  0.00     0.195 A 
ATOM     22  O   UNL A   1      34.668  15.670  24.315  1.00  0.00    -0.472 OA
ENDBRANCH  17  18
ENDBRANCH  16  17
ENDBRANCH   8  10
ENDBRANCH   6   8
ENDBRANCH   5   6
ENDBRANCH   4   5
ENDBRANCH   3   4
ENDBRANCH   2   3
ENDBRANCH   1   2
BRANCH   1  23
ATOM     23  C   UNL A   1      32.964  29.500  26.973  1.00  0.00     0.188 C 
BRANCH  23  24
ATOM     24  O   UNL A   1      33.100  30.882  27.158  1.00  0.00    -0.376 OA
BRANCH  24  25
ATOM     25  C   UNL A   1      32.076  31.769  26.761  1.00  0.00     0.202 C 
BRANCH  25  26
ATOM     26  C   UNL A   1      31.730  33.091  27.471  1.00  0.00     0.261 C 
BRANCH  26  27
ATOM     27  O   UNL A   1      32.742  34.098  27.595  1.00  0.00    -0.460 OA
BRANCH  27  28
ATOM     28  C   UNL A   1      33.147  34.422  28.843  1.00  0.00     0.338 C 
ATOM     29  O   UNL A   1      32.498  35.005  29.698  1.00  0.00    -0.246 OA
BRANCH  28  30
ATOM     30  C   UNL A   1      34.457  33.770  29.080  1.00  0.00     0.060 A 
ATOM     31  C   UNL A   1      34.575  32.826  30.108  1.00  0.00     0.016 A 
ATOM     32  C   UNL A   1      35.566  34.089  28.292  1.00  0.00     0.016 A 
ATOM     33  C   UNL A   1      35.810  32.220  30.366  1.00  0.00     0.010 A 
ATOM     34  C   UNL A   1      36.804  33.492  28.562  1.00  0.00     0.010 A 
ATOM     35  C   UNL A   1      36.941  32.569  29.612  1.00  0.00    -0.014 A 
BRANCH  35  36
ATOM     36  C   UNL A   1      38.290  32.099  30.022  1.00  0.00     0.031 A 
ATOM     37  C   UNL A   1      38.808  30.807  29.456  1.00  0.00     0.074 A 
ATOM     38  C   UNL A   1      39.035  32.765  30.923  1.00  0.00     0.049 A 
ATOM     39  N   UNL A   1      39.940  30.194  29.693  1.00  0.00    -0.248 NA
ATOM     40  C   UNL A   1      37.913  30.095  28.533  1.00  0.00     0.031 C 
ATOM     41  C   UNL A   1      38.623  33.979  31.618  1.00  0.00     0.029 A 
ATOM     42  N   UNL A   1      40.291  32.501  31.419  1.00  0.00    -0.354 N 
ATOM     43  C   UNL A   1      39.876  29.004  28.984  1.00  0.00     0.074 A 
ATOM     44  C   UNL A   1      38.596  28.983  28.307  1.00  0.00     0.031 C 
ATOM     45  C   UNL A   1      39.621  34.368  32.430  1.00  0.00     0.029 A 
ATOM     46  C   UNL A   1      40.743  33.443  32.315  1.00  0.00     0.049 A 
ATOM     47  H   UNL A   1      40.819  31.713  31.156  1.00  0.00     0.167 HD
ATOM     48  C   UNL A   1      40.786  28.002  28.920  1.00  0.00     0.031 A 
ATOM     49  C   UNL A   1      41.920  33.550  32.964  1.00  0.00     0.031 A 
ATOM     50  C   UNL A   1      42.042  27.990  29.622  1.00  0.00     0.049 A 
ATOM     51  C   UNL A   1      42.947  32.455  32.818  1.00  0.00     0.074 A 
ATOM     52  C   UNL A   1      43.026  27.015  29.608  1.00  0.00     0.029 A 
ATOM     53  N   UNL A   1      42.485  28.990  30.473  1.00  0.00    -0.354 N 
ATOM     54  N   UNL A   1      42.896  31.365  32.092  1.00  0.00    -0.248 NA
ATOM     55  C   UNL A   1      44.185  32.596  33.603  1.00  0.00     0.031 C 
ATOM     56  C   UNL A   1      44.037  27.399  30.494  1.00  0.00     0.029 A 
ATOM     57  C   UNL A   1      43.718  28.646  31.002  1.00  0.00     0.049 A 
ATOM     58  H   UNL A   1      41.996  29.821  30.670  1.00  0.00     0.167 HD
ATOM     59  C   UNL A   1      44.084  30.688  32.346  1.00  0.00     0.074 A 
ATOM     60  C   UNL A   1      44.862  31.518  33.239  1.00  0.00     0.031 C 
ATOM     61  C   UNL A   1      44.481  29.471  31.903  1.00  0.00     0.031 A 
BRANCH  48  62
ATOM     62  C   UNL A   1      40.417  26.800  28.097  1.00  0.00    -0.014 A 
ATOM     63  C   UNL A   1      40.862  26.654  26.775  1.00  0.00     0.009 A 
ATOM     64  C   UNL A   1      39.620  25.792  28.663  1.00  0.00     0.009 A 
ATOM     65  C   UNL A   1      40.483  25.542  26.021  1.00  0.00     0.001 A 
ATOM     66  C   UNL A   1      39.271  24.665  27.918  1.00  0.00     0.001 A 
ATOM     67  C   UNL A   1      39.692  24.546  26.594  1.00  0.00     0.000 A 
ENDBRANCH  48  62
BRANCH  49  68
ATOM     68  C   UNL A   1      42.231  34.733  33.817  1.00  0.00    -0.014 A 
ATOM     69  C   UNL A   1      42.822  35.876  33.247  1.00  0.00     0.009 A 
ATOM     70  C   UNL A   1      41.997  34.722  35.200  1.00  0.00     0.009 A 
ATOM     71  C   UNL A   1      43.189  36.965  34.042  1.00  0.00     0.001 A 
ATOM     72  C   UNL A   1      42.327  35.829  35.987  1.00  0.00     0.001 A 
ATOM     73  C   UNL A   1      42.931  36.944  35.409  1.00  0.00     0.000 A 
ENDBRANCH  49  68
BRANCH  61  74
ATOM     74  C   UNL A   1      45.819  28.969  32.374  1.00  0.00    -0.014 A 
ATOM     75  C   UNL A   1      47.009  29.340  31.723  1.00  0.00     0.009 A 
ATOM     76  C   UNL A   1      45.895  28.132  33.498  1.00  0.00     0.009 A 
ATOM     77  C   UNL A   1      48.240  28.851  32.165  1.00  0.00     0.001 A 
ATOM     78  C   UNL A   1      47.131  27.671  33.957  1.00  0.00     0.001 A 
ATOM     79  C   UNL A   1      48.300  28.021  33.284  1.00  0.00     0.000 A 
ENDBRANCH  61  74
ENDBRANCH  35  36
ENDBRANCH  28  30
ENDBRANCH  27  28
ENDBRANCH  26  27
ENDBRANCH  25  26
ENDBRANCH  24  25
ENDBRANCH  23  24
ENDBRANCH   1  23
TORSDOF 20
ENDMDL
MODEL 3
REMARK VINA RESULT:      -9.3      4.360      9.539
REMARK SMILES C[C@@H](C(=O)OCCOCCOCCOC(=O)c1ccc(-c2c3nc(c(-c4ccccc4)c4ccc([nH]4)c(-c4ccccc4)c4nc(c(-c5ccccc5)c5ccc2[nH]5)C=C4)C=C3)cc1)c1ccc(Cc2ccoc2)cc1F
REMARK SMILES IDX 9 1 8 2 7 3 6 4 5 5 3 6 4 7 2 8 1 9 65 10 66 11 76 12 67 13
REMARK SMILES IDX 75 14 77 15 68 16 69 17 70 18 71 19 74 20 72 21 73 22 10 23
REMARK SMILES IDX 11 24 12 25 13 26 14 27 15 28 16 29 17 30 18 31 64 32 19 33
REMARK SMILES IDX 63 34 20 35 21 36 22 37 57 38 23 39 62 40 56 41 58 42 24 43
REMARK SMILES IDX 61 44 55 45 54 46 25 48 47 49 32 50 46 51 33 52 36 53 45 54
REMARK SMILES IDX 59 55 34 56 35 57 44 59 60 60 37 61 26 62 27 63 31 64 28 65
REMARK SMILES IDX 30 66 29 67 48 68 49 69 53 70 50 71 52 72 51 73 38 74 39 75
REMARK SMILES IDX 43 76 40 77 42 78 41 79
REMARK H PARENT 58 47 36 58
REMARK Flexibility Score: inf
ROOT
ATOM      1  C   UNL A   1      34.429  31.720  27.703  1.00  0.00     0.188 C 
ENDROOT
BRANCH   1   2
ATOM      2  O   UNL A   1      33.145  32.130  27.265  1.00  0.00    -0.376 OA
BRANCH   2   3
ATOM      3  C   UNL A   1      32.144  31.134  27.083  1.00  0.00     0.202 C 
BRANCH   3   4
ATOM      4  C   UNL A   1      32.545  29.650  26.977  1.00  0.00     0.261 C 
BRANCH   4   5
ATOM      5  O   UNL A   1      32.254  29.006  25.712  1.00  0.00    -0.463 OA
BRANCH   5   6
ATOM      6  C   UNL A   1      32.857  27.804  25.487  1.00  0.00     0.313 C 
ATOM      7  O   UNL A   1      33.522  27.216  26.334  1.00  0.00    -0.252 OA
BRANCH   6   8
ATOM      8  C   UNL A   1      32.640  27.222  24.071  1.00  0.00     0.129 C 
ATOM      9  C   UNL A   1      33.788  27.284  23.060  1.00  0.00     0.025 C 
BRANCH   8  10
ATOM     10  C   UNL A   1      31.352  27.765  23.458  1.00  0.00     0.002 A 
ATOM     11  C   UNL A   1      31.366  28.777  22.488  1.00  0.00     0.008 A 
ATOM     12  C   UNL A   1      30.108  27.310  23.897  1.00  0.00     0.127 A 
ATOM     13  C   UNL A   1      30.187  29.378  22.054  1.00  0.00     0.004 A 
ATOM     14  C   UNL A   1      28.919  27.902  23.467  1.00  0.00     0.043 A 
ATOM     15  F   UNL A   1      30.041  26.295  24.770  1.00  0.00    -0.207 F 
ATOM     16  C   UNL A   1      28.952  28.978  22.571  1.00  0.00    -0.041 A 
BRANCH  16  17
ATOM     17  C   UNL A   1      27.705  29.749  22.214  1.00  0.00     0.074 C 
BRANCH  17  18
ATOM     18  C   UNL A   1      28.024  31.201  22.388  1.00  0.00    -0.005 A 
ATOM     19  C   UNL A   1      28.542  31.895  23.528  1.00  0.00     0.046 A 
ATOM     20  C   UNL A   1      27.924  32.171  21.410  1.00  0.00     0.198 A 
ATOM     21  C   UNL A   1      28.730  33.203  23.151  1.00  0.00     0.195 A 
ATOM     22  O   UNL A   1      28.336  33.379  21.869  1.00  0.00    -0.472 OA
ENDBRANCH  17  18
ENDBRANCH  16  17
ENDBRANCH   8  10
ENDBRANCH   6   8
ENDBRANCH   5   6
ENDBRANCH   4   5
ENDBRANCH   3   4
ENDBRANCH   2   3
ENDBRANCH   1   2
BRANCH   1  23
ATOM     23  C   UNL A   1      35.053  32.438  28.910  1.00  0.00     0.188 C 
BRANCH  23  24
ATOM     24  O   UNL A   1      34.271  33.427  29.519  1.00  0.00    -0.376 OA
BRANCH  24  25
ATOM     25  C   UNL A   1      34.351  33.658  30.910  1.00  0.00     0.202 C 
BRANCH  25  26
ATOM     26  C   UNL A   1      34.843  32.632  31.947  1.00  0.00     0.261 C 
BRANCH  26  27
ATOM     27  O   UNL A   1      35.602  33.090  33.072  1.00  0.00    -0.460 OA
BRANCH  27  28
ATOM     28  C   UNL A   1      36.690  33.851  32.818  1.00  0.00     0.338 C 
ATOM     29  O   UNL A   1      36.931  34.961  33.267  1.00  0.00    -0.246 OA
BRANCH  28  30
ATOM     30  C   UNL A   1      37.654  33.025  32.053  1.00  0.00     0.060 A 
ATOM     31  C   UNL A   1      38.348  32.000  32.708  1.00  0.00     0.016 A 
ATOM     32  C   UNL A   1      37.875  33.261  30.693  1.00  0.00     0.016 A 
ATOM     33  C   UNL A   1      39.283  31.227  32.009  1.00  0.00     0.010 A 
ATOM     34  C   UNL A   1      38.822  32.496  30.000  1.00  0.00     0.010 A 
ATOM     35  C   UNL A   1      39.547  31.487  30.657  1.00  0.00    -0.014 A 
BRANCH  35  36
ATOM     36  C   UNL A   1      40.688  30.824  29.973  1.00  0.00     0.031 A 
ATOM     37  C   UNL A   1      41.982  31.576  29.834  1.00  0.00     0.074 A 
ATOM     38  C   UNL A   1      40.580  29.599  29.429  1.00  0.00     0.049 A 
ATOM     39  N   UNL A   1      43.095  31.206  29.253  1.00  0.00    -0.248 NA
ATOM     40  C   UNL A   1      42.008  32.937  30.387  1.00  0.00     0.031 C 
ATOM     41  C   UNL A   1      39.364  28.794  29.410  1.00  0.00     0.029 A 
ATOM     42  N   UNL A   1      41.509  28.824  28.773  1.00  0.00    -0.354 N 
ATOM     43  C   UNL A   1      43.940  32.304  29.331  1.00  0.00     0.074 A 
ATOM     44  C   UNL A   1      43.211  33.350  30.019  1.00  0.00     0.031 C 
ATOM     45  C   UNL A   1      39.631  27.628  28.797  1.00  0.00     0.029 A 
ATOM     46  C   UNL A   1      41.029  27.594  28.383  1.00  0.00     0.049 A 
ATOM     47  H   UNL A   1      42.431  29.121  28.598  1.00  0.00     0.167 HD
ATOM     48  C   UNL A   1      45.200  32.443  28.853  1.00  0.00     0.031 A 
ATOM     49  C   UNL A   1      41.643  26.562  27.769  1.00  0.00     0.031 A 
ATOM     50  C   UNL A   1      45.920  31.428  28.132  1.00  0.00     0.049 A 
ATOM     51  C   UNL A   1      43.071  26.717  27.311  1.00  0.00     0.074 A 
ATOM     52  C   UNL A   1      47.204  31.486  27.616  1.00  0.00     0.029 A 
ATOM     53  N   UNL A   1      45.418  30.177  27.810  1.00  0.00    -0.354 N 
ATOM     54  N   UNL A   1      43.878  27.742  27.450  1.00  0.00    -0.248 NA
ATOM     55  C   UNL A   1      43.665  25.580  26.588  1.00  0.00     0.031 C 
ATOM     56  C   UNL A   1      47.457  30.291  26.934  1.00  0.00     0.029 A 
ATOM     57  C   UNL A   1      46.360  29.462  27.088  1.00  0.00     0.049 A 
ATOM     58  H   UNL A   1      44.525  29.846  28.059  1.00  0.00     0.167 HD
ATOM     59  C   UNL A   1      45.062  27.376  26.821  1.00  0.00     0.074 A 
ATOM     60  C   UNL A   1      44.893  26.016  26.357  1.00  0.00     0.031 C 
ATOM     61  C   UNL A   1      46.180  28.114  26.617  1.00  0.00     0.031 A 
BRANCH  48  62
ATOM     62  C   UNL A   1      45.858  33.780  29.051  1.00  0.00    -0.014 A 
ATOM     63  C   UNL A   1      45.714  34.812  28.111  1.00  0.00     0.009 A 
ATOM     64  C   UNL A   1      46.623  34.012  30.206  1.00  0.00     0.009 A 
ATOM     65  C   UNL A   1      46.357  36.036  28.303  1.00  0.00     0.001 A 
ATOM     66  C   UNL A   1      47.236  35.247  30.411  1.00  0.00     0.001 A 
ATOM     67  C   UNL A   1      47.114  36.254  29.455  1.00  0.00     0.000 A 
ENDBRANCH  48  62
BRANCH  49  68
ATOM     68  C   UNL A   1      40.940  25.266  27.540  1.00  0.00    -0.014 A 
ATOM     69  C   UNL A   1      41.419  24.090  28.147  1.00  0.00     0.009 A 
ATOM     70  C   UNL A   1      39.832  25.175  26.686  1.00  0.00     0.009 A 
ATOM     71  C   UNL A   1      40.820  22.855  27.885  1.00  0.00     0.001 A 
ATOM     72  C   UNL A   1      39.208  23.944  26.459  1.00  0.00     0.001 A 
ATOM     73  C   UNL A   1      39.708  22.785  27.050  1.00  0.00     0.000 A 
ENDBRANCH  49  68
BRANCH  61  74
ATOM     74  C   UNL A   1      47.309  27.462  25.865  1.00  0.00    -0.014 A 
ATOM     75  C   UNL A   1      48.301  26.724  26.534  1.00  0.00     0.009 A 
ATOM     76  C   UNL A   1      47.369  27.565  24.467  1.00  0.00     0.009 A 
ATOM     77  C   UNL A   1      49.350  26.139  25.820  1.00  0.00     0.001 A 
ATOM     78  C   UNL A   1      48.401  26.952  23.754  1.00  0.00     0.001 A 
ATOM     79  C   UNL A   1      49.397  26.250  24.431  1.00  0.00     0.000 A 
ENDBRANCH  61  74
ENDBRANCH  35  36
ENDBRANCH  28  30
ENDBRANCH  27  28
ENDBRANCH  26  27
ENDBRANCH  25  26
ENDBRANCH  24  25
ENDBRANCH  23  24
ENDBRANCH   1  23
TORSDOF 20
ENDMDL
