MODEL 1
REMARK VINA RESULT:     -10.9      0.000      0.000
REMARK SMILES C[C@H]1[C@H](C)CC[C@@]2(C(=O)OCCOCCOCCOC(=O)c3ccc(-c4c5nc(c(-c6ccccc6)c6ccc([nH]6)c(-c6ccccc6)c6nc(c(-c7ccccc7)c7ccc4[nH]7)C=C6)C=C5)cc3)CC[C@@]3(C)C(=CC[C@@H]4[C@@]5(C)CC[C@H](O)C(C)(C)[C@@H]5CC[C@]43C)[C@H]12
REMARK SMILES IDX 15 1 14 2 13 3 12 4 11 5 10 6 8 7 9 8 7 9 1 10 2 11 3 12
REMARK SMILES IDX 92 13 4 14 5 15 74 16 6 17 70 18 72 19 75 20 71 21 73 22
REMARK SMILES IDX 90 23 76 24 77 25 89 26 91 27 78 28 88 29 79 30 80 31 87 32
REMARK SMILES IDX 81 33 84 34 82 35 85 36 86 37 83 38 16 40 17 41 18 42 19 43
REMARK SMILES IDX 20 44 21 45 22 46 23 47 69 48 24 49 68 50 25 51 26 52 27 53
REMARK SMILES IDX 62 54 28 55 67 56 61 57 63 58 29 59 66 60 60 61 59 62 30 64
REMARK SMILES IDX 52 65 37 66 51 67 38 68 41 69 50 70 64 71 39 72 40 73 49 75
REMARK SMILES IDX 65 76 42 77 31 78 32 79 36 80 33 81 35 82 34 83 53 84 54 85
REMARK SMILES IDX 58 86 55 87 57 88 56 89 43 90 44 91 48 92 45 93 47 94 46 95
REMARK H PARENT 83 39 63 63 41 74
REMARK Flexibility Score: inf
ROOT
ATOM      1  C   UNL A   1      34.899  32.408  27.950  1.00  0.00     0.188 C 
ENDROOT
BRANCH   1   2
ATOM      2  C   UNL A   1      35.202  30.921  28.330  1.00  0.00     0.188 C 
BRANCH   2   3
ATOM      3  O   UNL A   1      35.489  30.091  27.227  1.00  0.00    -0.376 OA
BRANCH   3   4
ATOM      4  C   UNL A   1      34.383  29.323  26.819  1.00  0.00     0.202 C 
BRANCH   4   5
ATOM      5  C   UNL A   1      34.536  28.468  25.564  1.00  0.00     0.261 C 
BRANCH   5   6
ATOM      6  O   UNL A   1      33.385  27.960  24.737  1.00  0.00    -0.463 OA
BRANCH   6   7
ATOM      7  C   UNL A   1      32.209  28.103  24.072  1.00  0.00     0.312 C 
ATOM      8  O   UNL A   1      31.982  27.902  22.885  1.00  0.00    -0.252 OA
BRANCH   7   9
ATOM      9  C   UNL A   1      31.064  28.470  25.051  1.00  0.00     0.075 C 
ATOM     10  C   UNL A   1      27.847  28.179  22.732  1.00  0.00     0.008 C 
ATOM     11  C   UNL A   1      29.201  28.641  23.264  1.00  0.00    -0.003 C 
ATOM     12  C   UNL A   1      29.273  30.211  23.397  1.00  0.00    -0.011 C 
ATOM     13  C   UNL A   1      29.746  27.805  24.548  1.00  0.00     0.036 C 
ATOM     14  C   UNL A   1      29.088  30.964  22.061  1.00  0.00     0.008 C 
ATOM     15  C   UNL A   1      30.612  30.720  23.939  1.00  0.00     0.005 C 
ATOM     16  C   UNL A   1      30.162  26.245  24.511  1.00  0.00    -0.063 C 
ATOM     17  C   UNL A   1      31.034  30.000  25.188  1.00  0.00     0.020 C 
ATOM     18  C   UNL A   1      31.374  27.977  26.486  1.00  0.00     0.020 C 
ATOM     19  C   UNL A   1      30.687  25.564  25.851  1.00  0.00    -0.006 C 
ATOM     20  C   UNL A   1      30.367  25.602  23.343  1.00  0.00    -0.027 C 
ATOM     21  C   UNL A   1      31.685  26.499  26.585  1.00  0.00     0.013 C 
ATOM     22  C   UNL A   1      29.457  25.394  26.775  1.00  0.00     0.017 C 
ATOM     23  C   UNL A   1      31.433  24.098  25.600  1.00  0.00    -0.020 C 
ATOM     24  C   UNL A   1      31.376  24.485  23.161  1.00  0.00     0.032 C 
ATOM     25  C   UNL A   1      32.356  24.295  24.347  1.00  0.00     0.006 C 
ATOM     26  C   UNL A   1      32.290  23.592  26.792  1.00  0.00     0.008 C 
ATOM     27  C   UNL A   1      30.363  22.991  25.366  1.00  0.00     0.012 C 
ATOM     28  C   UNL A   1      33.595  23.290  24.079  1.00  0.00    -0.025 C 
ATOM     29  C   UNL A   1      33.180  22.377  26.445  1.00  0.00     0.005 C 
ATOM     30  C   UNL A   1      33.147  22.178  23.112  1.00  0.00     0.012 C 
ATOM     31  C   UNL A   1      34.767  24.066  23.374  1.00  0.00     0.010 C 
ATOM     32  C   UNL A   1      34.246  22.775  25.418  1.00  0.00     0.003 C 
ATOM     33  C   UNL A   1      36.052  23.247  23.166  1.00  0.00     0.033 C 
ATOM     34  C   UNL A   1      35.485  21.788  25.245  1.00  0.00    -0.006 C 
ATOM     35  C   UNL A   1      36.568  22.553  24.429  1.00  0.00     0.120 C 
ATOM     36  C   UNL A   1      35.148  20.412  24.632  1.00  0.00     0.014 C 
ATOM     37  C   UNL A   1      36.133  21.437  26.609  1.00  0.00     0.014 C 
BRANCH  35  38
ATOM     38  O   UNL A   1      37.679  21.723  24.091  1.00  0.00    -0.393 OA
ATOM     39  H   UNL A   1      37.589  20.866  24.536  1.00  0.00     0.210 HD
ENDBRANCH  35  38
ENDBRANCH   7   9
ENDBRANCH   6   7
ENDBRANCH   5   6
ENDBRANCH   4   5
ENDBRANCH   3   4
ENDBRANCH   2   3
ENDBRANCH   1   2
BRANCH   1  40
ATOM     40  O   UNL A   1      34.130  33.216  28.828  1.00  0.00    -0.376 OA
BRANCH  40  41
ATOM     41  C   UNL A   1      34.366  34.604  28.806  1.00  0.00     0.202 C 
BRANCH  41  42
ATOM     42  C   UNL A   1      33.228  35.526  29.284  1.00  0.00     0.261 C 
BRANCH  42  43
ATOM     43  O   UNL A   1      32.454  35.102  30.440  1.00  0.00    -0.460 OA
BRANCH  43  44
ATOM     44  C   UNL A   1      32.708  35.713  31.637  1.00  0.00     0.338 C 
ATOM     45  O   UNL A   1      32.058  36.614  32.125  1.00  0.00    -0.246 OA
BRANCH  44  46
ATOM     46  C   UNL A   1      33.806  35.018  32.403  1.00  0.00     0.060 A 
ATOM     47  C   UNL A   1      35.088  35.600  32.481  1.00  0.00     0.016 A 
ATOM     48  C   UNL A   1      33.614  33.763  32.971  1.00  0.00     0.016 A 
ATOM     49  C   UNL A   1      36.183  34.906  33.044  1.00  0.00     0.010 A 
ATOM     50  C   UNL A   1      34.714  33.064  33.512  1.00  0.00     0.010 A 
ATOM     51  C   UNL A   1      36.025  33.598  33.509  1.00  0.00    -0.014 A 
BRANCH  51  52
ATOM     52  C   UNL A   1      37.193  32.671  33.727  1.00  0.00     0.031 A 
ATOM     53  C   UNL A   1      38.066  32.931  34.937  1.00  0.00     0.074 A 
ATOM     54  C   UNL A   1      37.531  31.627  32.940  1.00  0.00     0.049 A 
ATOM     55  N   UNL A   1      39.226  32.419  35.265  1.00  0.00    -0.248 NA
ATOM     56  C   UNL A   1      37.538  33.895  35.916  1.00  0.00     0.031 C 
ATOM     57  C   UNL A   1      36.756  31.102  31.824  1.00  0.00     0.029 A 
ATOM     58  N   UNL A   1      38.673  30.844  32.938  1.00  0.00    -0.354 N 
ATOM     59  C   UNL A   1      39.567  33.005  36.478  1.00  0.00     0.074 A 
ATOM     60  C   UNL A   1      38.524  33.956  36.795  1.00  0.00     0.031 C 
ATOM     61  C   UNL A   1      37.479  30.159  31.186  1.00  0.00     0.029 A 
ATOM     62  C   UNL A   1      38.779  30.017  31.840  1.00  0.00     0.049 A 
ATOM     63  H   UNL A   1      39.348  30.874  33.655  1.00  0.00     0.167 HD
ATOM     64  C   UNL A   1      40.628  32.761  37.284  1.00  0.00     0.031 A 
ATOM     65  C   UNL A   1      39.808  29.268  31.383  1.00  0.00     0.031 A 
ATOM     66  C   UNL A   1      41.679  31.823  36.997  1.00  0.00     0.049 A 
ATOM     67  C   UNL A   1      41.080  29.156  32.186  1.00  0.00     0.074 A 
ATOM     68  C   UNL A   1      42.774  31.495  37.778  1.00  0.00     0.029 A 
ATOM     69  N   UNL A   1      41.775  31.072  35.839  1.00  0.00    -0.354 N 
ATOM     70  N   UNL A   1      41.381  29.703  33.338  1.00  0.00    -0.248 NA
ATOM     71  C   UNL A   1      42.138  28.284  31.645  1.00  0.00     0.031 C 
ATOM     72  C   UNL A   1      43.570  30.595  37.062  1.00  0.00     0.029 A 
ATOM     73  C   UNL A   1      42.931  30.307  35.868  1.00  0.00     0.049 A 
ATOM     74  H   UNL A   1      41.119  31.079  35.104  1.00  0.00     0.167 HD
ATOM     75  C   UNL A   1      42.624  29.186  33.691  1.00  0.00     0.074 A 
ATOM     76  C   UNL A   1      43.031  28.298  32.625  1.00  0.00     0.031 C 
ATOM     77  C   UNL A   1      43.343  29.412  34.818  1.00  0.00     0.031 A 
BRANCH  64  78
ATOM     78  C   UNL A   1      40.712  33.554  38.559  1.00  0.00    -0.014 A 
ATOM     79  C   UNL A   1      41.388  34.784  38.611  1.00  0.00     0.009 A 
ATOM     80  C   UNL A   1      40.094  33.068  39.722  1.00  0.00     0.009 A 
ATOM     81  C   UNL A   1      41.485  35.488  39.812  1.00  0.00     0.001 A 
ATOM     82  C   UNL A   1      40.162  33.791  40.913  1.00  0.00     0.001 A 
ATOM     83  C   UNL A   1      40.867  34.992  40.961  1.00  0.00     0.000 A 
ENDBRANCH  64  78
BRANCH  65  84
ATOM     84  C   UNL A   1      39.716  28.558  30.074  1.00  0.00    -0.014 A 
ATOM     85  C   UNL A   1      39.354  27.205  30.003  1.00  0.00     0.009 A 
ATOM     86  C   UNL A   1      40.076  29.214  28.887  1.00  0.00     0.009 A 
ATOM     87  C   UNL A   1      39.364  26.528  28.778  1.00  0.00     0.001 A 
ATOM     88  C   UNL A   1      40.051  28.548  27.658  1.00  0.00     0.001 A 
ATOM     89  C   UNL A   1      39.701  27.202  27.606  1.00  0.00     0.000 A 
ENDBRANCH  65  84
BRANCH  77  90
ATOM     90  C   UNL A   1      44.615  28.631  35.012  1.00  0.00    -0.014 A 
ATOM     91  C   UNL A   1      44.650  27.435  35.744  1.00  0.00     0.009 A 
ATOM     92  C   UNL A   1      45.799  29.084  34.402  1.00  0.00     0.009 A 
ATOM     93  C   UNL A   1      45.847  26.728  35.889  1.00  0.00     0.001 A 
ATOM     94  C   UNL A   1      46.986  28.360  34.521  1.00  0.00     0.001 A 
ATOM     95  C   UNL A   1      47.012  27.187  35.273  1.00  0.00     0.000 A 
ENDBRANCH  77  90
ENDBRANCH  51  52
ENDBRANCH  44  46
ENDBRANCH  43  44
ENDBRANCH  42  43
ENDBRANCH  41  42
ENDBRANCH  40  41
ENDBRANCH   1  40
TORSDOF 18
ENDMDL
MODEL 2
REMARK VINA RESULT:     -10.7      6.387     13.920
REMARK SMILES C[C@H]1[C@H](C)CC[C@@]2(C(=O)OCCOCCOCCOC(=O)c3ccc(-c4c5nc(c(-c6ccccc6)c6ccc([nH]6)c(-c6ccccc6)c6nc(c(-c7ccccc7)c7ccc4[nH]7)C=C6)C=C5)cc3)CC[C@@]3(C)C(=CC[C@@H]4[C@@]5(C)CC[C@H](O)C(C)(C)[C@@H]5CC[C@]43C)[C@H]12
REMARK SMILES IDX 15 1 14 2 13 3 12 4 11 5 10 6 8 7 9 8 7 9 1 10 2 11 3 12
REMARK SMILES IDX 92 13 4 14 5 15 74 16 6 17 70 18 72 19 75 20 71 21 73 22
REMARK SMILES IDX 90 23 76 24 77 25 89 26 91 27 78 28 88 29 79 30 80 31 87 32
REMARK SMILES IDX 81 33 84 34 82 35 85 36 86 37 83 38 16 40 17 41 18 42 19 43
REMARK SMILES IDX 20 44 21 45 22 46 23 47 69 48 24 49 68 50 25 51 26 52 27 53
REMARK SMILES IDX 62 54 28 55 67 56 61 57 63 58 29 59 66 60 60 61 59 62 30 64
REMARK SMILES IDX 52 65 37 66 51 67 38 68 41 69 50 70 64 71 39 72 40 73 49 75
REMARK SMILES IDX 65 76 42 77 31 78 32 79 36 80 33 81 35 82 34 83 53 84 54 85
REMARK SMILES IDX 58 86 55 87 57 88 56 89 43 90 44 91 48 92 45 93 47 94 46 95
REMARK H PARENT 83 39 63 63 41 74
REMARK Flexibility Score: inf
ROOT
ATOM      1  C   UNL A   1      49.882  32.938  28.657  1.00  0.00     0.188 C 
ENDROOT
BRANCH   1   2
ATOM      2  C   UNL A   1      48.791  31.865  28.983  1.00  0.00     0.188 C 
BRANCH   2   3
ATOM      3  O   UNL A   1      49.138  30.554  28.598  1.00  0.00    -0.376 OA
BRANCH   3   4
ATOM      4  C   UNL A   1      49.580  29.767  29.677  1.00  0.00     0.202 C 
BRANCH   4   5
ATOM      5  C   UNL A   1      48.574  29.437  30.776  1.00  0.00     0.261 C 
BRANCH   5   6
ATOM      6  O   UNL A   1      47.459  28.436  30.636  1.00  0.00    -0.463 OA
BRANCH   6   7
ATOM      7  C   UNL A   1      46.162  28.078  30.442  1.00  0.00     0.312 C 
ATOM      8  O   UNL A   1      45.201  28.807  30.224  1.00  0.00    -0.252 OA
BRANCH   7   9
ATOM      9  C   UNL A   1      46.014  26.535  30.412  1.00  0.00     0.075 C 
ATOM     10  C   UNL A   1      49.033  25.357  32.717  1.00  0.00     0.008 C 
ATOM     11  C   UNL A   1      48.268  26.009  31.568  1.00  0.00    -0.003 C 
ATOM     12  C   UNL A   1      48.841  25.577  30.163  1.00  0.00    -0.011 C 
ATOM     13  C   UNL A   1      46.650  25.949  31.710  1.00  0.00     0.036 C 
ATOM     14  C   UNL A   1      50.318  25.972  29.940  1.00  0.00     0.008 C 
ATOM     15  C   UNL A   1      48.097  26.199  28.979  1.00  0.00     0.005 C 
ATOM     16  C   UNL A   1      45.806  26.711  32.858  1.00  0.00    -0.063 C 
ATOM     17  C   UNL A   1      46.608  26.031  29.088  1.00  0.00     0.020 C 
ATOM     18  C   UNL A   1      44.526  26.116  30.333  1.00  0.00     0.020 C 
ATOM     19  C   UNL A   1      44.220  26.563  32.864  1.00  0.00    -0.006 C 
ATOM     20  C   UNL A   1      46.361  27.690  33.602  1.00  0.00    -0.027 C 
ATOM     21  C   UNL A   1      43.654  26.697  31.425  1.00  0.00     0.013 C 
ATOM     22  C   UNL A   1      43.910  25.126  33.345  1.00  0.00     0.017 C 
ATOM     23  C   UNL A   1      43.455  27.679  33.832  1.00  0.00    -0.020 C 
ATOM     24  C   UNL A   1      45.591  28.883  34.134  1.00  0.00     0.032 C 
ATOM     25  C   UNL A   1      44.165  29.049  33.551  1.00  0.00     0.006 C 
ATOM     26  C   UNL A   1      41.932  27.829  33.573  1.00  0.00     0.008 C 
ATOM     27  C   UNL A   1      43.576  27.257  35.326  1.00  0.00     0.012 C 
ATOM     28  C   UNL A   1      43.421  30.443  33.904  1.00  0.00    -0.025 C 
ATOM     29  C   UNL A   1      41.298  29.046  34.285  1.00  0.00     0.005 C 
ATOM     30  C   UNL A   1      43.869  30.919  35.298  1.00  0.00     0.012 C 
ATOM     31  C   UNL A   1      43.855  31.552  32.879  1.00  0.00     0.010 C 
ATOM     32  C   UNL A   1      41.860  30.350  33.711  1.00  0.00     0.003 C 
ATOM     33  C   UNL A   1      43.129  32.899  33.037  1.00  0.00     0.033 C 
ATOM     34  C   UNL A   1      41.049  31.686  34.025  1.00  0.00    -0.006 C 
ATOM     35  C   UNL A   1      41.602  32.790  33.077  1.00  0.00     0.120 C 
ATOM     36  C   UNL A   1      41.052  32.123  35.504  1.00  0.00     0.014 C 
ATOM     37  C   UNL A   1      39.544  31.535  33.687  1.00  0.00     0.014 C 
BRANCH  35  38
ATOM     38  O   UNL A   1      41.045  34.074  33.357  1.00  0.00    -0.393 OA
ATOM     39  H   UNL A   1      41.711  34.759  33.190  1.00  0.00     0.210 HD
ENDBRANCH  35  38
ENDBRANCH   7   9
ENDBRANCH   6   7
ENDBRANCH   5   6
ENDBRANCH   4   5
ENDBRANCH   3   4
ENDBRANCH   2   3
ENDBRANCH   1   2
BRANCH   1  40
ATOM     40  O   UNL A   1      49.799  33.681  27.452  1.00  0.00    -0.376 OA
BRANCH  40  41
ATOM     41  C   UNL A   1      50.035  35.068  27.528  1.00  0.00     0.202 C 
BRANCH  41  42
ATOM     42  C   UNL A   1      49.072  35.996  26.763  1.00  0.00     0.261 C 
BRANCH  42  43
ATOM     43  O   UNL A   1      47.846  36.399  27.432  1.00  0.00    -0.460 OA
BRANCH  43  44
ATOM     44  C   UNL A   1      46.678  36.328  26.723  1.00  0.00     0.338 C 
ATOM     45  O   UNL A   1      46.388  37.015  25.766  1.00  0.00    -0.246 OA
BRANCH  44  46
ATOM     46  C   UNL A   1      45.830  35.156  27.149  1.00  0.00     0.060 A 
ATOM     47  C   UNL A   1      46.121  34.474  28.348  1.00  0.00     0.016 A 
ATOM     48  C   UNL A   1      44.807  34.668  26.343  1.00  0.00     0.016 A 
ATOM     49  C   UNL A   1      45.459  33.275  28.698  1.00  0.00     0.010 A 
ATOM     50  C   UNL A   1      44.163  33.459  26.684  1.00  0.00     0.010 A 
ATOM     51  C   UNL A   1      44.515  32.715  27.835  1.00  0.00    -0.014 A 
BRANCH  51  52
ATOM     52  C   UNL A   1      44.087  31.272  27.932  1.00  0.00     0.031 A 
ATOM     53  C   UNL A   1      44.883  30.260  27.134  1.00  0.00     0.074 A 
ATOM     54  C   UNL A   1      43.058  30.801  28.669  1.00  0.00     0.049 A 
ATOM     55  N   UNL A   1      44.631  28.999  26.883  1.00  0.00    -0.248 NA
ATOM     56  C   UNL A   1      46.145  30.747  26.554  1.00  0.00     0.031 C 
ATOM     57  C   UNL A   1      42.263  31.560  29.624  1.00  0.00     0.029 A 
ATOM     58  N   UNL A   1      42.469  29.548  28.678  1.00  0.00    -0.354 N 
ATOM     59  C   UNL A   1      45.696  28.549  26.113  1.00  0.00     0.074 A 
ATOM     60  C   UNL A   1      46.562  29.685  25.884  1.00  0.00     0.031 C 
ATOM     61  C   UNL A   1      41.236  30.797  30.050  1.00  0.00     0.029 A 
ATOM     62  C   UNL A   1      41.289  29.494  29.390  1.00  0.00     0.049 A 
ATOM     63  H   UNL A   1      42.856  28.766  28.221  1.00  0.00     0.167 HD
ATOM     64  C   UNL A   1      45.963  27.302  25.657  1.00  0.00     0.031 A 
ATOM     65  C   UNL A   1      40.340  28.534  29.472  1.00  0.00     0.031 A 
ATOM     66  C   UNL A   1      45.124  26.153  25.869  1.00  0.00     0.049 A 
ATOM     67  C   UNL A   1      40.544  27.204  28.790  1.00  0.00     0.074 A 
ATOM     68  C   UNL A   1      45.340  24.846  25.467  1.00  0.00     0.029 A 
ATOM     69  N   UNL A   1      43.908  26.172  26.528  1.00  0.00    -0.354 N 
ATOM     70  N   UNL A   1      41.563  26.788  28.078  1.00  0.00    -0.248 NA
ATOM     71  C   UNL A   1      39.486  26.194  28.964  1.00  0.00     0.031 C 
ATOM     72  C   UNL A   1      44.221  24.087  25.823  1.00  0.00     0.029 A 
ATOM     73  C   UNL A   1      43.344  24.906  26.513  1.00  0.00     0.049 A 
ATOM     74  H   UNL A   1      43.504  26.967  26.947  1.00  0.00     0.167 HD
ATOM     75  C   UNL A   1      41.301  25.454  27.784  1.00  0.00     0.074 A 
ATOM     76  C   UNL A   1      40.021  25.133  28.376  1.00  0.00     0.031 C 
ATOM     77  C   UNL A   1      42.075  24.572  27.106  1.00  0.00     0.031 A 
BRANCH  64  78
ATOM     78  C   UNL A   1      47.222  27.124  24.854  1.00  0.00    -0.014 A 
ATOM     79  C   UNL A   1      48.342  26.466  25.390  1.00  0.00     0.009 A 
ATOM     80  C   UNL A   1      47.284  27.608  23.539  1.00  0.00     0.009 A 
ATOM     81  C   UNL A   1      49.514  26.341  24.642  1.00  0.00     0.001 A 
ATOM     82  C   UNL A   1      48.444  27.450  22.781  1.00  0.00     0.001 A 
ATOM     83  C   UNL A   1      49.561  26.829  23.336  1.00  0.00     0.000 A 
ENDBRANCH  64  78
BRANCH  65  84
ATOM     84  C   UNL A   1      39.068  28.777  30.214  1.00  0.00    -0.014 A 
ATOM     85  C   UNL A   1      37.996  29.457  29.618  1.00  0.00     0.009 A 
ATOM     86  C   UNL A   1      38.953  28.400  31.561  1.00  0.00     0.009 A 
ATOM     87  C   UNL A   1      36.846  29.759  30.357  1.00  0.00     0.001 A 
ATOM     88  C   UNL A   1      37.790  28.670  32.289  1.00  0.00     0.001 A 
ATOM     89  C   UNL A   1      36.739  29.356  31.687  1.00  0.00     0.000 A 
ENDBRANCH  65  84
BRANCH  77  90
ATOM     90  C   UNL A   1      41.611  23.141  27.026  1.00  0.00    -0.014 A 
ATOM     91  C   UNL A   1      40.564  22.745  26.182  1.00  0.00     0.009 A 
ATOM     92  C   UNL A   1      42.277  22.160  27.782  1.00  0.00     0.009 A 
ATOM     93  C   UNL A   1      40.171  21.405  26.121  1.00  0.00     0.001 A 
ATOM     94  C   UNL A   1      41.905  20.818  27.695  1.00  0.00     0.001 A 
ATOM     95  C   UNL A   1      40.845  20.442  26.872  1.00  0.00     0.000 A 
ENDBRANCH  77  90
ENDBRANCH  51  52
ENDBRANCH  44  46
ENDBRANCH  43  44
ENDBRANCH  42  43
ENDBRANCH  41  42
ENDBRANCH  40  41
ENDBRANCH   1  40
TORSDOF 18
ENDMDL
MODEL 3
REMARK VINA RESULT:     -10.4     18.115     21.454
REMARK SMILES C[C@H]1[C@H](C)CC[C@@]2(C(=O)OCCOCCOCCOC(=O)c3ccc(-c4c5nc(c(-c6ccccc6)c6ccc([nH]6)c(-c6ccccc6)c6nc(c(-c7ccccc7)c7ccc4[nH]7)C=C6)C=C5)cc3)CC[C@@]3(C)C(=CC[C@@H]4[C@@]5(C)CC[C@H](O)C(C)(C)[C@@H]5CC[C@]43C)[C@H]12
REMARK SMILES IDX 15 1 14 2 13 3 12 4 11 5 10 6 8 7 9 8 7 9 1 10 2 11 3 12
REMARK SMILES IDX 92 13 4 14 5 15 74 16 6 17 70 18 72 19 75 20 71 21 73 22
REMARK SMILES IDX 90 23 76 24 77 25 89 26 91 27 78 28 88 29 79 30 80 31 87 32
REMARK SMILES IDX 81 33 84 34 82 35 85 36 86 37 83 38 16 40 17 41 18 42 19 43
REMARK SMILES IDX 20 44 21 45 22 46 23 47 69 48 24 49 68 50 25 51 26 52 27 53
REMARK SMILES IDX 62 54 28 55 67 56 61 57 63 58 29 59 66 60 60 61 59 62 30 64
REMARK SMILES IDX 52 65 37 66 51 67 38 68 41 69 50 70 64 71 39 72 40 73 49 75
REMARK SMILES IDX 65 76 42 77 31 78 32 79 36 80 33 81 35 82 34 83 53 84 54 85
REMARK SMILES IDX 58 86 55 87 57 88 56 89 43 90 44 91 48 92 45 93 47 94 46 95
REMARK H PARENT 83 39 63 63 41 74
REMARK Flexibility Score: inf
ROOT
ATOM      1  C   UNL A   1      50.550  50.966  21.034  1.00  0.00     0.188 C 
ENDROOT
BRANCH   1   2
ATOM      2  C   UNL A   1      49.576  49.860  20.508  1.00  0.00     0.188 C 
BRANCH   2   3
ATOM      3  O   UNL A   1      49.774  49.513  19.156  1.00  0.00    -0.376 OA
BRANCH   3   4
ATOM      4  C   UNL A   1      48.614  49.672  18.376  1.00  0.00     0.202 C 
BRANCH   4   5
ATOM      5  C   UNL A   1      48.111  48.462  17.594  1.00  0.00     0.261 C 
BRANCH   5   6
ATOM      6  O   UNL A   1      46.999  47.556  18.051  1.00  0.00    -0.463 OA
BRANCH   6   7
ATOM      7  C   UNL A   1      45.910  46.769  17.847  1.00  0.00     0.312 C 
ATOM      8  O   UNL A   1      45.806  45.801  17.104  1.00  0.00    -0.252 OA
BRANCH   7   9
ATOM      9  C   UNL A   1      44.753  47.175  18.795  1.00  0.00     0.075 C 
ATOM     10  C   UNL A   1      42.404  43.968  18.677  1.00  0.00     0.008 C 
ATOM     11  C   UNL A   1      43.199  45.188  18.219  1.00  0.00    -0.003 C 
ATOM     12  C   UNL A   1      42.313  46.180  17.370  1.00  0.00    -0.011 C 
ATOM     13  C   UNL A   1      44.107  45.879  19.377  1.00  0.00     0.036 C 
ATOM     14  C   UNL A   1      41.743  45.561  16.075  1.00  0.00     0.008 C 
ATOM     15  C   UNL A   1      43.067  47.426  16.899  1.00  0.00     0.005 C 
ATOM     16  C   UNL A   1      45.376  45.173  20.084  1.00  0.00    -0.063 C 
ATOM     17  C   UNL A   1      43.808  48.103  18.016  1.00  0.00     0.020 C 
ATOM     18  C   UNL A   1      45.264  48.061  19.958  1.00  0.00     0.020 C 
ATOM     19  C   UNL A   1      46.175  45.981  21.200  1.00  0.00    -0.006 C 
ATOM     20  C   UNL A   1      45.952  44.074  19.554  1.00  0.00    -0.027 C 
ATOM     21  C   UNL A   1      46.397  47.451  20.756  1.00  0.00     0.013 C 
ATOM     22  C   UNL A   1      45.272  46.014  22.456  1.00  0.00     0.017 C 
ATOM     23  C   UNL A   1      47.657  45.317  21.565  1.00  0.00    -0.020 C 
ATOM     24  C   UNL A   1      47.433  43.765  19.655  1.00  0.00     0.032 C 
ATOM     25  C   UNL A   1      48.304  44.930  20.189  1.00  0.00     0.006 C 
ATOM     26  C   UNL A   1      48.618  46.259  22.337  1.00  0.00     0.008 C 
ATOM     27  C   UNL A   1      47.468  44.077  22.488  1.00  0.00     0.012 C 
ATOM     28  C   UNL A   1      49.904  44.721  20.070  1.00  0.00    -0.025 C 
ATOM     29  C   UNL A   1      50.067  45.727  22.430  1.00  0.00     0.005 C 
ATOM     30  C   UNL A   1      50.234  43.225  20.224  1.00  0.00     0.012 C 
ATOM     31  C   UNL A   1      50.392  45.153  18.640  1.00  0.00     0.010 C 
ATOM     32  C   UNL A   1      50.704  45.674  21.037  1.00  0.00     0.003 C 
ATOM     33  C   UNL A   1      51.916  45.109  18.435  1.00  0.00     0.033 C 
ATOM     34  C   UNL A   1      52.291  45.543  20.973  1.00  0.00    -0.006 C 
ATOM     35  C   UNL A   1      52.716  45.851  19.508  1.00  0.00     0.120 C 
ATOM     36  C   UNL A   1      52.859  44.202  21.483  1.00  0.00     0.014 C 
ATOM     37  C   UNL A   1      52.989  46.603  21.863  1.00  0.00     0.014 C 
BRANCH  35  38
ATOM     38  O   UNL A   1      54.111  45.633  19.292  1.00  0.00    -0.393 OA
ATOM     39  H   UNL A   1      54.230  44.961  18.603  1.00  0.00     0.210 HD
ENDBRANCH  35  38
ENDBRANCH   7   9
ENDBRANCH   6   7
ENDBRANCH   5   6
ENDBRANCH   4   5
ENDBRANCH   3   4
ENDBRANCH   2   3
ENDBRANCH   1   2
BRANCH   1  40
ATOM     40  O   UNL A   1      50.070  51.957  21.928  1.00  0.00    -0.376 OA
BRANCH  40  41
ATOM     41  C   UNL A   1      50.897  52.306  23.014  1.00  0.00     0.202 C 
BRANCH  41  42
ATOM     42  C   UNL A   1      50.217  52.555  24.374  1.00  0.00     0.261 C 
BRANCH  42  43
ATOM     43  O   UNL A   1      49.114  51.685  24.748  1.00  0.00    -0.460 OA
BRANCH  43  44
ATOM     44  C   UNL A   1      48.889  51.475  26.081  1.00  0.00     0.338 C 
ATOM     45  O   UNL A   1      48.416  52.282  26.855  1.00  0.00    -0.246 OA
BRANCH  44  46
ATOM     46  C   UNL A   1      49.129  50.040  26.475  1.00  0.00     0.060 A 
ATOM     47  C   UNL A   1      49.752  49.155  25.571  1.00  0.00     0.016 A 
ATOM     48  C   UNL A   1      48.674  49.533  27.688  1.00  0.00     0.016 A 
ATOM     49  C   UNL A   1      49.844  47.770  25.835  1.00  0.00     0.010 A 
ATOM     50  C   UNL A   1      48.749  48.146  27.939  1.00  0.00     0.010 A 
ATOM     51  C   UNL A   1      49.283  47.235  26.997  1.00  0.00    -0.014 A 
BRANCH  51  52
ATOM     52  C   UNL A   1      48.978  45.766  27.145  1.00  0.00     0.031 A 
ATOM     53  C   UNL A   1      50.028  44.907  27.818  1.00  0.00     0.074 A 
ATOM     54  C   UNL A   1      47.851  45.148  26.733  1.00  0.00     0.049 A 
ATOM     55  N   UNL A   1      50.116  43.603  27.912  1.00  0.00    -0.248 NA
ATOM     56  C   UNL A   1      51.120  45.631  28.488  1.00  0.00     0.031 C 
ATOM     57  C   UNL A   1      46.656  45.794  26.208  1.00  0.00     0.029 A 
ATOM     58  N   UNL A   1      47.555  43.798  26.646  1.00  0.00    -0.354 N 
ATOM     59  C   UNL A   1      51.272  43.355  28.641  1.00  0.00     0.074 A 
ATOM     60  C   UNL A   1      51.885  44.638  28.909  1.00  0.00     0.031 C 
ATOM     61  C   UNL A   1      45.801  44.851  25.764  1.00  0.00     0.029 A 
ATOM     62  C   UNL A   1      46.390  43.527  25.960  1.00  0.00     0.049 A 
ATOM     63  H   UNL A   1      48.122  43.095  27.039  1.00  0.00     0.167 HD
ATOM     64  C   UNL A   1      51.775  42.179  29.085  1.00  0.00     0.031 A 
ATOM     65  C   UNL A   1      45.875  42.364  25.501  1.00  0.00     0.031 A 
ATOM     66  C   UNL A   1      51.190  40.889  28.837  1.00  0.00     0.049 A 
ATOM     67  C   UNL A   1      46.551  41.054  25.825  1.00  0.00     0.074 A 
ATOM     68  C   UNL A   1      51.620  39.650  29.279  1.00  0.00     0.029 A 
ATOM     69  N   UNL A   1      50.057  40.668  28.073  1.00  0.00    -0.354 N 
ATOM     70  N   UNL A   1      47.634  40.835  26.528  1.00  0.00    -0.248 NA
ATOM     71  C   UNL A   1      45.903  39.827  25.329  1.00  0.00     0.031 C 
ATOM     72  C   UNL A   1      50.788  38.673  28.726  1.00  0.00     0.029 A 
ATOM     73  C   UNL A   1      49.794  39.310  28.001  1.00  0.00     0.049 A 
ATOM     74  H   UNL A   1      49.517  41.372  27.645  1.00  0.00     0.167 HD
ATOM     75  C   UNL A   1      47.755  39.452  26.619  1.00  0.00     0.074 A 
ATOM     76  C   UNL A   1      46.648  38.882  25.884  1.00  0.00     0.031 C 
ATOM     77  C   UNL A   1      48.690  38.729  27.281  1.00  0.00     0.031 A 
BRANCH  64  78
ATOM     78  C   UNL A   1      53.052  42.238  29.877  1.00  0.00    -0.014 A 
ATOM     79  C   UNL A   1      54.305  42.149  29.248  1.00  0.00     0.009 A 
ATOM     80  C   UNL A   1      53.001  42.397  31.270  1.00  0.00     0.009 A 
ATOM     81  C   UNL A   1      55.479  42.171  30.004  1.00  0.00     0.001 A 
ATOM     82  C   UNL A   1      54.177  42.454  32.019  1.00  0.00     0.001 A 
ATOM     83  C   UNL A   1      55.413  42.328  31.388  1.00  0.00     0.000 A 
ENDBRANCH  64  78
BRANCH  65  84
ATOM     84  C   UNL A   1      44.647  42.352  24.652  1.00  0.00    -0.014 A 
ATOM     85  C   UNL A   1      44.687  42.760  23.311  1.00  0.00     0.009 A 
ATOM     86  C   UNL A   1      43.406  42.010  25.210  1.00  0.00     0.009 A 
ATOM     87  C   UNL A   1      43.511  42.832  22.555  1.00  0.00     0.001 A 
ATOM     88  C   UNL A   1      42.237  42.048  24.444  1.00  0.00     0.001 A 
ATOM     89  C   UNL A   1      42.289  42.467  23.117  1.00  0.00     0.000 A 
ENDBRANCH  65  84
BRANCH  77  90
ATOM     90  C   UNL A   1      48.528  37.233  27.321  1.00  0.00    -0.014 A 
ATOM     91  C   UNL A   1      47.765  36.593  28.309  1.00  0.00     0.009 A 
ATOM     92  C   UNL A   1      49.117  36.450  26.312  1.00  0.00     0.009 A 
ATOM     93  C   UNL A   1      47.623  35.202  28.305  1.00  0.00     0.001 A 
ATOM     94  C   UNL A   1      48.946  35.066  26.290  1.00  0.00     0.001 A 
ATOM     95  C   UNL A   1      48.207  34.441  27.292  1.00  0.00     0.000 A 
ENDBRANCH  77  90
ENDBRANCH  51  52
ENDBRANCH  44  46
ENDBRANCH  43  44
ENDBRANCH  42  43
ENDBRANCH  41  42
ENDBRANCH  40  41
ENDBRANCH   1  40
TORSDOF 18
ENDMDL
