MODEL 1
REMARK VINA RESULT:      -9.9      0.000      0.000
REMARK SMILES C[C@@H]1CCC[C@H]1NC(=O)c1csc(/C=C/C(=O)OCCOCCOCCOC(=O)c2ccc(-c3c4nc(c(-c5ccccc5)c5ccc([nH]5)c(-c5ccccc5)c5nc(c(-c6ccccc6)c6ccc3[nH]6)C=C5)C=C4)cc2)c1
REMARK SMILES IDX 22 1 21 2 20 3 19 4 18 5 16 6 17 7 15 8 14 9 13 10 10 11
REMARK SMILES IDX 11 12 78 13 12 14 8 15 7 16 9 18 6 19 1 20 2 21 3 22 4 23
REMARK SMILES IDX 5 24 23 25 24 26 25 27 26 28 27 29 28 30 29 31 30 32 31 33
REMARK SMILES IDX 77 34 32 35 76 36 33 37 34 38 35 39 70 40 36 41 75 42 69 43
REMARK SMILES IDX 71 44 37 45 74 46 68 47 67 48 38 50 60 51 45 52 59 53 46 54
REMARK SMILES IDX 49 55 58 56 72 57 47 58 48 59 57 61 73 62 50 63 39 64 40 65
REMARK SMILES IDX 44 66 41 67 43 68 42 69 61 70 62 71 66 72 63 73 65 74 64 75
REMARK SMILES IDX 51 76 52 77 56 78 53 79 55 80 54 81
REMARK H PARENT 7 17 71 49 49 60
REMARK Flexibility Score: inf
ROOT
ATOM      1  C   UNL A   1      32.533  20.561  24.731  1.00  0.00     0.188 C 
ENDROOT
BRANCH   1   2
ATOM      2  O   UNL A   1      32.461  20.978  23.371  1.00  0.00    -0.376 OA
BRANCH   2   3
ATOM      3  C   UNL A   1      32.099  22.322  23.068  1.00  0.00     0.202 C 
BRANCH   3   4
ATOM      4  C   UNL A   1      33.212  23.351  22.838  1.00  0.00     0.261 C 
BRANCH   4   5
ATOM      5  O   UNL A   1      33.437  23.679  21.455  1.00  0.00    -0.460 OA
BRANCH   5   6
ATOM      6  C   UNL A   1      33.035  24.918  21.083  1.00  0.00     0.330 C 
ATOM      7  O   UNL A   1      32.953  25.341  19.939  1.00  0.00    -0.247 OA
BRANCH   6   8
ATOM      8  C   UNL A   1      32.576  25.739  22.222  1.00  0.00     0.095 C 
ATOM      9  C   UNL A   1      32.960  26.994  22.504  1.00  0.00     0.026 C 
BRANCH   9  10
ATOM     10  C   UNL A   1      32.437  27.716  23.623  1.00  0.00     0.028 A 
ATOM     11  C   UNL A   1      32.045  28.425  25.862  1.00  0.00     0.051 A 
ATOM     12  C   UNL A   1      31.361  29.374  25.130  1.00  0.00     0.079 A 
ATOM     13  C   UNL A   1      32.661  27.473  24.969  1.00  0.00     0.033 A 
ATOM     14  S   UNL A   1      31.364  29.056  23.454  1.00  0.00    -0.144 S 
BRANCH  11  15
ATOM     15  C   UNL A   1      32.255  28.432  27.308  1.00  0.00     0.252 C 
ATOM     16  N   UNL A   1      33.338  29.055  27.875  1.00  0.00    -0.349 N 
ATOM     17  H   UNL A   1      33.499  28.808  28.814  1.00  0.00     0.164 HD
ATOM     18  O   UNL A   1      31.457  27.879  28.063  1.00  0.00    -0.269 OA
BRANCH  16  19
ATOM     19  C   UNL A   1      34.296  30.016  27.335  1.00  0.00     0.085 C 
ATOM     20  C   UNL A   1      35.274  32.305  27.832  1.00  0.00     0.010 C 
ATOM     21  C   UNL A   1      34.751  30.998  28.428  1.00  0.00     0.008 C 
ATOM     22  C   UNL A   1      35.853  30.227  29.156  1.00  0.00     0.005 C 
ATOM     23  C   UNL A   1      36.561  29.419  28.074  1.00  0.00     0.002 C 
ATOM     24  C   UNL A   1      35.581  29.303  26.904  1.00  0.00     0.025 C 
ENDBRANCH  16  19
ENDBRANCH  11  15
ENDBRANCH   9  10
ENDBRANCH   6   8
ENDBRANCH   5   6
ENDBRANCH   4   5
ENDBRANCH   3   4
ENDBRANCH   2   3
ENDBRANCH   1   2
BRANCH   1  25
ATOM     25  C   UNL A   1      33.158  21.499  25.785  1.00  0.00     0.188 C 
BRANCH  25  26
ATOM     26  O   UNL A   1      34.551  21.337  25.930  1.00  0.00    -0.376 OA
BRANCH  26  27
ATOM     27  C   UNL A   1      35.269  20.582  24.970  1.00  0.00     0.202 C 
BRANCH  27  28
ATOM     28  C   UNL A   1      36.807  20.513  24.948  1.00  0.00     0.261 C 
BRANCH  28  29
ATOM     29  O   UNL A   1      37.527  21.484  25.712  1.00  0.00    -0.460 OA
BRANCH  29  30
ATOM     30  C   UNL A   1      38.800  21.179  26.050  1.00  0.00     0.338 C 
ATOM     31  O   UNL A   1      39.375  20.120  25.899  1.00  0.00    -0.246 OA
BRANCH  30  32
ATOM     32  C   UNL A   1      39.444  22.423  26.518  1.00  0.00     0.060 A 
ATOM     33  C   UNL A   1      38.931  23.654  26.094  1.00  0.00     0.016 A 
ATOM     34  C   UNL A   1      40.549  22.367  27.370  1.00  0.00     0.016 A 
ATOM     35  C   UNL A   1      39.537  24.841  26.514  1.00  0.00     0.010 A 
ATOM     36  C   UNL A   1      41.166  23.555  27.773  1.00  0.00     0.010 A 
ATOM     37  C   UNL A   1      40.675  24.796  27.331  1.00  0.00    -0.014 A 
BRANCH  37  38
ATOM     38  C   UNL A   1      41.447  26.029  27.614  1.00  0.00     0.031 A 
ATOM     39  C   UNL A   1      40.844  27.067  28.516  1.00  0.00     0.074 A 
ATOM     40  C   UNL A   1      42.660  26.228  27.071  1.00  0.00     0.049 A 
ATOM     41  N   UNL A   1      41.297  28.252  28.836  1.00  0.00    -0.248 NA
ATOM     42  C   UNL A   1      39.557  26.722  29.143  1.00  0.00     0.031 C 
ATOM     43  C   UNL A   1      43.379  25.278  26.223  1.00  0.00     0.029 A 
ATOM     44  N   UNL A   1      43.497  27.314  27.148  1.00  0.00    -0.354 N 
ATOM     45  C   UNL A   1      40.353  28.793  29.701  1.00  0.00     0.074 A 
ATOM     46  C   UNL A   1      39.292  27.819  29.836  1.00  0.00     0.031 C 
ATOM     47  C   UNL A   1      44.548  25.829  25.848  1.00  0.00     0.029 A 
ATOM     48  C   UNL A   1      44.639  27.182  26.395  1.00  0.00     0.049 A 
ATOM     49  H   UNL A   1      43.299  28.111  27.690  1.00  0.00     0.167 HD
ATOM     50  C   UNL A   1      40.370  29.992  30.329  1.00  0.00     0.031 A 
ATOM     51  C   UNL A   1      45.627  28.064  26.152  1.00  0.00     0.031 A 
ATOM     52  C   UNL A   1      41.406  30.975  30.172  1.00  0.00     0.049 A 
ATOM     53  C   UNL A   1      45.560  29.439  26.765  1.00  0.00     0.074 A 
ATOM     54  C   UNL A   1      41.508  32.223  30.763  1.00  0.00     0.029 A 
ATOM     55  N   UNL A   1      42.515  30.825  29.356  1.00  0.00    -0.354 N 
ATOM     56  N   UNL A   1      44.672  29.934  27.593  1.00  0.00    -0.248 NA
ATOM     57  C   UNL A   1      46.634  30.378  26.404  1.00  0.00     0.031 C 
ATOM     58  C   UNL A   1      42.655  32.848  30.263  1.00  0.00     0.029 A 
ATOM     59  C   UNL A   1      43.294  31.968  29.404  1.00  0.00     0.049 A 
ATOM     60  H   UNL A   1      42.720  30.024  28.821  1.00  0.00     0.167 HD
ATOM     61  C   UNL A   1      45.094  31.229  27.872  1.00  0.00     0.074 A 
ATOM     62  C   UNL A   1      46.322  31.440  27.135  1.00  0.00     0.031 C 
ATOM     63  C   UNL A   1      44.516  32.161  28.669  1.00  0.00     0.031 A 
BRANCH  50  64
ATOM     64  C   UNL A   1      39.207  30.316  31.221  1.00  0.00    -0.014 A 
ATOM     65  C   UNL A   1      38.875  29.490  32.307  1.00  0.00     0.009 A 
ATOM     66  C   UNL A   1      38.451  31.475  30.990  1.00  0.00     0.009 A 
ATOM     67  C   UNL A   1      37.791  29.807  33.128  1.00  0.00     0.001 A 
ATOM     68  C   UNL A   1      37.383  31.801  31.827  1.00  0.00     0.001 A 
ATOM     69  C   UNL A   1      37.048  30.963  32.890  1.00  0.00     0.000 A 
ENDBRANCH  50  64
BRANCH  51  70
ATOM     70  C   UNL A   1      46.756  27.701  25.256  1.00  0.00    -0.014 A 
ATOM     71  C   UNL A   1      46.751  28.089  23.909  1.00  0.00     0.009 A 
ATOM     72  C   UNL A   1      47.824  26.925  25.735  1.00  0.00     0.009 A 
ATOM     73  C   UNL A   1      47.780  27.687  23.052  1.00  0.00     0.001 A 
ATOM     74  C   UNL A   1      48.864  26.547  24.883  1.00  0.00     0.001 A 
ATOM     75  C   UNL A   1      48.836  26.919  23.540  1.00  0.00     0.000 A 
ENDBRANCH  51  70
BRANCH  63  76
ATOM     76  C   UNL A   1      45.221  33.478  28.818  1.00  0.00    -0.014 A 
ATOM     77  C   UNL A   1      46.241  33.655  29.765  1.00  0.00     0.009 A 
ATOM     78  C   UNL A   1      44.897  34.541  27.959  1.00  0.00     0.009 A 
ATOM     79  C   UNL A   1      46.907  34.879  29.865  1.00  0.00     0.001 A 
ATOM     80  C   UNL A   1      45.580  35.754  28.044  1.00  0.00     0.001 A 
ATOM     81  C   UNL A   1      46.580  35.924  29.000  1.00  0.00     0.000 A 
ENDBRANCH  63  76
ENDBRANCH  37  38
ENDBRANCH  30  32
ENDBRANCH  29  30
ENDBRANCH  28  29
ENDBRANCH  27  28
ENDBRANCH  26  27
ENDBRANCH  25  26
ENDBRANCH   1  25
TORSDOF 20
ENDMDL
MODEL 2
REMARK VINA RESULT:      -9.8      4.845      9.676
REMARK SMILES C[C@@H]1CCC[C@H]1NC(=O)c1csc(/C=C/C(=O)OCCOCCOCCOC(=O)c2ccc(-c3c4nc(c(-c5ccccc5)c5ccc([nH]5)c(-c5ccccc5)c5nc(c(-c6ccccc6)c6ccc3[nH]6)C=C5)C=C4)cc2)c1
REMARK SMILES IDX 22 1 21 2 20 3 19 4 18 5 16 6 17 7 15 8 14 9 13 10 10 11
REMARK SMILES IDX 11 12 78 13 12 14 8 15 7 16 9 18 6 19 1 20 2 21 3 22 4 23
REMARK SMILES IDX 5 24 23 25 24 26 25 27 26 28 27 29 28 30 29 31 30 32 31 33
REMARK SMILES IDX 77 34 32 35 76 36 33 37 34 38 35 39 70 40 36 41 75 42 69 43
REMARK SMILES IDX 71 44 37 45 74 46 68 47 67 48 38 50 60 51 45 52 59 53 46 54
REMARK SMILES IDX 49 55 58 56 72 57 47 58 48 59 57 61 73 62 50 63 39 64 40 65
REMARK SMILES IDX 44 66 41 67 43 68 42 69 61 70 62 71 66 72 63 73 65 74 64 75
REMARK SMILES IDX 51 76 52 77 56 78 53 79 55 80 54 81
REMARK H PARENT 7 17 71 49 49 60
REMARK Flexibility Score: inf
ROOT
ATOM      1  C   UNL A   1      35.246  32.149  28.572  1.00  0.00     0.188 C 
ENDROOT
BRANCH   1   2
ATOM      2  O   UNL A   1      35.824  31.123  27.771  1.00  0.00    -0.376 OA
BRANCH   2   3
ATOM      3  C   UNL A   1      35.329  29.790  27.875  1.00  0.00     0.202 C 
BRANCH   3   4
ATOM      4  C   UNL A   1      34.298  29.305  26.850  1.00  0.00     0.261 C 
BRANCH   4   5
ATOM      5  O   UNL A   1      33.007  29.929  26.969  1.00  0.00    -0.460 OA
BRANCH   5   6
ATOM      6  C   UNL A   1      32.133  29.639  25.976  1.00  0.00     0.330 C 
ATOM      7  O   UNL A   1      31.335  30.411  25.463  1.00  0.00    -0.247 OA
BRANCH   6   8
ATOM      8  C   UNL A   1      32.293  28.268  25.451  1.00  0.00     0.095 C 
ATOM      9  C   UNL A   1      31.304  27.419  25.129  1.00  0.00     0.026 C 
BRANCH   9  10
ATOM     10  C   UNL A   1      31.564  26.113  24.604  1.00  0.00     0.028 A 
ATOM     11  C   UNL A   1      32.611  24.322  23.436  1.00  0.00     0.051 A 
ATOM     12  C   UNL A   1      31.608  23.674  24.126  1.00  0.00     0.079 A 
ATOM     13  C   UNL A   1      32.568  25.735  23.727  1.00  0.00     0.033 A 
ATOM     14  S   UNL A   1      30.590  24.741  24.984  1.00  0.00    -0.144 S 
BRANCH  11  15
ATOM     15  C   UNL A   1      33.662  23.691  22.640  1.00  0.00     0.252 C 
ATOM     16  N   UNL A   1      34.895  23.407  23.171  1.00  0.00    -0.349 N 
ATOM     17  H   UNL A   1      35.584  23.198  22.500  1.00  0.00     0.164 HD
ATOM     18  O   UNL A   1      33.467  23.392  21.463  1.00  0.00    -0.269 OA
BRANCH  16  19
ATOM     19  C   UNL A   1      35.368  23.361  24.552  1.00  0.00     0.085 C 
ATOM     20  C   UNL A   1      34.782  22.329  26.796  1.00  0.00     0.010 C 
ATOM     21  C   UNL A   1      34.794  22.133  25.280  1.00  0.00     0.008 C 
ATOM     22  C   UNL A   1      35.737  21.005  24.863  1.00  0.00     0.005 C 
ATOM     23  C   UNL A   1      37.116  21.648  24.762  1.00  0.00     0.002 C 
ATOM     24  C   UNL A   1      36.886  23.151  24.588  1.00  0.00     0.025 C 
ENDBRANCH  16  19
ENDBRANCH  11  15
ENDBRANCH   9  10
ENDBRANCH   6   8
ENDBRANCH   5   6
ENDBRANCH   4   5
ENDBRANCH   3   4
ENDBRANCH   2   3
ENDBRANCH   1   2
BRANCH   1  25
ATOM     25  C   UNL A   1      35.664  33.618  28.349  1.00  0.00     0.188 C 
BRANCH  25  26
ATOM     26  O   UNL A   1      35.021  34.526  29.214  1.00  0.00    -0.376 OA
BRANCH  26  27
ATOM     27  C   UNL A   1      33.758  35.056  28.856  1.00  0.00     0.202 C 
BRANCH  27  28
ATOM     28  C   UNL A   1      32.909  35.906  29.819  1.00  0.00     0.261 C 
BRANCH  28  29
ATOM     29  O   UNL A   1      32.421  35.276  31.007  1.00  0.00    -0.460 OA
BRANCH  29  30
ATOM     30  C   UNL A   1      32.816  35.801  32.188  1.00  0.00     0.338 C 
ATOM     31  O   UNL A   1      32.264  36.667  32.838  1.00  0.00    -0.246 OA
BRANCH  30  32
ATOM     32  C   UNL A   1      33.989  35.029  32.646  1.00  0.00     0.060 A 
ATOM     33  C   UNL A   1      35.250  35.635  32.629  1.00  0.00     0.016 A 
ATOM     34  C   UNL A   1      33.837  33.713  33.088  1.00  0.00     0.016 A 
ATOM     35  C   UNL A   1      36.373  34.915  33.043  1.00  0.00     0.010 A 
ATOM     36  C   UNL A   1      34.964  32.987  33.484  1.00  0.00     0.010 A 
ATOM     37  C   UNL A   1      36.239  33.578  33.445  1.00  0.00    -0.014 A 
BRANCH  37  38
ATOM     38  C   UNL A   1      37.438  32.743  33.688  1.00  0.00     0.031 A 
ATOM     39  C   UNL A   1      38.238  32.975  34.938  1.00  0.00     0.074 A 
ATOM     40  C   UNL A   1      37.817  31.798  32.810  1.00  0.00     0.049 A 
ATOM     41  N   UNL A   1      39.363  32.425  35.317  1.00  0.00    -0.248 NA
ATOM     42  C   UNL A   1      37.696  33.960  35.889  1.00  0.00     0.031 C 
ATOM     43  C   UNL A   1      37.100  31.438  31.588  1.00  0.00     0.029 A 
ATOM     44  N   UNL A   1      38.917  30.977  32.812  1.00  0.00    -0.354 N 
ATOM     45  C   UNL A   1      39.663  32.994  36.549  1.00  0.00     0.074 A 
ATOM     46  C   UNL A   1      38.616  33.949  36.842  1.00  0.00     0.031 C 
ATOM     47  C   UNL A   1      37.786  30.472  30.950  1.00  0.00     0.029 A 
ATOM     48  C   UNL A   1      39.008  30.178  31.697  1.00  0.00     0.049 A 
ATOM     49  H   UNL A   1      39.578  30.961  33.541  1.00  0.00     0.167 HD
ATOM     50  C   UNL A   1      40.713  32.742  37.365  1.00  0.00     0.031 A 
ATOM     51  C   UNL A   1      39.981  29.330  31.313  1.00  0.00     0.031 A 
ATOM     52  C   UNL A   1      41.771  31.818  37.063  1.00  0.00     0.049 A 
ATOM     53  C   UNL A   1      41.202  29.161  32.181  1.00  0.00     0.074 A 
ATOM     54  C   UNL A   1      42.882  31.500  37.825  1.00  0.00     0.029 A 
ATOM     55  N   UNL A   1      41.855  31.073  35.898  1.00  0.00    -0.354 N 
ATOM     56  N   UNL A   1      41.467  29.692  33.350  1.00  0.00    -0.248 NA
ATOM     57  C   UNL A   1      42.260  28.275  31.670  1.00  0.00     0.031 C 
ATOM     58  C   UNL A   1      43.665  30.598  37.096  1.00  0.00     0.029 A 
ATOM     59  C   UNL A   1      43.013  30.316  35.906  1.00  0.00     0.049 A 
ATOM     60  H   UNL A   1      41.190  31.080  35.173  1.00  0.00     0.167 HD
ATOM     61  C   UNL A   1      42.705  29.184  33.725  1.00  0.00     0.074 A 
ATOM     62  C   UNL A   1      43.135  28.295  32.666  1.00  0.00     0.031 C 
ATOM     63  C   UNL A   1      43.424  29.432  34.848  1.00  0.00     0.031 A 
BRANCH  50  64
ATOM     64  C   UNL A   1      40.781  33.510  38.653  1.00  0.00    -0.014 A 
ATOM     65  C   UNL A   1      40.196  33.008  39.827  1.00  0.00     0.009 A 
ATOM     66  C   UNL A   1      41.461  34.736  38.701  1.00  0.00     0.009 A 
ATOM     67  C   UNL A   1      40.269  33.733  41.017  1.00  0.00     0.001 A 
ATOM     68  C   UNL A   1      41.553  35.447  39.898  1.00  0.00     0.001 A 
ATOM     69  C   UNL A   1      40.950  34.950  41.053  1.00  0.00     0.000 A 
ENDBRANCH  50  64
BRANCH  51  70
ATOM     70  C   UNL A   1      39.874  28.596  30.025  1.00  0.00    -0.014 A 
ATOM     71  C   UNL A   1      39.360  27.292  29.988  1.00  0.00     0.009 A 
ATOM     72  C   UNL A   1      40.327  29.182  28.832  1.00  0.00     0.009 A 
ATOM     73  C   UNL A   1      39.325  26.579  28.787  1.00  0.00     0.001 A 
ATOM     74  C   UNL A   1      40.266  28.476  27.628  1.00  0.00     0.001 A 
ATOM     75  C   UNL A   1      39.775  27.172  27.608  1.00  0.00     0.000 A 
ENDBRANCH  51  70
BRANCH  63  76
ATOM     76  C   UNL A   1      44.727  28.705  35.010  1.00  0.00    -0.014 A 
ATOM     77  C   UNL A   1      45.935  29.269  34.573  1.00  0.00     0.009 A 
ATOM     78  C   UNL A   1      44.753  27.461  35.663  1.00  0.00     0.009 A 
ATOM     79  C   UNL A   1      47.141  28.590  34.764  1.00  0.00     0.001 A 
ATOM     80  C   UNL A   1      45.961  26.797  35.875  1.00  0.00     0.001 A 
ATOM     81  C   UNL A   1      47.153  27.359  35.421  1.00  0.00     0.000 A 
ENDBRANCH  63  76
ENDBRANCH  37  38
ENDBRANCH  30  32
ENDBRANCH  29  30
ENDBRANCH  28  29
ENDBRANCH  27  28
ENDBRANCH  26  27
ENDBRANCH  25  26
ENDBRANCH   1  25
TORSDOF 20
ENDMDL
MODEL 3
REMARK VINA RESULT:      -9.7      2.031      6.365
REMARK SMILES C[C@@H]1CCC[C@H]1NC(=O)c1csc(/C=C/C(=O)OCCOCCOCCOC(=O)c2ccc(-c3c4nc(c(-c5ccccc5)c5ccc([nH]5)c(-c5ccccc5)c5nc(c(-c6ccccc6)c6ccc3[nH]6)C=C5)C=C4)cc2)c1
REMARK SMILES IDX 22 1 21 2 20 3 19 4 18 5 16 6 17 7 15 8 14 9 13 10 10 11
REMARK SMILES IDX 11 12 78 13 12 14 8 15 7 16 9 18 6 19 1 20 2 21 3 22 4 23
REMARK SMILES IDX 5 24 23 25 24 26 25 27 26 28 27 29 28 30 29 31 30 32 31 33
REMARK SMILES IDX 77 34 32 35 76 36 33 37 34 38 35 39 70 40 36 41 75 42 69 43
REMARK SMILES IDX 71 44 37 45 74 46 68 47 67 48 38 50 60 51 45 52 59 53 46 54
REMARK SMILES IDX 49 55 58 56 72 57 47 58 48 59 57 61 73 62 50 63 39 64 40 65
REMARK SMILES IDX 44 66 41 67 43 68 42 69 61 70 62 71 66 72 63 73 65 74 64 75
REMARK SMILES IDX 51 76 52 77 56 78 53 79 55 80 54 81
REMARK H PARENT 7 17 71 49 49 60
REMARK Flexibility Score: inf
ROOT
ATOM      1  C   UNL A   1      35.950  21.846  26.030  1.00  0.00     0.188 C 
ENDROOT
BRANCH   1   2
ATOM      2  O   UNL A   1      34.639  21.294  25.954  1.00  0.00    -0.376 OA
BRANCH   2   3
ATOM      3  C   UNL A   1      34.364  20.270  25.001  1.00  0.00     0.202 C 
BRANCH   3   4
ATOM      4  C   UNL A   1      32.942  19.705  24.916  1.00  0.00     0.261 C 
BRANCH   4   5
ATOM      5  O   UNL A   1      31.922  20.699  24.710  1.00  0.00    -0.460 OA
BRANCH   5   6
ATOM      6  C   UNL A   1      31.999  21.369  23.536  1.00  0.00     0.330 C 
ATOM      7  O   UNL A   1      32.072  20.872  22.420  1.00  0.00    -0.247 OA
BRANCH   6   8
ATOM      8  C   UNL A   1      31.875  22.831  23.699  1.00  0.00     0.095 C 
ATOM      9  C   UNL A   1      32.235  23.765  22.804  1.00  0.00     0.026 C 
BRANCH   9  10
ATOM     10  C   UNL A   1      32.053  25.163  23.049  1.00  0.00     0.028 A 
ATOM     11  C   UNL A   1      32.529  27.470  23.394  1.00  0.00     0.051 A 
ATOM     12  C   UNL A   1      31.152  27.464  23.316  1.00  0.00     0.079 A 
ATOM     13  C   UNL A   1      33.031  26.126  23.237  1.00  0.00     0.033 A 
ATOM     14  S   UNL A   1      30.496  25.895  23.182  1.00  0.00    -0.144 S 
BRANCH  11  15
ATOM     15  C   UNL A   1      33.386  28.651  23.478  1.00  0.00     0.252 C 
ATOM     16  N   UNL A   1      33.211  29.600  24.453  1.00  0.00    -0.349 N 
ATOM     17  H   UNL A   1      33.684  30.445  24.282  1.00  0.00     0.164 HD
ATOM     18  O   UNL A   1      34.300  28.824  22.673  1.00  0.00    -0.269 OA
BRANCH  16  19
ATOM     19  C   UNL A   1      32.445  29.582  25.697  1.00  0.00     0.085 C 
ATOM     20  C   UNL A   1      31.727  27.989  27.539  1.00  0.00     0.010 C 
ATOM     21  C   UNL A   1      32.834  28.365  26.554  1.00  0.00     0.008 C 
ATOM     22  C   UNL A   1      34.098  28.833  27.275  1.00  0.00     0.005 C 
ATOM     23  C   UNL A   1      33.879  30.316  27.551  1.00  0.00     0.002 C 
ATOM     24  C   UNL A   1      32.811  30.791  26.565  1.00  0.00     0.025 C 
ENDBRANCH  16  19
ENDBRANCH  11  15
ENDBRANCH   9  10
ENDBRANCH   6   8
ENDBRANCH   5   6
ENDBRANCH   4   5
ENDBRANCH   3   4
ENDBRANCH   2   3
ENDBRANCH   1   2
BRANCH   1  25
ATOM     25  C   UNL A   1      36.812  21.945  24.753  1.00  0.00     0.188 C 
BRANCH  25  26
ATOM     26  O   UNL A   1      37.818  20.961  24.674  1.00  0.00    -0.376 OA
BRANCH  26  27
ATOM     27  C   UNL A   1      38.896  20.991  25.592  1.00  0.00     0.202 C 
BRANCH  27  28
ATOM     28  C   UNL A   1      39.602  19.714  26.086  1.00  0.00     0.261 C 
BRANCH  28  29
ATOM     29  O   UNL A   1      40.804  19.319  25.419  1.00  0.00    -0.460 OA
BRANCH  29  30
ATOM     30  C   UNL A   1      41.913  19.182  26.180  1.00  0.00     0.338 C 
ATOM     31  O   UNL A   1      42.489  18.154  26.476  1.00  0.00    -0.246 OA
BRANCH  30  32
ATOM     32  C   UNL A   1      42.410  20.539  26.485  1.00  0.00     0.060 A 
ATOM     33  C   UNL A   1      42.350  21.003  27.804  1.00  0.00     0.016 A 
ATOM     34  C   UNL A   1      42.931  21.344  25.470  1.00  0.00     0.016 A 
ATOM     35  C   UNL A   1      42.801  22.290  28.109  1.00  0.00     0.010 A 
ATOM     36  C   UNL A   1      43.364  22.637  25.774  1.00  0.00     0.010 A 
ATOM     37  C   UNL A   1      43.283  23.123  27.090  1.00  0.00    -0.014 A 
BRANCH  37  38
ATOM     38  C   UNL A   1      43.569  24.552  27.360  1.00  0.00     0.031 A 
ATOM     39  C   UNL A   1      44.994  25.024  27.309  1.00  0.00     0.074 A 
ATOM     40  C   UNL A   1      42.582  25.415  27.655  1.00  0.00     0.049 A 
ATOM     41  N   UNL A   1      45.488  26.203  27.589  1.00  0.00    -0.248 NA
ATOM     42  C   UNL A   1      45.997  24.034  26.882  1.00  0.00     0.031 C 
ATOM     43  C   UNL A   1      41.155  25.096  27.685  1.00  0.00     0.029 A 
ATOM     44  N   UNL A   1      42.640  26.743  28.000  1.00  0.00    -0.354 N 
ATOM     45  C   UNL A   1      46.857  26.097  27.373  1.00  0.00     0.074 A 
ATOM     46  C   UNL A   1      47.119  24.735  26.963  1.00  0.00     0.031 C 
ATOM     47  C   UNL A   1      40.471  26.199  28.041  1.00  0.00     0.029 A 
ATOM     48  C   UNL A   1      41.414  27.285  28.303  1.00  0.00     0.049 A 
ATOM     49  H   UNL A   1      43.478  27.257  28.028  1.00  0.00     0.167 HD
ATOM     50  C   UNL A   1      47.810  27.049  27.501  1.00  0.00     0.031 A 
ATOM     51  C   UNL A   1      41.097  28.508  28.767  1.00  0.00     0.031 A 
ATOM     52  C   UNL A   1      47.558  28.395  27.940  1.00  0.00     0.049 A 
ATOM     53  C   UNL A   1      42.192  29.513  29.021  1.00  0.00     0.074 A 
ATOM     54  C   UNL A   1      48.461  29.430  28.107  1.00  0.00     0.029 A 
ATOM     55  N   UNL A   1      46.312  28.886  28.292  1.00  0.00    -0.354 N 
ATOM     56  N   UNL A   1      43.479  29.407  28.799  1.00  0.00    -0.248 NA
ATOM     57  C   UNL A   1      41.785  30.805  29.595  1.00  0.00     0.031 C 
ATOM     58  C   UNL A   1      47.767  30.535  28.611  1.00  0.00     0.029 A 
ATOM     59  C   UNL A   1      46.424  30.203  28.704  1.00  0.00     0.049 A 
ATOM     60  H   UNL A   1      45.471  28.375  28.255  1.00  0.00     0.167 HD
ATOM     61  C   UNL A   1      44.031  30.625  29.178  1.00  0.00     0.074 A 
ATOM     62  C   UNL A   1      42.938  31.459  29.634  1.00  0.00     0.031 C 
ATOM     63  C   UNL A   1      45.327  31.020  29.150  1.00  0.00     0.031 A 
BRANCH  50  64
ATOM     64  C   UNL A   1      49.223  26.652  27.192  1.00  0.00    -0.014 A 
ATOM     65  C   UNL A   1      50.058  26.114  28.185  1.00  0.00     0.009 A 
ATOM     66  C   UNL A   1      49.719  26.790  25.887  1.00  0.00     0.009 A 
ATOM     67  C   UNL A   1      51.370  25.747  27.881  1.00  0.00     0.001 A 
ATOM     68  C   UNL A   1      51.024  26.401  25.581  1.00  0.00     0.001 A 
ATOM     69  C   UNL A   1      51.852  25.888  26.580  1.00  0.00     0.000 A 
ENDBRANCH  50  64
BRANCH  51  70
ATOM     70  C   UNL A   1      39.682  28.856  29.066  1.00  0.00    -0.014 A 
ATOM     71  C   UNL A   1      39.121  28.550  30.314  1.00  0.00     0.009 A 
ATOM     72  C   UNL A   1      38.874  29.455  28.086  1.00  0.00     0.009 A 
ATOM     73  C   UNL A   1      37.772  28.814  30.567  1.00  0.00     0.001 A 
ATOM     74  C   UNL A   1      37.534  29.742  28.351  1.00  0.00     0.001 A 
ATOM     75  C   UNL A   1      36.981  29.412  29.588  1.00  0.00     0.000 A 
ENDBRANCH  51  70
BRANCH  63  76
ATOM     76  C   UNL A   1      45.634  32.423  29.588  1.00  0.00    -0.014 A 
ATOM     77  C   UNL A   1      45.479  33.509  28.713  1.00  0.00     0.009 A 
ATOM     78  C   UNL A   1      46.030  32.666  30.913  1.00  0.00     0.009 A 
ATOM     79  C   UNL A   1      45.738  34.810  29.152  1.00  0.00     0.001 A 
ATOM     80  C   UNL A   1      46.264  33.969  31.356  1.00  0.00     0.001 A 
ATOM     81  C   UNL A   1      46.123  35.039  30.473  1.00  0.00     0.000 A 
ENDBRANCH  63  76
ENDBRANCH  37  38
ENDBRANCH  30  32
ENDBRANCH  29  30
ENDBRANCH  28  29
ENDBRANCH  27  28
ENDBRANCH  26  27
ENDBRANCH  25  26
ENDBRANCH   1  25
TORSDOF 20
ENDMDL
