MODEL 1
REMARK VINA RESULT:      -8.7      0.000      0.000
REMARK SMILES CC(C)[C@H](NC(=O)OCc1ccccc1)C(=O)NCC(=O)OCCOCCOCCOC(=O)c1ccc(-c2c3nc(c(-c4ccccc4)c4ccc([nH]4)c(-c4ccccc4)c4nc(c(-c5ccccc5)c5ccc2[nH]5)C=C4)C=C3)cc1
REMARK SMILES IDX 24 1 23 2 22 3 20 4 21 5 19 6 18 7 16 8 17 9 4 11 2 12 1 13
REMARK SMILES IDX 3 14 5 15 6 16 7 18 8 19 9 20 10 21 11 22 15 23 12 24 14 25
REMARK SMILES IDX 13 26 25 27 26 28 27 29 28 30 29 31 30 32 31 33 32 34 33 35
REMARK SMILES IDX 34 36 35 37 81 38 36 39 80 40 37 41 38 42 39 43 74 44 40 45
REMARK SMILES IDX 79 46 73 47 75 48 41 49 78 50 72 51 71 52 42 54 64 55 49 56
REMARK SMILES IDX 63 57 50 58 53 59 62 60 76 61 51 62 52 63 61 65 77 66 54 67
REMARK SMILES IDX 43 68 44 69 48 70 45 71 47 72 46 73 65 74 66 75 70 76 67 77
REMARK SMILES IDX 69 78 68 79 55 80 56 81 60 82 57 83 59 84 58 85
REMARK H PARENT 18 10 5 17 75 53 53 64
REMARK Flexibility Score: inf
ROOT
ATOM      1  C   UNL A   1      32.468  26.059  24.952  1.00  0.00     0.202 C 
ENDROOT
BRANCH   1   2
ATOM      2  C   UNL A   1      31.337  25.234  24.316  1.00  0.00     0.261 C 
BRANCH   2   3
ATOM      3  O   UNL A   1      31.674  24.745  23.000  1.00  0.00    -0.462 OA
BRANCH   3   4
ATOM      4  C   UNL A   1      32.475  23.650  22.963  1.00  0.00     0.325 C 
ATOM      5  O   UNL A   1      33.591  23.610  22.457  1.00  0.00    -0.250 OA
BRANCH   4   6
ATOM      6  C   UNL A   1      31.933  22.488  23.791  1.00  0.00     0.238 C 
BRANCH   6   7
ATOM      7  N   UNL A   1      32.492  21.134  23.640  1.00  0.00    -0.343 N 
ATOM      8  C   UNL A   1      33.395  20.493  24.459  1.00  0.00     0.243 C 
ATOM      9  O   UNL A   1      33.335  19.268  24.567  1.00  0.00    -0.273 OA
ATOM     10  H   UNL A   1      32.181  20.625  22.857  1.00  0.00     0.164 HD
BRANCH   8  11
ATOM     11  C   UNL A   1      34.413  21.336  25.255  1.00  0.00     0.177 C 
BRANCH  11  12
ATOM     12  C   UNL A   1      33.800  22.375  26.243  1.00  0.00     0.015 C 
ATOM     13  C   UNL A   1      33.372  21.862  27.626  1.00  0.00     0.010 C 
ATOM     14  C   UNL A   1      34.786  23.530  26.468  1.00  0.00     0.010 C 
ENDBRANCH  11  12
BRANCH  11  15
ATOM     15  N   UNL A   1      35.253  21.929  24.212  1.00  0.00    -0.309 N 
ATOM     16  C   UNL A   1      36.578  22.139  24.155  1.00  0.00     0.408 C 
ATOM     17  H   UNL A   1      34.760  22.225  23.413  1.00  0.00     0.167 HD
ATOM     18  O   UNL A   1      37.046  22.820  23.251  1.00  0.00    -0.225 OA
BRANCH  16  19
ATOM     19  O   UNL A   1      37.269  21.453  25.084  1.00  0.00    -0.445 OA
BRANCH  19  20
ATOM     20  C   UNL A   1      38.273  22.236  25.739  1.00  0.00     0.270 C 
BRANCH  20  21
ATOM     21  C   UNL A   1      39.461  21.449  26.266  1.00  0.00    -0.011 A 
ATOM     22  C   UNL A   1      40.270  22.046  27.245  1.00  0.00     0.007 A 
ATOM     23  C   UNL A   1      39.857  20.201  25.756  1.00  0.00     0.007 A 
ATOM     24  C   UNL A   1      41.433  21.418  27.696  1.00  0.00     0.000 A 
ATOM     25  C   UNL A   1      41.026  19.579  26.199  1.00  0.00     0.000 A 
ATOM     26  C   UNL A   1      41.814  20.188  27.168  1.00  0.00     0.000 A 
ENDBRANCH  20  21
ENDBRANCH  19  20
ENDBRANCH  16  19
ENDBRANCH  11  15
ENDBRANCH   8  11
ENDBRANCH   6   7
ENDBRANCH   4   6
ENDBRANCH   3   4
ENDBRANCH   2   3
ENDBRANCH   1   2
BRANCH   1  27
ATOM     27  O   UNL A   1      32.126  27.263  25.643  1.00  0.00    -0.376 OA
BRANCH  27  28
ATOM     28  C   UNL A   1      32.124  28.482  24.918  1.00  0.00     0.188 C 
BRANCH  28  29
ATOM     29  C   UNL A   1      31.736  29.763  25.663  1.00  0.00     0.188 C 
BRANCH  29  30
ATOM     30  O   UNL A   1      32.353  29.930  26.922  1.00  0.00    -0.376 OA
BRANCH  30  31
ATOM     31  C   UNL A   1      33.097  31.128  27.151  1.00  0.00     0.202 C 
BRANCH  31  32
ATOM     32  C   UNL A   1      32.328  32.462  27.291  1.00  0.00     0.261 C 
BRANCH  32  33
ATOM     33  O   UNL A   1      33.126  33.663  27.241  1.00  0.00    -0.460 OA
BRANCH  33  34
ATOM     34  C   UNL A   1      33.301  34.341  28.403  1.00  0.00     0.338 C 
ATOM     35  O   UNL A   1      32.527  35.134  28.907  1.00  0.00    -0.246 OA
BRANCH  34  36
ATOM     36  C   UNL A   1      34.452  33.722  29.113  1.00  0.00     0.060 A 
ATOM     37  C   UNL A   1      35.750  34.062  28.698  1.00  0.00     0.016 A 
ATOM     38  C   UNL A   1      34.267  32.894  30.222  1.00  0.00     0.016 A 
ATOM     39  C   UNL A   1      36.862  33.547  29.370  1.00  0.00     0.010 A 
ATOM     40  C   UNL A   1      35.382  32.359  30.878  1.00  0.00     0.010 A 
ATOM     41  C   UNL A   1      36.684  32.657  30.437  1.00  0.00    -0.014 A 
BRANCH  41  42
ATOM     42  C   UNL A   1      37.836  31.863  30.939  1.00  0.00     0.031 A 
ATOM     43  C   UNL A   1      38.391  32.211  32.296  1.00  0.00     0.074 A 
ATOM     44  C   UNL A   1      38.370  30.845  30.240  1.00  0.00     0.049 A 
ATOM     45  N   UNL A   1      39.410  31.698  32.935  1.00  0.00    -0.248 NA
ATOM     46  C   UNL A   1      37.697  33.285  33.027  1.00  0.00     0.031 C 
ATOM     47  C   UNL A   1      37.900  30.359  28.945  1.00  0.00     0.029 A 
ATOM     48  N   UNL A   1      39.439  30.033  30.537  1.00  0.00    -0.354 N 
ATOM     49  C   UNL A   1      39.476  32.381  34.143  1.00  0.00     0.074 A 
ATOM     50  C   UNL A   1      38.418  33.367  34.134  1.00  0.00     0.031 C 
ATOM     51  C   UNL A   1      38.683  29.334  28.554  1.00  0.00     0.029 A 
ATOM     52  C   UNL A   1      39.725  29.115  29.556  1.00  0.00     0.049 A 
ATOM     53  H   UNL A   1      39.952  30.104  31.374  1.00  0.00     0.167 HD
ATOM     54  C   UNL A   1      40.331  32.203  35.175  1.00  0.00     0.031 A 
ATOM     55  C   UNL A   1      40.726  28.214  29.471  1.00  0.00     0.031 A 
ATOM     56  C   UNL A   1      41.403  31.246  35.188  1.00  0.00     0.049 A 
ATOM     57  C   UNL A   1      41.737  28.113  30.586  1.00  0.00     0.074 A 
ATOM     58  C   UNL A   1      42.333  31.007  36.184  1.00  0.00     0.029 A 
ATOM     59  N   UNL A   1      41.691  30.376  34.151  1.00  0.00    -0.354 N 
ATOM     60  N   UNL A   1      41.782  28.759  31.727  1.00  0.00    -0.248 NA
ATOM     61  C   UNL A   1      42.834  27.150  30.400  1.00  0.00     0.031 C 
ATOM     62  C   UNL A   1      43.215  30.021  35.729  1.00  0.00     0.029 A 
ATOM     63  C   UNL A   1      42.798  29.609  34.475  1.00  0.00     0.049 A 
ATOM     64  H   UNL A   1      41.185  30.311  33.309  1.00  0.00     0.167 HD
ATOM     65  C   UNL A   1      42.886  28.253  32.406  1.00  0.00     0.074 A 
ATOM     66  C   UNL A   1      43.475  27.241  31.557  1.00  0.00     0.031 C 
ATOM     67  C   UNL A   1      43.368  28.597  33.626  1.00  0.00     0.031 A 
BRANCH  54  68
ATOM     68  C   UNL A   1      40.155  33.092  36.374  1.00  0.00    -0.014 A 
ATOM     69  C   UNL A   1      39.389  32.679  37.475  1.00  0.00     0.009 A 
ATOM     70  C   UNL A   1      40.785  34.345  36.413  1.00  0.00     0.009 A 
ATOM     71  C   UNL A   1      39.235  33.516  38.581  1.00  0.00     0.001 A 
ATOM     72  C   UNL A   1      40.650  35.168  37.532  1.00  0.00     0.001 A 
ATOM     73  C   UNL A   1      39.870  34.758  38.610  1.00  0.00     0.000 A 
ENDBRANCH  54  68
BRANCH  55  74
ATOM     74  C   UNL A   1      40.858  27.338  28.274  1.00  0.00    -0.014 A 
ATOM     75  C   UNL A   1      41.721  27.688  27.223  1.00  0.00     0.009 A 
ATOM     76  C   UNL A   1      40.071  26.183  28.147  1.00  0.00     0.009 A 
ATOM     77  C   UNL A   1      41.766  26.920  26.057  1.00  0.00     0.001 A 
ATOM     78  C   UNL A   1      40.140  25.401  26.992  1.00  0.00     0.001 A 
ATOM     79  C   UNL A   1      40.978  25.776  25.943  1.00  0.00     0.000 A 
ENDBRANCH  55  74
BRANCH  67  80
ATOM     80  C   UNL A   1      44.559  27.837  34.141  1.00  0.00    -0.014 A 
ATOM     81  C   UNL A   1      44.411  26.660  34.889  1.00  0.00     0.009 A 
ATOM     82  C   UNL A   1      45.853  28.287  33.832  1.00  0.00     0.009 A 
ATOM     83  C   UNL A   1      45.535  25.970  35.349  1.00  0.00     0.001 A 
ATOM     84  C   UNL A   1      46.975  27.580  34.267  1.00  0.00     0.001 A 
ATOM     85  C   UNL A   1      46.815  26.427  35.034  1.00  0.00     0.000 A 
ENDBRANCH  67  80
ENDBRANCH  41  42
ENDBRANCH  34  36
ENDBRANCH  33  34
ENDBRANCH  32  33
ENDBRANCH  31  32
ENDBRANCH  30  31
ENDBRANCH  29  30
ENDBRANCH  28  29
ENDBRANCH  27  28
ENDBRANCH   1  27
TORSDOF 24
ENDMDL
MODEL 2
REMARK VINA RESULT:      -8.1      2.322      4.819
REMARK SMILES CC(C)[C@H](NC(=O)OCc1ccccc1)C(=O)NCC(=O)OCCOCCOCCOC(=O)c1ccc(-c2c3nc(c(-c4ccccc4)c4ccc([nH]4)c(-c4ccccc4)c4nc(c(-c5ccccc5)c5ccc2[nH]5)C=C4)C=C3)cc1
REMARK SMILES IDX 24 1 23 2 22 3 20 4 21 5 19 6 18 7 16 8 17 9 4 11 2 12 1 13
REMARK SMILES IDX 3 14 5 15 6 16 7 18 8 19 9 20 10 21 11 22 15 23 12 24 14 25
REMARK SMILES IDX 13 26 25 27 26 28 27 29 28 30 29 31 30 32 31 33 32 34 33 35
REMARK SMILES IDX 34 36 35 37 81 38 36 39 80 40 37 41 38 42 39 43 74 44 40 45
REMARK SMILES IDX 79 46 73 47 75 48 41 49 78 50 72 51 71 52 42 54 64 55 49 56
REMARK SMILES IDX 63 57 50 58 53 59 62 60 76 61 51 62 52 63 61 65 77 66 54 67
REMARK SMILES IDX 43 68 44 69 48 70 45 71 47 72 46 73 65 74 66 75 70 76 67 77
REMARK SMILES IDX 69 78 68 79 55 80 56 81 60 82 57 83 59 84 58 85
REMARK H PARENT 18 10 5 17 75 53 53 64
REMARK Flexibility Score: inf
ROOT
ATOM      1  C   UNL A   1      31.770  29.478  25.629  1.00  0.00     0.202 C 
ENDROOT
BRANCH   1   2
ATOM      2  C   UNL A   1      32.818  28.986  24.618  1.00  0.00     0.261 C 
BRANCH   2   3
ATOM      3  O   UNL A   1      33.613  27.892  25.125  1.00  0.00    -0.462 OA
BRANCH   3   4
ATOM      4  C   UNL A   1      33.783  26.843  24.281  1.00  0.00     0.325 C 
ATOM      5  O   UNL A   1      33.638  26.887  23.064  1.00  0.00    -0.250 OA
BRANCH   4   6
ATOM      6  C   UNL A   1      34.367  25.613  24.971  1.00  0.00     0.238 C 
BRANCH   6   7
ATOM      7  N   UNL A   1      34.820  24.456  24.182  1.00  0.00    -0.343 N 
ATOM      8  C   UNL A   1      35.178  23.205  24.638  1.00  0.00     0.243 C 
ATOM      9  O   UNL A   1      34.975  22.229  23.916  1.00  0.00    -0.273 OA
ATOM     10  H   UNL A   1      34.874  24.592  23.208  1.00  0.00     0.164 HD
BRANCH   8  11
ATOM     11  C   UNL A   1      35.766  23.067  26.057  1.00  0.00     0.177 C 
BRANCH  11  12
ATOM     12  C   UNL A   1      37.309  22.858  26.130  1.00  0.00     0.015 C 
ATOM     13  C   UNL A   1      37.901  21.699  25.314  1.00  0.00     0.010 C 
ATOM     14  C   UNL A   1      38.032  24.141  25.694  1.00  0.00     0.010 C 
ENDBRANCH  11  12
BRANCH  11  15
ATOM     15  N   UNL A   1      34.988  21.971  26.641  1.00  0.00    -0.309 N 
ATOM     16  C   UNL A   1      33.847  21.975  27.351  1.00  0.00     0.408 C 
ATOM     17  H   UNL A   1      35.367  21.077  26.486  1.00  0.00     0.167 HD
ATOM     18  O   UNL A   1      33.470  20.945  27.897  1.00  0.00    -0.225 OA
BRANCH  16  19
ATOM     19  O   UNL A   1      33.177  23.140  27.281  1.00  0.00    -0.445 OA
BRANCH  19  20
ATOM     20  C   UNL A   1      31.803  22.984  26.910  1.00  0.00     0.270 C 
BRANCH  20  21
ATOM     21  C   UNL A   1      31.347  23.855  25.752  1.00  0.00    -0.011 A 
ATOM     22  C   UNL A   1      30.833  25.128  26.042  1.00  0.00     0.007 A 
ATOM     23  C   UNL A   1      31.313  23.419  24.416  1.00  0.00     0.007 A 
ATOM     24  C   UNL A   1      30.303  25.935  25.032  1.00  0.00     0.000 A 
ATOM     25  C   UNL A   1      30.773  24.223  23.409  1.00  0.00     0.000 A 
ATOM     26  C   UNL A   1      30.267  25.479  23.718  1.00  0.00     0.000 A 
ENDBRANCH  20  21
ENDBRANCH  19  20
ENDBRANCH  16  19
ENDBRANCH  11  15
ENDBRANCH   8  11
ENDBRANCH   6   7
ENDBRANCH   4   6
ENDBRANCH   3   4
ENDBRANCH   2   3
ENDBRANCH   1   2
BRANCH   1  27
ATOM     27  O   UNL A   1      31.888  30.811  26.136  1.00  0.00    -0.376 OA
BRANCH  27  28
ATOM     28  C   UNL A   1      32.808  31.054  27.188  1.00  0.00     0.188 C 
BRANCH  28  29
ATOM     29  C   UNL A   1      33.220  32.504  27.462  1.00  0.00     0.188 C 
BRANCH  29  30
ATOM     30  O   UNL A   1      34.603  32.704  27.654  1.00  0.00    -0.376 OA
BRANCH  30  31
ATOM     31  C   UNL A   1      35.014  33.782  28.499  1.00  0.00     0.202 C 
BRANCH  31  32
ATOM     32  C   UNL A   1      34.504  33.814  29.958  1.00  0.00     0.261 C 
BRANCH  32  33
ATOM     33  O   UNL A   1      34.484  32.549  30.652  1.00  0.00    -0.460 OA
BRANCH  33  34
ATOM     34  C   UNL A   1      35.106  32.492  31.856  1.00  0.00     0.338 C 
ATOM     35  O   UNL A   1      34.620  32.762  32.939  1.00  0.00    -0.246 OA
BRANCH  34  36
ATOM     36  C   UNL A   1      36.380  31.749  31.666  1.00  0.00     0.060 A 
ATOM     37  C   UNL A   1      36.537  30.518  32.324  1.00  0.00     0.016 A 
ATOM     38  C   UNL A   1      37.368  32.204  30.791  1.00  0.00     0.016 A 
ATOM     39  C   UNL A   1      37.695  29.760  32.133  1.00  0.00     0.010 A 
ATOM     40  C   UNL A   1      38.539  31.456  30.620  1.00  0.00     0.010 A 
ATOM     41  C   UNL A   1      38.723  30.246  31.314  1.00  0.00    -0.014 A 
BRANCH  41  42
ATOM     42  C   UNL A   1      40.067  29.616  31.361  1.00  0.00     0.031 A 
ATOM     43  C   UNL A   1      41.073  30.181  32.330  1.00  0.00     0.074 A 
ATOM     44  C   UNL A   1      40.397  28.559  30.597  1.00  0.00     0.049 A 
ATOM     45  N   UNL A   1      42.319  29.836  32.533  1.00  0.00    -0.248 NA
ATOM     46  C   UNL A   1      40.605  31.285  33.185  1.00  0.00     0.031 C 
ATOM     47  C   UNL A   1      39.510  27.872  29.661  1.00  0.00     0.029 A 
ATOM     48  N   UNL A   1      41.587  27.878  30.495  1.00  0.00    -0.354 N 
ATOM     49  C   UNL A   1      42.780  30.675  33.540  1.00  0.00     0.074 A 
ATOM     50  C   UNL A   1      41.695  31.567  33.883  1.00  0.00     0.031 C 
ATOM     51  C   UNL A   1      40.190  26.868  29.073  1.00  0.00     0.029 A 
ATOM     52  C   UNL A   1      41.566  26.863  29.569  1.00  0.00     0.049 A 
ATOM     53  H   UNL A   1      42.380  28.097  31.035  1.00  0.00     0.167 HD
ATOM     54  C   UNL A   1      43.993  30.701  34.137  1.00  0.00     0.031 A 
ATOM     55  C   UNL A   1      42.551  26.039  29.157  1.00  0.00     0.031 A 
ATOM     56  C   UNL A   1      45.089  29.839  33.789  1.00  0.00     0.049 A 
ATOM     57  C   UNL A   1      43.929  26.163  29.758  1.00  0.00     0.074 A 
ATOM     58  C   UNL A   1      46.363  29.804  34.327  1.00  0.00     0.029 A 
ATOM     59  N   UNL A   1      45.041  28.864  32.807  1.00  0.00    -0.354 N 
ATOM     60  N   UNL A   1      44.349  26.955  30.716  1.00  0.00    -0.248 NA
ATOM     61  C   UNL A   1      44.969  25.272  29.220  1.00  0.00     0.031 C 
ATOM     62  C   UNL A   1      47.102  28.839  33.637  1.00  0.00     0.029 A 
ATOM     63  C   UNL A   1      46.270  28.235  32.710  1.00  0.00     0.049 A 
ATOM     64  H   UNL A   1      44.251  28.651  32.260  1.00  0.00     0.167 HD
ATOM     65  C   UNL A   1      45.686  26.629  30.919  1.00  0.00     0.074 A 
ATOM     66  C   UNL A   1      46.005  25.563  29.995  1.00  0.00     0.031 C 
ATOM     67  C   UNL A   1      46.571  27.166  31.794  1.00  0.00     0.031 A 
BRANCH  54  68
ATOM     68  C   UNL A   1      44.206  31.723  35.217  1.00  0.00    -0.014 A 
ATOM     69  C   UNL A   1      43.960  31.414  36.564  1.00  0.00     0.009 A 
ATOM     70  C   UNL A   1      44.682  33.000  34.886  1.00  0.00     0.009 A 
ATOM     71  C   UNL A   1      44.162  32.375  37.556  1.00  0.00     0.001 A 
ATOM     72  C   UNL A   1      44.908  33.950  35.884  1.00  0.00     0.001 A 
ATOM     73  C   UNL A   1      44.641  33.640  37.215  1.00  0.00     0.000 A 
ENDBRANCH  54  68
BRANCH  55  74
ATOM     74  C   UNL A   1      42.298  25.026  28.095  1.00  0.00    -0.014 A 
ATOM     75  C   UNL A   1      42.436  25.362  26.739  1.00  0.00     0.009 A 
ATOM     76  C   UNL A   1      41.851  23.739  28.431  1.00  0.00     0.009 A 
ATOM     77  C   UNL A   1      42.098  24.441  25.743  1.00  0.00     0.001 A 
ATOM     78  C   UNL A   1      41.542  22.811  27.433  1.00  0.00     0.001 A 
ATOM     79  C   UNL A   1      41.654  23.167  26.090  1.00  0.00     0.000 A 
ENDBRANCH  55  74
BRANCH  67  80
ATOM     80  C   UNL A   1      47.954  26.574  31.835  1.00  0.00    -0.014 A 
ATOM     81  C   UNL A   1      48.276  25.522  32.704  1.00  0.00     0.009 A 
ATOM     82  C   UNL A   1      48.937  27.053  30.954  1.00  0.00     0.009 A 
ATOM     83  C   UNL A   1      49.566  24.986  32.716  1.00  0.00     0.001 A 
ATOM     84  C   UNL A   1      50.217  26.496  30.946  1.00  0.00     0.001 A 
ATOM     85  C   UNL A   1      50.533  25.470  31.835  1.00  0.00     0.000 A 
ENDBRANCH  67  80
ENDBRANCH  41  42
ENDBRANCH  34  36
ENDBRANCH  33  34
ENDBRANCH  32  33
ENDBRANCH  31  32
ENDBRANCH  30  31
ENDBRANCH  29  30
ENDBRANCH  28  29
ENDBRANCH  27  28
ENDBRANCH   1  27
TORSDOF 24
ENDMDL
MODEL 3
REMARK VINA RESULT:      -7.7      6.595     11.626
REMARK SMILES CC(C)[C@H](NC(=O)OCc1ccccc1)C(=O)NCC(=O)OCCOCCOCCOC(=O)c1ccc(-c2c3nc(c(-c4ccccc4)c4ccc([nH]4)c(-c4ccccc4)c4nc(c(-c5ccccc5)c5ccc2[nH]5)C=C4)C=C3)cc1
REMARK SMILES IDX 24 1 23 2 22 3 20 4 21 5 19 6 18 7 16 8 17 9 4 11 2 12 1 13
REMARK SMILES IDX 3 14 5 15 6 16 7 18 8 19 9 20 10 21 11 22 15 23 12 24 14 25
REMARK SMILES IDX 13 26 25 27 26 28 27 29 28 30 29 31 30 32 31 33 32 34 33 35
REMARK SMILES IDX 34 36 35 37 81 38 36 39 80 40 37 41 38 42 39 43 74 44 40 45
REMARK SMILES IDX 79 46 73 47 75 48 41 49 78 50 72 51 71 52 42 54 64 55 49 56
REMARK SMILES IDX 63 57 50 58 53 59 62 60 76 61 51 62 52 63 61 65 77 66 54 67
REMARK SMILES IDX 43 68 44 69 48 70 45 71 47 72 46 73 65 74 66 75 70 76 67 77
REMARK SMILES IDX 69 78 68 79 55 80 56 81 60 82 57 83 59 84 58 85
REMARK H PARENT 18 10 5 17 75 53 53 64
REMARK Flexibility Score: inf
ROOT
ATOM      1  C   UNL A   1      50.119  25.432  26.962  1.00  0.00     0.202 C 
ENDROOT
BRANCH   1   2
ATOM      2  C   UNL A   1      49.553  25.272  28.383  1.00  0.00     0.261 C 
BRANCH   2   3
ATOM      3  O   UNL A   1      48.219  24.719  28.394  1.00  0.00    -0.462 OA
BRANCH   3   4
ATOM      4  C   UNL A   1      47.289  25.431  29.079  1.00  0.00     0.325 C 
ATOM      5  O   UNL A   1      47.348  25.702  30.274  1.00  0.00    -0.250 OA
BRANCH   4   6
ATOM      6  C   UNL A   1      46.223  26.042  28.174  1.00  0.00     0.238 C 
BRANCH   6   7
ATOM      7  N   UNL A   1      46.468  26.206  26.732  1.00  0.00    -0.343 N 
ATOM      8  C   UNL A   1      45.587  26.001  25.693  1.00  0.00     0.243 C 
ATOM      9  O   UNL A   1      45.698  26.685  24.675  1.00  0.00    -0.273 OA
ATOM     10  H   UNL A   1      47.373  26.499  26.479  1.00  0.00     0.164 HD
BRANCH   8  11
ATOM     11  C   UNL A   1      44.456  24.965  25.864  1.00  0.00     0.177 C 
BRANCH  11  12
ATOM     12  C   UNL A   1      44.688  23.593  25.161  1.00  0.00     0.015 C 
ATOM     13  C   UNL A   1      45.513  22.544  25.922  1.00  0.00     0.010 C 
ATOM     14  C   UNL A   1      43.339  22.949  24.811  1.00  0.00     0.010 C 
ENDBRANCH  11  12
BRANCH  11  15
ATOM     15  N   UNL A   1      43.266  25.681  25.397  1.00  0.00    -0.309 N 
ATOM     16  C   UNL A   1      42.194  26.144  26.060  1.00  0.00     0.408 C 
ATOM     17  H   UNL A   1      43.250  25.852  24.428  1.00  0.00     0.167 HD
ATOM     18  O   UNL A   1      41.226  26.557  25.434  1.00  0.00    -0.225 OA
BRANCH  16  19
ATOM     19  O   UNL A   1      42.371  26.196  27.393  1.00  0.00    -0.445 OA
BRANCH  19  20
ATOM     20  C   UNL A   1      41.296  25.608  28.133  1.00  0.00     0.270 C 
BRANCH  20  21
ATOM     21  C   UNL A   1      41.188  24.097  28.021  1.00  0.00    -0.011 A 
ATOM     22  C   UNL A   1      42.272  23.321  28.458  1.00  0.00     0.007 A 
ATOM     23  C   UNL A   1      40.111  23.436  27.407  1.00  0.00     0.007 A 
ATOM     24  C   UNL A   1      42.278  21.934  28.288  1.00  0.00     0.000 A 
ATOM     25  C   UNL A   1      40.121  22.051  27.227  1.00  0.00     0.000 A 
ATOM     26  C   UNL A   1      41.205  21.301  27.667  1.00  0.00     0.000 A 
ENDBRANCH  20  21
ENDBRANCH  19  20
ENDBRANCH  16  19
ENDBRANCH  11  15
ENDBRANCH   8  11
ENDBRANCH   6   7
ENDBRANCH   4   6
ENDBRANCH   3   4
ENDBRANCH   2   3
ENDBRANCH   1   2
BRANCH   1  27
ATOM     27  O   UNL A   1      49.211  25.732  25.898  1.00  0.00    -0.376 OA
BRANCH  27  28
ATOM     28  C   UNL A   1      49.479  26.859  25.080  1.00  0.00     0.188 C 
BRANCH  28  29
ATOM     29  C   UNL A   1      50.897  27.437  25.094  1.00  0.00     0.188 C 
BRANCH  29  30
ATOM     30  O   UNL A   1      51.008  28.758  24.610  1.00  0.00    -0.376 OA
BRANCH  30  31
ATOM     31  C   UNL A   1      52.317  29.314  24.470  1.00  0.00     0.202 C 
BRANCH  31  32
ATOM     32  C   UNL A   1      53.016  29.887  25.724  1.00  0.00     0.261 C 
BRANCH  32  33
ATOM     33  O   UNL A   1      52.314  30.938  26.418  1.00  0.00    -0.460 OA
BRANCH  33  34
ATOM     34  C   UNL A   1      52.118  30.780  27.751  1.00  0.00     0.338 C 
ATOM     35  O   UNL A   1      52.978  30.650  28.603  1.00  0.00    -0.246 OA
BRANCH  34  36
ATOM     36  C   UNL A   1      50.694  31.101  28.036  1.00  0.00     0.060 A 
ATOM     37  C   UNL A   1      50.392  31.800  29.216  1.00  0.00     0.016 A 
ATOM     38  C   UNL A   1      49.681  30.803  27.121  1.00  0.00     0.016 A 
ATOM     39  C   UNL A   1      49.075  32.169  29.498  1.00  0.00     0.010 A 
ATOM     40  C   UNL A   1      48.358  31.152  27.417  1.00  0.00     0.010 A 
ATOM     41  C   UNL A   1      48.043  31.809  28.621  1.00  0.00    -0.014 A 
BRANCH  41  42
ATOM     42  C   UNL A   1      46.628  31.908  29.062  1.00  0.00     0.031 A 
ATOM     43  C   UNL A   1      46.018  30.709  29.739  1.00  0.00     0.074 A 
ATOM     44  C   UNL A   1      45.898  33.027  28.901  1.00  0.00     0.049 A 
ATOM     45  N   UNL A   1      44.798  30.530  30.178  1.00  0.00    -0.248 NA
ATOM     46  C   UNL A   1      46.909  29.554  29.947  1.00  0.00     0.031 C 
ATOM     47  C   UNL A   1      46.373  34.280  28.319  1.00  0.00     0.029 A 
ATOM     48  N   UNL A   1      44.585  33.280  29.221  1.00  0.00    -0.354 N 
ATOM     49  C   UNL A   1      44.778  29.250  30.717  1.00  0.00     0.074 A 
ATOM     50  C   UNL A   1      46.094  28.683  30.521  1.00  0.00     0.031 C 
ATOM     51  C   UNL A   1      45.362  35.170  28.318  1.00  0.00     0.029 A 
ATOM     52  C   UNL A   1      44.163  34.540  28.869  1.00  0.00     0.049 A 
ATOM     53  H   UNL A   1      44.002  32.621  29.661  1.00  0.00     0.167 HD
ATOM     54  C   UNL A   1      43.762  28.602  31.331  1.00  0.00     0.031 A 
ATOM     55  C   UNL A   1      42.944  35.109  28.965  1.00  0.00     0.031 A 
ATOM     56  C   UNL A   1      42.443  29.142  31.510  1.00  0.00     0.049 A 
ATOM     57  C   UNL A   1      41.797  34.323  29.550  1.00  0.00     0.074 A 
ATOM     58  C   UNL A   1      41.343  28.550  32.105  1.00  0.00     0.029 A 
ATOM     59  N   UNL A   1      42.044  30.398  31.088  1.00  0.00    -0.354 N 
ATOM     60  N   UNL A   1      41.794  33.117  30.065  1.00  0.00    -0.248 NA
ATOM     61  C   UNL A   1      40.483  34.985  29.570  1.00  0.00     0.031 C 
ATOM     62  C   UNL A   1      40.263  29.432  32.000  1.00  0.00     0.029 A 
ATOM     63  C   UNL A   1      40.708  30.594  31.392  1.00  0.00     0.049 A 
ATOM     64  H   UNL A   1      42.624  31.054  30.639  1.00  0.00     0.167 HD
ATOM     65  C   UNL A   1      40.493  32.893  30.502  1.00  0.00     0.074 A 
ATOM     66  C   UNL A   1      39.737  34.091  30.204  1.00  0.00     0.031 C 
ATOM     67  C   UNL A   1      39.970  31.794  31.100  1.00  0.00     0.031 A 
BRANCH  54  68
ATOM     68  C   UNL A   1      44.038  27.212  31.831  1.00  0.00    -0.014 A 
ATOM     69  C   UNL A   1      43.965  26.105  30.971  1.00  0.00     0.009 A 
ATOM     70  C   UNL A   1      44.400  27.012  33.172  1.00  0.00     0.009 A 
ATOM     71  C   UNL A   1      44.224  24.821  31.451  1.00  0.00     0.001 A 
ATOM     72  C   UNL A   1      44.684  25.728  33.642  1.00  0.00     0.001 A 
ATOM     73  C   UNL A   1      44.588  24.634  32.785  1.00  0.00     0.000 A 
ENDBRANCH  54  68
BRANCH  55  74
ATOM     74  C   UNL A   1      42.713  36.495  28.474  1.00  0.00    -0.014 A 
ATOM     75  C   UNL A   1      42.289  36.726  27.155  1.00  0.00     0.009 A 
ATOM     76  C   UNL A   1      42.983  37.597  29.300  1.00  0.00     0.009 A 
ATOM     77  C   UNL A   1      42.174  38.030  26.666  1.00  0.00     0.001 A 
ATOM     78  C   UNL A   1      42.838  38.900  28.816  1.00  0.00     0.001 A 
ATOM     79  C   UNL A   1      42.445  39.115  27.496  1.00  0.00     0.000 A 
ENDBRANCH  55  74
BRANCH  67  80
ATOM     80  C   UNL A   1      38.527  31.852  31.521  1.00  0.00    -0.014 A 
ATOM     81  C   UNL A   1      37.545  31.082  30.882  1.00  0.00     0.009 A 
ATOM     82  C   UNL A   1      38.155  32.664  32.605  1.00  0.00     0.009 A 
ATOM     83  C   UNL A   1      36.213  31.150  31.297  1.00  0.00     0.001 A 
ATOM     84  C   UNL A   1      36.829  32.708  33.038  1.00  0.00     0.001 A 
ATOM     85  C   UNL A   1      35.857  31.958  32.377  1.00  0.00     0.000 A 
ENDBRANCH  67  80
ENDBRANCH  41  42
ENDBRANCH  34  36
ENDBRANCH  33  34
ENDBRANCH  32  33
ENDBRANCH  31  32
ENDBRANCH  30  31
ENDBRANCH  29  30
ENDBRANCH  28  29
ENDBRANCH  27  28
ENDBRANCH   1  27
TORSDOF 24
ENDMDL
