MODEL 1
REMARK VINA RESULT:      -9.5      0.000      0.000
REMARK SMILES CN(CCS(C)(=O)=O)S(=O)(=O)c1cc(C(=O)OCCOCCOCCOC(=O)c2ccc(-c3c4nc(c(-c5ccccc5)c5ccc([nH]5)c(-c5ccccc5)c5nc(c(-c6ccccc6)c6ccc3[nH]6)C=C5)C=C4)cc2)ccc1F
REMARK SMILES IDX 20 1 19 2 18 3 17 4 15 5 16 6 14 7 12 8 13 9 79 10 78 11
REMARK SMILES IDX 80 12 77 13 9 14 10 15 11 16 2 17 1 18 3 19 4 20 5 21 6 22
REMARK SMILES IDX 7 23 8 24 21 25 22 26 23 27 24 28 25 29 26 30 27 31 28 32
REMARK SMILES IDX 29 33 30 34 76 35 31 36 75 37 32 38 33 39 34 40 69 41 35 42
REMARK SMILES IDX 74 43 68 44 70 45 36 46 73 47 67 48 66 49 37 51 59 52 44 53
REMARK SMILES IDX 58 54 45 55 48 56 57 57 71 58 46 59 47 60 56 62 72 63 49 64
REMARK SMILES IDX 38 65 39 66 43 67 40 68 42 69 41 70 60 71 61 72 65 73 62 74
REMARK SMILES IDX 64 75 63 76 50 77 51 78 55 79 52 80 54 81 53 82
REMARK H PARENT 70 50 48 61
REMARK Flexibility Score: inf
ROOT
ATOM      1  O   UNL A   1      34.832  31.679  28.725  1.00  0.00    -0.376 OA
ENDROOT
BRANCH   1   2
ATOM      2  C   UNL A   1      34.729  30.487  27.957  1.00  0.00     0.202 C 
BRANCH   2   3
ATOM      3  C   UNL A   1      33.809  30.417  26.720  1.00  0.00     0.261 C 
BRANCH   3   4
ATOM      4  O   UNL A   1      32.446  30.045  26.973  1.00  0.00    -0.460 OA
BRANCH   4   5
ATOM      5  C   UNL A   1      31.563  30.301  25.981  1.00  0.00     0.338 C 
ATOM      6  O   UNL A   1      31.021  31.359  25.713  1.00  0.00    -0.246 OA
BRANCH   5   7
ATOM      7  C   UNL A   1      31.492  29.133  25.072  1.00  0.00     0.061 A 
ATOM      8  C   UNL A   1      31.425  26.719  24.847  1.00  0.00     0.119 A 
ATOM      9  C   UNL A   1      31.448  27.860  25.657  1.00  0.00     0.040 A 
ATOM     10  C   UNL A   1      31.370  26.851  23.467  1.00  0.00     0.143 A 
ATOM     11  C   UNL A   1      31.373  28.121  22.883  1.00  0.00     0.041 A 
ATOM     12  F   UNL A   1      31.288  25.785  22.665  1.00  0.00    -0.206 F 
ATOM     13  C   UNL A   1      31.444  29.269  23.683  1.00  0.00     0.019 A 
BRANCH   8  14
ATOM     14  S   UNL A   1      31.483  25.123  25.582  1.00  0.00     0.245 S 
ATOM     15  O   UNL A   1      30.609  24.209  24.881  1.00  0.00    -0.207 OA
ATOM     16  O   UNL A   1      31.347  25.340  26.999  1.00  0.00    -0.207 OA
BRANCH  14  17
ATOM     17  N   UNL A   1      33.072  24.557  25.304  1.00  0.00    -0.200 NA
ATOM     18  C   UNL A   1      34.064  25.662  25.196  1.00  0.00     0.124 C 
BRANCH  17  19
ATOM     19  C   UNL A   1      33.613  23.332  25.964  1.00  0.00     0.118 C 
BRANCH  19  20
ATOM     20  C   UNL A   1      34.006  22.144  25.113  1.00  0.00     0.153 C 
BRANCH  20  21
ATOM     21  S   UNL A   1      32.719  21.065  24.487  1.00  0.00     0.148 S 
ATOM     22  C   UNL A   1      32.185  21.654  22.898  1.00  0.00     0.158 C 
ATOM     23  O   UNL A   1      33.340  19.774  24.248  1.00  0.00    -0.229 OA
ATOM     24  O   UNL A   1      31.571  21.153  25.360  1.00  0.00    -0.229 OA
ENDBRANCH  20  21
ENDBRANCH  19  20
ENDBRANCH  17  19
ENDBRANCH  14  17
ENDBRANCH   8  14
ENDBRANCH   5   7
ENDBRANCH   4   5
ENDBRANCH   3   4
ENDBRANCH   2   3
ENDBRANCH   1   2
BRANCH   1  25
ATOM     25  C   UNL A   1      34.017  32.802  28.418  1.00  0.00     0.188 C 
BRANCH  25  26
ATOM     26  C   UNL A   1      34.263  34.153  29.122  1.00  0.00     0.188 C 
BRANCH  26  27
ATOM     27  O   UNL A   1      33.314  34.432  30.126  1.00  0.00    -0.376 OA
BRANCH  27  28
ATOM     28  C   UNL A   1      33.810  34.840  31.389  1.00  0.00     0.202 C 
BRANCH  28  29
ATOM     29  C   UNL A   1      35.138  34.279  31.942  1.00  0.00     0.261 C 
BRANCH  29  30
ATOM     30  O   UNL A   1      35.178  32.900  32.350  1.00  0.00    -0.460 OA
BRANCH  30  31
ATOM     31  C   UNL A   1      36.211  32.505  33.129  1.00  0.00     0.338 C 
ATOM     32  O   UNL A   1      36.285  32.591  34.342  1.00  0.00    -0.246 OA
BRANCH  31  33
ATOM     33  C   UNL A   1      37.177  31.761  32.285  1.00  0.00     0.060 A 
ATOM     34  C   UNL A   1      38.209  31.050  32.907  1.00  0.00     0.016 A 
ATOM     35  C   UNL A   1      37.083  31.777  30.889  1.00  0.00     0.016 A 
ATOM     36  C   UNL A   1      39.163  30.383  32.134  1.00  0.00     0.010 A 
ATOM     37  C   UNL A   1      38.049  31.112  30.118  1.00  0.00     0.010 A 
ATOM     38  C   UNL A   1      39.110  30.429  30.737  1.00  0.00    -0.014 A 
BRANCH  38  39
ATOM     39  C   UNL A   1      40.271  29.920  29.958  1.00  0.00     0.031 A 
ATOM     40  C   UNL A   1      41.434  30.844  29.714  1.00  0.00     0.074 A 
ATOM     41  C   UNL A   1      40.336  28.645  29.532  1.00  0.00     0.049 A 
ATOM     42  N   UNL A   1      42.548  30.627  29.062  1.00  0.00    -0.248 NA
ATOM     43  C   UNL A   1      41.322  32.195  30.287  1.00  0.00     0.031 C 
ATOM     44  C   UNL A   1      39.317  27.622  29.756  1.00  0.00     0.029 A 
ATOM     45  N   UNL A   1      41.316  27.992  28.820  1.00  0.00    -0.354 N 
ATOM     46  C   UNL A   1      43.265  31.816  29.140  1.00  0.00     0.074 A 
ATOM     47  C   UNL A   1      42.448  32.757  29.873  1.00  0.00     0.031 C 
ATOM     48  C   UNL A   1      39.721  26.472  29.186  1.00  0.00     0.029 A 
ATOM     49  C   UNL A   1      41.014  26.682  28.536  1.00  0.00     0.049 A 
ATOM     50  H   UNL A   1      42.154  28.424  28.539  1.00  0.00     0.167 HD
ATOM     51  C   UNL A   1      44.497  32.100  28.651  1.00  0.00     0.031 A 
ATOM     52  C   UNL A   1      41.694  25.763  27.821  1.00  0.00     0.031 A 
ATOM     53  C   UNL A   1      45.310  31.173  27.911  1.00  0.00     0.049 A 
ATOM     54  C   UNL A   1      43.021  26.133  27.205  1.00  0.00     0.074 A 
ATOM     55  C   UNL A   1      46.571  31.371  27.376  1.00  0.00     0.029 A 
ATOM     56  N   UNL A   1      44.943  29.875  27.596  1.00  0.00    -0.354 N 
ATOM     57  N   UNL A   1      43.692  27.256  27.291  1.00  0.00    -0.248 NA
ATOM     58  C   UNL A   1      43.687  25.100  26.396  1.00  0.00     0.031 C 
ATOM     59  C   UNL A   1      46.936  30.216  26.677  1.00  0.00     0.029 A 
ATOM     60  C   UNL A   1      45.937  29.271  26.844  1.00  0.00     0.049 A 
ATOM     61  H   UNL A   1      44.099  29.445  27.867  1.00  0.00     0.167 HD
ATOM     62  C   UNL A   1      44.868  27.055  26.577  1.00  0.00     0.074 A 
ATOM     63  C   UNL A   1      44.829  25.694  26.081  1.00  0.00     0.031 C 
ATOM     64  C   UNL A   1      45.890  27.917  26.354  1.00  0.00     0.031 A 
BRANCH  51  65
ATOM     65  C   UNL A   1      45.015  33.496  28.860  1.00  0.00    -0.014 A 
ATOM     66  C   UNL A   1      44.745  34.527  27.947  1.00  0.00     0.009 A 
ATOM     67  C   UNL A   1      45.768  33.789  30.009  1.00  0.00     0.009 A 
ATOM     68  C   UNL A   1      45.249  35.812  28.160  1.00  0.00     0.001 A 
ATOM     69  C   UNL A   1      46.242  35.081  30.238  1.00  0.00     0.001 A 
ATOM     70  C   UNL A   1      45.992  36.089  29.308  1.00  0.00     0.000 A 
ENDBRANCH  51  65
BRANCH  52  71
ATOM     71  C   UNL A   1      41.128  24.400  27.616  1.00  0.00    -0.014 A 
ATOM     72  C   UNL A   1      41.655  23.290  28.293  1.00  0.00     0.009 A 
ATOM     73  C   UNL A   1      40.081  24.199  26.703  1.00  0.00     0.009 A 
ATOM     74  C   UNL A   1      41.166  22.005  28.038  1.00  0.00     0.001 A 
ATOM     75  C   UNL A   1      39.570  22.919  26.476  1.00  0.00     0.001 A 
ATOM     76  C   UNL A   1      40.121  21.822  27.135  1.00  0.00     0.000 A 
ENDBRANCH  52  71
BRANCH  64  77
ATOM     77  C   UNL A   1      47.074  27.406  25.574  1.00  0.00    -0.014 A 
ATOM     78  C   UNL A   1      47.187  27.607  24.190  1.00  0.00     0.009 A 
ATOM     79  C   UNL A   1      48.112  26.743  26.248  1.00  0.00     0.009 A 
ATOM     80  C   UNL A   1      48.293  27.116  23.491  1.00  0.00     0.001 A 
ATOM     81  C   UNL A   1      49.233  26.285  25.555  1.00  0.00     0.001 A 
ATOM     82  C   UNL A   1      49.317  26.459  24.175  1.00  0.00     0.000 A 
ENDBRANCH  64  77
ENDBRANCH  38  39
ENDBRANCH  31  33
ENDBRANCH  30  31
ENDBRANCH  29  30
ENDBRANCH  28  29
ENDBRANCH  27  28
ENDBRANCH  26  27
ENDBRANCH  25  26
ENDBRANCH   1  25
TORSDOF 22
ENDMDL
MODEL 2
REMARK VINA RESULT:      -9.2      3.095      5.450
REMARK SMILES CN(CCS(C)(=O)=O)S(=O)(=O)c1cc(C(=O)OCCOCCOCCOC(=O)c2ccc(-c3c4nc(c(-c5ccccc5)c5ccc([nH]5)c(-c5ccccc5)c5nc(c(-c6ccccc6)c6ccc3[nH]6)C=C5)C=C4)cc2)ccc1F
REMARK SMILES IDX 20 1 19 2 18 3 17 4 15 5 16 6 14 7 12 8 13 9 79 10 78 11
REMARK SMILES IDX 80 12 77 13 9 14 10 15 11 16 2 17 1 18 3 19 4 20 5 21 6 22
REMARK SMILES IDX 7 23 8 24 21 25 22 26 23 27 24 28 25 29 26 30 27 31 28 32
REMARK SMILES IDX 29 33 30 34 76 35 31 36 75 37 32 38 33 39 34 40 69 41 35 42
REMARK SMILES IDX 74 43 68 44 70 45 36 46 73 47 67 48 66 49 37 51 59 52 44 53
REMARK SMILES IDX 58 54 45 55 48 56 57 57 71 58 46 59 47 60 56 62 72 63 49 64
REMARK SMILES IDX 38 65 39 66 43 67 40 68 42 69 41 70 60 71 61 72 65 73 62 74
REMARK SMILES IDX 64 75 63 76 50 77 51 78 55 79 52 80 54 81 53 82
REMARK H PARENT 70 50 48 61
REMARK Flexibility Score: inf
ROOT
ATOM      1  O   UNL A   1      34.459  24.046  26.430  1.00  0.00    -0.376 OA
ENDROOT
BRANCH   1   2
ATOM      2  C   UNL A   1      35.019  22.766  26.163  1.00  0.00     0.202 C 
BRANCH   2   3
ATOM      3  C   UNL A   1      34.206  21.478  26.408  1.00  0.00     0.261 C 
BRANCH   3   4
ATOM      4  O   UNL A   1      32.874  21.466  25.872  1.00  0.00    -0.460 OA
BRANCH   4   5
ATOM      5  C   UNL A   1      32.756  21.766  24.558  1.00  0.00     0.338 C 
ATOM      6  O   UNL A   1      33.053  21.073  23.601  1.00  0.00    -0.246 OA
BRANCH   5   7
ATOM      7  C   UNL A   1      31.981  23.019  24.408  1.00  0.00     0.061 A 
ATOM      8  C   UNL A   1      31.641  25.076  23.169  1.00  0.00     0.119 A 
ATOM      9  C   UNL A   1      32.310  23.859  23.335  1.00  0.00     0.040 A 
ATOM     10  C   UNL A   1      30.600  25.415  24.022  1.00  0.00     0.143 A 
ATOM     11  C   UNL A   1      30.243  24.560  25.068  1.00  0.00     0.041 A 
ATOM     12  F   UNL A   1      29.901  26.543  23.857  1.00  0.00    -0.206 F 
ATOM     13  C   UNL A   1      30.938  23.362  25.272  1.00  0.00     0.019 A 
BRANCH   8  14
ATOM     14  S   UNL A   1      32.132  26.178  21.890  1.00  0.00     0.245 S 
ATOM     15  O   UNL A   1      31.115  26.254  20.866  1.00  0.00    -0.207 OA
ATOM     16  O   UNL A   1      33.488  25.818  21.564  1.00  0.00    -0.207 OA
BRANCH  14  17
ATOM     17  N   UNL A   1      32.177  27.723  22.620  1.00  0.00    -0.200 NA
ATOM     18  C   UNL A   1      33.564  28.185  22.901  1.00  0.00     0.124 C 
BRANCH  17  19
ATOM     19  C   UNL A   1      31.251  28.825  22.222  1.00  0.00     0.118 C 
BRANCH  19  20
ATOM     20  C   UNL A   1      30.184  29.283  23.193  1.00  0.00     0.153 C 
BRANCH  20  21
ATOM     21  S   UNL A   1      28.573  29.737  22.556  1.00  0.00     0.148 S 
ATOM     22  C   UNL A   1      28.059  31.266  23.301  1.00  0.00     0.158 C 
ATOM     23  O   UNL A   1      28.750  30.020  21.142  1.00  0.00    -0.229 OA
ATOM     24  O   UNL A   1      27.609  28.741  22.967  1.00  0.00    -0.229 OA
ENDBRANCH  20  21
ENDBRANCH  19  20
ENDBRANCH  17  19
ENDBRANCH  14  17
ENDBRANCH   8  14
ENDBRANCH   5   7
ENDBRANCH   4   5
ENDBRANCH   3   4
ENDBRANCH   2   3
ENDBRANCH   1   2
BRANCH   1  25
ATOM     25  C   UNL A   1      34.721  25.137  25.558  1.00  0.00     0.188 C 
BRANCH  25  26
ATOM     26  C   UNL A   1      33.884  26.430  25.664  1.00  0.00     0.188 C 
BRANCH  26  27
ATOM     27  O   UNL A   1      32.838  26.333  26.604  1.00  0.00    -0.376 OA
BRANCH  27  28
ATOM     28  C   UNL A   1      32.015  27.474  26.774  1.00  0.00     0.202 C 
BRANCH  28  29
ATOM     29  C   UNL A   1      32.600  28.810  27.282  1.00  0.00     0.261 C 
BRANCH  29  30
ATOM     30  O   UNL A   1      34.031  28.948  27.342  1.00  0.00    -0.460 OA
BRANCH  30  31
ATOM     31  C   UNL A   1      34.530  30.097  27.854  1.00  0.00     0.338 C 
ATOM     32  O   UNL A   1      33.907  31.112  28.110  1.00  0.00    -0.246 OA
BRANCH  31  33
ATOM     33  C   UNL A   1      35.941  29.862  28.244  1.00  0.00     0.060 A 
ATOM     34  C   UNL A   1      36.947  30.063  27.293  1.00  0.00     0.016 A 
ATOM     35  C   UNL A   1      36.274  29.427  29.532  1.00  0.00     0.016 A 
ATOM     36  C   UNL A   1      38.279  29.799  27.618  1.00  0.00     0.010 A 
ATOM     37  C   UNL A   1      37.614  29.156  29.849  1.00  0.00     0.010 A 
ATOM     38  C   UNL A   1      38.624  29.319  28.886  1.00  0.00    -0.014 A 
BRANCH  38  39
ATOM     39  C   UNL A   1      40.007  28.819  29.112  1.00  0.00     0.031 A 
ATOM     40  C   UNL A   1      40.982  29.706  29.839  1.00  0.00     0.074 A 
ATOM     41  C   UNL A   1      40.382  27.579  28.750  1.00  0.00     0.049 A 
ATOM     42  N   UNL A   1      42.237  29.491  30.147  1.00  0.00    -0.248 NA
ATOM     43  C   UNL A   1      40.468  31.014  30.278  1.00  0.00     0.031 C 
ATOM     44  C   UNL A   1      39.526  26.588  28.103  1.00  0.00     0.029 A 
ATOM     45  N   UNL A   1      41.593  26.939  28.884  1.00  0.00    -0.354 N 
ATOM     46  C   UNL A   1      42.662  30.637  30.808  1.00  0.00     0.074 A 
ATOM     47  C   UNL A   1      41.545  31.555  30.828  1.00  0.00     0.031 C 
ATOM     48  C   UNL A   1      40.239  25.468  27.889  1.00  0.00     0.029 A 
ATOM     49  C   UNL A   1      41.609  25.669  28.360  1.00  0.00     0.049 A 
ATOM     50  H   UNL A   1      42.375  27.354  29.314  1.00  0.00     0.167 HD
ATOM     51  C   UNL A   1      43.873  30.902  31.356  1.00  0.00     0.031 A 
ATOM     52  C   UNL A   1      42.616  24.777  28.258  1.00  0.00     0.031 A 
ATOM     53  C   UNL A   1      44.992  29.999  31.329  1.00  0.00     0.049 A 
ATOM     54  C   UNL A   1      43.981  25.133  28.790  1.00  0.00     0.074 A 
ATOM     55  C   UNL A   1      46.258  30.182  31.858  1.00  0.00     0.029 A 
ATOM     56  N   UNL A   1      44.983  28.746  30.738  1.00  0.00    -0.354 N 
ATOM     57  N   UNL A   1      44.371  26.216  29.419  1.00  0.00    -0.248 NA
ATOM     58  C   UNL A   1      45.047  24.136  28.602  1.00  0.00     0.031 C 
ATOM     59  C   UNL A   1      47.035  29.067  31.525  1.00  0.00     0.029 A 
ATOM     60  C   UNL A   1      46.231  28.158  30.858  1.00  0.00     0.049 A 
ATOM     61  H   UNL A   1      44.204  28.335  30.298  1.00  0.00     0.167 HD
ATOM     62  C   UNL A   1      45.712  26.018  29.728  1.00  0.00     0.074 A 
ATOM     63  C   UNL A   1      46.064  24.702  29.236  1.00  0.00     0.031 C 
ATOM     64  C   UNL A   1      46.574  26.848  30.365  1.00  0.00     0.031 A 
BRANCH  51  65
ATOM     65  C   UNL A   1      44.062  32.255  31.987  1.00  0.00    -0.014 A 
ATOM     66  C   UNL A   1      44.684  33.309  31.300  1.00  0.00     0.009 A 
ATOM     67  C   UNL A   1      43.583  32.483  33.288  1.00  0.00     0.009 A 
ATOM     68  C   UNL A   1      44.856  34.550  31.915  1.00  0.00     0.001 A 
ATOM     69  C   UNL A   1      43.725  33.735  33.888  1.00  0.00     0.001 A 
ATOM     70  C   UNL A   1      44.371  34.764  33.206  1.00  0.00     0.000 A 
ENDBRANCH  51  65
BRANCH  52  71
ATOM     71  C   UNL A   1      42.390  23.461  27.598  1.00  0.00    -0.014 A 
ATOM     72  C   UNL A   1      41.904  22.363  28.325  1.00  0.00     0.009 A 
ATOM     73  C   UNL A   1      42.703  23.285  26.241  1.00  0.00     0.009 A 
ATOM     74  C   UNL A   1      41.766  21.113  27.716  1.00  0.00     0.001 A 
ATOM     75  C   UNL A   1      42.531  22.044  25.625  1.00  0.00     0.001 A 
ATOM     76  C   UNL A   1      42.073  20.956  26.365  1.00  0.00     0.000 A 
ENDBRANCH  52  71
BRANCH  64  77
ATOM     77  C   UNL A   1      47.973  26.346  30.607  1.00  0.00    -0.014 A 
ATOM     78  C   UNL A   1      48.329  25.703  31.803  1.00  0.00     0.009 A 
ATOM     79  C   UNL A   1      48.944  26.488  29.601  1.00  0.00     0.009 A 
ATOM     80  C   UNL A   1      49.637  25.254  32.003  1.00  0.00     0.001 A 
ATOM     81  C   UNL A   1      50.240  26.006  29.789  1.00  0.00     0.001 A 
ATOM     82  C   UNL A   1      50.590  25.402  30.994  1.00  0.00     0.000 A 
ENDBRANCH  64  77
ENDBRANCH  38  39
ENDBRANCH  31  33
ENDBRANCH  30  31
ENDBRANCH  29  30
ENDBRANCH  28  29
ENDBRANCH  27  28
ENDBRANCH  26  27
ENDBRANCH  25  26
ENDBRANCH   1  25
TORSDOF 22
ENDMDL
MODEL 3
REMARK VINA RESULT:      -9.2      4.298      9.630
REMARK SMILES CN(CCS(C)(=O)=O)S(=O)(=O)c1cc(C(=O)OCCOCCOCCOC(=O)c2ccc(-c3c4nc(c(-c5ccccc5)c5ccc([nH]5)c(-c5ccccc5)c5nc(c(-c6ccccc6)c6ccc3[nH]6)C=C5)C=C4)cc2)ccc1F
REMARK SMILES IDX 20 1 19 2 18 3 17 4 15 5 16 6 14 7 12 8 13 9 79 10 78 11
REMARK SMILES IDX 80 12 77 13 9 14 10 15 11 16 2 17 1 18 3 19 4 20 5 21 6 22
REMARK SMILES IDX 7 23 8 24 21 25 22 26 23 27 24 28 25 29 26 30 27 31 28 32
REMARK SMILES IDX 29 33 30 34 76 35 31 36 75 37 32 38 33 39 34 40 69 41 35 42
REMARK SMILES IDX 74 43 68 44 70 45 36 46 73 47 67 48 66 49 37 51 59 52 44 53
REMARK SMILES IDX 58 54 45 55 48 56 57 57 71 58 46 59 47 60 56 62 72 63 49 64
REMARK SMILES IDX 38 65 39 66 43 67 40 68 42 69 41 70 60 71 61 72 65 73 62 74
REMARK SMILES IDX 64 75 63 76 50 77 51 78 55 79 52 80 54 81 53 82
REMARK H PARENT 70 50 48 61
REMARK Flexibility Score: inf
ROOT
ATOM      1  O   UNL A   1      37.809  22.262  26.002  1.00  0.00    -0.376 OA
ENDROOT
BRANCH   1   2
ATOM      2  C   UNL A   1      37.392  22.050  24.659  1.00  0.00     0.202 C 
BRANCH   2   3
ATOM      3  C   UNL A   1      36.510  23.084  23.929  1.00  0.00     0.261 C 
BRANCH   3   4
ATOM      4  O   UNL A   1      35.286  22.580  23.372  1.00  0.00    -0.460 OA
BRANCH   4   5
ATOM      5  C   UNL A   1      34.377  22.107  24.256  1.00  0.00     0.338 C 
ATOM      6  O   UNL A   1      34.311  20.990  24.738  1.00  0.00    -0.246 OA
BRANCH   5   7
ATOM      7  C   UNL A   1      33.556  23.229  24.766  1.00  0.00     0.061 A 
ATOM      8  C   UNL A   1      32.123  25.115  24.245  1.00  0.00     0.119 A 
ATOM      9  C   UNL A   1      32.879  24.016  23.824  1.00  0.00     0.040 A 
ATOM     10  C   UNL A   1      31.984  25.382  25.600  1.00  0.00     0.143 A 
ATOM     11  C   UNL A   1      32.627  24.575  26.543  1.00  0.00     0.041 A 
ATOM     12  F   UNL A   1      31.223  26.389  26.040  1.00  0.00    -0.206 F 
ATOM     13  C   UNL A   1      33.424  23.500  26.130  1.00  0.00     0.019 A 
BRANCH   8  14
ATOM     14  S   UNL A   1      31.367  26.165  23.054  1.00  0.00     0.245 S 
ATOM     15  O   UNL A   1      29.927  26.105  23.166  1.00  0.00    -0.207 OA
ATOM     16  O   UNL A   1      32.028  25.880  21.807  1.00  0.00    -0.207 OA
BRANCH  14  17
ATOM     17  N   UNL A   1      31.805  27.753  23.512  1.00  0.00    -0.200 NA
ATOM     18  C   UNL A   1      33.144  28.150  22.994  1.00  0.00     0.124 C 
BRANCH  17  19
ATOM     19  C   UNL A   1      30.823  28.877  23.549  1.00  0.00     0.118 C 
BRANCH  19  20
ATOM     20  C   UNL A   1      30.060  29.236  22.292  1.00  0.00     0.153 C 
BRANCH  20  21
ATOM     21  S   UNL A   1      28.507  30.115  22.445  1.00  0.00     0.148 S 
ATOM     22  C   UNL A   1      27.282  29.023  23.126  1.00  0.00     0.158 C 
ATOM     23  O   UNL A   1      28.714  31.154  23.438  1.00  0.00    -0.229 OA
ATOM     24  O   UNL A   1      28.041  30.474  21.124  1.00  0.00    -0.229 OA
ENDBRANCH  20  21
ENDBRANCH  19  20
ENDBRANCH  17  19
ENDBRANCH  14  17
ENDBRANCH   8  14
ENDBRANCH   5   7
ENDBRANCH   4   5
ENDBRANCH   3   4
ENDBRANCH   2   3
ENDBRANCH   1   2
BRANCH   1  25
ATOM     25  C   UNL A   1      39.179  22.134  26.354  1.00  0.00     0.188 C 
BRANCH  25  26
ATOM     26  C   UNL A   1      39.945  20.835  26.024  1.00  0.00     0.188 C 
BRANCH  26  27
ATOM     27  O   UNL A   1      40.487  20.210  27.165  1.00  0.00    -0.376 OA
BRANCH  27  28
ATOM     28  C   UNL A   1      41.898  20.208  27.292  1.00  0.00     0.202 C 
BRANCH  28  29
ATOM     29  C   UNL A   1      42.795  20.875  26.227  1.00  0.00     0.261 C 
BRANCH  29  30
ATOM     30  O   UNL A   1      43.368  22.160  26.527  1.00  0.00    -0.460 OA
BRANCH  30  31
ATOM     31  C   UNL A   1      43.051  23.195  25.715  1.00  0.00     0.338 C 
ATOM     32  O   UNL A   1      43.050  23.192  24.497  1.00  0.00    -0.246 OA
BRANCH  31  33
ATOM     33  C   UNL A   1      42.509  24.296  26.548  1.00  0.00     0.060 A 
ATOM     34  C   UNL A   1      42.963  25.600  26.322  1.00  0.00     0.016 A 
ATOM     35  C   UNL A   1      41.574  24.047  27.558  1.00  0.00     0.016 A 
ATOM     36  C   UNL A   1      42.508  26.647  27.126  1.00  0.00     0.010 A 
ATOM     37  C   UNL A   1      41.127  25.102  28.368  1.00  0.00     0.010 A 
ATOM     38  C   UNL A   1      41.610  26.407  28.172  1.00  0.00    -0.014 A 
BRANCH  38  39
ATOM     39  C   UNL A   1      41.343  27.495  29.152  1.00  0.00     0.031 A 
ATOM     40  C   UNL A   1      42.282  27.660  30.316  1.00  0.00     0.074 A 
ATOM     41  C   UNL A   1      40.333  28.369  28.984  1.00  0.00     0.049 A 
ATOM     42  N   UNL A   1      42.251  28.528  31.296  1.00  0.00    -0.248 NA
ATOM     43  C   UNL A   1      43.411  26.717  30.380  1.00  0.00     0.031 C 
ATOM     44  C   UNL A   1      39.389  28.373  27.869  1.00  0.00     0.029 A 
ATOM     45  N   UNL A   1      39.939  29.434  29.761  1.00  0.00    -0.354 N 
ATOM     46  C   UNL A   1      43.348  28.230  32.095  1.00  0.00     0.074 A 
ATOM     47  C   UNL A   1      44.005  27.085  31.505  1.00  0.00     0.031 C 
ATOM     48  C   UNL A   1      38.521  29.386  28.037  1.00  0.00     0.029 A 
ATOM     49  C   UNL A   1      38.830  30.088  29.282  1.00  0.00     0.049 A 
ATOM     50  H   UNL A   1      40.408  29.702  30.584  1.00  0.00     0.167 HD
ATOM     51  C   UNL A   1      43.778  28.856  33.218  1.00  0.00     0.031 A 
ATOM     52  C   UNL A   1      38.133  31.122  29.797  1.00  0.00     0.031 A 
ATOM     53  C   UNL A   1      43.123  29.988  33.817  1.00  0.00     0.049 A 
ATOM     54  C   UNL A   1      38.576  31.741  31.099  1.00  0.00     0.074 A 
ATOM     55  C   UNL A   1      43.485  30.688  34.955  1.00  0.00     0.029 A 
ATOM     56  N   UNL A   1      41.969  30.582  33.333  1.00  0.00    -0.354 N 
ATOM     57  N   UNL A   1      39.619  31.457  31.842  1.00  0.00    -0.248 NA
ATOM     58  C   UNL A   1      37.744  32.833  31.631  1.00  0.00     0.031 C 
ATOM     59  C   UNL A   1      42.511  31.662  35.197  1.00  0.00     0.029 A 
ATOM     60  C   UNL A   1      41.586  31.619  34.167  1.00  0.00     0.049 A 
ATOM     61  H   UNL A   1      41.494  30.308  32.515  1.00  0.00     0.167 HD
ATOM     62  C   UNL A   1      39.585  32.351  32.907  1.00  0.00     0.074 A 
ATOM     63  C   UNL A   1      38.430  33.201  32.703  1.00  0.00     0.031 C 
ATOM     64  C   UNL A   1      40.434  32.460  33.957  1.00  0.00     0.031 A 
BRANCH  51  65
ATOM     65  C   UNL A   1      44.992  28.289  33.901  1.00  0.00    -0.014 A 
ATOM     66  C   UNL A   1      46.284  28.763  33.620  1.00  0.00     0.009 A 
ATOM     67  C   UNL A   1      44.836  27.278  34.863  1.00  0.00     0.009 A 
ATOM     68  C   UNL A   1      47.395  28.209  34.261  1.00  0.00     0.001 A 
ATOM     69  C   UNL A   1      45.944  26.751  35.527  1.00  0.00     0.001 A 
ATOM     70  C   UNL A   1      47.223  27.209  35.218  1.00  0.00     0.000 A 
ENDBRANCH  51  65
BRANCH  52  71
ATOM     71  C   UNL A   1      36.919  31.632  29.100  1.00  0.00    -0.014 A 
ATOM     72  C   UNL A   1      36.875  32.938  28.589  1.00  0.00     0.009 A 
ATOM     73  C   UNL A   1      35.778  30.823  28.983  1.00  0.00     0.009 A 
ATOM     74  C   UNL A   1      35.706  33.432  28.003  1.00  0.00     0.001 A 
ATOM     75  C   UNL A   1      34.622  31.307  28.365  1.00  0.00     0.001 A 
ATOM     76  C   UNL A   1      34.583  32.614  27.886  1.00  0.00     0.000 A 
ENDBRANCH  52  71
BRANCH  64  77
ATOM     77  C   UNL A   1      40.177  33.565  34.949  1.00  0.00    -0.014 A 
ATOM     78  C   UNL A   1      40.747  34.838  34.797  1.00  0.00     0.009 A 
ATOM     79  C   UNL A   1      39.316  33.334  36.035  1.00  0.00     0.009 A 
ATOM     80  C   UNL A   1      40.497  35.842  35.736  1.00  0.00     0.001 A 
ATOM     81  C   UNL A   1      39.039  34.349  36.951  1.00  0.00     0.001 A 
ATOM     82  C   UNL A   1      39.639  35.598  36.810  1.00  0.00     0.000 A 
ENDBRANCH  64  77
ENDBRANCH  38  39
ENDBRANCH  31  33
ENDBRANCH  30  31
ENDBRANCH  29  30
ENDBRANCH  28  29
ENDBRANCH  27  28
ENDBRANCH  26  27
ENDBRANCH  25  26
ENDBRANCH   1  25
TORSDOF 22
ENDMDL
