MODEL 1
REMARK VINA RESULT:      -9.5      0.000      0.000
REMARK SMILES CC(=O)O[C@@H](C)c1nc2ccc(C(=O)OCCOCCOCCOC(=O)c3ccc(-c4c5nc(c(-c6ccccc6)c6ccc([nH]6)c(-c6ccccc6)c6nc(c(-c7ccccc7)c7ccc4[nH]7)C=C6)C=C5)cc3)cc2[nH]1
REMARK SMILES IDX 19 1 18 2 17 3 16 4 15 5 13 6 14 7 12 8 7 9 8 10 77 11 9 12
REMARK SMILES IDX 76 13 10 15 75 16 11 17 5 18 6 19 4 20 2 21 1 22 3 23 20 24
REMARK SMILES IDX 21 25 22 26 23 27 24 28 25 29 26 30 27 31 28 32 74 33 29 34
REMARK SMILES IDX 73 35 30 36 31 37 32 38 67 39 33 40 72 41 66 42 68 43 34 44
REMARK SMILES IDX 71 45 65 46 64 47 35 49 57 50 42 51 56 52 43 53 46 54 55 55
REMARK SMILES IDX 69 56 44 57 45 58 54 60 70 61 47 62 36 63 37 64 41 65 38 66
REMARK SMILES IDX 40 67 39 68 58 69 59 70 63 71 60 72 62 73 61 74 48 75 49 76
REMARK SMILES IDX 53 77 50 78 52 79 51 80
REMARK H PARENT 77 14 68 48 46 59
REMARK Flexibility Score: inf
ROOT
ATOM      1  C   UNL A   1      42.680  18.573  25.881  1.00  0.00     0.188 C 
ENDROOT
BRANCH   1   2
ATOM      2  O   UNL A   1      42.389  18.778  27.259  1.00  0.00    -0.376 OA
BRANCH   2   3
ATOM      3  C   UNL A   1      41.346  19.671  27.633  1.00  0.00     0.202 C 
BRANCH   3   4
ATOM      4  C   UNL A   1      41.478  21.160  27.292  1.00  0.00     0.261 C 
BRANCH   4   5
ATOM      5  O   UNL A   1      40.508  21.619  26.337  1.00  0.00    -0.460 OA
BRANCH   5   6
ATOM      6  C   UNL A   1      39.656  22.570  26.793  1.00  0.00     0.338 C 
ATOM      7  O   UNL A   1      39.914  23.472  27.574  1.00  0.00    -0.246 OA
BRANCH   6   8
ATOM      8  C   UNL A   1      38.374  22.505  26.054  1.00  0.00     0.062 A 
ATOM      9  C   UNL A   1      34.271  23.868  24.688  1.00  0.00     0.148 A 
ATOM     10  N   UNL A   1      34.664  22.699  24.210  1.00  0.00    -0.229 NA
ATOM     11  N   UNL A   1      35.301  24.477  25.364  1.00  0.00    -0.339 N 
ATOM     12  C   UNL A   1      35.920  22.487  24.722  1.00  0.00     0.089 A 
ATOM     13  C   UNL A   1      36.337  23.586  25.458  1.00  0.00     0.066 A 
ATOM     14  H   UNL A   1      35.295  25.394  25.720  1.00  0.00     0.168 HD
ATOM     15  C   UNL A   1      36.764  21.369  24.622  1.00  0.00     0.031 A 
ATOM     16  C   UNL A   1      37.554  23.643  26.133  1.00  0.00     0.044 A 
ATOM     17  C   UNL A   1      37.995  21.385  25.301  1.00  0.00     0.018 A 
BRANCH   9  18
ATOM     18  C   UNL A   1      32.903  24.483  24.571  1.00  0.00     0.239 C 
ATOM     19  C   UNL A   1      32.818  25.708  23.661  1.00  0.00     0.062 C 
BRANCH  18  20
ATOM     20  O   UNL A   1      32.392  24.758  25.895  1.00  0.00    -0.455 OA
BRANCH  20  21
ATOM     21  C   UNL A   1      31.110  24.403  26.182  1.00  0.00     0.303 C 
ATOM     22  C   UNL A   1      30.946  22.924  26.006  1.00  0.00     0.139 C 
ATOM     23  O   UNL A   1      30.200  25.161  26.488  1.00  0.00    -0.253 OA
ENDBRANCH  20  21
ENDBRANCH  18  20
ENDBRANCH   9  18
ENDBRANCH   6   8
ENDBRANCH   5   6
ENDBRANCH   4   5
ENDBRANCH   3   4
ENDBRANCH   2   3
ENDBRANCH   1   2
BRANCH   1  24
ATOM     24  C   UNL A   1      43.871  19.302  25.223  1.00  0.00     0.188 C 
BRANCH  24  25
ATOM     25  O   UNL A   1      43.633  20.633  24.840  1.00  0.00    -0.376 OA
BRANCH  25  26
ATOM     26  C   UNL A   1      44.640  21.413  24.223  1.00  0.00     0.202 C 
BRANCH  26  27
ATOM     27  C   UNL A   1      45.193  22.755  24.739  1.00  0.00     0.261 C 
BRANCH  27  28
ATOM     28  O   UNL A   1      44.283  23.838  24.923  1.00  0.00    -0.460 OA
BRANCH  28  29
ATOM     29  C   UNL A   1      44.841  25.041  25.198  1.00  0.00     0.338 C 
ATOM     30  O   UNL A   1      45.770  25.579  24.628  1.00  0.00    -0.246 OA
BRANCH  29  31
ATOM     31  C   UNL A   1      44.028  25.694  26.240  1.00  0.00     0.060 A 
ATOM     32  C   UNL A   1      44.108  27.083  26.381  1.00  0.00     0.016 A 
ATOM     33  C   UNL A   1      43.218  24.934  27.088  1.00  0.00     0.016 A 
ATOM     34  C   UNL A   1      43.392  27.719  27.396  1.00  0.00     0.010 A 
ATOM     35  C   UNL A   1      42.516  25.570  28.113  1.00  0.00     0.010 A 
ATOM     36  C   UNL A   1      42.621  26.961  28.288  1.00  0.00    -0.014 A 
BRANCH  36  37
ATOM     37  C   UNL A   1      42.059  27.596  29.502  1.00  0.00     0.031 A 
ATOM     38  C   UNL A   1      40.755  28.335  29.393  1.00  0.00     0.074 A 
ATOM     39  C   UNL A   1      42.692  27.517  30.685  1.00  0.00     0.049 A 
ATOM     40  N   UNL A   1      40.095  28.994  30.311  1.00  0.00    -0.248 NA
ATOM     41  C   UNL A   1      40.109  28.327  28.070  1.00  0.00     0.031 C 
ATOM     42  C   UNL A   1      43.942  26.802  30.934  1.00  0.00     0.029 A 
ATOM     43  N   UNL A   1      42.365  28.060  31.902  1.00  0.00    -0.354 N 
ATOM     44  C   UNL A   1      38.961  29.485  29.676  1.00  0.00     0.074 A 
ATOM     45  C   UNL A   1      39.036  29.070  28.291  1.00  0.00     0.031 C 
ATOM     46  C   UNL A   1      44.282  26.958  32.225  1.00  0.00     0.029 A 
ATOM     47  C   UNL A   1      43.293  27.810  32.883  1.00  0.00     0.049 A 
ATOM     48  H   UNL A   1      41.543  28.579  32.058  1.00  0.00     0.167 HD
ATOM     49  C   UNL A   1      37.947  30.215  30.197  1.00  0.00     0.031 A 
ATOM     50  C   UNL A   1      43.347  28.240  34.158  1.00  0.00     0.031 A 
ATOM     51  C   UNL A   1      37.883  30.654  31.564  1.00  0.00     0.049 A 
ATOM     52  C   UNL A   1      42.254  29.127  34.691  1.00  0.00     0.074 A 
ATOM     53  C   UNL A   1      36.888  31.385  32.191  1.00  0.00     0.029 A 
ATOM     54  N   UNL A   1      38.864  30.417  32.514  1.00  0.00    -0.354 N 
ATOM     55  N   UNL A   1      41.168  29.554  34.094  1.00  0.00    -0.248 NA
ATOM     56  C   UNL A   1      42.395  29.588  36.082  1.00  0.00     0.031 C 
ATOM     57  C   UNL A   1      37.294  31.638  33.505  1.00  0.00     0.029 A 
ATOM     58  C   UNL A   1      38.513  31.013  33.714  1.00  0.00     0.049 A 
ATOM     59  H   UNL A   1      39.688  29.901  32.358  1.00  0.00     0.167 HD
ATOM     60  C   UNL A   1      40.484  30.308  35.040  1.00  0.00     0.074 A 
ATOM     61  C   UNL A   1      41.272  30.271  36.255  1.00  0.00     0.031 C 
ATOM     62  C   UNL A   1      39.307  30.971  34.914  1.00  0.00     0.031 A 
BRANCH  49  63
ATOM     63  C   UNL A   1      36.843  30.617  29.261  1.00  0.00    -0.014 A 
ATOM     64  C   UNL A   1      36.667  31.953  28.870  1.00  0.00     0.009 A 
ATOM     65  C   UNL A   1      35.970  29.640  28.755  1.00  0.00     0.009 A 
ATOM     66  C   UNL A   1      35.616  32.310  28.021  1.00  0.00     0.001 A 
ATOM     67  C   UNL A   1      34.938  29.995  27.886  1.00  0.00     0.001 A 
ATOM     68  C   UNL A   1      34.756  31.330  27.528  1.00  0.00     0.000 A 
ENDBRANCH  49  63
BRANCH  50  69
ATOM     69  C   UNL A   1      44.491  27.852  35.025  1.00  0.00    -0.014 A 
ATOM     70  C   UNL A   1      45.650  28.642  35.073  1.00  0.00     0.009 A 
ATOM     71  C   UNL A   1      44.434  26.681  35.797  1.00  0.00     0.009 A 
ATOM     72  C   UNL A   1      46.737  28.254  35.860  1.00  0.00     0.001 A 
ATOM     73  C   UNL A   1      45.512  26.310  36.603  1.00  0.00     0.001 A 
ATOM     74  C   UNL A   1      46.666  27.093  36.628  1.00  0.00     0.000 A 
ENDBRANCH  50  69
BRANCH  62  75
ATOM     75  C   UNL A   1      38.778  31.676  36.132  1.00  0.00    -0.014 A 
ATOM     76  C   UNL A   1      39.090  33.020  36.393  1.00  0.00     0.009 A 
ATOM     77  C   UNL A   1      37.913  30.998  37.007  1.00  0.00     0.009 A 
ATOM     78  C   UNL A   1      38.573  33.658  37.523  1.00  0.00     0.001 A 
ATOM     79  C   UNL A   1      37.374  31.646  38.118  1.00  0.00     0.001 A 
ATOM     80  C   UNL A   1      37.713  32.973  38.380  1.00  0.00     0.000 A 
ENDBRANCH  62  75
ENDBRANCH  36  37
ENDBRANCH  29  31
ENDBRANCH  28  29
ENDBRANCH  27  28
ENDBRANCH  26  27
ENDBRANCH  25  26
ENDBRANCH  24  25
ENDBRANCH   1  24
TORSDOF 20
ENDMDL
MODEL 2
REMARK VINA RESULT:      -9.3      3.085      8.683
REMARK SMILES CC(=O)O[C@@H](C)c1nc2ccc(C(=O)OCCOCCOCCOC(=O)c3ccc(-c4c5nc(c(-c6ccccc6)c6ccc([nH]6)c(-c6ccccc6)c6nc(c(-c7ccccc7)c7ccc4[nH]7)C=C6)C=C5)cc3)cc2[nH]1
REMARK SMILES IDX 19 1 18 2 17 3 16 4 15 5 13 6 14 7 12 8 7 9 8 10 77 11 9 12
REMARK SMILES IDX 76 13 10 15 75 16 11 17 5 18 6 19 4 20 2 21 1 22 3 23 20 24
REMARK SMILES IDX 21 25 22 26 23 27 24 28 25 29 26 30 27 31 28 32 74 33 29 34
REMARK SMILES IDX 73 35 30 36 31 37 32 38 67 39 33 40 72 41 66 42 68 43 34 44
REMARK SMILES IDX 71 45 65 46 64 47 35 49 57 50 42 51 56 52 43 53 46 54 55 55
REMARK SMILES IDX 69 56 44 57 45 58 54 60 70 61 47 62 36 63 37 64 41 65 38 66
REMARK SMILES IDX 40 67 39 68 58 69 59 70 63 71 60 72 62 73 61 74 48 75 49 76
REMARK SMILES IDX 53 77 50 78 52 79 51 80
REMARK H PARENT 77 14 68 48 46 59
REMARK Flexibility Score: inf
ROOT
ATOM      1  C   UNL A   1      30.052  27.476  23.083  1.00  0.00     0.188 C 
ENDROOT
BRANCH   1   2
ATOM      2  O   UNL A   1      29.664  26.322  23.820  1.00  0.00    -0.376 OA
BRANCH   2   3
ATOM      3  C   UNL A   1      29.866  26.284  25.228  1.00  0.00     0.202 C 
BRANCH   3   4
ATOM      4  C   UNL A   1      31.297  26.292  25.779  1.00  0.00     0.261 C 
BRANCH   4   5
ATOM      5  O   UNL A   1      32.298  26.037  24.781  1.00  0.00    -0.460 OA
BRANCH   5   6
ATOM      6  C   UNL A   1      33.576  26.037  25.234  1.00  0.00     0.338 C 
ATOM      7  O   UNL A   1      34.186  26.982  25.707  1.00  0.00    -0.246 OA
BRANCH   6   8
ATOM      8  C   UNL A   1      34.104  24.654  25.272  1.00  0.00     0.062 A 
ATOM      9  C   UNL A   1      34.046  20.148  24.767  1.00  0.00     0.148 A 
ATOM     10  N   UNL A   1      35.169  20.645  25.262  1.00  0.00    -0.229 NA
ATOM     11  N   UNL A   1      33.215  21.163  24.359  1.00  0.00    -0.339 N 
ATOM     12  C   UNL A   1      34.987  22.004  25.313  1.00  0.00     0.089 A 
ATOM     13  C   UNL A   1      33.763  22.353  24.760  1.00  0.00     0.066 A 
ATOM     14  H   UNL A   1      32.372  21.055  23.864  1.00  0.00     0.168 HD
ATOM     15  C   UNL A   1      35.812  23.012  25.839  1.00  0.00     0.031 A 
ATOM     16  C   UNL A   1      33.285  23.660  24.712  1.00  0.00     0.044 A 
ATOM     17  C   UNL A   1      35.357  24.342  25.819  1.00  0.00     0.018 A 
BRANCH   9  18
ATOM     18  C   UNL A   1      33.662  18.696  24.668  1.00  0.00     0.239 C 
ATOM     19  C   UNL A   1      32.639  18.224  25.701  1.00  0.00     0.062 C 
BRANCH  18  20
ATOM     20  O   UNL A   1      34.860  17.888  24.685  1.00  0.00    -0.455 OA
BRANCH  20  21
ATOM     21  C   UNL A   1      34.771  16.589  24.291  1.00  0.00     0.303 C 
ATOM     22  C   UNL A   1      34.161  16.520  22.924  1.00  0.00     0.139 C 
ATOM     23  O   UNL A   1      35.085  15.608  24.950  1.00  0.00    -0.253 OA
ENDBRANCH  20  21
ENDBRANCH  18  20
ENDBRANCH   9  18
ENDBRANCH   6   8
ENDBRANCH   5   6
ENDBRANCH   4   5
ENDBRANCH   3   4
ENDBRANCH   2   3
ENDBRANCH   1   2
BRANCH   1  24
ATOM     24  C   UNL A   1      29.305  28.811  23.282  1.00  0.00     0.188 C 
BRANCH  24  25
ATOM     25  O   UNL A   1      30.081  29.876  23.769  1.00  0.00    -0.376 OA
BRANCH  25  26
ATOM     26  C   UNL A   1      31.217  29.648  24.583  1.00  0.00     0.202 C 
BRANCH  26  27
ATOM     27  C   UNL A   1      31.576  30.406  25.875  1.00  0.00     0.261 C 
BRANCH  27  28
ATOM     28  O   UNL A   1      32.909  30.302  26.375  1.00  0.00    -0.460 OA
BRANCH  28  29
ATOM     29  C   UNL A   1      33.350  31.351  27.109  1.00  0.00     0.338 C 
ATOM     30  O   UNL A   1      32.745  32.366  27.396  1.00  0.00    -0.246 OA
BRANCH  29  31
ATOM     31  C   UNL A   1      34.673  31.000  27.655  1.00  0.00     0.060 A 
ATOM     32  C   UNL A   1      34.957  29.655  27.914  1.00  0.00     0.016 A 
ATOM     33  C   UNL A   1      35.611  31.997  27.936  1.00  0.00     0.016 A 
ATOM     34  C   UNL A   1      36.180  29.303  28.484  1.00  0.00     0.010 A 
ATOM     35  C   UNL A   1      36.828  31.643  28.522  1.00  0.00     0.010 A 
ATOM     36  C   UNL A   1      37.107  30.299  28.823  1.00  0.00    -0.014 A 
BRANCH  36  37
ATOM     37  C   UNL A   1      38.293  29.956  29.641  1.00  0.00     0.031 A 
ATOM     38  C   UNL A   1      39.324  29.028  29.065  1.00  0.00     0.074 A 
ATOM     39  C   UNL A   1      38.456  30.463  30.875  1.00  0.00     0.049 A 
ATOM     40  N   UNL A   1      40.420  28.563  29.610  1.00  0.00    -0.248 NA
ATOM     41  C   UNL A   1      39.087  28.561  27.690  1.00  0.00     0.031 C 
ATOM     42  C   UNL A   1      37.550  31.401  31.536  1.00  0.00     0.029 A 
ATOM     43  N   UNL A   1      39.448  30.244  31.798  1.00  0.00    -0.354 N 
ATOM     44  C   UNL A   1      40.999  27.746  28.648  1.00  0.00     0.074 A 
ATOM     45  C   UNL A   1      40.121  27.757  27.497  1.00  0.00     0.031 C 
ATOM     46  C   UNL A   1      38.025  31.672  32.764  1.00  0.00     0.029 A 
ATOM     47  C   UNL A   1      39.247  30.901  32.987  1.00  0.00     0.049 A 
ATOM     48  H   UNL A   1      40.230  29.672  31.624  1.00  0.00     0.167 HD
ATOM     49  C   UNL A   1      42.157  27.048  28.713  1.00  0.00     0.031 A 
ATOM     50  C   UNL A   1      39.957  30.864  34.131  1.00  0.00     0.031 A 
ATOM     51  C   UNL A   1      43.017  27.011  29.865  1.00  0.00     0.049 A 
ATOM     52  C   UNL A   1      41.193  30.009  34.212  1.00  0.00     0.074 A 
ATOM     53  C   UNL A   1      44.220  26.345  30.022  1.00  0.00     0.029 A 
ATOM     54  N   UNL A   1      42.755  27.654  31.064  1.00  0.00    -0.354 N 
ATOM     55  N   UNL A   1      41.752  29.270  33.284  1.00  0.00    -0.248 NA
ATOM     56  C   UNL A   1      41.900  29.989  35.503  1.00  0.00     0.031 C 
ATOM     57  C   UNL A   1      44.658  26.541  31.336  1.00  0.00     0.029 A 
ATOM     58  C   UNL A   1      43.758  27.377  31.977  1.00  0.00     0.049 A 
ATOM     59  H   UNL A   1      41.971  28.224  31.240  1.00  0.00     0.167 HD
ATOM     60  C   UNL A   1      42.888  28.720  33.868  1.00  0.00     0.074 A 
ATOM     61  C   UNL A   1      42.945  29.220  35.226  1.00  0.00     0.031 C 
ATOM     62  C   UNL A   1      43.803  27.879  33.326  1.00  0.00     0.031 A 
BRANCH  49  63
ATOM     63  C   UNL A   1      42.534  26.234  27.508  1.00  0.00    -0.014 A 
ATOM     64  C   UNL A   1      42.121  24.900  27.370  1.00  0.00     0.009 A 
ATOM     65  C   UNL A   1      43.307  26.816  26.490  1.00  0.00     0.009 A 
ATOM     66  C   UNL A   1      42.507  24.152  26.255  1.00  0.00     0.001 A 
ATOM     67  C   UNL A   1      43.668  26.075  25.365  1.00  0.00     0.001 A 
ATOM     68  C   UNL A   1      43.276  24.741  25.253  1.00  0.00     0.000 A 
ENDBRANCH  49  63
BRANCH  50  69
ATOM     69  C   UNL A   1      39.509  31.651  35.310  1.00  0.00    -0.014 A 
ATOM     70  C   UNL A   1      38.458  31.190  36.118  1.00  0.00     0.009 A 
ATOM     71  C   UNL A   1      40.120  32.876  35.622  1.00  0.00     0.009 A 
ATOM     72  C   UNL A   1      38.014  31.951  37.202  1.00  0.00     0.001 A 
ATOM     73  C   UNL A   1      39.691  33.621  36.722  1.00  0.00     0.001 A 
ATOM     74  C   UNL A   1      38.635  33.162  37.507  1.00  0.00     0.000 A 
ENDBRANCH  50  69
BRANCH  62  75
ATOM     75  C   UNL A   1      44.967  27.476  34.188  1.00  0.00    -0.014 A 
ATOM     76  C   UNL A   1      44.902  26.351  35.026  1.00  0.00     0.009 A 
ATOM     77  C   UNL A   1      46.165  28.207  34.123  1.00  0.00     0.009 A 
ATOM     78  C   UNL A   1      46.003  25.988  35.805  1.00  0.00     0.001 A 
ATOM     79  C   UNL A   1      47.272  27.824  34.881  1.00  0.00     0.001 A 
ATOM     80  C   UNL A   1      47.187  26.721  35.728  1.00  0.00     0.000 A 
ENDBRANCH  62  75
ENDBRANCH  36  37
ENDBRANCH  29  31
ENDBRANCH  28  29
ENDBRANCH  27  28
ENDBRANCH  26  27
ENDBRANCH  25  26
ENDBRANCH  24  25
ENDBRANCH   1  24
TORSDOF 20
ENDMDL
MODEL 3
REMARK VINA RESULT:      -9.2      1.888      8.734
REMARK SMILES CC(=O)O[C@@H](C)c1nc2ccc(C(=O)OCCOCCOCCOC(=O)c3ccc(-c4c5nc(c(-c6ccccc6)c6ccc([nH]6)c(-c6ccccc6)c6nc(c(-c7ccccc7)c7ccc4[nH]7)C=C6)C=C5)cc3)cc2[nH]1
REMARK SMILES IDX 19 1 18 2 17 3 16 4 15 5 13 6 14 7 12 8 7 9 8 10 77 11 9 12
REMARK SMILES IDX 76 13 10 15 75 16 11 17 5 18 6 19 4 20 2 21 1 22 3 23 20 24
REMARK SMILES IDX 21 25 22 26 23 27 24 28 25 29 26 30 27 31 28 32 74 33 29 34
REMARK SMILES IDX 73 35 30 36 31 37 32 38 67 39 33 40 72 41 66 42 68 43 34 44
REMARK SMILES IDX 71 45 65 46 64 47 35 49 57 50 42 51 56 52 43 53 46 54 55 55
REMARK SMILES IDX 69 56 44 57 45 58 54 60 70 61 47 62 36 63 37 64 41 65 38 66
REMARK SMILES IDX 40 67 39 68 58 69 59 70 63 71 60 72 62 73 61 74 48 75 49 76
REMARK SMILES IDX 53 77 50 78 52 79 51 80
REMARK H PARENT 77 14 68 48 46 59
REMARK Flexibility Score: inf
ROOT
ATOM      1  C   UNL A   1      30.444  27.037  22.983  1.00  0.00     0.188 C 
ENDROOT
BRANCH   1   2
ATOM      2  O   UNL A   1      30.133  25.787  23.587  1.00  0.00    -0.376 OA
BRANCH   2   3
ATOM      3  C   UNL A   1      30.298  25.622  24.991  1.00  0.00     0.202 C 
BRANCH   3   4
ATOM      4  C   UNL A   1      31.709  25.448  25.563  1.00  0.00     0.261 C 
BRANCH   4   5
ATOM      5  O   UNL A   1      32.660  24.955  24.606  1.00  0.00    -0.460 OA
BRANCH   5   6
ATOM      6  C   UNL A   1      33.925  25.416  24.760  1.00  0.00     0.338 C 
ATOM      7  O   UNL A   1      34.261  26.556  25.041  1.00  0.00    -0.246 OA
BRANCH   6   8
ATOM      8  C   UNL A   1      34.886  24.290  24.744  1.00  0.00     0.062 A 
ATOM      9  C   UNL A   1      38.566  21.924  25.941  1.00  0.00     0.148 A 
ATOM     10  N   UNL A   1      37.831  21.378  24.985  1.00  0.00    -0.229 NA
ATOM     11  N   UNL A   1      37.924  23.019  26.467  1.00  0.00    -0.339 N 
ATOM     12  C   UNL A   1      36.772  22.230  24.791  1.00  0.00     0.089 A 
ATOM     13  C   UNL A   1      36.815  23.274  25.705  1.00  0.00     0.066 A 
ATOM     14  H   UNL A   1      38.211  23.532  27.256  1.00  0.00     0.168 HD
ATOM     15  C   UNL A   1      35.740  22.195  23.839  1.00  0.00     0.031 A 
ATOM     16  C   UNL A   1      35.893  24.318  25.723  1.00  0.00     0.044 A 
ATOM     17  C   UNL A   1      34.799  23.240  23.819  1.00  0.00     0.018 A 
BRANCH   9  18
ATOM     18  C   UNL A   1      39.925  21.479  26.407  1.00  0.00     0.239 C 
ATOM     19  C   UNL A   1      41.063  22.458  26.117  1.00  0.00     0.062 C 
BRANCH  18  20
ATOM     20  O   UNL A   1      40.198  20.161  25.880  1.00  0.00    -0.455 OA
BRANCH  20  21
ATOM     21  C   UNL A   1      41.402  19.590  26.155  1.00  0.00     0.303 C 
ATOM     22  C   UNL A   1      41.608  19.539  27.638  1.00  0.00     0.139 C 
ATOM     23  O   UNL A   1      42.229  19.215  25.336  1.00  0.00    -0.253 OA
ENDBRANCH  20  21
ENDBRANCH  18  20
ENDBRANCH   9  18
ENDBRANCH   6   8
ENDBRANCH   5   6
ENDBRANCH   4   5
ENDBRANCH   3   4
ENDBRANCH   2   3
ENDBRANCH   1   2
BRANCH   1  24
ATOM     24  C   UNL A   1      29.512  28.250  23.185  1.00  0.00     0.188 C 
BRANCH  24  25
ATOM     25  O   UNL A   1      30.120  29.404  23.708  1.00  0.00    -0.376 OA
BRANCH  25  26
ATOM     26  C   UNL A   1      31.248  29.320  24.560  1.00  0.00     0.202 C 
BRANCH  26  27
ATOM     27  C   UNL A   1      31.551  30.240  25.758  1.00  0.00     0.261 C 
BRANCH  27  28
ATOM     28  O   UNL A   1      32.886  30.281  26.261  1.00  0.00    -0.460 OA
BRANCH  28  29
ATOM     29  C   UNL A   1      33.209  31.374  26.993  1.00  0.00     0.338 C 
ATOM     30  O   UNL A   1      32.505  32.329  27.257  1.00  0.00    -0.246 OA
BRANCH  29  31
ATOM     31  C   UNL A   1      34.548  31.156  27.571  1.00  0.00     0.060 A 
ATOM     32  C   UNL A   1      34.986  29.842  27.771  1.00  0.00     0.016 A 
ATOM     33  C   UNL A   1      35.347  32.240  27.938  1.00  0.00     0.016 A 
ATOM     34  C   UNL A   1      36.224  29.609  28.368  1.00  0.00     0.010 A 
ATOM     35  C   UNL A   1      36.579  32.004  28.550  1.00  0.00     0.010 A 
ATOM     36  C   UNL A   1      37.011  30.689  28.792  1.00  0.00    -0.014 A 
BRANCH  36  37
ATOM     37  C   UNL A   1      38.204  30.447  29.636  1.00  0.00     0.031 A 
ATOM     38  C   UNL A   1      39.348  29.662  29.061  1.00  0.00     0.074 A 
ATOM     39  C   UNL A   1      38.274  30.919  30.893  1.00  0.00     0.049 A 
ATOM     40  N   UNL A   1      40.473  29.300  29.624  1.00  0.00    -0.248 NA
ATOM     41  C   UNL A   1      39.204  29.227  27.662  1.00  0.00     0.031 C 
ATOM     42  C   UNL A   1      37.250  31.724  31.557  1.00  0.00     0.029 A 
ATOM     43  N   UNL A   1      39.257  30.774  31.839  1.00  0.00    -0.354 N 
ATOM     44  C   UNL A   1      41.167  28.591  28.652  1.00  0.00     0.074 A 
ATOM     45  C   UNL A   1      40.327  28.551  27.474  1.00  0.00     0.031 C 
ATOM     46  C   UNL A   1      37.656  31.995  32.809  1.00  0.00     0.029 A 
ATOM     47  C   UNL A   1      38.949  31.356  33.044  1.00  0.00     0.049 A 
ATOM     48  H   UNL A   1      40.103  30.299  31.670  1.00  0.00     0.167 HD
ATOM     49  C   UNL A   1      42.394  28.023  28.730  1.00  0.00     0.031 A 
ATOM     50  C   UNL A   1      39.625  31.352  34.209  1.00  0.00     0.031 A 
ATOM     51  C   UNL A   1      43.219  28.035  29.908  1.00  0.00     0.049 A 
ATOM     52  C   UNL A   1      40.947  30.636  34.300  1.00  0.00     0.074 A 
ATOM     53  C   UNL A   1      44.484  27.501  30.080  1.00  0.00     0.029 A 
ATOM     54  N   UNL A   1      42.852  28.596  31.121  1.00  0.00    -0.354 N 
ATOM     55  N   UNL A   1      41.611  30.002  33.364  1.00  0.00    -0.248 NA
ATOM     56  C   UNL A   1      41.615  30.642  35.611  1.00  0.00     0.031 C 
ATOM     57  C   UNL A   1      44.859  27.690  31.414  1.00  0.00     0.029 A 
ATOM     58  C   UNL A   1      43.854  28.395  32.055  1.00  0.00     0.049 A 
ATOM     59  H   UNL A   1      42.005  29.069  31.291  1.00  0.00     0.167 HD
ATOM     60  C   UNL A   1      42.784  29.557  33.964  1.00  0.00     0.074 A 
ATOM     61  C   UNL A   1      42.746  30.006  35.341  1.00  0.00     0.031 C 
ATOM     62  C   UNL A   1      43.802  28.844  33.423  1.00  0.00     0.031 A 
BRANCH  49  63
ATOM     63  C   UNL A   1      42.894  27.305  27.510  1.00  0.00    -0.014 A 
ATOM     64  C   UNL A   1      43.616  27.977  26.512  1.00  0.00     0.009 A 
ATOM     65  C   UNL A   1      42.647  25.930  27.362  1.00  0.00     0.009 A 
ATOM     66  C   UNL A   1      44.048  27.295  25.370  1.00  0.00     0.001 A 
ATOM     67  C   UNL A   1      43.103  25.247  26.235  1.00  0.00     0.001 A 
ATOM     68  C   UNL A   1      43.793  25.931  25.236  1.00  0.00     0.000 A 
ENDBRANCH  49  63
BRANCH  50  69
ATOM     69  C   UNL A   1      39.059  32.037  35.400  1.00  0.00    -0.014 A 
ATOM     70  C   UNL A   1      39.360  33.383  35.660  1.00  0.00     0.009 A 
ATOM     71  C   UNL A   1      38.226  31.342  36.292  1.00  0.00     0.009 A 
ATOM     72  C   UNL A   1      38.856  34.011  36.801  1.00  0.00     0.001 A 
ATOM     73  C   UNL A   1      37.703  31.981  37.417  1.00  0.00     0.001 A 
ATOM     74  C   UNL A   1      38.024  33.313  37.676  1.00  0.00     0.000 A 
ENDBRANCH  50  69
BRANCH  62  75
ATOM     75  C   UNL A   1      44.979  28.538  34.308  1.00  0.00    -0.014 A 
ATOM     76  C   UNL A   1      45.047  27.349  35.049  1.00  0.00     0.009 A 
ATOM     77  C   UNL A   1      46.059  29.435  34.361  1.00  0.00     0.009 A 
ATOM     78  C   UNL A   1      46.158  27.080  35.852  1.00  0.00     0.001 A 
ATOM     79  C   UNL A   1      47.181  29.149  35.140  1.00  0.00     0.001 A 
ATOM     80  C   UNL A   1      47.225  27.976  35.892  1.00  0.00     0.000 A 
ENDBRANCH  62  75
ENDBRANCH  36  37
ENDBRANCH  29  31
ENDBRANCH  28  29
ENDBRANCH  27  28
ENDBRANCH  26  27
ENDBRANCH  25  26
ENDBRANCH  24  25
ENDBRANCH   1  24
TORSDOF 20
ENDMDL
