MODEL 1
REMARK VINA RESULT:     -10.8      0.000      0.000
REMARK SMILES COc1ccc(-n2c(SCc3cn(-c4ccc(C(=O)OCCOCCOCCOC(=O)c5ccc(-c6c7nc(c(-c8ccccc8)c8ccc([nH]8)c(-c8ccccc8)c8nc(c(-c9ccccc9)c9ccc6[nH]9)C=C8)C=C7)cc5)cc4)nn3)nc3ccccc3c2=O)cc1
REMARK SMILES IDX 22 1 21 2 20 3 18 4 19 5 17 6 14 7 15 8 81 9 16 10 80 11
REMARK SMILES IDX 13 12 11 13 12 14 83 15 82 16 10 17 9 18 8 19 7 20 91 21
REMARK SMILES IDX 84 22 90 23 92 24 85 25 89 26 86 27 88 28 87 29 6 30 3 31
REMARK SMILES IDX 4 32 94 33 5 34 93 35 2 36 1 37 23 38 24 39 25 40 26 41
REMARK SMILES IDX 27 42 28 43 29 44 30 45 31 46 32 47 33 48 79 49 34 50 78 51
REMARK SMILES IDX 35 52 36 53 37 54 72 55 38 56 77 57 71 58 73 59 39 60 76 61
REMARK SMILES IDX 70 62 69 63 40 65 62 66 47 67 61 68 48 69 51 70 60 71 74 72
REMARK SMILES IDX 49 73 50 74 59 76 75 77 52 78 41 79 42 80 46 81 43 82 45 83
REMARK SMILES IDX 44 84 63 85 64 86 68 87 65 88 67 89 66 90 53 91 54 92 58 93
REMARK SMILES IDX 55 94 57 95 56 96
REMARK H PARENT 73 64 51 75
REMARK Flexibility Score: inf
ROOT
ATOM      1  C   UNL A   1      34.256  16.982  24.732  1.00  0.00     0.202 C 
ENDROOT
BRANCH   1   2
ATOM      2  C   UNL A   1      32.750  17.313  24.813  1.00  0.00     0.261 C 
BRANCH   2   3
ATOM      3  O   UNL A   1      32.384  18.658  24.486  1.00  0.00    -0.460 OA
BRANCH   3   4
ATOM      4  C   UNL A   1      32.763  19.638  25.337  1.00  0.00     0.338 C 
ATOM      5  O   UNL A   1      33.105  19.506  26.497  1.00  0.00    -0.246 OA
BRANCH   4   6
ATOM      6  C   UNL A   1      32.915  20.891  24.557  1.00  0.00     0.060 A 
ATOM      7  C   UNL A   1      33.448  23.186  23.092  1.00  0.00     0.066 A 
ATOM      8  C   UNL A   1      33.969  23.060  24.384  1.00  0.00     0.029 A 
ATOM      9  C   UNL A   1      32.676  22.173  22.514  1.00  0.00     0.029 A 
ATOM     10  C   UNL A   1      33.721  21.898  25.106  1.00  0.00     0.018 A 
ATOM     11  C   UNL A   1      32.379  21.036  23.267  1.00  0.00     0.018 A 
BRANCH   7  12
ATOM     12  N   UNL A   1      33.561  24.417  22.434  1.00  0.00    -0.220 N 
ATOM     13  C   UNL A   1      33.360  26.554  22.126  1.00  0.00     0.093 A 
ATOM     14  C   UNL A   1      33.695  25.618  23.078  1.00  0.00     0.141 A 
ATOM     15  N   UNL A   1      33.184  25.915  20.926  1.00  0.00    -0.134 NA
ATOM     16  N   UNL A   1      33.268  24.609  21.135  1.00  0.00    -0.062 NA
BRANCH  13  17
ATOM     17  C   UNL A   1      33.079  27.996  22.234  1.00  0.00     0.138 C 
BRANCH  17  18
ATOM     18  S   UNL A   1      33.456  28.747  23.800  1.00  0.00    -0.081 SA
BRANCH  18  19
ATOM     19  C   UNL A   1      31.941  28.963  24.695  1.00  0.00     0.176 A 
ATOM     20  N   UNL A   1      32.006  28.925  26.080  1.00  0.00    -0.255 N 
ATOM     21  C   UNL A   1      31.334  27.900  26.741  1.00  0.00     0.266 A 
ATOM     22  N   UNL A   1      30.921  28.491  24.048  1.00  0.00    -0.223 NA
ATOM     23  C   UNL A   1      30.854  26.829  25.834  1.00  0.00     0.066 A 
ATOM     24  O   UNL A   1      31.144  27.809  27.949  1.00  0.00    -0.268 OA
ATOM     25  C   UNL A   1      30.581  27.208  24.515  1.00  0.00     0.079 A 
ATOM     26  C   UNL A   1      30.875  25.486  26.205  1.00  0.00     0.016 A 
ATOM     27  C   UNL A   1      30.281  26.233  23.565  1.00  0.00     0.029 A 
ATOM     28  C   UNL A   1      30.651  24.514  25.227  1.00  0.00     0.001 A 
ATOM     29  C   UNL A   1      30.343  24.886  23.914  1.00  0.00     0.002 A 
BRANCH  20  30
ATOM     30  C   UNL A   1      32.372  30.099  26.785  1.00  0.00     0.052 A 
ATOM     31  C   UNL A   1      33.462  32.543  27.537  1.00  0.00     0.119 A 
ATOM     32  C   UNL A   1      32.158  32.500  27.050  1.00  0.00     0.048 A 
ATOM     33  C   UNL A   1      34.150  31.361  27.811  1.00  0.00     0.048 A 
ATOM     34  C   UNL A   1      31.618  31.276  26.648  1.00  0.00     0.030 A 
ATOM     35  C   UNL A   1      33.592  30.130  27.459  1.00  0.00     0.030 A 
BRANCH  31  36
ATOM     36  O   UNL A   1      34.043  33.763  27.752  1.00  0.00    -0.497 OA
ATOM     37  C   UNL A   1      33.561  34.340  28.974  1.00  0.00     0.278 C 
ENDBRANCH  31  36
ENDBRANCH  20  30
ENDBRANCH  18  19
ENDBRANCH  17  18
ENDBRANCH  13  17
ENDBRANCH   7  12
ENDBRANCH   4   6
ENDBRANCH   3   4
ENDBRANCH   2   3
ENDBRANCH   1   2
BRANCH   1  38
ATOM     38  O   UNL A   1      35.167  17.909  24.152  1.00  0.00    -0.376 OA
BRANCH  38  39
ATOM     39  C   UNL A   1      36.179  18.429  24.993  1.00  0.00     0.188 C 
BRANCH  39  40
ATOM     40  C   UNL A   1      36.590  19.873  24.640  1.00  0.00     0.188 C 
BRANCH  40  41
ATOM     41  O   UNL A   1      36.949  20.812  25.648  1.00  0.00    -0.376 OA
BRANCH  41  42
ATOM     42  C   UNL A   1      37.995  21.754  25.439  1.00  0.00     0.202 C 
BRANCH  42  43
ATOM     43  C   UNL A   1      39.278  21.699  26.267  1.00  0.00     0.261 C 
BRANCH  43  44
ATOM     44  O   UNL A   1      39.824  22.967  26.589  1.00  0.00    -0.460 OA
BRANCH  44  45
ATOM     45  C   UNL A   1      41.171  22.999  26.558  1.00  0.00     0.338 C 
ATOM     46  O   UNL A   1      41.938  22.053  26.555  1.00  0.00    -0.246 OA
BRANCH  45  47
ATOM     47  C   UNL A   1      41.615  24.395  26.609  1.00  0.00     0.060 A 
ATOM     48  C   UNL A   1      42.720  24.664  27.419  1.00  0.00     0.016 A 
ATOM     49  C   UNL A   1      40.762  25.405  26.144  1.00  0.00     0.016 A 
ATOM     50  C   UNL A   1      42.822  25.915  27.978  1.00  0.00     0.010 A 
ATOM     51  C   UNL A   1      40.851  26.649  26.721  1.00  0.00     0.010 A 
ATOM     52  C   UNL A   1      41.818  26.848  27.703  1.00  0.00    -0.014 A 
BRANCH  52  53
ATOM     53  C   UNL A   1      41.770  28.030  28.529  1.00  0.00     0.031 A 
ATOM     54  C   UNL A   1      42.768  29.059  28.207  1.00  0.00     0.074 A 
ATOM     55  C   UNL A   1      40.828  28.203  29.473  1.00  0.00     0.049 A 
ATOM     56  N   UNL A   1      43.768  29.436  28.928  1.00  0.00    -0.248 NA
ATOM     57  C   UNL A   1      42.701  29.668  26.873  1.00  0.00     0.031 C 
ATOM     58  C   UNL A   1      39.604  27.426  29.683  1.00  0.00     0.029 A 
ATOM     59  N   UNL A   1      40.724  29.211  30.378  1.00  0.00    -0.354 N 
ATOM     60  C   UNL A   1      44.375  30.455  28.209  1.00  0.00     0.074 A 
ATOM     61  C   UNL A   1      43.779  30.449  26.896  1.00  0.00     0.031 C 
ATOM     62  C   UNL A   1      38.778  28.125  30.495  1.00  0.00     0.029 A 
ATOM     63  C   UNL A   1      39.469  29.322  30.952  1.00  0.00     0.049 A 
ATOM     64  H   UNL A   1      41.473  29.808  30.605  1.00  0.00     0.167 HD
ATOM     65  C   UNL A   1      45.158  31.387  28.812  1.00  0.00     0.031 A 
ATOM     66  C   UNL A   1      39.017  30.370  31.678  1.00  0.00     0.031 A 
ATOM     67  C   UNL A   1      45.558  30.999  30.137  1.00  0.00     0.049 A 
ATOM     68  C   UNL A   1      40.190  31.155  32.134  1.00  0.00     0.074 A 
ATOM     69  C   UNL A   1      46.275  29.946  30.671  1.00  0.00     0.029 A 
ATOM     70  N   UNL A   1      44.894  31.580  31.191  1.00  0.00    -0.354 N 
ATOM     71  N   UNL A   1      41.032  30.741  33.036  1.00  0.00    -0.248 NA
ATOM     72  C   UNL A   1      40.665  32.250  31.300  1.00  0.00     0.031 C 
ATOM     73  C   UNL A   1      45.662  29.676  31.929  1.00  0.00     0.029 A 
ATOM     74  C   UNL A   1      44.622  30.592  32.101  1.00  0.00     0.049 A 
ATOM     75  H   UNL A   1      44.656  32.532  31.276  1.00  0.00     0.167 HD
ATOM     76  C   UNL A   1      42.268  31.212  32.614  1.00  0.00     0.074 A 
ATOM     77  C   UNL A   1      41.962  32.236  31.619  1.00  0.00     0.031 C 
ATOM     78  C   UNL A   1      43.417  30.530  32.900  1.00  0.00     0.031 A 
BRANCH  65  79
ATOM     79  C   UNL A   1      45.232  32.810  28.337  1.00  0.00    -0.014 A 
ATOM     80  C   UNL A   1      44.147  33.665  28.581  1.00  0.00     0.009 A 
ATOM     81  C   UNL A   1      46.210  33.261  27.428  1.00  0.00     0.009 A 
ATOM     82  C   UNL A   1      44.029  34.891  27.916  1.00  0.00     0.001 A 
ATOM     83  C   UNL A   1      46.120  34.502  26.799  1.00  0.00     0.001 A 
ATOM     84  C   UNL A   1      45.015  35.308  27.026  1.00  0.00     0.000 A 
ENDBRANCH  65  79
BRANCH  66  85
ATOM     85  C   UNL A   1      37.635  30.879  31.785  1.00  0.00    -0.014 A 
ATOM     86  C   UNL A   1      37.118  31.286  33.023  1.00  0.00     0.009 A 
ATOM     87  C   UNL A   1      36.901  31.203  30.628  1.00  0.00     0.009 A 
ATOM     88  C   UNL A   1      35.928  32.021  33.097  1.00  0.00     0.001 A 
ATOM     89  C   UNL A   1      35.709  31.928  30.702  1.00  0.00     0.001 A 
ATOM     90  C   UNL A   1      35.230  32.351  31.937  1.00  0.00     0.000 A 
ENDBRANCH  66  85
BRANCH  78  91
ATOM     91  C   UNL A   1      43.342  29.423  33.921  1.00  0.00    -0.014 A 
ATOM     92  C   UNL A   1      43.626  29.624  35.284  1.00  0.00     0.009 A 
ATOM     93  C   UNL A   1      42.831  28.178  33.525  1.00  0.00     0.009 A 
ATOM     94  C   UNL A   1      43.443  28.596  36.214  1.00  0.00     0.001 A 
ATOM     95  C   UNL A   1      42.626  27.159  34.458  1.00  0.00     0.001 A 
ATOM     96  C   UNL A   1      42.939  27.366  35.800  1.00  0.00     0.000 A 
ENDBRANCH  78  91
ENDBRANCH  52  53
ENDBRANCH  45  47
ENDBRANCH  44  45
ENDBRANCH  43  44
ENDBRANCH  42  43
ENDBRANCH  41  42
ENDBRANCH  40  41
ENDBRANCH  39  40
ENDBRANCH  38  39
ENDBRANCH   1  38
TORSDOF 23
ENDMDL
MODEL 2
REMARK VINA RESULT:     -10.8      2.646      9.128
REMARK SMILES COc1ccc(-n2c(SCc3cn(-c4ccc(C(=O)OCCOCCOCCOC(=O)c5ccc(-c6c7nc(c(-c8ccccc8)c8ccc([nH]8)c(-c8ccccc8)c8nc(c(-c9ccccc9)c9ccc6[nH]9)C=C8)C=C7)cc5)cc4)nn3)nc3ccccc3c2=O)cc1
REMARK SMILES IDX 22 1 21 2 20 3 18 4 19 5 17 6 14 7 15 8 81 9 16 10 80 11
REMARK SMILES IDX 13 12 11 13 12 14 83 15 82 16 10 17 9 18 8 19 7 20 91 21
REMARK SMILES IDX 84 22 90 23 92 24 85 25 89 26 86 27 88 28 87 29 6 30 3 31
REMARK SMILES IDX 4 32 94 33 5 34 93 35 2 36 1 37 23 38 24 39 25 40 26 41
REMARK SMILES IDX 27 42 28 43 29 44 30 45 31 46 32 47 33 48 79 49 34 50 78 51
REMARK SMILES IDX 35 52 36 53 37 54 72 55 38 56 77 57 71 58 73 59 39 60 76 61
REMARK SMILES IDX 70 62 69 63 40 65 62 66 47 67 61 68 48 69 51 70 60 71 74 72
REMARK SMILES IDX 49 73 50 74 59 76 75 77 52 78 41 79 42 80 46 81 43 82 45 83
REMARK SMILES IDX 44 84 63 85 64 86 68 87 65 88 67 89 66 90 53 91 54 92 58 93
REMARK SMILES IDX 55 94 57 95 56 96
REMARK H PARENT 73 64 51 75
REMARK Flexibility Score: inf
ROOT
ATOM      1  C   UNL A   1      29.463  32.317  24.658  1.00  0.00     0.202 C 
ENDROOT
BRANCH   1   2
ATOM      2  C   UNL A   1      29.212  32.829  23.223  1.00  0.00     0.261 C 
BRANCH   2   3
ATOM      3  O   UNL A   1      27.953  32.475  22.641  1.00  0.00    -0.460 OA
BRANCH   3   4
ATOM      4  C   UNL A   1      27.965  31.655  21.566  1.00  0.00     0.338 C 
ATOM      5  O   UNL A   1      27.750  31.963  20.410  1.00  0.00    -0.246 OA
BRANCH   4   6
ATOM      6  C   UNL A   1      28.510  30.344  21.995  1.00  0.00     0.060 A 
ATOM      7  C   UNL A   1      29.679  28.018  22.956  1.00  0.00     0.066 A 
ATOM      8  C   UNL A   1      30.465  28.948  22.267  1.00  0.00     0.029 A 
ATOM      9  C   UNL A   1      28.317  28.241  23.185  1.00  0.00     0.029 A 
ATOM     10  C   UNL A   1      29.881  30.123  21.808  1.00  0.00     0.018 A 
ATOM     11  C   UNL A   1      27.724  29.393  22.668  1.00  0.00     0.018 A 
BRANCH   7  12
ATOM     12  N   UNL A   1      30.229  26.769  23.270  1.00  0.00    -0.220 N 
ATOM     13  C   UNL A   1      31.441  24.989  23.019  1.00  0.00     0.093 A 
ATOM     14  C   UNL A   1      31.470  26.356  22.865  1.00  0.00     0.141 A 
ATOM     15  N   UNL A   1      30.268  24.642  23.638  1.00  0.00    -0.134 NA
ATOM     16  N   UNL A   1      29.519  25.730  23.747  1.00  0.00    -0.062 NA
BRANCH  13  17
ATOM     17  C   UNL A   1      32.359  23.936  22.551  1.00  0.00     0.138 C 
BRANCH  17  18
ATOM     18  S   UNL A   1      34.074  24.164  22.956  1.00  0.00    -0.081 SA
BRANCH  18  19
ATOM     19  C   UNL A   1      34.279  23.892  24.697  1.00  0.00     0.176 A 
ATOM     20  N   UNL A   1      33.332  23.107  25.336  1.00  0.00    -0.255 N 
ATOM     21  C   UNL A   1      32.543  23.698  26.319  1.00  0.00     0.266 A 
ATOM     22  N   UNL A   1      34.834  24.906  25.286  1.00  0.00    -0.223 NA
ATOM     23  C   UNL A   1      32.656  25.177  26.355  1.00  0.00     0.066 A 
ATOM     24  O   UNL A   1      31.785  23.125  27.094  1.00  0.00    -0.268 OA
ATOM     25  C   UNL A   1      33.866  25.718  25.903  1.00  0.00     0.079 A 
ATOM     26  C   UNL A   1      31.558  25.993  26.617  1.00  0.00     0.016 A 
ATOM     27  C   UNL A   1      33.991  27.099  25.755  1.00  0.00     0.029 A 
ATOM     28  C   UNL A   1      31.671  27.367  26.389  1.00  0.00     0.001 A 
ATOM     29  C   UNL A   1      32.886  27.920  25.971  1.00  0.00     0.002 A 
BRANCH  20  30
ATOM     30  C   UNL A   1      33.463  21.696  25.291  1.00  0.00     0.052 A 
ATOM     31  C   UNL A   1      33.817  19.063  24.474  1.00  0.00     0.119 A 
ATOM     32  C   UNL A   1      34.899  19.763  25.001  1.00  0.00     0.048 A 
ATOM     33  C   UNL A   1      32.535  19.610  24.519  1.00  0.00     0.048 A 
ATOM     34  C   UNL A   1      34.728  21.095  25.388  1.00  0.00     0.030 A 
ATOM     35  C   UNL A   1      32.351  20.924  24.955  1.00  0.00     0.030 A 
BRANCH  31  36
ATOM     36  O   UNL A   1      34.036  17.827  23.930  1.00  0.00    -0.497 OA
ATOM     37  C   UNL A   1      33.311  16.823  24.652  1.00  0.00     0.278 C 
ENDBRANCH  31  36
ENDBRANCH  20  30
ENDBRANCH  18  19
ENDBRANCH  17  18
ENDBRANCH  13  17
ENDBRANCH   7  12
ENDBRANCH   4   6
ENDBRANCH   3   4
ENDBRANCH   2   3
ENDBRANCH   1   2
BRANCH   1  38
ATOM     38  O   UNL A   1      30.779  31.982  25.084  1.00  0.00    -0.376 OA
BRANCH  38  39
ATOM     39  C   UNL A   1      31.012  31.940  26.479  1.00  0.00     0.188 C 
BRANCH  39  40
ATOM     40  C   UNL A   1      32.337  32.607  26.901  1.00  0.00     0.188 C 
BRANCH  40  41
ATOM     41  O   UNL A   1      32.396  33.521  27.991  1.00  0.00    -0.376 OA
BRANCH  41  42
ATOM     42  C   UNL A   1      33.623  34.129  28.378  1.00  0.00     0.202 C 
BRANCH  42  43
ATOM     43  C   UNL A   1      34.963  33.533  27.950  1.00  0.00     0.261 C 
BRANCH  43  44
ATOM     44  O   UNL A   1      35.611  32.764  28.949  1.00  0.00    -0.460 OA
BRANCH  44  45
ATOM     45  C   UNL A   1      35.937  31.519  28.548  1.00  0.00     0.338 C 
ATOM     46  O   UNL A   1      35.472  30.893  27.613  1.00  0.00    -0.246 OA
BRANCH  45  47
ATOM     47  C   UNL A   1      36.921  30.962  29.481  1.00  0.00     0.060 A 
ATOM     48  C   UNL A   1      38.206  31.503  29.420  1.00  0.00     0.016 A 
ATOM     49  C   UNL A   1      36.648  29.747  30.123  1.00  0.00     0.016 A 
ATOM     50  C   UNL A   1      39.263  30.700  29.778  1.00  0.00     0.010 A 
ATOM     51  C   UNL A   1      37.705  28.936  30.459  1.00  0.00     0.010 A 
ATOM     52  C   UNL A   1      38.992  29.391  30.185  1.00  0.00    -0.014 A 
BRANCH  52  53
ATOM     53  C   UNL A   1      40.107  28.478  30.254  1.00  0.00     0.031 A 
ATOM     54  C   UNL A   1      40.748  28.373  31.572  1.00  0.00     0.074 A 
ATOM     55  C   UNL A   1      40.477  27.722  29.206  1.00  0.00     0.049 A 
ATOM     56  N   UNL A   1      41.934  28.758  31.902  1.00  0.00    -0.248 NA
ATOM     57  C   UNL A   1      39.928  27.873  32.683  1.00  0.00     0.031 C 
ATOM     58  C   UNL A   1      39.748  27.488  27.957  1.00  0.00     0.029 A 
ATOM     59  N   UNL A   1      41.554  26.900  29.103  1.00  0.00    -0.354 N 
ATOM     60  C   UNL A   1      42.079  28.400  33.233  1.00  0.00     0.074 A 
ATOM     61  C   UNL A   1      40.773  28.007  33.703  1.00  0.00     0.031 C 
ATOM     62  C   UNL A   1      40.288  26.417  27.331  1.00  0.00     0.029 A 
ATOM     63  C   UNL A   1      41.465  25.983  28.071  1.00  0.00     0.049 A 
ATOM     64  H   UNL A   1      42.329  26.953  29.709  1.00  0.00     0.167 HD
ATOM     65  C   UNL A   1      43.303  28.226  33.798  1.00  0.00     0.031 A 
ATOM     66  C   UNL A   1      42.257  24.900  27.898  1.00  0.00     0.031 A 
ATOM     67  C   UNL A   1      44.362  28.783  33.001  1.00  0.00     0.049 A 
ATOM     68  C   UNL A   1      43.486  25.095  28.705  1.00  0.00     0.074 A 
ATOM     69  C   UNL A   1      44.675  30.046  32.540  1.00  0.00     0.029 A 
ATOM     70  N   UNL A   1      45.117  27.908  32.258  1.00  0.00    -0.354 N 
ATOM     71  N   UNL A   1      44.411  25.965  28.418  1.00  0.00    -0.248 NA
ATOM     72  C   UNL A   1      43.511  24.593  30.072  1.00  0.00     0.031 C 
ATOM     73  C   UNL A   1      45.259  29.841  31.256  1.00  0.00     0.029 A 
ATOM     74  C   UNL A   1      45.291  28.465  31.018  1.00  0.00     0.049 A 
ATOM     75  H   UNL A   1      45.469  27.039  32.561  1.00  0.00     0.167 HD
ATOM     76  C   UNL A   1      44.852  26.435  29.647  1.00  0.00     0.074 A 
ATOM     77  C   UNL A   1      44.359  25.467  30.621  1.00  0.00     0.031 C 
ATOM     78  C   UNL A   1      45.328  27.709  29.784  1.00  0.00     0.031 A 
BRANCH  65  79
ATOM     79  C   UNL A   1      43.558  27.213  34.877  1.00  0.00    -0.014 A 
ATOM     80  C   UNL A   1      44.238  27.613  36.037  1.00  0.00     0.009 A 
ATOM     81  C   UNL A   1      43.393  25.828  34.677  1.00  0.00     0.009 A 
ATOM     82  C   UNL A   1      44.761  26.670  36.929  1.00  0.00     0.001 A 
ATOM     83  C   UNL A   1      43.871  24.887  35.589  1.00  0.00     0.001 A 
ATOM     84  C   UNL A   1      44.577  25.309  36.704  1.00  0.00     0.000 A 
ENDBRANCH  65  79
BRANCH  66  85
ATOM     85  C   UNL A   1      41.908  23.601  27.290  1.00  0.00    -0.014 A 
ATOM     86  C   UNL A   1      42.411  23.245  26.030  1.00  0.00     0.009 A 
ATOM     87  C   UNL A   1      41.282  22.599  28.055  1.00  0.00     0.009 A 
ATOM     88  C   UNL A   1      42.321  21.925  25.568  1.00  0.00     0.001 A 
ATOM     89  C   UNL A   1      41.184  21.284  27.590  1.00  0.00     0.001 A 
ATOM     90  C   UNL A   1      41.718  20.944  26.353  1.00  0.00     0.000 A 
ENDBRANCH  66  85
BRANCH  78  91
ATOM     91  C   UNL A   1      45.629  28.487  28.527  1.00  0.00    -0.014 A 
ATOM     92  C   UNL A   1      44.741  29.434  27.987  1.00  0.00     0.009 A 
ATOM     93  C   UNL A   1      46.903  28.367  27.952  1.00  0.00     0.009 A 
ATOM     94  C   UNL A   1      45.102  30.208  26.881  1.00  0.00     0.001 A 
ATOM     95  C   UNL A   1      47.272  29.157  26.861  1.00  0.00     0.001 A 
ATOM     96  C   UNL A   1      46.370  30.071  26.322  1.00  0.00     0.000 A 
ENDBRANCH  78  91
ENDBRANCH  52  53
ENDBRANCH  45  47
ENDBRANCH  44  45
ENDBRANCH  43  44
ENDBRANCH  42  43
ENDBRANCH  41  42
ENDBRANCH  40  41
ENDBRANCH  39  40
ENDBRANCH  38  39
ENDBRANCH   1  38
TORSDOF 23
ENDMDL
MODEL 3
REMARK VINA RESULT:     -10.8      3.576      9.670
REMARK SMILES COc1ccc(-n2c(SCc3cn(-c4ccc(C(=O)OCCOCCOCCOC(=O)c5ccc(-c6c7nc(c(-c8ccccc8)c8ccc([nH]8)c(-c8ccccc8)c8nc(c(-c9ccccc9)c9ccc6[nH]9)C=C8)C=C7)cc5)cc4)nn3)nc3ccccc3c2=O)cc1
REMARK SMILES IDX 22 1 21 2 20 3 18 4 19 5 17 6 14 7 15 8 81 9 16 10 80 11
REMARK SMILES IDX 13 12 11 13 12 14 83 15 82 16 10 17 9 18 8 19 7 20 91 21
REMARK SMILES IDX 84 22 90 23 92 24 85 25 89 26 86 27 88 28 87 29 6 30 3 31
REMARK SMILES IDX 4 32 94 33 5 34 93 35 2 36 1 37 23 38 24 39 25 40 26 41
REMARK SMILES IDX 27 42 28 43 29 44 30 45 31 46 32 47 33 48 79 49 34 50 78 51
REMARK SMILES IDX 35 52 36 53 37 54 72 55 38 56 77 57 71 58 73 59 39 60 76 61
REMARK SMILES IDX 70 62 69 63 40 65 62 66 47 67 61 68 48 69 51 70 60 71 74 72
REMARK SMILES IDX 49 73 50 74 59 76 75 77 52 78 41 79 42 80 46 81 43 82 45 83
REMARK SMILES IDX 44 84 63 85 64 86 68 87 65 88 67 89 66 90 53 91 54 92 58 93
REMARK SMILES IDX 55 94 57 95 56 96
REMARK H PARENT 73 64 51 75
REMARK Flexibility Score: inf
ROOT
ATOM      1  C   UNL A   1      29.526  31.842  24.860  1.00  0.00     0.202 C 
ENDROOT
BRANCH   1   2
ATOM      2  C   UNL A   1      29.332  32.535  23.494  1.00  0.00     0.261 C 
BRANCH   2   3
ATOM      3  O   UNL A   1      28.054  32.352  22.874  1.00  0.00    -0.460 OA
BRANCH   3   4
ATOM      4  C   UNL A   1      27.998  31.579  21.766  1.00  0.00     0.338 C 
ATOM      5  O   UNL A   1      27.711  31.936  20.640  1.00  0.00    -0.246 OA
BRANCH   4   6
ATOM      6  C   UNL A   1      28.569  30.252  22.103  1.00  0.00     0.060 A 
ATOM      7  C   UNL A   1      29.791  27.890  22.893  1.00  0.00     0.066 A 
ATOM      8  C   UNL A   1      30.543  28.861  22.225  1.00  0.00     0.029 A 
ATOM      9  C   UNL A   1      28.438  28.088  23.187  1.00  0.00     0.029 A 
ATOM     10  C   UNL A   1      29.933  30.053  21.851  1.00  0.00     0.018 A 
ATOM     11  C   UNL A   1      27.817  29.261  22.756  1.00  0.00     0.018 A 
BRANCH   7  12
ATOM     12  N   UNL A   1      30.361  26.630  23.120  1.00  0.00    -0.220 N 
ATOM     13  C   UNL A   1      31.589  24.885  22.737  1.00  0.00     0.093 A 
ATOM     14  C   UNL A   1      31.599  26.259  22.668  1.00  0.00     0.141 A 
ATOM     15  N   UNL A   1      30.431  24.485  23.353  1.00  0.00    -0.134 NA
ATOM     16  N   UNL A   1      29.672  25.555  23.543  1.00  0.00    -0.062 NA
BRANCH  13  17
ATOM     17  C   UNL A   1      32.511  23.875  22.189  1.00  0.00     0.138 C 
BRANCH  17  18
ATOM     18  S   UNL A   1      34.220  24.055  22.641  1.00  0.00    -0.081 SA
BRANCH  18  19
ATOM     19  C   UNL A   1      34.422  23.475  24.305  1.00  0.00     0.176 A 
ATOM     20  N   UNL A   1      33.506  22.545  24.771  1.00  0.00    -0.255 N 
ATOM     21  C   UNL A   1      32.684  22.909  25.834  1.00  0.00     0.266 A 
ATOM     22  N   UNL A   1      34.926  24.384  25.080  1.00  0.00    -0.223 NA
ATOM     23  C   UNL A   1      32.730  24.358  26.145  1.00  0.00     0.066 A 
ATOM     24  O   UNL A   1      31.946  22.169  26.477  1.00  0.00    -0.268 OA
ATOM     25  C   UNL A   1      33.917  25.026  25.821  1.00  0.00     0.079 A 
ATOM     26  C   UNL A   1      31.593  25.064  26.535  1.00  0.00     0.016 A 
ATOM     27  C   UNL A   1      33.981  26.414  25.933  1.00  0.00     0.029 A 
ATOM     28  C   UNL A   1      31.646  26.460  26.567  1.00  0.00     0.001 A 
ATOM     29  C   UNL A   1      32.838  27.132  26.280  1.00  0.00     0.002 A 
BRANCH  20  30
ATOM     30  C   UNL A   1      33.701  21.174  24.469  1.00  0.00     0.052 A 
ATOM     31  C   UNL A   1      33.860  18.400  24.584  1.00  0.00     0.119 A 
ATOM     32  C   UNL A   1      32.727  18.995  24.035  1.00  0.00     0.048 A 
ATOM     33  C   UNL A   1      34.974  19.174  24.907  1.00  0.00     0.048 A 
ATOM     34  C   UNL A   1      32.635  20.389  24.000  1.00  0.00     0.030 A 
ATOM     35  C   UNL A   1      34.905  20.567  24.825  1.00  0.00     0.030 A 
BRANCH  31  36
ATOM     36  O   UNL A   1      33.861  17.047  24.781  1.00  0.00    -0.497 OA
ATOM     37  C   UNL A   1      32.741  16.656  25.588  1.00  0.00     0.278 C 
ENDBRANCH  31  36
ENDBRANCH  20  30
ENDBRANCH  18  19
ENDBRANCH  17  18
ENDBRANCH  13  17
ENDBRANCH   7  12
ENDBRANCH   4   6
ENDBRANCH   3   4
ENDBRANCH   2   3
ENDBRANCH   1   2
BRANCH   1  38
ATOM     38  O   UNL A   1      30.805  31.350  25.243  1.00  0.00    -0.376 OA
BRANCH  38  39
ATOM     39  C   UNL A   1      31.287  31.732  26.517  1.00  0.00     0.188 C 
BRANCH  39  40
ATOM     40  C   UNL A   1      32.186  30.668  27.179  1.00  0.00     0.188 C 
BRANCH  40  41
ATOM     41  O   UNL A   1      33.517  30.435  26.731  1.00  0.00    -0.376 OA
BRANCH  41  42
ATOM     42  C   UNL A   1      34.638  30.873  27.490  1.00  0.00     0.202 C 
BRANCH  42  43
ATOM     43  C   UNL A   1      36.023  30.271  27.263  1.00  0.00     0.261 C 
BRANCH  43  44
ATOM     44  O   UNL A   1      37.033  30.777  28.120  1.00  0.00    -0.460 OA
BRANCH  44  45
ATOM     45  C   UNL A   1      37.696  29.820  28.799  1.00  0.00     0.338 C 
ATOM     46  O   UNL A   1      37.280  29.135  29.716  1.00  0.00    -0.246 OA
BRANCH  45  47
ATOM     47  C   UNL A   1      39.078  29.764  28.314  1.00  0.00     0.060 A 
ATOM     48  C   UNL A   1      39.253  29.354  26.990  1.00  0.00     0.016 A 
ATOM     49  C   UNL A   1      40.132  29.792  29.236  1.00  0.00     0.016 A 
ATOM     50  C   UNL A   1      40.429  28.724  26.660  1.00  0.00     0.010 A 
ATOM     51  C   UNL A   1      41.299  29.142  28.911  1.00  0.00     0.010 A 
ATOM     52  C   UNL A   1      41.383  28.533  27.662  1.00  0.00    -0.014 A 
BRANCH  52  53
ATOM     53  C   UNL A   1      42.457  27.611  27.384  1.00  0.00     0.031 A 
ATOM     54  C   UNL A   1      42.092  26.189  27.448  1.00  0.00     0.074 A 
ATOM     55  C   UNL A   1      43.681  28.030  27.017  1.00  0.00     0.049 A 
ATOM     56  N   UNL A   1      42.488  25.314  28.308  1.00  0.00    -0.248 NA
ATOM     57  C   UNL A   1      41.081  25.709  26.498  1.00  0.00     0.031 C 
ATOM     58  C   UNL A   1      44.092  29.375  26.607  1.00  0.00     0.029 A 
ATOM     59  N   UNL A   1      44.799  27.282  26.821  1.00  0.00    -0.354 N 
ATOM     60  C   UNL A   1      41.902  24.121  27.915  1.00  0.00     0.074 A 
ATOM     61  C   UNL A   1      40.931  24.449  26.901  1.00  0.00     0.031 C 
ATOM     62  C   UNL A   1      45.297  29.295  25.998  1.00  0.00     0.029 A 
ATOM     63  C   UNL A   1      45.784  27.927  26.093  1.00  0.00     0.049 A 
ATOM     64  H   UNL A   1      44.899  26.366  27.166  1.00  0.00     0.167 HD
ATOM     65  C   UNL A   1      42.418  22.917  28.279  1.00  0.00     0.031 A 
ATOM     66  C   UNL A   1      46.873  27.345  25.541  1.00  0.00     0.031 A 
ATOM     67  C   UNL A   1      43.363  23.024  29.356  1.00  0.00     0.049 A 
ATOM     68  C   UNL A   1      47.081  26.034  26.203  1.00  0.00     0.074 A 
ATOM     69  C   UNL A   1      43.310  23.476  30.660  1.00  0.00     0.029 A 
ATOM     70  N   UNL A   1      44.697  22.952  29.033  1.00  0.00    -0.354 N 
ATOM     71  N   UNL A   1      47.484  25.899  27.433  1.00  0.00    -0.248 NA
ATOM     72  C   UNL A   1      46.457  24.853  25.623  1.00  0.00     0.031 C 
ATOM     73  C   UNL A   1      44.582  24.072  30.901  1.00  0.00     0.029 A 
ATOM     74  C   UNL A   1      45.346  23.929  29.742  1.00  0.00     0.049 A 
ATOM     75  H   UNL A   1      45.110  22.313  28.406  1.00  0.00     0.167 HD
ATOM     76  C   UNL A   1      46.798  24.793  27.915  1.00  0.00     0.074 A 
ATOM     77  C   UNL A   1      46.285  24.119  26.726  1.00  0.00     0.031 C 
ATOM     78  C   UNL A   1      46.470  24.689  29.238  1.00  0.00     0.031 A 
BRANCH  65  79
ATOM     79  C   UNL A   1      42.344  21.706  27.393  1.00  0.00    -0.014 A 
ATOM     80  C   UNL A   1      41.839  20.509  27.921  1.00  0.00     0.009 A 
ATOM     81  C   UNL A   1      43.000  21.631  26.149  1.00  0.00     0.009 A 
ATOM     82  C   UNL A   1      42.019  19.292  27.253  1.00  0.00     0.001 A 
ATOM     83  C   UNL A   1      43.140  20.427  25.457  1.00  0.00     0.001 A 
ATOM     84  C   UNL A   1      42.669  19.253  26.023  1.00  0.00     0.000 A 
ENDBRANCH  65  79
BRANCH  66  85
ATOM     85  C   UNL A   1      47.590  27.732  24.310  1.00  0.00    -0.014 A 
ATOM     86  C   UNL A   1      48.938  27.389  24.131  1.00  0.00     0.009 A 
ATOM     87  C   UNL A   1      46.883  28.221  23.195  1.00  0.00     0.009 A 
ATOM     88  C   UNL A   1      49.546  27.498  22.873  1.00  0.00     0.001 A 
ATOM     89  C   UNL A   1      47.492  28.340  21.943  1.00  0.00     0.001 A 
ATOM     90  C   UNL A   1      48.819  27.963  21.778  1.00  0.00     0.000 A 
ENDBRANCH  66  85
BRANCH  78  91
ATOM     91  C   UNL A   1      47.117  25.653  30.200  1.00  0.00    -0.014 A 
ATOM     92  C   UNL A   1      48.385  25.427  30.766  1.00  0.00     0.009 A 
ATOM     93  C   UNL A   1      46.497  26.889  30.433  1.00  0.00     0.009 A 
ATOM     94  C   UNL A   1      48.994  26.393  31.571  1.00  0.00     0.001 A 
ATOM     95  C   UNL A   1      47.116  27.864  31.218  1.00  0.00     0.001 A 
ATOM     96  C   UNL A   1      48.360  27.613  31.793  1.00  0.00     0.000 A 
ENDBRANCH  78  91
ENDBRANCH  52  53
ENDBRANCH  45  47
ENDBRANCH  44  45
ENDBRANCH  43  44
ENDBRANCH  42  43
ENDBRANCH  41  42
ENDBRANCH  40  41
ENDBRANCH  39  40
ENDBRANCH  38  39
ENDBRANCH   1  38
TORSDOF 23
ENDMDL
