MODEL 1
REMARK VINA RESULT:      -9.9      0.000      0.000
REMARK SMILES C[C@H](C(=O)OCCOCCOCCOC(=O)c1ccc(-c2c3nc(c(-c4ccccc4)c4ccc([nH]4)c(-c4ccccc4)c4nc(c(-c5ccccc5)c5ccc2[nH]5)C=C4)C=C3)cc1)N1C(=O)C[C@](C)(c2ccccc2)C1=O
REMARK SMILES IDX 9 1 8 2 7 3 6 4 5 5 3 6 4 7 2 8 1 9 65 10 66 11 77 12 67 13
REMARK SMILES IDX 68 14 69 15 78 16 70 17 71 18 72 19 76 20 73 21 75 22 74 23
REMARK SMILES IDX 10 24 11 25 12 26 13 27 14 28 15 29 16 30 17 31 18 32 64 33
REMARK SMILES IDX 19 34 63 35 20 36 21 37 22 38 57 39 23 40 62 41 56 42 58 43
REMARK SMILES IDX 24 44 61 45 55 46 54 47 25 49 47 50 32 51 46 52 33 53 36 54
REMARK SMILES IDX 45 55 59 56 34 57 35 58 44 60 60 61 37 62 26 63 27 64 31 65
REMARK SMILES IDX 28 66 30 67 29 68 48 69 49 70 53 71 50 72 52 73 51 74 38 75
REMARK SMILES IDX 39 76 43 77 40 78 42 79 41 80
REMARK H PARENT 58 48 36 59
REMARK Flexibility Score: inf
ROOT
ATOM      1  C   UNL A   1      36.988  23.396  25.713  1.00  0.00     0.188 C 
ENDROOT
BRANCH   1   2
ATOM      2  O   UNL A   1      35.825  23.785  26.426  1.00  0.00    -0.376 OA
BRANCH   2   3
ATOM      3  C   UNL A   1      34.750  22.851  26.515  1.00  0.00     0.202 C 
BRANCH   3   4
ATOM      4  C   UNL A   1      33.479  23.185  25.729  1.00  0.00     0.261 C 
BRANCH   4   5
ATOM      5  O   UNL A   1      33.496  22.619  24.398  1.00  0.00    -0.462 OA
BRANCH   5   6
ATOM      6  C   UNL A   1      33.724  23.497  23.381  1.00  0.00     0.329 C 
ATOM      7  O   UNL A   1      34.834  23.725  22.907  1.00  0.00    -0.250 OA
BRANCH   6   8
ATOM      8  C   UNL A   1      32.453  24.155  22.821  1.00  0.00     0.200 C 
ATOM      9  C   UNL A   1      31.246  23.307  23.237  1.00  0.00     0.044 C 
BRANCH   8  10
ATOM     10  N   UNL A   1      32.315  25.595  23.077  1.00  0.00    -0.268 N 
ATOM     11  C   UNL A   1      32.866  26.504  22.223  1.00  0.00     0.231 C 
ATOM     12  C   UNL A   1      31.617  26.196  24.088  1.00  0.00     0.240 C 
ATOM     13  O   UNL A   1      33.517  26.244  21.221  1.00  0.00    -0.274 OA
ATOM     14  C   UNL A   1      32.539  27.898  22.663  1.00  0.00     0.122 C 
ATOM     15  C   UNL A   1      31.694  27.716  23.938  1.00  0.00     0.081 C 
ATOM     16  O   UNL A   1      30.931  25.618  24.918  1.00  0.00    -0.273 OA
ATOM     17  C   UNL A   1      30.257  28.199  23.633  1.00  0.00     0.027 C 
BRANCH  15  18
ATOM     18  C   UNL A   1      32.334  28.400  25.155  1.00  0.00    -0.032 A 
ATOM     19  C   UNL A   1      31.739  29.499  25.798  1.00  0.00     0.005 A 
ATOM     20  C   UNL A   1      33.568  27.951  25.667  1.00  0.00     0.005 A 
ATOM     21  C   UNL A   1      32.371  30.155  26.861  1.00  0.00     0.000 A 
ATOM     22  C   UNL A   1      34.205  28.611  26.724  1.00  0.00     0.000 A 
ATOM     23  C   UNL A   1      33.611  29.721  27.315  1.00  0.00     0.000 A 
ENDBRANCH  15  18
ENDBRANCH   8  10
ENDBRANCH   6   8
ENDBRANCH   5   6
ENDBRANCH   4   5
ENDBRANCH   3   4
ENDBRANCH   2   3
ENDBRANCH   1   2
BRANCH   1  24
ATOM     24  C   UNL A   1      37.100  21.939  25.258  1.00  0.00     0.188 C 
BRANCH  24  25
ATOM     25  O   UNL A   1      38.400  21.375  25.196  1.00  0.00    -0.376 OA
BRANCH  25  26
ATOM     26  C   UNL A   1      38.436  19.957  25.035  1.00  0.00     0.202 C 
BRANCH  26  27
ATOM     27  C   UNL A   1      39.470  19.303  25.954  1.00  0.00     0.261 C 
BRANCH  27  28
ATOM     28  O   UNL A   1      40.743  19.282  25.293  1.00  0.00    -0.460 OA
BRANCH  28  29
ATOM     29  C   UNL A   1      41.832  19.263  26.098  1.00  0.00     0.338 C 
ATOM     30  O   UNL A   1      42.572  18.327  26.343  1.00  0.00    -0.246 OA
BRANCH  29  31
ATOM     31  C   UNL A   1      42.079  20.652  26.537  1.00  0.00     0.060 A 
ATOM     32  C   UNL A   1      42.258  21.638  25.558  1.00  0.00     0.016 A 
ATOM     33  C   UNL A   1      42.091  20.989  27.893  1.00  0.00     0.016 A 
ATOM     34  C   UNL A   1      42.489  22.959  25.934  1.00  0.00     0.010 A 
ATOM     35  C   UNL A   1      42.330  22.309  28.270  1.00  0.00     0.010 A 
ATOM     36  C   UNL A   1      42.566  23.290  27.293  1.00  0.00    -0.014 A 
BRANCH  36  37
ATOM     37  C   UNL A   1      43.102  24.604  27.707  1.00  0.00     0.031 A 
ATOM     38  C   UNL A   1      42.119  25.670  28.103  1.00  0.00     0.074 A 
ATOM     39  C   UNL A   1      44.423  24.850  27.724  1.00  0.00     0.049 A 
ATOM     40  N   UNL A   1      42.329  26.922  28.414  1.00  0.00    -0.248 NA
ATOM     41  C   UNL A   1      40.702  25.267  28.145  1.00  0.00     0.031 C 
ATOM     42  C   UNL A   1      45.471  23.883  27.404  1.00  0.00     0.029 A 
ATOM     43  N   UNL A   1      45.102  26.005  28.013  1.00  0.00    -0.354 N 
ATOM     44  C   UNL A   1      41.075  27.457  28.676  1.00  0.00     0.074 A 
ATOM     45  C   UNL A   1      40.106  26.406  28.457  1.00  0.00     0.031 C 
ATOM     46  C   UNL A   1      46.666  24.491  27.502  1.00  0.00     0.029 A 
ATOM     47  C   UNL A   1      46.462  25.895  27.854  1.00  0.00     0.049 A 
ATOM     48  H   UNL A   1      44.659  26.833  28.307  1.00  0.00     0.167 HD
ATOM     49  C   UNL A   1      40.757  28.712  29.070  1.00  0.00     0.031 A 
ATOM     50  C   UNL A   1      47.424  26.833  27.955  1.00  0.00     0.031 A 
ATOM     51  C   UNL A   1      41.722  29.757  29.267  1.00  0.00     0.049 A 
ATOM     52  C   UNL A   1      47.039  28.243  28.317  1.00  0.00     0.074 A 
ATOM     53  C   UNL A   1      41.508  31.065  29.667  1.00  0.00     0.029 A 
ATOM     54  N   UNL A   1      43.087  29.614  29.071  1.00  0.00    -0.354 N 
ATOM     55  N   UNL A   1      45.852  28.738  28.579  1.00  0.00    -0.248 NA
ATOM     56  C   UNL A   1      48.130  29.226  28.402  1.00  0.00     0.031 C 
ATOM     57  C   UNL A   1      42.739  31.727  29.661  1.00  0.00     0.029 A 
ATOM     58  C   UNL A   1      43.727  30.815  29.319  1.00  0.00     0.049 A 
ATOM     59  H   UNL A   1      43.535  28.781  28.796  1.00  0.00     0.167 HD
ATOM     60  C   UNL A   1      46.056  30.077  28.888  1.00  0.00     0.074 A 
ATOM     61  C   UNL A   1      47.483  30.315  28.795  1.00  0.00     0.031 C 
ATOM     62  C   UNL A   1      45.148  31.026  29.222  1.00  0.00     0.031 A 
BRANCH  49  63
ATOM     63  C   UNL A   1      39.301  29.020  29.273  1.00  0.00    -0.014 A 
ATOM     64  C   UNL A   1      38.527  29.595  28.252  1.00  0.00     0.009 A 
ATOM     65  C   UNL A   1      38.691  28.720  30.501  1.00  0.00     0.009 A 
ATOM     66  C   UNL A   1      37.181  29.896  28.471  1.00  0.00     0.001 A 
ATOM     67  C   UNL A   1      37.338  28.995  30.706  1.00  0.00     0.001 A 
ATOM     68  C   UNL A   1      36.587  29.592  29.695  1.00  0.00     0.000 A 
ENDBRANCH  49  63
BRANCH  50  69
ATOM     69  C   UNL A   1      48.843  26.480  27.686  1.00  0.00    -0.014 A 
ATOM     70  C   UNL A   1      49.364  26.542  26.384  1.00  0.00     0.009 A 
ATOM     71  C   UNL A   1      49.680  26.055  28.729  1.00  0.00     0.009 A 
ATOM     72  C   UNL A   1      50.684  26.162  26.130  1.00  0.00     0.001 A 
ATOM     73  C   UNL A   1      51.008  25.704  28.477  1.00  0.00     0.001 A 
ATOM     74  C   UNL A   1      51.506  25.748  27.177  1.00  0.00     0.000 A 
ENDBRANCH  50  69
BRANCH  62  75
ATOM     75  C   UNL A   1      45.672  32.397  29.552  1.00  0.00    -0.014 A 
ATOM     76  C   UNL A   1      45.741  33.407  28.581  1.00  0.00     0.009 A 
ATOM     77  C   UNL A   1      46.052  32.693  30.871  1.00  0.00     0.009 A 
ATOM     78  C   UNL A   1      46.216  34.677  28.918  1.00  0.00     0.001 A 
ATOM     79  C   UNL A   1      46.496  33.970  31.212  1.00  0.00     0.001 A 
ATOM     80  C   UNL A   1      46.586  34.959  30.233  1.00  0.00     0.000 A 
ENDBRANCH  62  75
ENDBRANCH  36  37
ENDBRANCH  29  31
ENDBRANCH  28  29
ENDBRANCH  27  28
ENDBRANCH  26  27
ENDBRANCH  25  26
ENDBRANCH  24  25
ENDBRANCH   1  24
TORSDOF 19
ENDMDL
MODEL 2
REMARK VINA RESULT:      -9.8      3.119      8.460
REMARK SMILES C[C@H](C(=O)OCCOCCOCCOC(=O)c1ccc(-c2c3nc(c(-c4ccccc4)c4ccc([nH]4)c(-c4ccccc4)c4nc(c(-c5ccccc5)c5ccc2[nH]5)C=C4)C=C3)cc1)N1C(=O)C[C@](C)(c2ccccc2)C1=O
REMARK SMILES IDX 9 1 8 2 7 3 6 4 5 5 3 6 4 7 2 8 1 9 65 10 66 11 77 12 67 13
REMARK SMILES IDX 68 14 69 15 78 16 70 17 71 18 72 19 76 20 73 21 75 22 74 23
REMARK SMILES IDX 10 24 11 25 12 26 13 27 14 28 15 29 16 30 17 31 18 32 64 33
REMARK SMILES IDX 19 34 63 35 20 36 21 37 22 38 57 39 23 40 62 41 56 42 58 43
REMARK SMILES IDX 24 44 61 45 55 46 54 47 25 49 47 50 32 51 46 52 33 53 36 54
REMARK SMILES IDX 45 55 59 56 34 57 35 58 44 60 60 61 37 62 26 63 27 64 31 65
REMARK SMILES IDX 28 66 30 67 29 68 48 69 49 70 53 71 50 72 52 73 51 74 38 75
REMARK SMILES IDX 39 76 43 77 40 78 42 79 41 80
REMARK H PARENT 58 48 36 59
REMARK Flexibility Score: inf
ROOT
ATOM      1  C   UNL A   1      34.460  32.155  27.834  1.00  0.00     0.188 C 
ENDROOT
BRANCH   1   2
ATOM      2  O   UNL A   1      34.927  30.883  27.417  1.00  0.00    -0.376 OA
BRANCH   2   3
ATOM      3  C   UNL A   1      34.014  29.787  27.458  1.00  0.00     0.202 C 
BRANCH   3   4
ATOM      4  C   UNL A   1      33.814  29.006  26.156  1.00  0.00     0.261 C 
BRANCH   4   5
ATOM      5  O   UNL A   1      32.606  28.210  26.176  1.00  0.00    -0.462 OA
BRANCH   5   6
ATOM      6  C   UNL A   1      31.769  28.374  25.113  1.00  0.00     0.329 C 
ATOM      7  O   UNL A   1      31.783  29.354  24.373  1.00  0.00    -0.250 OA
BRANCH   6   8
ATOM      8  C   UNL A   1      30.822  27.187  24.870  1.00  0.00     0.200 C 
ATOM      9  C   UNL A   1      29.905  27.534  23.692  1.00  0.00     0.044 C 
BRANCH   8  10
ATOM     10  N   UNL A   1      31.463  25.867  24.786  1.00  0.00    -0.268 N 
ATOM     11  C   UNL A   1      31.228  24.924  25.742  1.00  0.00     0.231 C 
ATOM     12  C   UNL A   1      32.273  25.398  23.790  1.00  0.00     0.240 C 
ATOM     13  O   UNL A   1      30.519  25.064  26.729  1.00  0.00    -0.274 OA
ATOM     14  C   UNL A   1      31.941  23.651  25.406  1.00  0.00     0.122 C 
ATOM     15  C   UNL A   1      32.669  23.950  24.081  1.00  0.00     0.081 C 
ATOM     16  O   UNL A   1      32.546  25.995  22.757  1.00  0.00    -0.273 OA
ATOM     17  C   UNL A   1      32.022  23.088  22.973  1.00  0.00     0.027 C 
BRANCH  15  18
ATOM     18  C   UNL A   1      34.189  23.765  24.205  1.00  0.00    -0.032 A 
ATOM     19  C   UNL A   1      34.948  23.115  23.216  1.00  0.00     0.005 A 
ATOM     20  C   UNL A   1      34.881  24.233  25.339  1.00  0.00     0.005 A 
ATOM     21  C   UNL A   1      36.321  22.892  23.378  1.00  0.00     0.000 A 
ATOM     22  C   UNL A   1      36.252  24.002  25.505  1.00  0.00     0.000 A 
ATOM     23  C   UNL A   1      36.970  23.322  24.528  1.00  0.00     0.000 A 
ENDBRANCH  15  18
ENDBRANCH   8  10
ENDBRANCH   6   8
ENDBRANCH   5   6
ENDBRANCH   4   5
ENDBRANCH   3   4
ENDBRANCH   2   3
ENDBRANCH   1   2
BRANCH   1  24
ATOM     24  C   UNL A   1      34.444  32.460  29.334  1.00  0.00     0.188 C 
BRANCH  24  25
ATOM     25  O   UNL A   1      33.749  33.623  29.754  1.00  0.00    -0.376 OA
BRANCH  25  26
ATOM     26  C   UNL A   1      34.447  34.438  30.695  1.00  0.00     0.202 C 
BRANCH  26  27
ATOM     27  C   UNL A   1      34.735  33.689  31.998  1.00  0.00     0.261 C 
BRANCH  27  28
ATOM     28  O   UNL A   1      36.139  33.760  32.283  1.00  0.00    -0.460 OA
BRANCH  28  29
ATOM     29  C   UNL A   1      36.637  32.781  33.076  1.00  0.00     0.338 C 
ATOM     30  O   UNL A   1      36.287  32.471  34.200  1.00  0.00    -0.246 OA
BRANCH  29  31
ATOM     31  C   UNL A   1      37.615  32.019  32.272  1.00  0.00     0.060 A 
ATOM     32  C   UNL A   1      38.517  31.182  32.939  1.00  0.00     0.016 A 
ATOM     33  C   UNL A   1      37.614  32.094  30.876  1.00  0.00     0.016 A 
ATOM     34  C   UNL A   1      39.451  30.446  32.214  1.00  0.00     0.010 A 
ATOM     35  C   UNL A   1      38.553  31.363  30.150  1.00  0.00     0.010 A 
ATOM     36  C   UNL A   1      39.497  30.566  30.819  1.00  0.00    -0.014 A 
BRANCH  36  37
ATOM     37  C   UNL A   1      40.655  30.038  30.066  1.00  0.00     0.031 A 
ATOM     38  C   UNL A   1      41.785  30.982  29.763  1.00  0.00     0.074 A 
ATOM     39  C   UNL A   1      40.702  28.759  29.656  1.00  0.00     0.049 A 
ATOM     40  N   UNL A   1      42.860  30.789  29.046  1.00  0.00    -0.248 NA
ATOM     41  C   UNL A   1      41.680  32.333  30.343  1.00  0.00     0.031 C 
ATOM     42  C   UNL A   1      39.688  27.742  29.929  1.00  0.00     0.029 A 
ATOM     43  N   UNL A   1      41.645  28.107  28.905  1.00  0.00    -0.354 N 
ATOM     44  C   UNL A   1      43.551  31.993  29.079  1.00  0.00     0.074 A 
ATOM     45  C   UNL A   1      42.761  32.921  29.858  1.00  0.00     0.031 C 
ATOM     46  C   UNL A   1      40.060  26.592  29.340  1.00  0.00     0.029 A 
ATOM     47  C   UNL A   1      41.313  26.805  28.620  1.00  0.00     0.049 A 
ATOM     48  H   UNL A   1      42.479  28.530  28.599  1.00  0.00     0.167 HD
ATOM     49  C   UNL A   1      44.742  32.300  28.515  1.00  0.00     0.031 A 
ATOM     50  C   UNL A   1      41.943  25.902  27.843  1.00  0.00     0.031 A 
ATOM     51  C   UNL A   1      45.514  31.380  27.726  1.00  0.00     0.049 A 
ATOM     52  C   UNL A   1      43.227  26.290  27.159  1.00  0.00     0.074 A 
ATOM     53  C   UNL A   1      46.736  31.588  27.109  1.00  0.00     0.029 A 
ATOM     54  N   UNL A   1      45.132  30.079  27.438  1.00  0.00    -0.354 N 
ATOM     55  N   UNL A   1      43.882  27.426  27.209  1.00  0.00    -0.248 NA
ATOM     56  C   UNL A   1      43.863  25.267  26.315  1.00  0.00     0.031 C 
ATOM     57  C   UNL A   1      47.067  30.427  26.404  1.00  0.00     0.029 A 
ATOM     58  C   UNL A   1      46.084  29.477  26.634  1.00  0.00     0.049 A 
ATOM     59  H   UNL A   1      44.308  29.647  27.760  1.00  0.00     0.167 HD
ATOM     60  C   UNL A   1      45.019  27.245  26.429  1.00  0.00     0.074 A 
ATOM     61  C   UNL A   1      44.971  25.885  25.930  1.00  0.00     0.031 C 
ATOM     62  C   UNL A   1      46.015  28.121  26.152  1.00  0.00     0.031 A 
BRANCH  49  63
ATOM     63  C   UNL A   1      45.254  33.699  28.707  1.00  0.00    -0.014 A 
ATOM     64  C   UNL A   1      44.913  34.730  27.816  1.00  0.00     0.009 A 
ATOM     65  C   UNL A   1      46.079  33.994  29.803  1.00  0.00     0.009 A 
ATOM     66  C   UNL A   1      45.420  36.018  27.999  1.00  0.00     0.001 A 
ATOM     67  C   UNL A   1      46.560  35.289  29.999  1.00  0.00     0.001 A 
ATOM     68  C   UNL A   1      46.238  36.298  29.092  1.00  0.00     0.000 A 
ENDBRANCH  49  63
BRANCH  50  69
ATOM     69  C   UNL A   1      41.357  24.550  27.645  1.00  0.00    -0.014 A 
ATOM     70  C   UNL A   1      40.250  24.363  26.802  1.00  0.00     0.009 A 
ATOM     71  C   UNL A   1      41.890  23.439  28.317  1.00  0.00     0.009 A 
ATOM     72  C   UNL A   1      39.674  23.098  26.659  1.00  0.00     0.001 A 
ATOM     73  C   UNL A   1      41.330  22.170  28.149  1.00  0.00     0.001 A 
ATOM     74  C   UNL A   1      40.217  22.003  27.328  1.00  0.00     0.000 A 
ENDBRANCH  50  69
BRANCH  62  75
ATOM     75  C   UNL A   1      47.155  27.626  25.305  1.00  0.00    -0.014 A 
ATOM     76  C   UNL A   1      47.171  27.819  23.915  1.00  0.00     0.009 A 
ATOM     77  C   UNL A   1      48.252  27.001  25.919  1.00  0.00     0.009 A 
ATOM     78  C   UNL A   1      48.251  27.364  23.154  1.00  0.00     0.001 A 
ATOM     79  C   UNL A   1      49.343  26.576  25.160  1.00  0.00     0.001 A 
ATOM     80  C   UNL A   1      49.337  26.749  23.777  1.00  0.00     0.000 A 
ENDBRANCH  62  75
ENDBRANCH  36  37
ENDBRANCH  29  31
ENDBRANCH  28  29
ENDBRANCH  27  28
ENDBRANCH  26  27
ENDBRANCH  25  26
ENDBRANCH  24  25
ENDBRANCH   1  24
TORSDOF 19
ENDMDL
MODEL 3
REMARK VINA RESULT:      -9.7      0.623      5.849
REMARK SMILES C[C@H](C(=O)OCCOCCOCCOC(=O)c1ccc(-c2c3nc(c(-c4ccccc4)c4ccc([nH]4)c(-c4ccccc4)c4nc(c(-c5ccccc5)c5ccc2[nH]5)C=C4)C=C3)cc1)N1C(=O)C[C@](C)(c2ccccc2)C1=O
REMARK SMILES IDX 9 1 8 2 7 3 6 4 5 5 3 6 4 7 2 8 1 9 65 10 66 11 77 12 67 13
REMARK SMILES IDX 68 14 69 15 78 16 70 17 71 18 72 19 76 20 73 21 75 22 74 23
REMARK SMILES IDX 10 24 11 25 12 26 13 27 14 28 15 29 16 30 17 31 18 32 64 33
REMARK SMILES IDX 19 34 63 35 20 36 21 37 22 38 57 39 23 40 62 41 56 42 58 43
REMARK SMILES IDX 24 44 61 45 55 46 54 47 25 49 47 50 32 51 46 52 33 53 36 54
REMARK SMILES IDX 45 55 59 56 34 57 35 58 44 60 60 61 37 62 26 63 27 64 31 65
REMARK SMILES IDX 28 66 30 67 29 68 48 69 49 70 53 71 50 72 52 73 51 74 38 75
REMARK SMILES IDX 39 76 43 77 40 78 42 79 41 80
REMARK H PARENT 58 48 36 59
REMARK Flexibility Score: inf
ROOT
ATOM      1  C   UNL A   1      36.648  22.937  26.053  1.00  0.00     0.188 C 
ENDROOT
BRANCH   1   2
ATOM      2  O   UNL A   1      35.477  23.137  26.828  1.00  0.00    -0.376 OA
BRANCH   2   3
ATOM      3  C   UNL A   1      34.327  22.348  26.522  1.00  0.00     0.202 C 
BRANCH   3   4
ATOM      4  C   UNL A   1      33.091  23.097  26.019  1.00  0.00     0.261 C 
BRANCH   4   5
ATOM      5  O   UNL A   1      32.767  22.760  24.649  1.00  0.00    -0.462 OA
BRANCH   5   6
ATOM      6  C   UNL A   1      33.238  23.614  23.699  1.00  0.00     0.329 C 
ATOM      7  O   UNL A   1      34.428  23.738  23.417  1.00  0.00    -0.250 OA
BRANCH   6   8
ATOM      8  C   UNL A   1      32.142  24.387  22.948  1.00  0.00     0.200 C 
ATOM      9  C   UNL A   1      30.793  23.722  23.241  1.00  0.00     0.044 C 
BRANCH   8  10
ATOM     10  N   UNL A   1      32.161  25.847  23.118  1.00  0.00    -0.268 N 
ATOM     11  C   UNL A   1      32.834  26.636  22.233  1.00  0.00     0.231 C 
ATOM     12  C   UNL A   1      31.511  26.581  24.071  1.00  0.00     0.240 C 
ATOM     13  O   UNL A   1      33.476  26.246  21.268  1.00  0.00    -0.274 OA
ATOM     14  C   UNL A   1      32.655  28.081  22.583  1.00  0.00     0.122 C 
ATOM     15  C   UNL A   1      31.762  28.071  23.838  1.00  0.00     0.081 C 
ATOM     16  O   UNL A   1      30.742  26.132  24.910  1.00  0.00    -0.273 OA
ATOM     17  C   UNL A   1      30.398  28.692  23.461  1.00  0.00     0.027 C 
BRANCH  15  18
ATOM     18  C   UNL A   1      32.445  28.750  25.035  1.00  0.00    -0.032 A 
ATOM     19  C   UNL A   1      33.672  28.300  25.553  1.00  0.00     0.005 A 
ATOM     20  C   UNL A   1      31.846  29.853  25.676  1.00  0.00     0.005 A 
ATOM     21  C   UNL A   1      34.245  28.884  26.689  1.00  0.00     0.000 A 
ATOM     22  C   UNL A   1      32.414  30.432  26.817  1.00  0.00     0.000 A 
ATOM     23  C   UNL A   1      33.609  29.940  27.330  1.00  0.00     0.000 A 
ENDBRANCH  15  18
ENDBRANCH   8  10
ENDBRANCH   6   8
ENDBRANCH   5   6
ENDBRANCH   4   5
ENDBRANCH   3   4
ENDBRANCH   2   3
ENDBRANCH   1   2
BRANCH   1  24
ATOM     24  C   UNL A   1      36.840  21.577  25.376  1.00  0.00     0.188 C 
BRANCH  24  25
ATOM     25  O   UNL A   1      38.167  21.188  25.063  1.00  0.00    -0.376 OA
BRANCH  25  26
ATOM     26  C   UNL A   1      38.382  19.779  24.987  1.00  0.00     0.202 C 
BRANCH  26  27
ATOM     27  C   UNL A   1      39.401  19.299  26.022  1.00  0.00     0.261 C 
BRANCH  27  28
ATOM     28  O   UNL A   1      40.694  19.212  25.407  1.00  0.00    -0.460 OA
BRANCH  28  29
ATOM     29  C   UNL A   1      41.758  19.333  26.236  1.00  0.00     0.338 C 
ATOM     30  O   UNL A   1      42.583  18.487  26.532  1.00  0.00    -0.246 OA
BRANCH  29  31
ATOM     31  C   UNL A   1      41.852  20.755  26.627  1.00  0.00     0.060 A 
ATOM     32  C   UNL A   1      41.933  21.720  25.615  1.00  0.00     0.016 A 
ATOM     33  C   UNL A   1      41.815  21.137  27.971  1.00  0.00     0.016 A 
ATOM     34  C   UNL A   1      42.019  23.070  25.946  1.00  0.00     0.010 A 
ATOM     35  C   UNL A   1      41.908  22.487  28.303  1.00  0.00     0.010 A 
ATOM     36  C   UNL A   1      42.047  23.454  27.293  1.00  0.00    -0.014 A 
BRANCH  36  37
ATOM     37  C   UNL A   1      42.436  24.832  27.664  1.00  0.00     0.031 A 
ATOM     38  C   UNL A   1      43.902  25.156  27.717  1.00  0.00     0.074 A 
ATOM     39  C   UNL A   1      41.516  25.767  27.953  1.00  0.00     0.049 A 
ATOM     40  N   UNL A   1      44.497  26.255  28.101  1.00  0.00    -0.248 NA
ATOM     41  C   UNL A   1      44.823  24.090  27.286  1.00  0.00     0.031 C 
ATOM     42  C   UNL A   1      40.067  25.582  27.892  1.00  0.00     0.029 A 
ATOM     43  N   UNL A   1      41.675  27.063  28.372  1.00  0.00    -0.354 N 
ATOM     44  C   UNL A   1      45.857  26.007  27.969  1.00  0.00     0.074 A 
ATOM     45  C   UNL A   1      46.003  24.647  27.501  1.00  0.00     0.031 C 
ATOM     46  C   UNL A   1      39.468  26.723  28.274  1.00  0.00     0.029 A 
ATOM     47  C   UNL A   1      40.490  27.700  28.641  1.00  0.00     0.049 A 
ATOM     48  H   UNL A   1      42.554  27.494  28.470  1.00  0.00     0.167 HD
ATOM     49  C   UNL A   1      46.896  26.842  28.210  1.00  0.00     0.031 A 
ATOM     50  C   UNL A   1      40.264  28.927  29.153  1.00  0.00     0.031 A 
ATOM     51  C   UNL A   1      46.746  28.187  28.693  1.00  0.00     0.049 A 
ATOM     52  C   UNL A   1      41.436  29.810  29.489  1.00  0.00     0.074 A 
ATOM     53  C   UNL A   1      47.731  29.118  28.969  1.00  0.00     0.029 A 
ATOM     54  N   UNL A   1      45.530  28.788  28.978  1.00  0.00    -0.354 N 
ATOM     55  N   UNL A   1      42.719  29.575  29.346  1.00  0.00    -0.248 NA
ATOM     56  C   UNL A   1      41.128  31.132  30.054  1.00  0.00     0.031 C 
ATOM     57  C   UNL A   1      47.112  30.266  29.472  1.00  0.00     0.029 A 
ATOM     58  C   UNL A   1      45.740  30.072  29.449  1.00  0.00     0.049 A 
ATOM     59  H   UNL A   1      44.649  28.365  28.862  1.00  0.00     0.167 HD
ATOM     60  C   UNL A   1      43.368  30.727  29.774  1.00  0.00     0.074 A 
ATOM     61  C   UNL A   1      42.337  31.665  30.168  1.00  0.00     0.031 C 
ATOM     62  C   UNL A   1      44.697  30.988  29.833  1.00  0.00     0.031 A 
BRANCH  49  63
ATOM     63  C   UNL A   1      48.278  26.300  27.987  1.00  0.00    -0.014 A 
ATOM     64  C   UNL A   1      48.978  25.640  29.012  1.00  0.00     0.009 A 
ATOM     65  C   UNL A   1      48.887  26.440  26.731  1.00  0.00     0.009 A 
ATOM     66  C   UNL A   1      50.272  25.166  28.791  1.00  0.00     0.001 A 
ATOM     67  C   UNL A   1      50.170  25.938  26.505  1.00  0.00     0.001 A 
ATOM     68  C   UNL A   1      50.865  25.311  27.538  1.00  0.00     0.000 A 
ENDBRANCH  49  63
BRANCH  50  69
ATOM     69  C   UNL A   1      38.872  29.387  29.404  1.00  0.00    -0.014 A 
ATOM     70  C   UNL A   1      38.182  30.145  28.445  1.00  0.00     0.009 A 
ATOM     71  C   UNL A   1      38.233  29.087  30.617  1.00  0.00     0.009 A 
ATOM     72  C   UNL A   1      36.893  30.615  28.707  1.00  0.00     0.001 A 
ATOM     73  C   UNL A   1      36.932  29.534  30.865  1.00  0.00     0.001 A 
ATOM     74  C   UNL A   1      36.268  30.306  29.915  1.00  0.00     0.000 A 
ENDBRANCH  50  69
BRANCH  62  75
ATOM     75  C   UNL A   1      45.111  32.356  30.302  1.00  0.00    -0.014 A 
ATOM     76  C   UNL A   1      45.310  33.410  29.397  1.00  0.00     0.009 A 
ATOM     77  C   UNL A   1      45.252  32.603  31.677  1.00  0.00     0.009 A 
ATOM     78  C   UNL A   1      45.676  34.676  29.861  1.00  0.00     0.001 A 
ATOM     79  C   UNL A   1      45.588  33.876  32.139  1.00  0.00     0.001 A 
ATOM     80  C   UNL A   1      45.809  34.909  31.230  1.00  0.00     0.000 A 
ENDBRANCH  62  75
ENDBRANCH  36  37
ENDBRANCH  29  31
ENDBRANCH  28  29
ENDBRANCH  27  28
ENDBRANCH  26  27
ENDBRANCH  25  26
ENDBRANCH  24  25
ENDBRANCH   1  24
TORSDOF 19
ENDMDL
