MODEL 1
REMARK VINA RESULT:      -9.6      0.000      0.000
REMARK SMILES NC(=O)c1cc(NC(=O)/C=C\C(=O)OCCOCCOCCOC(=O)c2ccc(-c3c4nc(c(-c5ccccc5)c5ccc([nH]5)c(-c5ccccc5)c5nc(c(-c6ccccc6)c6ccc3[nH]6)C=C5)C=C4)cc2)ccc1N1CCOCC1
REMARK SMILES IDX 18 1 17 2 16 3 15 4 14 5 12 6 13 7 11 8 10 9 8 10 7 11 9 13
REMARK SMILES IDX 6 14 4 15 5 16 76 17 75 18 74 19 2 20 1 21 3 24 77 25 78 26
REMARK SMILES IDX 82 27 79 28 81 29 80 30 19 31 20 32 21 33 22 34 23 35 24 36
REMARK SMILES IDX 25 37 26 38 27 39 73 40 28 41 72 42 29 43 30 44 31 45 66 46
REMARK SMILES IDX 32 47 71 48 65 49 67 50 33 51 70 52 64 53 63 54 34 56 56 57
REMARK SMILES IDX 41 58 55 59 42 60 45 61 54 62 68 63 43 64 44 65 53 67 69 68
REMARK SMILES IDX 46 69 35 70 36 71 40 72 37 73 39 74 38 75 57 76 58 77 62 78
REMARK SMILES IDX 59 79 61 80 60 81 47 82 48 83 52 84 49 85 51 86 50 87
REMARK H PARENT 7 12 1 22 1 23 67 55 45 66
REMARK Flexibility Score: inf
ROOT
ATOM      1  C   UNL A   1      38.272  24.173  26.255  1.00  0.00     0.188 C 
ENDROOT
BRANCH   1   2
ATOM      2  O   UNL A   1      37.146  23.672  25.562  1.00  0.00    -0.376 OA
BRANCH   2   3
ATOM      3  C   UNL A   1      35.881  23.896  26.160  1.00  0.00     0.202 C 
BRANCH   3   4
ATOM      4  C   UNL A   1      34.829  24.712  25.407  1.00  0.00     0.261 C 
BRANCH   4   5
ATOM      5  O   UNL A   1      33.854  25.563  26.056  1.00  0.00    -0.460 OA
BRANCH   5   6
ATOM      6  C   UNL A   1      33.440  26.779  25.669  1.00  0.00     0.331 C 
ATOM      7  O   UNL A   1      32.829  27.612  26.312  1.00  0.00    -0.247 OA
BRANCH   6   8
ATOM      8  C   UNL A   1      33.916  27.076  24.311  1.00  0.00     0.099 C 
ATOM      9  C   UNL A   1      33.119  27.521  23.331  1.00  0.00     0.079 C 
BRANCH   9  10
ATOM     10  C   UNL A   1      31.651  27.710  23.412  1.00  0.00     0.248 C 
ATOM     11  N   UNL A   1      30.762  26.675  23.519  1.00  0.00    -0.322 N 
ATOM     12  H   UNL A   1      29.820  26.962  23.516  1.00  0.00     0.170 HD
ATOM     13  O   UNL A   1      31.225  28.863  23.330  1.00  0.00    -0.270 OA
BRANCH  11  14
ATOM     14  C   UNL A   1      30.929  25.280  23.634  1.00  0.00     0.042 A 
ATOM     15  C   UNL A   1      31.211  23.285  24.993  1.00  0.00     0.064 A 
ATOM     16  C   UNL A   1      30.600  24.541  24.763  1.00  0.00     0.042 A 
ATOM     17  C   UNL A   1      32.105  22.717  24.046  1.00  0.00     0.050 A 
ATOM     18  C   UNL A   1      32.213  23.388  22.817  1.00  0.00     0.029 A 
ATOM     19  C   UNL A   1      31.626  24.646  22.605  1.00  0.00     0.028 A 
BRANCH  15  20
ATOM     20  C   UNL A   1      31.034  22.774  26.383  1.00  0.00     0.250 C 
ATOM     21  N   UNL A   1      29.761  22.468  26.769  1.00  0.00    -0.366 N 
ATOM     22  H   UNL A   1      29.591  22.126  27.677  1.00  0.00     0.159 HD
ATOM     23  H   UNL A   1      29.014  22.588  26.140  1.00  0.00     0.159 HD
ATOM     24  O   UNL A   1      31.991  22.561  27.117  1.00  0.00    -0.269 OA
ENDBRANCH  15  20
BRANCH  17  25
ATOM     25  N   UNL A   1      32.897  21.601  24.321  1.00  0.00    -0.366 N 
ATOM     26  C   UNL A   1      32.271  20.275  24.185  1.00  0.00     0.145 C 
ATOM     27  C   UNL A   1      34.353  21.595  24.076  1.00  0.00     0.145 C 
ATOM     28  C   UNL A   1      33.039  19.257  25.045  1.00  0.00     0.181 C 
ATOM     29  C   UNL A   1      35.036  20.496  24.907  1.00  0.00     0.181 C 
ATOM     30  O   UNL A   1      34.432  19.213  24.692  1.00  0.00    -0.378 OA
ENDBRANCH  17  25
ENDBRANCH  11  14
ENDBRANCH   9  10
ENDBRANCH   6   8
ENDBRANCH   5   6
ENDBRANCH   4   5
ENDBRANCH   3   4
ENDBRANCH   2   3
ENDBRANCH   1   2
BRANCH   1  31
ATOM     31  C   UNL A   1      39.137  23.084  26.922  1.00  0.00     0.188 C 
BRANCH  31  32
ATOM     32  O   UNL A   1      39.445  21.898  26.207  1.00  0.00    -0.376 OA
BRANCH  32  33
ATOM     33  C   UNL A   1      40.623  21.191  26.558  1.00  0.00     0.202 C 
BRANCH  33  34
ATOM     34  C   UNL A   1      41.953  21.561  25.874  1.00  0.00     0.261 C 
BRANCH  34  35
ATOM     35  O   UNL A   1      42.054  22.903  25.357  1.00  0.00    -0.460 OA
BRANCH  35  36
ATOM     36  C   UNL A   1      43.281  23.492  25.454  1.00  0.00     0.338 C 
ATOM     37  O   UNL A   1      44.176  23.442  24.644  1.00  0.00    -0.246 OA
BRANCH  36  38
ATOM     38  C   UNL A   1      43.294  24.440  26.610  1.00  0.00     0.060 A 
ATOM     39  C   UNL A   1      42.850  23.971  27.860  1.00  0.00     0.016 A 
ATOM     40  C   UNL A   1      43.699  25.766  26.471  1.00  0.00     0.016 A 
ATOM     41  C   UNL A   1      42.758  24.828  28.957  1.00  0.00     0.010 A 
ATOM     42  C   UNL A   1      43.555  26.642  27.556  1.00  0.00     0.010 A 
ATOM     43  C   UNL A   1      43.031  26.187  28.783  1.00  0.00    -0.014 A 
BRANCH  43  44
ATOM     44  C   UNL A   1      42.433  27.164  29.730  1.00  0.00     0.031 A 
ATOM     45  C   UNL A   1      43.148  27.372  31.042  1.00  0.00     0.074 A 
ATOM     46  C   UNL A   1      41.325  27.871  29.453  1.00  0.00     0.049 A 
ATOM     47  N   UNL A   1      42.805  28.092  32.078  1.00  0.00    -0.248 NA
ATOM     48  C   UNL A   1      44.427  26.658  31.203  1.00  0.00     0.031 C 
ATOM     49  C   UNL A   1      40.583  27.841  28.195  1.00  0.00     0.029 A 
ATOM     50  N   UNL A   1      40.628  28.758  30.236  1.00  0.00    -0.354 N 
ATOM     51  C   UNL A   1      43.812  27.899  33.017  1.00  0.00     0.074 A 
ATOM     52  C   UNL A   1      44.762  26.975  32.441  1.00  0.00     0.031 C 
ATOM     53  C   UNL A   1      39.524  28.664  28.298  1.00  0.00     0.029 A 
ATOM     54  C   UNL A   1      39.493  29.247  29.640  1.00  0.00     0.049 A 
ATOM     55  H   UNL A   1      40.917  29.019  31.141  1.00  0.00     0.167 HD
ATOM     56  C   UNL A   1      43.944  28.442  34.250  1.00  0.00     0.031 A 
ATOM     57  C   UNL A   1      38.530  30.051  30.134  1.00  0.00     0.031 A 
ATOM     58  C   UNL A   1      42.991  29.342  34.839  1.00  0.00     0.049 A 
ATOM     59  C   UNL A   1      38.634  30.557  31.552  1.00  0.00     0.074 A 
ATOM     60  C   UNL A   1      43.026  29.942  36.084  1.00  0.00     0.029 A 
ATOM     61  N   UNL A   1      41.824  29.763  34.220  1.00  0.00    -0.354 N 
ATOM     62  N   UNL A   1      39.586  30.367  32.434  1.00  0.00    -0.248 NA
ATOM     63  C   UNL A   1      37.528  31.396  32.038  1.00  0.00     0.031 C 
ATOM     64  C   UNL A   1      41.847  30.677  36.245  1.00  0.00     0.029 A 
ATOM     65  C   UNL A   1      41.115  30.594  35.071  1.00  0.00     0.049 A 
ATOM     66  H   UNL A   1      41.542  29.509  33.312  1.00  0.00     0.167 HD
ATOM     67  C   UNL A   1      39.213  31.091  33.562  1.00  0.00     0.074 A 
ATOM     68  C   UNL A   1      37.951  31.730  33.249  1.00  0.00     0.031 C 
ATOM     69  C   UNL A   1      39.861  31.223  34.747  1.00  0.00     0.031 A 
BRANCH  56  70
ATOM     70  C   UNL A   1      45.140  28.017  35.057  1.00  0.00    -0.014 A 
ATOM     71  C   UNL A   1      46.355  28.718  34.995  1.00  0.00     0.009 A 
ATOM     72  C   UNL A   1      45.053  26.885  35.881  1.00  0.00     0.009 A 
ATOM     73  C   UNL A   1      47.471  28.264  35.701  1.00  0.00     0.001 A 
ATOM     74  C   UNL A   1      46.160  26.453  36.614  1.00  0.00     0.001 A 
ATOM     75  C   UNL A   1      47.371  27.135  36.513  1.00  0.00     0.000 A 
ENDBRANCH  56  70
BRANCH  57  76
ATOM     76  C   UNL A   1      37.365  30.426  29.288  1.00  0.00    -0.014 A 
ATOM     77  C   UNL A   1      36.395  29.472  28.946  1.00  0.00     0.009 A 
ATOM     78  C   UNL A   1      37.228  31.735  28.799  1.00  0.00     0.009 A 
ATOM     79  C   UNL A   1      35.323  29.815  28.119  1.00  0.00     0.001 A 
ATOM     80  C   UNL A   1      36.139  32.082  27.995  1.00  0.00     0.001 A 
ATOM     81  C   UNL A   1      35.192  31.121  27.649  1.00  0.00     0.000 A 
ENDBRANCH  57  76
BRANCH  69  82
ATOM     82  C   UNL A   1      39.247  32.132  35.779  1.00  0.00    -0.014 A 
ATOM     83  C   UNL A   1      39.549  33.502  35.829  1.00  0.00     0.009 A 
ATOM     84  C   UNL A   1      38.311  31.611  36.686  1.00  0.00     0.009 A 
ATOM     85  C   UNL A   1      38.952  34.322  36.790  1.00  0.00     0.001 A 
ATOM     86  C   UNL A   1      37.691  32.438  37.623  1.00  0.00     0.001 A 
ATOM     87  C   UNL A   1      38.020  33.791  37.682  1.00  0.00     0.000 A 
ENDBRANCH  69  82
ENDBRANCH  43  44
ENDBRANCH  36  38
ENDBRANCH  35  36
ENDBRANCH  34  35
ENDBRANCH  33  34
ENDBRANCH  32  33
ENDBRANCH  31  32
ENDBRANCH   1  31
TORSDOF 21
ENDMDL
MODEL 2
REMARK VINA RESULT:      -9.6      4.114      8.927
REMARK SMILES NC(=O)c1cc(NC(=O)/C=C\C(=O)OCCOCCOCCOC(=O)c2ccc(-c3c4nc(c(-c5ccccc5)c5ccc([nH]5)c(-c5ccccc5)c5nc(c(-c6ccccc6)c6ccc3[nH]6)C=C5)C=C4)cc2)ccc1N1CCOCC1
REMARK SMILES IDX 18 1 17 2 16 3 15 4 14 5 12 6 13 7 11 8 10 9 8 10 7 11 9 13
REMARK SMILES IDX 6 14 4 15 5 16 76 17 75 18 74 19 2 20 1 21 3 24 77 25 78 26
REMARK SMILES IDX 82 27 79 28 81 29 80 30 19 31 20 32 21 33 22 34 23 35 24 36
REMARK SMILES IDX 25 37 26 38 27 39 73 40 28 41 72 42 29 43 30 44 31 45 66 46
REMARK SMILES IDX 32 47 71 48 65 49 67 50 33 51 70 52 64 53 63 54 34 56 56 57
REMARK SMILES IDX 41 58 55 59 42 60 45 61 54 62 68 63 43 64 44 65 53 67 69 68
REMARK SMILES IDX 46 69 35 70 36 71 40 72 37 73 39 74 38 75 57 76 58 77 62 78
REMARK SMILES IDX 59 79 61 80 60 81 47 82 48 83 52 84 49 85 51 86 50 87
REMARK H PARENT 7 12 1 22 1 23 67 55 45 66
REMARK Flexibility Score: inf
ROOT
ATOM      1  C   UNL A   1      33.993  34.986  29.425  1.00  0.00     0.188 C 
ENDROOT
BRANCH   1   2
ATOM      2  O   UNL A   1      33.627  33.771  28.803  1.00  0.00    -0.376 OA
BRANCH   2   3
ATOM      3  C   UNL A   1      32.849  33.871  27.622  1.00  0.00     0.202 C 
BRANCH   3   4
ATOM      4  C   UNL A   1      31.940  32.708  27.222  1.00  0.00     0.261 C 
BRANCH   4   5
ATOM      5  O   UNL A   1      32.372  31.327  27.176  1.00  0.00    -0.460 OA
BRANCH   5   6
ATOM      6  C   UNL A   1      31.835  30.323  26.466  1.00  0.00     0.331 C 
ATOM      7  O   UNL A   1      31.495  30.319  25.298  1.00  0.00    -0.247 OA
BRANCH   6   8
ATOM      8  C   UNL A   1      31.780  29.096  27.272  1.00  0.00     0.099 C 
ATOM      9  C   UNL A   1      32.772  28.197  27.317  1.00  0.00     0.079 C 
BRANCH   9  10
ATOM     10  C   UNL A   1      34.025  28.235  26.527  1.00  0.00     0.248 C 
ATOM     11  N   UNL A   1      34.410  27.237  25.673  1.00  0.00    -0.322 N 
ATOM     12  H   UNL A   1      35.290  27.389  25.258  1.00  0.00     0.170 HD
ATOM     13  O   UNL A   1      34.771  29.202  26.697  1.00  0.00    -0.270 OA
BRANCH  11  14
ATOM     14  C   UNL A   1      33.794  26.034  25.271  1.00  0.00     0.042 A 
ATOM     15  C   UNL A   1      32.735  23.914  25.809  1.00  0.00     0.064 A 
ATOM     16  C   UNL A   1      32.929  25.293  26.065  1.00  0.00     0.042 A 
ATOM     17  C   UNL A   1      33.350  23.278  24.697  1.00  0.00     0.050 A 
ATOM     18  C   UNL A   1      34.013  24.121  23.791  1.00  0.00     0.029 A 
ATOM     19  C   UNL A   1      34.225  25.483  24.064  1.00  0.00     0.028 A 
BRANCH  15  20
ATOM     20  C   UNL A   1      32.069  23.182  26.924  1.00  0.00     0.250 C 
ATOM     21  N   UNL A   1      32.699  22.063  27.390  1.00  0.00    -0.366 N 
ATOM     22  H   UNL A   1      32.300  21.545  28.126  1.00  0.00     0.159 HD
ATOM     23  H   UNL A   1      33.552  21.777  26.992  1.00  0.00     0.159 HD
ATOM     24  O   UNL A   1      31.048  23.605  27.453  1.00  0.00    -0.269 OA
ENDBRANCH  15  20
BRANCH  17  25
ATOM     25  N   UNL A   1      33.371  21.893  24.529  1.00  0.00    -0.366 N 
ATOM     26  C   UNL A   1      32.496  21.322  23.491  1.00  0.00     0.145 C 
ATOM     27  C   UNL A   1      34.585  21.092  24.784  1.00  0.00     0.145 C 
ATOM     28  C   UNL A   1      32.207  19.848  23.821  1.00  0.00     0.181 C 
ATOM     29  C   UNL A   1      34.220  19.617  25.020  1.00  0.00     0.181 C 
ATOM     30  O   UNL A   1      33.421  19.089  23.952  1.00  0.00    -0.378 OA
ENDBRANCH  17  25
ENDBRANCH  11  14
ENDBRANCH   9  10
ENDBRANCH   6   8
ENDBRANCH   5   6
ENDBRANCH   4   5
ENDBRANCH   3   4
ENDBRANCH   2   3
ENDBRANCH   1   2
BRANCH   1  31
ATOM     31  C   UNL A   1      33.373  35.190  30.823  1.00  0.00     0.188 C 
BRANCH  31  32
ATOM     32  O   UNL A   1      33.663  34.266  31.860  1.00  0.00    -0.376 OA
BRANCH  32  33
ATOM     33  C   UNL A   1      35.014  33.889  32.063  1.00  0.00     0.202 C 
BRANCH  33  34
ATOM     34  C   UNL A   1      35.352  32.403  32.296  1.00  0.00     0.261 C 
BRANCH  34  35
ATOM     35  O   UNL A   1      36.354  31.832  31.432  1.00  0.00    -0.460 OA
BRANCH  35  36
ATOM     36  C   UNL A   1      35.894  31.211  30.308  1.00  0.00     0.338 C 
ATOM     37  O   UNL A   1      34.910  31.502  29.670  1.00  0.00    -0.246 OA
BRANCH  36  38
ATOM     38  C   UNL A   1      36.924  30.251  29.806  1.00  0.00     0.060 A 
ATOM     39  C   UNL A   1      37.445  29.303  30.707  1.00  0.00     0.016 A 
ATOM     40  C   UNL A   1      37.396  30.296  28.496  1.00  0.00     0.016 A 
ATOM     41  C   UNL A   1      38.469  28.436  30.323  1.00  0.00     0.010 A 
ATOM     42  C   UNL A   1      38.462  29.464  28.125  1.00  0.00     0.010 A 
ATOM     43  C   UNL A   1      39.037  28.573  29.054  1.00  0.00    -0.014 A 
BRANCH  43  44
ATOM     44  C   UNL A   1      40.419  28.077  28.832  1.00  0.00     0.031 A 
ATOM     45  C   UNL A   1      41.541  29.072  28.998  1.00  0.00     0.074 A 
ATOM     46  C   UNL A   1      40.700  26.798  28.526  1.00  0.00     0.049 A 
ATOM     47  N   UNL A   1      42.822  28.933  28.783  1.00  0.00    -0.248 NA
ATOM     48  C   UNL A   1      41.150  30.413  29.467  1.00  0.00     0.031 C 
ATOM     49  C   UNL A   1      39.731  25.711  28.422  1.00  0.00     0.029 A 
ATOM     50  N   UNL A   1      41.905  26.207  28.240  1.00  0.00    -0.354 N 
ATOM     51  C   UNL A   1      43.385  30.173  29.070  1.00  0.00     0.074 A 
ATOM     52  C   UNL A   1      42.304  31.056  29.446  1.00  0.00     0.031 C 
ATOM     53  C   UNL A   1      40.381  24.583  28.081  1.00  0.00     0.029 A 
ATOM     54  C   UNL A   1      41.803  24.880  27.905  1.00  0.00     0.049 A 
ATOM     55  H   UNL A   1      42.763  26.689  28.272  1.00  0.00     0.167 HD
ATOM     56  C   UNL A   1      44.684  30.549  29.030  1.00  0.00     0.031 A 
ATOM     57  C   UNL A   1      42.747  24.015  27.481  1.00  0.00     0.031 A 
ATOM     58  C   UNL A   1      45.761  29.683  28.634  1.00  0.00     0.049 A 
ATOM     59  C   UNL A   1      44.174  24.483  27.332  1.00  0.00     0.074 A 
ATOM     60  C   UNL A   1      47.111  29.969  28.551  1.00  0.00     0.029 A 
ATOM     61  N   UNL A   1      45.602  28.363  28.245  1.00  0.00    -0.354 N 
ATOM     62  N   UNL A   1      44.697  25.655  27.600  1.00  0.00    -0.248 NA
ATOM     63  C   UNL A   1      45.143  23.498  26.826  1.00  0.00     0.031 C 
ATOM     64  C   UNL A   1      47.764  28.838  28.050  1.00  0.00     0.029 A 
ATOM     65  C   UNL A   1      46.829  27.826  27.893  1.00  0.00     0.049 A 
ATOM     66  H   UNL A   1      44.745  27.878  28.222  1.00  0.00     0.167 HD
ATOM     67  C   UNL A   1      46.057  25.538  27.332  1.00  0.00     0.074 A 
ATOM     68  C   UNL A   1      46.280  24.178  26.887  1.00  0.00     0.031 C 
ATOM     69  C   UNL A   1      47.036  26.470  27.452  1.00  0.00     0.031 A 
BRANCH  56  70
ATOM     70  C   UNL A   1      44.990  31.982  29.369  1.00  0.00    -0.014 A 
ATOM     71  C   UNL A   1      45.332  32.372  30.675  1.00  0.00     0.009 A 
ATOM     72  C   UNL A   1      44.916  32.962  28.368  1.00  0.00     0.009 A 
ATOM     73  C   UNL A   1      45.544  33.718  30.979  1.00  0.00     0.001 A 
ATOM     74  C   UNL A   1      45.163  34.303  28.667  1.00  0.00     0.001 A 
ATOM     75  C   UNL A   1      45.462  34.682  29.974  1.00  0.00     0.000 A 
ENDBRANCH  56  70
BRANCH  57  76
ATOM     76  C   UNL A   1      42.379  22.613  27.150  1.00  0.00    -0.014 A 
ATOM     77  C   UNL A   1      41.956  22.272  25.856  1.00  0.00     0.009 A 
ATOM     78  C   UNL A   1      42.428  21.609  28.131  1.00  0.00     0.009 A 
ATOM     79  C   UNL A   1      41.572  20.963  25.556  1.00  0.00     0.001 A 
ATOM     80  C   UNL A   1      42.070  20.295  27.821  1.00  0.00     0.001 A 
ATOM     81  C   UNL A   1      41.636  19.974  26.537  1.00  0.00     0.000 A 
ENDBRANCH  57  76
BRANCH  69  82
ATOM     82  C   UNL A   1      48.447  26.042  27.148  1.00  0.00    -0.014 A 
ATOM     83  C   UNL A   1      49.056  26.328  25.917  1.00  0.00     0.009 A 
ATOM     84  C   UNL A   1      49.195  25.383  28.137  1.00  0.00     0.009 A 
ATOM     85  C   UNL A   1      50.373  25.929  25.671  1.00  0.00     0.001 A 
ATOM     86  C   UNL A   1      50.520  25.016  27.901  1.00  0.00     0.001 A 
ATOM     87  C   UNL A   1      51.105  25.279  26.664  1.00  0.00     0.000 A 
ENDBRANCH  69  82
ENDBRANCH  43  44
ENDBRANCH  36  38
ENDBRANCH  35  36
ENDBRANCH  34  35
ENDBRANCH  33  34
ENDBRANCH  32  33
ENDBRANCH  31  32
ENDBRANCH   1  31
TORSDOF 21
ENDMDL
MODEL 3
REMARK VINA RESULT:      -9.5      3.896      8.967
REMARK SMILES NC(=O)c1cc(NC(=O)/C=C\C(=O)OCCOCCOCCOC(=O)c2ccc(-c3c4nc(c(-c5ccccc5)c5ccc([nH]5)c(-c5ccccc5)c5nc(c(-c6ccccc6)c6ccc3[nH]6)C=C5)C=C4)cc2)ccc1N1CCOCC1
REMARK SMILES IDX 18 1 17 2 16 3 15 4 14 5 12 6 13 7 11 8 10 9 8 10 7 11 9 13
REMARK SMILES IDX 6 14 4 15 5 16 76 17 75 18 74 19 2 20 1 21 3 24 77 25 78 26
REMARK SMILES IDX 82 27 79 28 81 29 80 30 19 31 20 32 21 33 22 34 23 35 24 36
REMARK SMILES IDX 25 37 26 38 27 39 73 40 28 41 72 42 29 43 30 44 31 45 66 46
REMARK SMILES IDX 32 47 71 48 65 49 67 50 33 51 70 52 64 53 63 54 34 56 56 57
REMARK SMILES IDX 41 58 55 59 42 60 45 61 54 62 68 63 43 64 44 65 53 67 69 68
REMARK SMILES IDX 46 69 35 70 36 71 40 72 37 73 39 74 38 75 57 76 58 77 62 78
REMARK SMILES IDX 59 79 61 80 60 81 47 82 48 83 52 84 49 85 51 86 50 87
REMARK H PARENT 7 12 1 22 1 23 67 55 45 66
REMARK Flexibility Score: inf
ROOT
ATOM      1  C   UNL A   1      34.746  34.326  29.572  1.00  0.00     0.188 C 
ENDROOT
BRANCH   1   2
ATOM      2  O   UNL A   1      34.375  33.224  28.768  1.00  0.00    -0.376 OA
BRANCH   2   3
ATOM      3  C   UNL A   1      33.474  33.487  27.707  1.00  0.00     0.202 C 
BRANCH   3   4
ATOM      4  C   UNL A   1      32.193  32.659  27.587  1.00  0.00     0.261 C 
BRANCH   4   5
ATOM      5  O   UNL A   1      31.982  31.645  26.575  1.00  0.00    -0.460 OA
BRANCH   5   6
ATOM      6  C   UNL A   1      32.183  30.324  26.682  1.00  0.00     0.331 C 
ATOM      7  O   UNL A   1      31.682  29.543  27.470  1.00  0.00    -0.247 OA
BRANCH   6   8
ATOM      8  C   UNL A   1      33.066  29.849  25.609  1.00  0.00     0.099 C 
ATOM      9  C   UNL A   1      32.626  29.195  24.526  1.00  0.00     0.079 C 
BRANCH   9  10
ATOM     10  C   UNL A   1      31.230  28.774  24.263  1.00  0.00     0.248 C 
ATOM     11  N   UNL A   1      30.787  27.488  24.414  1.00  0.00    -0.322 N 
ATOM     12  H   UNL A   1      29.846  27.360  24.155  1.00  0.00     0.170 HD
ATOM     13  O   UNL A   1      30.451  29.632  23.844  1.00  0.00    -0.270 OA
BRANCH  11  14
ATOM     14  C   UNL A   1      31.416  26.309  24.865  1.00  0.00     0.042 A 
ATOM     15  C   UNL A   1      33.169  24.637  24.674  1.00  0.00     0.064 A 
ATOM     16  C   UNL A   1      32.744  25.986  24.622  1.00  0.00     0.042 A 
ATOM     17  C   UNL A   1      32.276  23.598  25.051  1.00  0.00     0.050 A 
ATOM     18  C   UNL A   1      31.016  24.005  25.521  1.00  0.00     0.029 A 
ATOM     19  C   UNL A   1      30.592  25.341  25.442  1.00  0.00     0.028 A 
BRANCH  15  20
ATOM     20  C   UNL A   1      34.509  24.402  24.063  1.00  0.00     0.250 C 
ATOM     21  N   UNL A   1      35.566  24.294  24.921  1.00  0.00    -0.366 N 
ATOM     22  H   UNL A   1      36.472  24.139  24.567  1.00  0.00     0.159 HD
ATOM     23  H   UNL A   1      35.422  24.371  25.891  1.00  0.00     0.159 HD
ATOM     24  O   UNL A   1      34.647  24.233  22.858  1.00  0.00    -0.269 OA
ENDBRANCH  15  20
BRANCH  17  25
ATOM     25  N   UNL A   1      32.578  22.244  24.904  1.00  0.00    -0.366 N 
ATOM     26  C   UNL A   1      32.550  21.686  23.542  1.00  0.00     0.145 C 
ATOM     27  C   UNL A   1      33.517  21.549  25.808  1.00  0.00     0.145 C 
ATOM     28  C   UNL A   1      32.327  20.165  23.617  1.00  0.00     0.181 C 
ATOM     29  C   UNL A   1      33.287  20.029  25.762  1.00  0.00     0.181 C 
ATOM     30  O   UNL A   1      33.332  19.525  24.420  1.00  0.00    -0.378 OA
ENDBRANCH  17  25
ENDBRANCH  11  14
ENDBRANCH   9  10
ENDBRANCH   6   8
ENDBRANCH   5   6
ENDBRANCH   4   5
ENDBRANCH   3   4
ENDBRANCH   2   3
ENDBRANCH   1   2
BRANCH   1  31
ATOM     31  C   UNL A   1      33.557  35.044  30.244  1.00  0.00     0.188 C 
BRANCH  31  32
ATOM     32  O   UNL A   1      33.627  35.376  31.621  1.00  0.00    -0.376 OA
BRANCH  32  33
ATOM     33  C   UNL A   1      34.906  35.596  32.194  1.00  0.00     0.202 C 
BRANCH  33  34
ATOM     34  C   UNL A   1      35.495  34.534  33.143  1.00  0.00     0.261 C 
BRANCH  34  35
ATOM     35  O   UNL A   1      36.252  33.474  32.524  1.00  0.00    -0.460 OA
BRANCH  35  36
ATOM     36  C   UNL A   1      35.560  32.334  32.234  1.00  0.00     0.338 C 
ATOM     37  O   UNL A   1      34.363  32.183  32.272  1.00  0.00    -0.246 OA
BRANCH  36  38
ATOM     38  C   UNL A   1      36.478  31.336  31.606  1.00  0.00     0.060 A 
ATOM     39  C   UNL A   1      37.448  30.719  32.419  1.00  0.00     0.016 A 
ATOM     40  C   UNL A   1      36.418  31.032  30.247  1.00  0.00     0.016 A 
ATOM     41  C   UNL A   1      38.388  29.843  31.875  1.00  0.00     0.010 A 
ATOM     42  C   UNL A   1      37.395  30.195  29.689  1.00  0.00     0.010 A 
ATOM     43  C   UNL A   1      38.415  29.645  30.492  1.00  0.00    -0.014 A 
BRANCH  43  44
ATOM     44  C   UNL A   1      39.679  29.192  29.859  1.00  0.00     0.031 A 
ATOM     45  C   UNL A   1      40.786  30.209  29.731  1.00  0.00     0.074 A 
ATOM     46  C   UNL A   1      39.878  27.932  29.436  1.00  0.00     0.049 A 
ATOM     47  N   UNL A   1      41.951  30.111  29.148  1.00  0.00    -0.248 NA
ATOM     48  C   UNL A   1      40.529  31.524  30.345  1.00  0.00     0.031 C 
ATOM     49  C   UNL A   1      38.937  26.824  29.576  1.00  0.00     0.029 A 
ATOM     50  N   UNL A   1      40.956  27.381  28.788  1.00  0.00    -0.354 N 
ATOM     51  C   UNL A   1      42.554  31.354  29.307  1.00  0.00     0.074 A 
ATOM     52  C   UNL A   1      41.617  32.196  30.014  1.00  0.00     0.031 C 
ATOM     53  C   UNL A   1      39.476  25.725  29.017  1.00  0.00     0.029 A 
ATOM     54  C   UNL A   1      40.780  26.064  28.446  1.00  0.00     0.049 A 
ATOM     55  H   UNL A   1      41.779  27.884  28.589  1.00  0.00     0.167 HD
ATOM     56  C   UNL A   1      43.780  31.765  28.905  1.00  0.00     0.031 A 
ATOM     57  C   UNL A   1      41.573  25.238  27.733  1.00  0.00     0.031 A 
ATOM     58  C   UNL A   1      44.707  30.940  28.180  1.00  0.00     0.049 A 
ATOM     59  C   UNL A   1      42.887  25.746  27.194  1.00  0.00     0.074 A 
ATOM     60  C   UNL A   1      45.970  31.262  27.719  1.00  0.00     0.029 A 
ATOM     61  N   UNL A   1      44.462  29.629  27.803  1.00  0.00    -0.354 N 
ATOM     62  N   UNL A   1      43.448  26.922  27.344  1.00  0.00    -0.248 NA
ATOM     63  C   UNL A   1      43.681  24.803  26.391  1.00  0.00     0.031 C 
ATOM     64  C   UNL A   1      46.466  30.165  27.007  1.00  0.00     0.029 A 
ATOM     65  C   UNL A   1      45.541  29.135  27.089  1.00  0.00     0.049 A 
ATOM     66  H   UNL A   1      43.643  29.124  28.011  1.00  0.00     0.167 HD
ATOM     67  C   UNL A   1      44.673  26.849  26.688  1.00  0.00     0.074 A 
ATOM     68  C   UNL A   1      44.776  25.510  26.145  1.00  0.00     0.031 C 
ATOM     69  C   UNL A   1      45.631  27.801  26.554  1.00  0.00     0.031 A 
BRANCH  56  70
ATOM     70  C   UNL A   1      44.150  33.193  29.196  1.00  0.00    -0.014 A 
ATOM     71  C   UNL A   1      44.814  33.553  30.380  1.00  0.00     0.009 A 
ATOM     72  C   UNL A   1      43.811  34.197  28.277  1.00  0.00     0.009 A 
ATOM     73  C   UNL A   1      45.085  34.895  30.659  1.00  0.00     0.001 A 
ATOM     74  C   UNL A   1      44.115  35.534  28.542  1.00  0.00     0.001 A 
ATOM     75  C   UNL A   1      44.739  35.883  29.738  1.00  0.00     0.000 A 
ENDBRANCH  56  70
BRANCH  57  76
ATOM     76  C   UNL A   1      41.145  23.838  27.469  1.00  0.00    -0.014 A 
ATOM     77  C   UNL A   1      40.194  23.557  26.476  1.00  0.00     0.009 A 
ATOM     78  C   UNL A   1      41.669  22.775  28.223  1.00  0.00     0.009 A 
ATOM     79  C   UNL A   1      39.763  22.247  26.256  1.00  0.00     0.001 A 
ATOM     80  C   UNL A   1      41.257  21.462  27.981  1.00  0.00     0.001 A 
ATOM     81  C   UNL A   1      40.300  21.200  27.004  1.00  0.00     0.000 A 
ENDBRANCH  57  76
BRANCH  69  82
ATOM     82  C   UNL A   1      46.898  27.419  25.837  1.00  0.00    -0.014 A 
ATOM     83  C   UNL A   1      47.976  26.825  26.511  1.00  0.00     0.009 A 
ATOM     84  C   UNL A   1      46.991  27.614  24.450  1.00  0.00     0.009 A 
ATOM     85  C   UNL A   1      49.134  26.469  25.815  1.00  0.00     0.001 A 
ATOM     86  C   UNL A   1      48.135  27.227  23.751  1.00  0.00     0.001 A 
ATOM     87  C   UNL A   1      49.210  26.664  24.436  1.00  0.00     0.000 A 
ENDBRANCH  69  82
ENDBRANCH  43  44
ENDBRANCH  36  38
ENDBRANCH  35  36
ENDBRANCH  34  35
ENDBRANCH  33  34
ENDBRANCH  32  33
ENDBRANCH  31  32
ENDBRANCH   1  31
TORSDOF 21
ENDMDL
