MODEL 1
REMARK VINA RESULT:      -9.1      0.000      0.000
REMARK SMILES CC[C@](C)(NC(=O)N[C@@H]1C[C@@H]1C)C(=O)OCCOCCOCCOC(=O)c1ccc(-c2c3nc(c(-c4ccccc4)c4ccc([nH]4)c(-c4ccccc4)c4nc(c(-c5ccccc5)c5ccc2[nH]5)C=C4)C=C3)cc1
REMARK SMILES IDX 19 1 18 2 17 3 16 4 15 5 13 6 14 7 3 8 4 9 2 10 1 11 5 12
REMARK SMILES IDX 6 13 7 15 8 16 9 18 10 19 11 20 12 21 20 22 21 23 22 24
REMARK SMILES IDX 23 25 24 26 25 27 26 28 27 29 28 30 74 31 29 32 73 33 30 34
REMARK SMILES IDX 31 35 32 36 67 37 33 38 72 39 66 40 68 41 34 42 71 43 65 44
REMARK SMILES IDX 64 45 35 47 57 48 42 49 56 50 43 51 46 52 55 53 69 54 44 55
REMARK SMILES IDX 45 56 54 58 70 59 47 60 36 61 37 62 41 63 38 64 40 65 39 66
REMARK SMILES IDX 58 67 59 68 63 69 60 70 62 71 61 72 48 73 49 74 53 75 50 76
REMARK SMILES IDX 52 77 51 78
REMARK H PARENT 5 14 8 17 68 46 46 57
REMARK Flexibility Score: inf
ROOT
ATOM      1  C   UNL A   1      34.514  32.131  28.309  1.00  0.00     0.188 C 
ENDROOT
BRANCH   1   2
ATOM      2  O   UNL A   1      33.948  31.234  27.339  1.00  0.00    -0.376 OA
BRANCH   2   3
ATOM      3  C   UNL A   1      32.589  30.904  27.044  1.00  0.00     0.202 C 
BRANCH   3   4
ATOM      4  C   UNL A   1      32.253  29.699  25.979  1.00  0.00     0.261 C 
BRANCH   4   5
ATOM      5  O   UNL A   1      33.310  28.940  25.124  1.00  0.00    -0.462 OA
BRANCH   5   6
ATOM      6  C   UNL A   1      33.669  27.957  24.214  1.00  0.00     0.331 C 
ATOM      7  O   UNL A   1      34.393  28.308  23.268  1.00  0.00    -0.249 OA
BRANCH   6   8
ATOM      8  C   UNL A   1      33.289  26.391  24.260  1.00  0.00     0.136 C 
ATOM      9  C   UNL A   1      31.850  25.890  24.618  1.00  0.00     0.047 C 
BRANCH   8  10
ATOM     10  C   UNL A   1      34.152  25.766  25.401  1.00  0.00     0.037 C 
ATOM     11  C   UNL A   1      35.025  24.562  25.045  1.00  0.00     0.007 C 
ENDBRANCH   8  10
BRANCH   8  12
ATOM     12  N   UNL A   1      33.556  25.904  22.961  1.00  0.00    -0.322 N 
ATOM     13  C   UNL A   1      32.822  26.311  21.918  1.00  0.00     0.315 C 
ATOM     14  H   UNL A   1      34.289  25.261  22.822  1.00  0.00     0.166 HD
ATOM     15  O   UNL A   1      33.231  25.957  20.812  1.00  0.00    -0.249 OA
ATOM     16  N   UNL A   1      31.792  27.214  22.058  1.00  0.00    -0.335 N 
ATOM     17  H   UNL A   1      31.596  27.589  21.169  1.00  0.00     0.165 HD
BRANCH  16  18
ATOM     18  C   UNL A   1      30.877  27.831  23.022  1.00  0.00     0.087 C 
ATOM     19  C   UNL A   1      29.367  27.863  22.864  1.00  0.00     0.030 C 
ATOM     20  C   UNL A   1      30.069  29.164  23.039  1.00  0.00     0.010 C 
ATOM     21  C   UNL A   1      29.625  30.191  22.025  1.00  0.00     0.010 C 
ENDBRANCH  16  18
ENDBRANCH   8  12
ENDBRANCH   6   8
ENDBRANCH   5   6
ENDBRANCH   4   5
ENDBRANCH   3   4
ENDBRANCH   2   3
ENDBRANCH   1   2
BRANCH   1  22
ATOM     22  C   UNL A   1      34.394  33.612  28.037  1.00  0.00     0.188 C 
BRANCH  22  23
ATOM     23  O   UNL A   1      33.342  34.088  28.853  1.00  0.00    -0.376 OA
BRANCH  23  24
ATOM     24  C   UNL A   1      33.196  35.499  28.907  1.00  0.00     0.202 C 
BRANCH  24  25
ATOM     25  C   UNL A   1      32.898  35.950  30.337  1.00  0.00     0.261 C 
BRANCH  25  26
ATOM     26  O   UNL A   1      32.950  34.869  31.288  1.00  0.00    -0.460 OA
BRANCH  26  27
ATOM     27  C   UNL A   1      33.932  34.948  32.228  1.00  0.00     0.338 C 
ATOM     28  O   UNL A   1      33.906  35.581  33.245  1.00  0.00    -0.246 OA
BRANCH  27  29
ATOM     29  C   UNL A   1      35.005  33.983  31.856  1.00  0.00     0.060 A 
ATOM     30  C   UNL A   1      34.911  32.674  32.344  1.00  0.00     0.016 A 
ATOM     31  C   UNL A   1      36.097  34.360  31.065  1.00  0.00     0.016 A 
ATOM     32  C   UNL A   1      35.959  31.775  32.135  1.00  0.00     0.010 A 
ATOM     33  C   UNL A   1      37.141  33.457  30.847  1.00  0.00     0.010 A 
ATOM     34  C   UNL A   1      37.107  32.184  31.442  1.00  0.00    -0.014 A 
BRANCH  34  35
ATOM     35  C   UNL A   1      38.364  31.405  31.583  1.00  0.00     0.031 A 
ATOM     36  C   UNL A   1      39.301  31.784  32.703  1.00  0.00     0.074 A 
ATOM     37  C   UNL A   1      38.662  30.366  30.785  1.00  0.00     0.049 A 
ATOM     38  N   UNL A   1      40.452  31.260  33.042  1.00  0.00    -0.248 NA
ATOM     39  C   UNL A   1      38.881  32.910  33.557  1.00  0.00     0.031 C 
ATOM     40  C   UNL A   1      37.836  29.868  29.688  1.00  0.00     0.029 A 
ATOM     41  N   UNL A   1      39.760  29.539  30.784  1.00  0.00    -0.354 N 
ATOM     42  C   UNL A   1      40.883  31.983  34.148  1.00  0.00     0.074 A 
ATOM     43  C   UNL A   1      39.903  33.017  34.391  1.00  0.00     0.031 C 
ATOM     44  C   UNL A   1      38.459  28.821  29.115  1.00  0.00     0.029 A 
ATOM     45  C   UNL A   1      39.737  28.591  29.790  1.00  0.00     0.049 A 
ATOM     46  H   UNL A   1      40.494  29.618  31.435  1.00  0.00     0.167 HD
ATOM     47  C   UNL A   1      41.984  31.799  34.913  1.00  0.00     0.031 A 
ATOM     48  C   UNL A   1      40.649  27.656  29.457  1.00  0.00     0.031 A 
ATOM     49  C   UNL A   1      42.979  30.793  34.669  1.00  0.00     0.049 A 
ATOM     50  C   UNL A   1      41.913  27.524  30.271  1.00  0.00     0.074 A 
ATOM     51  C   UNL A   1      44.138  30.535  35.380  1.00  0.00     0.029 A 
ATOM     52  N   UNL A   1      42.936  29.880  33.628  1.00  0.00    -0.354 N 
ATOM     53  N   UNL A   1      42.295  28.199  31.329  1.00  0.00    -0.248 NA
ATOM     54  C   UNL A   1      42.866  26.486  29.849  1.00  0.00     0.031 C 
ATOM     55  C   UNL A   1      44.824  29.501  34.736  1.00  0.00     0.029 A 
ATOM     56  C   UNL A   1      44.059  29.070  33.665  1.00  0.00     0.049 A 
ATOM     57  H   UNL A   1      42.215  29.816  32.961  1.00  0.00     0.167 HD
ATOM     58  C   UNL A   1      43.512  27.646  31.715  1.00  0.00     0.074 A 
ATOM     59  C   UNL A   1      43.792  26.567  30.792  1.00  0.00     0.031 C 
ATOM     60  C   UNL A   1      44.326  28.000  32.740  1.00  0.00     0.031 A 
BRANCH  47  61
ATOM     61  C   UNL A   1      42.172  32.728  36.080  1.00  0.00    -0.014 A 
ATOM     62  C   UNL A   1      42.863  33.942  35.936  1.00  0.00     0.009 A 
ATOM     63  C   UNL A   1      41.637  32.395  37.333  1.00  0.00     0.009 A 
ATOM     64  C   UNL A   1      43.042  34.788  37.032  1.00  0.00     0.001 A 
ATOM     65  C   UNL A   1      41.790  33.258  38.420  1.00  0.00     0.001 A 
ATOM     66  C   UNL A   1      42.501  34.449  38.271  1.00  0.00     0.000 A 
ENDBRANCH  47  61
BRANCH  48  67
ATOM     67  C   UNL A   1      40.426  26.773  28.279  1.00  0.00    -0.014 A 
ATOM     68  C   UNL A   1      39.673  25.592  28.391  1.00  0.00     0.009 A 
ATOM     69  C   UNL A   1      41.019  27.080  27.044  1.00  0.00     0.009 A 
ATOM     70  C   UNL A   1      39.554  24.722  27.304  1.00  0.00     0.001 A 
ATOM     71  C   UNL A   1      40.869  26.226  25.950  1.00  0.00     0.001 A 
ATOM     72  C   UNL A   1      40.149  25.041  26.084  1.00  0.00     0.000 A 
ENDBRANCH  48  67
BRANCH  60  73
ATOM     73  C   UNL A   1      45.576  27.185  32.945  1.00  0.00    -0.014 A 
ATOM     74  C   UNL A   1      46.797  27.552  32.358  1.00  0.00     0.009 A 
ATOM     75  C   UNL A   1      45.533  26.045  33.764  1.00  0.00     0.009 A 
ATOM     76  C   UNL A   1      47.937  26.767  32.548  1.00  0.00     0.001 A 
ATOM     77  C   UNL A   1      46.682  25.282  33.980  1.00  0.00     0.001 A 
ATOM     78  C   UNL A   1      47.879  25.636  33.361  1.00  0.00     0.000 A 
ENDBRANCH  60  73
ENDBRANCH  34  35
ENDBRANCH  27  29
ENDBRANCH  26  27
ENDBRANCH  25  26
ENDBRANCH  24  25
ENDBRANCH  23  24
ENDBRANCH  22  23
ENDBRANCH   1  22
TORSDOF 20
ENDMDL
MODEL 2
REMARK VINA RESULT:      -9.0      1.478      2.349
REMARK SMILES CC[C@](C)(NC(=O)N[C@@H]1C[C@@H]1C)C(=O)OCCOCCOCCOC(=O)c1ccc(-c2c3nc(c(-c4ccccc4)c4ccc([nH]4)c(-c4ccccc4)c4nc(c(-c5ccccc5)c5ccc2[nH]5)C=C4)C=C3)cc1
REMARK SMILES IDX 19 1 18 2 17 3 16 4 15 5 13 6 14 7 3 8 4 9 2 10 1 11 5 12
REMARK SMILES IDX 6 13 7 15 8 16 9 18 10 19 11 20 12 21 20 22 21 23 22 24
REMARK SMILES IDX 23 25 24 26 25 27 26 28 27 29 28 30 74 31 29 32 73 33 30 34
REMARK SMILES IDX 31 35 32 36 67 37 33 38 72 39 66 40 68 41 34 42 71 43 65 44
REMARK SMILES IDX 64 45 35 47 57 48 42 49 56 50 43 51 46 52 55 53 69 54 44 55
REMARK SMILES IDX 45 56 54 58 70 59 47 60 36 61 37 62 41 63 38 64 40 65 39 66
REMARK SMILES IDX 58 67 59 68 63 69 60 70 62 71 61 72 48 73 49 74 53 75 50 76
REMARK SMILES IDX 52 77 51 78
REMARK H PARENT 5 14 8 17 68 46 46 57
REMARK Flexibility Score: inf
ROOT
ATOM      1  C   UNL A   1      34.824  31.905  29.021  1.00  0.00     0.188 C 
ENDROOT
BRANCH   1   2
ATOM      2  O   UNL A   1      34.479  31.550  27.673  1.00  0.00    -0.376 OA
BRANCH   2   3
ATOM      3  C   UNL A   1      33.303  30.940  27.132  1.00  0.00     0.202 C 
BRANCH   3   4
ATOM      4  C   UNL A   1      33.347  29.373  26.639  1.00  0.00     0.261 C 
BRANCH   4   5
ATOM      5  O   UNL A   1      33.446  28.903  25.159  1.00  0.00    -0.462 OA
BRANCH   5   6
ATOM      6  C   UNL A   1      33.708  27.939  24.197  1.00  0.00     0.331 C 
ATOM      7  O   UNL A   1      34.366  28.300  23.208  1.00  0.00    -0.249 OA
BRANCH   6   8
ATOM      8  C   UNL A   1      33.292  26.382  24.230  1.00  0.00     0.136 C 
ATOM      9  C   UNL A   1      31.841  25.911  24.584  1.00  0.00     0.047 C 
BRANCH   8  10
ATOM     10  C   UNL A   1      34.140  25.727  25.366  1.00  0.00     0.037 C 
ATOM     11  C   UNL A   1      34.993  24.513  24.998  1.00  0.00     0.007 C 
ENDBRANCH   8  10
BRANCH   8  12
ATOM     12  N   UNL A   1      33.549  25.899  22.928  1.00  0.00    -0.322 N 
ATOM     13  C   UNL A   1      32.821  26.328  21.888  1.00  0.00     0.315 C 
ATOM     14  H   UNL A   1      34.269  25.243  22.782  1.00  0.00     0.166 HD
ATOM     15  O   UNL A   1      33.223  25.975  20.779  1.00  0.00    -0.249 OA
ATOM     16  N   UNL A   1      31.809  27.249  22.036  1.00  0.00    -0.335 N 
ATOM     17  H   UNL A   1      31.619  27.635  21.150  1.00  0.00     0.165 HD
BRANCH  16  18
ATOM     18  C   UNL A   1      30.907  27.877  23.005  1.00  0.00     0.087 C 
ATOM     19  C   UNL A   1      29.393  27.877  22.886  1.00  0.00     0.030 C 
ATOM     20  C   UNL A   1      30.074  29.195  23.005  1.00  0.00     0.010 C 
ATOM     21  C   UNL A   1      29.585  30.184  21.975  1.00  0.00     0.010 C 
ENDBRANCH  16  18
ENDBRANCH   8  12
ENDBRANCH   6   8
ENDBRANCH   5   6
ENDBRANCH   4   5
ENDBRANCH   3   4
ENDBRANCH   2   3
ENDBRANCH   1   2
BRANCH   1  22
ATOM     22  C   UNL A   1      34.997  33.373  29.329  1.00  0.00     0.188 C 
BRANCH  22  23
ATOM     23  O   UNL A   1      33.697  33.920  29.429  1.00  0.00    -0.376 OA
BRANCH  23  24
ATOM     24  C   UNL A   1      33.524  35.204  28.847  1.00  0.00     0.202 C 
BRANCH  24  25
ATOM     25  C   UNL A   1      32.751  36.120  29.797  1.00  0.00     0.261 C 
BRANCH  25  26
ATOM     26  O   UNL A   1      33.402  36.283  31.071  1.00  0.00    -0.460 OA
BRANCH  26  27
ATOM     27  C   UNL A   1      32.952  35.487  32.079  1.00  0.00     0.338 C 
ATOM     28  O   UNL A   1      31.811  35.230  32.339  1.00  0.00    -0.246 OA
BRANCH  27  29
ATOM     29  C   UNL A   1      34.134  34.853  32.729  1.00  0.00     0.060 A 
ATOM     30  C   UNL A   1      35.352  35.540  32.692  1.00  0.00     0.016 A 
ATOM     31  C   UNL A   1      34.055  33.595  33.339  1.00  0.00     0.016 A 
ATOM     32  C   UNL A   1      36.515  34.926  33.165  1.00  0.00     0.010 A 
ATOM     33  C   UNL A   1      35.216  32.985  33.823  1.00  0.00     0.010 A 
ATOM     34  C   UNL A   1      36.461  33.620  33.673  1.00  0.00    -0.014 A 
BRANCH  34  35
ATOM     35  C   UNL A   1      37.710  32.822  33.773  1.00  0.00     0.031 A 
ATOM     36  C   UNL A   1      38.568  33.014  34.999  1.00  0.00     0.074 A 
ATOM     37  C   UNL A   1      38.065  31.920  32.842  1.00  0.00     0.049 A 
ATOM     38  N   UNL A   1      39.696  32.437  35.327  1.00  0.00    -0.248 NA
ATOM     39  C   UNL A   1      38.087  33.993  35.990  1.00  0.00     0.031 C 
ATOM     40  C   UNL A   1      37.317  31.606  31.627  1.00  0.00     0.029 A 
ATOM     41  N   UNL A   1      39.165  31.098  32.784  1.00  0.00    -0.354 N 
ATOM     42  C   UNL A   1      40.049  32.974  36.559  1.00  0.00     0.074 A 
ATOM     43  C   UNL A   1      39.049  33.962  36.896  1.00  0.00     0.031 C 
ATOM     44  C   UNL A   1      37.982  30.660  30.940  1.00  0.00     0.029 A 
ATOM     45  C   UNL A   1      39.213  30.319  31.654  1.00  0.00     0.049 A 
ATOM     46  H   UNL A   1      39.853  31.069  33.487  1.00  0.00     0.167 HD
ATOM     47  C   UNL A   1      41.098  32.664  37.357  1.00  0.00     0.031 A 
ATOM     48  C   UNL A   1      40.151  29.443  31.238  1.00  0.00     0.031 A 
ATOM     49  C   UNL A   1      42.112  31.704  37.024  1.00  0.00     0.049 A 
ATOM     50  C   UNL A   1      41.358  29.178  32.104  1.00  0.00     0.074 A 
ATOM     51  C   UNL A   1      43.222  31.331  37.761  1.00  0.00     0.029 A 
ATOM     52  N   UNL A   1      42.143  30.967  35.852  1.00  0.00    -0.354 N 
ATOM     53  N   UNL A   1      41.665  29.675  33.278  1.00  0.00    -0.248 NA
ATOM     54  C   UNL A   1      42.342  28.214  31.588  1.00  0.00     0.031 C 
ATOM     55  C   UNL A   1      43.954  30.408  37.009  1.00  0.00     0.029 A 
ATOM     56  C   UNL A   1      43.265  30.156  35.835  1.00  0.00     0.049 A 
ATOM     57  H   UNL A   1      41.468  31.014  35.136  1.00  0.00     0.167 HD
ATOM     58  C   UNL A   1      42.856  29.061  33.653  1.00  0.00     0.074 A 
ATOM     59  C   UNL A   1      43.203  28.139  32.592  1.00  0.00     0.031 C 
ATOM     60  C   UNL A   1      43.598  29.244  34.773  1.00  0.00     0.031 A 
BRANCH  47  61
ATOM     61  C   UNL A   1      41.203  33.397  38.666  1.00  0.00    -0.014 A 
ATOM     62  C   UNL A   1      40.589  32.900  39.827  1.00  0.00     0.009 A 
ATOM     63  C   UNL A   1      41.940  34.589  38.743  1.00  0.00     0.009 A 
ATOM     64  C   UNL A   1      40.683  33.599  41.032  1.00  0.00     0.001 A 
ATOM     65  C   UNL A   1      42.059  35.269  39.956  1.00  0.00     0.001 A 
ATOM     66  C   UNL A   1      41.423  34.780  41.097  1.00  0.00     0.000 A 
ENDBRANCH  47  61
BRANCH  48  67
ATOM     67  C   UNL A   1      40.011  28.759  29.924  1.00  0.00    -0.014 A 
ATOM     68  C   UNL A   1      39.468  27.466  29.834  1.00  0.00     0.009 A 
ATOM     69  C   UNL A   1      40.478  29.377  28.752  1.00  0.00     0.009 A 
ATOM     70  C   UNL A   1      39.434  26.795  28.608  1.00  0.00     0.001 A 
ATOM     71  C   UNL A   1      40.410  28.718  27.524  1.00  0.00     0.001 A 
ATOM     72  C   UNL A   1      39.901  27.423  27.454  1.00  0.00     0.000 A 
ENDBRANCH  48  67
BRANCH  60  73
ATOM     73  C   UNL A   1      44.836  28.400  34.929  1.00  0.00    -0.014 A 
ATOM     74  C   UNL A   1      44.792  27.135  35.536  1.00  0.00     0.009 A 
ATOM     75  C   UNL A   1      46.062  28.871  34.432  1.00  0.00     0.009 A 
ATOM     76  C   UNL A   1      45.959  26.382  35.686  1.00  0.00     0.001 A 
ATOM     77  C   UNL A   1      47.220  28.101  34.552  1.00  0.00     0.001 A 
ATOM     78  C   UNL A   1      47.170  26.863  35.191  1.00  0.00     0.000 A 
ENDBRANCH  60  73
ENDBRANCH  34  35
ENDBRANCH  27  29
ENDBRANCH  26  27
ENDBRANCH  25  26
ENDBRANCH  24  25
ENDBRANCH  23  24
ENDBRANCH  22  23
ENDBRANCH   1  22
TORSDOF 20
ENDMDL
MODEL 3
REMARK VINA RESULT:      -8.9      3.855      9.007
REMARK SMILES CC[C@](C)(NC(=O)N[C@@H]1C[C@@H]1C)C(=O)OCCOCCOCCOC(=O)c1ccc(-c2c3nc(c(-c4ccccc4)c4ccc([nH]4)c(-c4ccccc4)c4nc(c(-c5ccccc5)c5ccc2[nH]5)C=C4)C=C3)cc1
REMARK SMILES IDX 19 1 18 2 17 3 16 4 15 5 13 6 14 7 3 8 4 9 2 10 1 11 5 12
REMARK SMILES IDX 6 13 7 15 8 16 9 18 10 19 11 20 12 21 20 22 21 23 22 24
REMARK SMILES IDX 23 25 24 26 25 27 26 28 27 29 28 30 74 31 29 32 73 33 30 34
REMARK SMILES IDX 31 35 32 36 67 37 33 38 72 39 66 40 68 41 34 42 71 43 65 44
REMARK SMILES IDX 64 45 35 47 57 48 42 49 56 50 43 51 46 52 55 53 69 54 44 55
REMARK SMILES IDX 45 56 54 58 70 59 47 60 36 61 37 62 41 63 38 64 40 65 39 66
REMARK SMILES IDX 58 67 59 68 63 69 60 70 62 71 61 72 48 73 49 74 53 75 50 76
REMARK SMILES IDX 52 77 51 78
REMARK H PARENT 5 14 8 17 68 46 46 57
REMARK Flexibility Score: inf
ROOT
ATOM      1  C   UNL A   1      40.541  21.401  26.943  1.00  0.00     0.188 C 
ENDROOT
BRANCH   1   2
ATOM      2  O   UNL A   1      39.362  22.057  26.452  1.00  0.00    -0.376 OA
BRANCH   2   3
ATOM      3  C   UNL A   1      38.323  21.599  25.583  1.00  0.00     0.202 C 
BRANCH   3   4
ATOM      4  C   UNL A   1      36.835  22.294  25.649  1.00  0.00     0.261 C 
BRANCH   4   5
ATOM      5  O   UNL A   1      35.488  21.519  25.737  1.00  0.00    -0.462 OA
BRANCH   5   6
ATOM      6  C   UNL A   1      34.177  21.392  26.170  1.00  0.00     0.331 C 
ATOM      7  O   UNL A   1      33.971  21.540  27.385  1.00  0.00    -0.249 OA
BRANCH   6   8
ATOM      8  C   UNL A   1      32.870  21.111  25.268  1.00  0.00     0.136 C 
ATOM      9  C   UNL A   1      32.530  19.690  24.707  1.00  0.00     0.047 C 
BRANCH   8  10
ATOM     10  C   UNL A   1      33.051  21.949  23.963  1.00  0.00     0.037 C 
ATOM     11  C   UNL A   1      32.247  21.523  22.734  1.00  0.00     0.007 C 
ENDBRANCH   8  10
BRANCH   8  12
ATOM     12  N   UNL A   1      31.772  21.481  26.077  1.00  0.00    -0.322 N 
ATOM     13  C   UNL A   1      31.449  22.771  26.236  1.00  0.00     0.315 C 
ATOM     14  H   UNL A   1      31.240  20.785  26.528  1.00  0.00     0.166 HD
ATOM     15  O   UNL A   1      30.389  22.982  26.824  1.00  0.00    -0.249 OA
ATOM     16  N   UNL A   1      32.155  23.781  25.623  1.00  0.00    -0.335 N 
ATOM     17  H   UNL A   1      31.591  24.588  25.625  1.00  0.00     0.165 HD
BRANCH  16  18
ATOM     18  C   UNL A   1      33.422  24.116  24.967  1.00  0.00     0.087 C 
ATOM     19  C   UNL A   1      34.408  25.145  25.491  1.00  0.00     0.030 C 
ATOM     20  C   UNL A   1      33.902  25.321  24.101  1.00  0.00     0.010 C 
ATOM     21  C   UNL A   1      33.441  26.734  23.837  1.00  0.00     0.010 C 
ENDBRANCH  16  18
ENDBRANCH   8  12
ENDBRANCH   6   8
ENDBRANCH   5   6
ENDBRANCH   4   5
ENDBRANCH   3   4
ENDBRANCH   2   3
ENDBRANCH   1   2
BRANCH   1  22
ATOM     22  C   UNL A   1      41.033  20.195  26.177  1.00  0.00     0.188 C 
BRANCH  22  23
ATOM     23  O   UNL A   1      42.407  20.058  26.481  1.00  0.00    -0.376 OA
BRANCH  23  24
ATOM     24  C   UNL A   1      43.306  20.493  25.472  1.00  0.00     0.202 C 
BRANCH  24  25
ATOM     25  C   UNL A   1      43.905  21.851  25.841  1.00  0.00     0.261 C 
BRANCH  25  26
ATOM     26  O   UNL A   1      43.501  22.903  24.944  1.00  0.00    -0.460 OA
BRANCH  26  27
ATOM     27  C   UNL A   1      44.206  24.065  25.030  1.00  0.00     0.338 C 
ATOM     28  O   UNL A   1      45.248  24.316  24.497  1.00  0.00    -0.246 OA
BRANCH  27  29
ATOM     29  C   UNL A   1      43.382  25.048  25.789  1.00  0.00     0.060 A 
ATOM     30  C   UNL A   1      43.906  26.330  25.989  1.00  0.00     0.016 A 
ATOM     31  C   UNL A   1      42.130  24.711  26.318  1.00  0.00     0.016 A 
ATOM     32  C   UNL A   1      43.232  27.240  26.808  1.00  0.00     0.010 A 
ATOM     33  C   UNL A   1      41.450  25.625  27.128  1.00  0.00     0.010 A 
ATOM     34  C   UNL A   1      42.034  26.866  27.433  1.00  0.00    -0.014 A 
BRANCH  34  35
ATOM     35  C   UNL A   1      41.549  27.637  28.607  1.00  0.00     0.031 A 
ATOM     36  C   UNL A   1      42.296  27.477  29.908  1.00  0.00     0.074 A 
ATOM     37  C   UNL A   1      40.513  28.490  28.532  1.00  0.00     0.049 A 
ATOM     38  N   UNL A   1      42.080  28.040  31.070  1.00  0.00    -0.248 NA
ATOM     39  C   UNL A   1      43.445  26.553  29.895  1.00  0.00     0.031 C 
ATOM     40  C   UNL A   1      39.722  28.769  27.335  1.00  0.00     0.029 A 
ATOM     41  N   UNL A   1      39.948  29.281  29.503  1.00  0.00    -0.354 N 
ATOM     42  C   UNL A   1      43.067  27.548  31.916  1.00  0.00     0.074 A 
ATOM     43  C   UNL A   1      43.848  26.600  31.154  1.00  0.00     0.031 C 
ATOM     44  C   UNL A   1      38.770  29.669  27.644  1.00  0.00     0.029 A 
ATOM     45  C   UNL A   1      38.870  30.010  29.064  1.00  0.00     0.049 A 
ATOM     46  H   UNL A   1      40.285  29.324  30.426  1.00  0.00     0.167 HD
ATOM     47  C   UNL A   1      43.322  27.866  33.207  1.00  0.00     0.031 A 
ATOM     48  C   UNL A   1      38.050  30.843  29.735  1.00  0.00     0.031 A 
ATOM     49  C   UNL A   1      42.539  28.786  33.983  1.00  0.00     0.049 A 
ATOM     50  C   UNL A   1      38.300  31.116  31.198  1.00  0.00     0.074 A 
ATOM     51  C   UNL A   1      42.709  29.163  35.304  1.00  0.00     0.029 A 
ATOM     52  N   UNL A   1      41.432  29.471  33.510  1.00  0.00    -0.354 N 
ATOM     53  N   UNL A   1      39.252  30.663  31.978  1.00  0.00    -0.248 NA
ATOM     54  C   UNL A   1      37.365  32.033  31.868  1.00  0.00     0.031 C 
ATOM     55  C   UNL A   1      41.672  30.035  35.645  1.00  0.00     0.029 A 
ATOM     56  C   UNL A   1      40.896  30.253  34.519  1.00  0.00     0.049 A 
ATOM     57  H   UNL A   1      41.078  29.410  32.593  1.00  0.00     0.167 HD
ATOM     58  C   UNL A   1      39.048  31.263  33.217  1.00  0.00     0.074 A 
ATOM     59  C   UNL A   1      37.897  32.129  33.077  1.00  0.00     0.031 C 
ATOM     60  C   UNL A   1      39.750  31.110  34.367  1.00  0.00     0.031 A 
BRANCH  47  61
ATOM     61  C   UNL A   1      44.493  27.188  33.861  1.00  0.00    -0.014 A 
ATOM     62  C   UNL A   1      44.318  26.043  34.656  1.00  0.00     0.009 A 
ATOM     63  C   UNL A   1      45.789  27.688  33.666  1.00  0.00     0.009 A 
ATOM     64  C   UNL A   1      45.414  25.433  35.269  1.00  0.00     0.001 A 
ATOM     65  C   UNL A   1      46.887  27.057  34.254  1.00  0.00     0.001 A 
ATOM     66  C   UNL A   1      46.698  25.936  35.063  1.00  0.00     0.000 A 
ENDBRANCH  47  61
BRANCH  48  67
ATOM     67  C   UNL A   1      36.890  31.474  29.047  1.00  0.00    -0.014 A 
ATOM     68  C   UNL A   1      36.922  32.825  28.662  1.00  0.00     0.009 A 
ATOM     69  C   UNL A   1      35.715  30.737  28.823  1.00  0.00     0.009 A 
ATOM     70  C   UNL A   1      35.792  33.431  28.107  1.00  0.00     0.001 A 
ATOM     71  C   UNL A   1      34.600  31.337  28.236  1.00  0.00     0.001 A 
ATOM     72  C   UNL A   1      34.634  32.686  27.892  1.00  0.00     0.000 A 
ENDBRANCH  48  67
BRANCH  60  73
ATOM     73  C   UNL A   1      39.318  31.930  35.555  1.00  0.00    -0.014 A 
ATOM     74  C   UNL A   1      39.895  33.178  35.835  1.00  0.00     0.009 A 
ATOM     75  C   UNL A   1      38.295  31.452  36.391  1.00  0.00     0.009 A 
ATOM     76  C   UNL A   1      39.490  33.908  36.956  1.00  0.00     0.001 A 
ATOM     77  C   UNL A   1      37.868  32.200  37.489  1.00  0.00     0.001 A 
ATOM     78  C   UNL A   1      38.475  33.421  37.778  1.00  0.00     0.000 A 
ENDBRANCH  60  73
ENDBRANCH  34  35
ENDBRANCH  27  29
ENDBRANCH  26  27
ENDBRANCH  25  26
ENDBRANCH  24  25
ENDBRANCH  23  24
ENDBRANCH  22  23
ENDBRANCH   1  22
TORSDOF 20
ENDMDL
