MODEL 1
REMARK VINA RESULT:      -8.9      0.000      0.000
REMARK SMILES CN(C)C(=O)CC(C)(C)CC(=O)OCCOCCOCCOC(=O)c1ccc(-c2c3nc(c(-c4ccccc4)c4ccc([nH]4)c(-c4ccccc4)c4nc(c(-c5ccccc5)c5ccc2[nH]5)C=C4)C=C3)cc1
REMARK SMILES IDX 17 1 16 2 15 3 14 4 13 5 11 6 12 7 10 8 7 9 8 10 9 11 6 12
REMARK SMILES IDX 4 13 1 14 2 15 3 16 5 17 18 18 19 19 20 20 21 21 22 22 23 23
REMARK SMILES IDX 24 24 25 25 26 26 72 27 27 28 71 29 28 30 29 31 30 32 65 33
REMARK SMILES IDX 31 34 70 35 64 36 66 37 32 38 69 39 63 40 62 41 33 43 55 44
REMARK SMILES IDX 40 45 54 46 41 47 44 48 53 49 67 50 42 51 43 52 52 54 68 55
REMARK SMILES IDX 45 56 34 57 35 58 39 59 36 60 38 61 37 62 56 63 57 64 61 65
REMARK SMILES IDX 58 66 60 67 59 68 46 69 47 70 51 71 48 72 50 73 49 74
REMARK H PARENT 66 42 44 53
REMARK Flexibility Score: inf
ROOT
ATOM      1  C   UNL A   1      34.014  31.814  28.327  1.00  0.00     0.188 C 
ENDROOT
BRANCH   1   2
ATOM      2  O   UNL A   1      33.829  31.089  27.121  1.00  0.00    -0.376 OA
BRANCH   2   3
ATOM      3  C   UNL A   1      32.870  30.027  27.162  1.00  0.00     0.202 C 
BRANCH   3   4
ATOM      4  C   UNL A   1      33.405  28.610  26.878  1.00  0.00     0.261 C 
BRANCH   4   5
ATOM      5  O   UNL A   1      32.341  27.650  26.687  1.00  0.00    -0.463 OA
BRANCH   5   6
ATOM      6  C   UNL A   1      32.244  27.088  25.448  1.00  0.00     0.306 C 
ATOM      7  O   UNL A   1      33.122  26.429  24.907  1.00  0.00    -0.252 OA
BRANCH   6   8
ATOM      8  C   UNL A   1      30.849  27.282  24.858  1.00  0.00     0.129 C 
BRANCH   8   9
ATOM      9  C   UNL A   1      30.716  28.044  23.511  1.00  0.00    -0.016 C 
ATOM     10  C   UNL A   1      31.045  27.088  22.350  1.00  0.00     0.012 C 
ATOM     11  C   UNL A   1      31.712  29.225  23.420  1.00  0.00     0.012 C 
BRANCH   9  12
ATOM     12  C   UNL A   1      29.299  28.665  23.310  1.00  0.00     0.107 C 
BRANCH  12  13
ATOM     13  C   UNL A   1      29.090  29.903  22.447  1.00  0.00     0.222 C 
ATOM     14  C   UNL A   1      29.097  32.306  22.282  1.00  0.00     0.146 C 
ATOM     15  N   UNL A   1      28.714  31.102  23.003  1.00  0.00    -0.349 N 
ATOM     16  C   UNL A   1      27.459  31.170  23.725  1.00  0.00     0.146 C 
ATOM     17  O   UNL A   1      29.174  29.807  21.223  1.00  0.00    -0.275 OA
ENDBRANCH  12  13
ENDBRANCH   9  12
ENDBRANCH   8   9
ENDBRANCH   6   8
ENDBRANCH   5   6
ENDBRANCH   4   5
ENDBRANCH   3   4
ENDBRANCH   2   3
ENDBRANCH   1   2
BRANCH   1  18
ATOM     18  C   UNL A   1      35.165  32.831  28.365  1.00  0.00     0.188 C 
BRANCH  18  19
ATOM     19  O   UNL A   1      34.931  34.026  29.098  1.00  0.00    -0.376 OA
BRANCH  19  20
ATOM     20  C   UNL A   1      34.285  35.066  28.355  1.00  0.00     0.202 C 
BRANCH  20  21
ATOM     21  C   UNL A   1      33.301  35.910  29.189  1.00  0.00     0.261 C 
BRANCH  21  22
ATOM     22  O   UNL A   1      32.675  35.184  30.268  1.00  0.00    -0.460 OA
BRANCH  22  23
ATOM     23  C   UNL A   1      32.799  35.742  31.488  1.00  0.00     0.338 C 
ATOM     24  O   UNL A   1      32.063  36.598  31.975  1.00  0.00    -0.246 OA
BRANCH  23  25
ATOM     25  C   UNL A   1      33.820  35.003  32.254  1.00  0.00     0.060 A 
ATOM     26  C   UNL A   1      35.040  35.636  32.481  1.00  0.00     0.016 A 
ATOM     27  C   UNL A   1      33.637  33.697  32.690  1.00  0.00     0.016 A 
ATOM     28  C   UNL A   1      36.134  34.952  32.990  1.00  0.00     0.010 A 
ATOM     29  C   UNL A   1      34.723  33.011  33.255  1.00  0.00     0.010 A 
ATOM     30  C   UNL A   1      35.998  33.612  33.342  1.00  0.00    -0.014 A 
BRANCH  30  31
ATOM     31  C   UNL A   1      37.219  32.799  33.579  1.00  0.00     0.031 A 
ATOM     32  C   UNL A   1      37.922  32.942  34.904  1.00  0.00     0.074 A 
ATOM     33  C   UNL A   1      37.650  31.874  32.700  1.00  0.00     0.049 A 
ATOM     34  N   UNL A   1      39.089  32.486  35.281  1.00  0.00    -0.248 NA
ATOM     35  C   UNL A   1      37.212  33.710  35.941  1.00  0.00     0.031 C 
ATOM     36  C   UNL A   1      36.994  31.515  31.443  1.00  0.00     0.029 A 
ATOM     37  N   UNL A   1      38.749  31.052  32.749  1.00  0.00    -0.354 N 
ATOM     38  C   UNL A   1      39.280  32.970  36.570  1.00  0.00     0.074 A 
ATOM     39  C   UNL A   1      38.113  33.753  36.909  1.00  0.00     0.031 C 
ATOM     40  C   UNL A   1      37.696  30.538  30.846  1.00  0.00     0.029 A 
ATOM     41  C   UNL A   1      38.891  30.255  31.638  1.00  0.00     0.049 A 
ATOM     42  H   UNL A   1      39.378  31.035  33.506  1.00  0.00     0.167 HD
ATOM     43  C   UNL A   1      40.336  32.783  37.397  1.00  0.00     0.031 A 
ATOM     44  C   UNL A   1      39.891  29.426  31.279  1.00  0.00     0.031 A 
ATOM     45  C   UNL A   1      41.472  31.963  37.078  1.00  0.00     0.049 A 
ATOM     46  C   UNL A   1      41.093  29.294  32.176  1.00  0.00     0.074 A 
ATOM     47  C   UNL A   1      42.606  31.727  37.835  1.00  0.00     0.029 A 
ATOM     48  N   UNL A   1      41.605  31.225  35.913  1.00  0.00    -0.354 N 
ATOM     49  N   UNL A   1      41.317  29.837  33.348  1.00  0.00    -0.248 NA
ATOM     50  C   UNL A   1      42.188  28.440  31.691  1.00  0.00     0.031 C 
ATOM     51  C   UNL A   1      43.445  30.875  37.107  1.00  0.00     0.029 A 
ATOM     52  C   UNL A   1      42.806  30.538  35.925  1.00  0.00     0.049 A 
ATOM     53  H   UNL A   1      40.943  31.194  35.185  1.00  0.00     0.167 HD
ATOM     54  C   UNL A   1      42.565  29.374  33.750  1.00  0.00     0.074 A 
ATOM     55  C   UNL A   1      43.039  28.491  32.706  1.00  0.00     0.031 C 
ATOM     56  C   UNL A   1      43.258  29.657  34.880  1.00  0.00     0.031 A 
BRANCH  43  57
ATOM     57  C   UNL A   1      40.331  33.533  38.698  1.00  0.00    -0.014 A 
ATOM     58  C   UNL A   1      40.938  34.792  38.832  1.00  0.00     0.009 A 
ATOM     59  C   UNL A   1      39.700  32.962  39.815  1.00  0.00     0.009 A 
ATOM     60  C   UNL A   1      40.944  35.443  40.067  1.00  0.00     0.001 A 
ATOM     61  C   UNL A   1      39.681  33.630  41.039  1.00  0.00     0.001 A 
ATOM     62  C   UNL A   1      40.313  34.865  41.168  1.00  0.00     0.000 A 
ENDBRANCH  43  57
BRANCH  44  63
ATOM     63  C   UNL A   1      39.838  28.703  29.980  1.00  0.00    -0.014 A 
ATOM     64  C   UNL A   1      39.434  27.361  29.919  1.00  0.00     0.009 A 
ATOM     65  C   UNL A   1      40.229  29.344  28.793  1.00  0.00     0.009 A 
ATOM     66  C   UNL A   1      39.446  26.671  28.704  1.00  0.00     0.001 A 
ATOM     67  C   UNL A   1      40.207  28.664  27.575  1.00  0.00     0.001 A 
ATOM     68  C   UNL A   1      39.826  27.324  27.532  1.00  0.00     0.000 A 
ENDBRANCH  44  63
BRANCH  56  69
ATOM     69  C   UNL A   1      44.577  28.962  35.068  1.00  0.00    -0.014 A 
ATOM     70  C   UNL A   1      45.780  29.548  34.646  1.00  0.00     0.009 A 
ATOM     71  C   UNL A   1      44.615  27.714  35.710  1.00  0.00     0.009 A 
ATOM     72  C   UNL A   1      46.992  28.877  34.827  1.00  0.00     0.001 A 
ATOM     73  C   UNL A   1      45.829  27.059  35.916  1.00  0.00     0.001 A 
ATOM     74  C   UNL A   1      47.015  27.636  35.465  1.00  0.00     0.000 A 
ENDBRANCH  56  69
ENDBRANCH  30  31
ENDBRANCH  23  25
ENDBRANCH  22  23
ENDBRANCH  21  22
ENDBRANCH  20  21
ENDBRANCH  19  20
ENDBRANCH  18  19
ENDBRANCH   1  18
TORSDOF 20
ENDMDL
MODEL 2
REMARK VINA RESULT:      -8.8      4.289      9.536
REMARK SMILES CN(C)C(=O)CC(C)(C)CC(=O)OCCOCCOCCOC(=O)c1ccc(-c2c3nc(c(-c4ccccc4)c4ccc([nH]4)c(-c4ccccc4)c4nc(c(-c5ccccc5)c5ccc2[nH]5)C=C4)C=C3)cc1
REMARK SMILES IDX 17 1 16 2 15 3 14 4 13 5 11 6 12 7 10 8 7 9 8 10 9 11 6 12
REMARK SMILES IDX 4 13 1 14 2 15 3 16 5 17 18 18 19 19 20 20 21 21 22 22 23 23
REMARK SMILES IDX 24 24 25 25 26 26 72 27 27 28 71 29 28 30 29 31 30 32 65 33
REMARK SMILES IDX 31 34 70 35 64 36 66 37 32 38 69 39 63 40 62 41 33 43 55 44
REMARK SMILES IDX 40 45 54 46 41 47 44 48 53 49 67 50 42 51 43 52 52 54 68 55
REMARK SMILES IDX 45 56 34 57 35 58 39 59 36 60 38 61 37 62 56 63 57 64 61 65
REMARK SMILES IDX 58 66 60 67 59 68 46 69 47 70 51 71 48 72 50 73 49 74
REMARK H PARENT 66 42 44 53
REMARK Flexibility Score: inf
ROOT
ATOM      1  C   UNL A   1      40.207  20.270  25.928  1.00  0.00     0.188 C 
ENDROOT
BRANCH   1   2
ATOM      2  O   UNL A   1      39.360  19.261  25.399  1.00  0.00    -0.376 OA
BRANCH   2   3
ATOM      3  C   UNL A   1      38.038  19.671  25.034  1.00  0.00     0.202 C 
BRANCH   3   4
ATOM      4  C   UNL A   1      37.759  21.186  25.062  1.00  0.00     0.261 C 
BRANCH   4   5
ATOM      5  O   UNL A   1      36.489  21.521  24.459  1.00  0.00    -0.463 OA
BRANCH   5   6
ATOM      6  C   UNL A   1      35.836  22.601  24.975  1.00  0.00     0.306 C 
ATOM      7  O   UNL A   1      36.354  23.468  25.668  1.00  0.00    -0.252 OA
BRANCH   6   8
ATOM      8  C   UNL A   1      34.391  22.665  24.484  1.00  0.00     0.129 C 
BRANCH   8   9
ATOM      9  C   UNL A   1      33.251  22.416  25.509  1.00  0.00    -0.016 C 
ATOM     10  C   UNL A   1      33.550  21.132  26.303  1.00  0.00     0.012 C 
ATOM     11  C   UNL A   1      31.886  22.207  24.808  1.00  0.00     0.012 C 
BRANCH   9  12
ATOM     12  C   UNL A   1      33.049  23.617  26.485  1.00  0.00     0.107 C 
BRANCH  12  13
ATOM     13  C   UNL A   1      31.697  24.303  26.629  1.00  0.00     0.222 C 
ATOM     14  C   UNL A   1      30.060  25.813  25.708  1.00  0.00     0.146 C 
ATOM     15  N   UNL A   1      31.448  25.516  26.031  1.00  0.00    -0.349 N 
ATOM     16  C   UNL A   1      32.269  26.653  26.397  1.00  0.00     0.146 C 
ATOM     17  O   UNL A   1      30.844  23.808  27.364  1.00  0.00    -0.275 OA
ENDBRANCH  12  13
ENDBRANCH   9  12
ENDBRANCH   8   9
ENDBRANCH   6   8
ENDBRANCH   5   6
ENDBRANCH   4   5
ENDBRANCH   3   4
ENDBRANCH   2   3
ENDBRANCH   1   2
BRANCH   1  18
ATOM     18  C   UNL A   1      41.012  19.921  27.189  1.00  0.00     0.188 C 
BRANCH  18  19
ATOM     19  O   UNL A   1      42.404  20.205  27.150  1.00  0.00    -0.376 OA
BRANCH  19  20
ATOM     20  C   UNL A   1      43.001  20.092  25.853  1.00  0.00     0.202 C 
BRANCH  20  21
ATOM     21  C   UNL A   1      43.809  21.335  25.427  1.00  0.00     0.261 C 
BRANCH  21  22
ATOM     22  O   UNL A   1      42.993  22.451  25.016  1.00  0.00    -0.460 OA
BRANCH  22  23
ATOM     23  C   UNL A   1      43.609  23.650  25.018  1.00  0.00     0.338 C 
ATOM     24  O   UNL A   1      44.574  23.973  24.330  1.00  0.00    -0.246 OA
BRANCH  23  25
ATOM     25  C   UNL A   1      42.804  24.602  25.807  1.00  0.00     0.060 A 
ATOM     26  C   UNL A   1      43.150  25.950  25.739  1.00  0.00     0.016 A 
ATOM     27  C   UNL A   1      41.776  24.202  26.651  1.00  0.00     0.016 A 
ATOM     28  C   UNL A   1      42.607  26.887  26.605  1.00  0.00     0.010 A 
ATOM     29  C   UNL A   1      41.182  25.153  27.496  1.00  0.00     0.010 A 
ATOM     30  C   UNL A   1      41.644  26.487  27.528  1.00  0.00    -0.014 A 
BRANCH  30  31
ATOM     31  C   UNL A   1      41.299  27.395  28.652  1.00  0.00     0.031 A 
ATOM     32  C   UNL A   1      42.169  27.367  29.882  1.00  0.00     0.074 A 
ATOM     33  C   UNL A   1      40.309  28.305  28.566  1.00  0.00     0.049 A 
ATOM     34  N   UNL A   1      41.977  27.922  31.051  1.00  0.00    -0.248 NA
ATOM     35  C   UNL A   1      43.423  26.602  29.778  1.00  0.00     0.031 C 
ATOM     36  C   UNL A   1      39.476  28.554  27.390  1.00  0.00     0.029 A 
ATOM     37  N   UNL A   1      39.849  29.204  29.497  1.00  0.00    -0.354 N 
ATOM     38  C   UNL A   1      43.049  27.516  31.837  1.00  0.00     0.074 A 
ATOM     39  C   UNL A   1      43.884  26.669  31.016  1.00  0.00     0.031 C 
ATOM     40  C   UNL A   1      38.616  29.549  27.666  1.00  0.00     0.029 A 
ATOM     41  C   UNL A   1      38.784  29.954  29.059  1.00  0.00     0.049 A 
ATOM     42  H   UNL A   1      40.244  29.302  30.393  1.00  0.00     0.167 HD
ATOM     43  C   UNL A   1      43.312  27.818  33.131  1.00  0.00     0.031 A 
ATOM     44  C   UNL A   1      38.005  30.833  29.720  1.00  0.00     0.031 A 
ATOM     45  C   UNL A   1      42.507  28.699  33.932  1.00  0.00     0.049 A 
ATOM     46  C   UNL A   1      38.266  31.093  31.180  1.00  0.00     0.074 A 
ATOM     47  C   UNL A   1      42.672  29.052  35.260  1.00  0.00     0.029 A 
ATOM     48  N   UNL A   1      41.398  29.387  33.467  1.00  0.00    -0.354 N 
ATOM     49  N   UNL A   1      39.219  30.625  31.948  1.00  0.00    -0.248 NA
ATOM     50  C   UNL A   1      37.331  31.998  31.866  1.00  0.00     0.031 C 
ATOM     51  C   UNL A   1      41.636  29.925  35.609  1.00  0.00     0.029 A 
ATOM     52  C   UNL A   1      40.862  30.158  34.484  1.00  0.00     0.049 A 
ATOM     53  H   UNL A   1      41.044  29.336  32.550  1.00  0.00     0.167 HD
ATOM     54  C   UNL A   1      39.013  31.195  33.199  1.00  0.00     0.074 A 
ATOM     55  C   UNL A   1      37.857  32.058  33.081  1.00  0.00     0.031 C 
ATOM     56  C   UNL A   1      39.715  31.017  34.345  1.00  0.00     0.031 A 
BRANCH  43  57
ATOM     57  C   UNL A   1      44.485  27.133  33.772  1.00  0.00    -0.014 A 
ATOM     58  C   UNL A   1      44.441  25.781  34.150  1.00  0.00     0.009 A 
ATOM     59  C   UNL A   1      45.663  27.863  33.999  1.00  0.00     0.009 A 
ATOM     60  C   UNL A   1      45.541  25.189  34.775  1.00  0.00     0.001 A 
ATOM     61  C   UNL A   1      46.770  27.259  34.595  1.00  0.00     0.001 A 
ATOM     62  C   UNL A   1      46.704  25.926  34.993  1.00  0.00     0.000 A 
ENDBRANCH  43  57
BRANCH  44  63
ATOM     63  C   UNL A   1      36.860  31.487  29.031  1.00  0.00    -0.014 A 
ATOM     64  C   UNL A   1      36.926  32.834  28.645  1.00  0.00     0.009 A 
ATOM     65  C   UNL A   1      35.675  30.773  28.790  1.00  0.00     0.009 A 
ATOM     66  C   UNL A   1      35.823  33.457  28.053  1.00  0.00     0.001 A 
ATOM     67  C   UNL A   1      34.586  31.388  28.168  1.00  0.00     0.001 A 
ATOM     68  C   UNL A   1      34.657  32.732  27.811  1.00  0.00     0.000 A 
ENDBRANCH  44  63
BRANCH  56  69
ATOM     69  C   UNL A   1      39.284  31.812  35.545  1.00  0.00    -0.014 A 
ATOM     70  C   UNL A   1      39.818  33.081  35.813  1.00  0.00     0.009 A 
ATOM     71  C   UNL A   1      38.300  31.292  36.401  1.00  0.00     0.009 A 
ATOM     72  C   UNL A   1      39.404  33.797  36.939  1.00  0.00     0.001 A 
ATOM     73  C   UNL A   1      37.868  32.021  37.509  1.00  0.00     0.001 A 
ATOM     74  C   UNL A   1      38.428  33.267  37.783  1.00  0.00     0.000 A 
ENDBRANCH  56  69
ENDBRANCH  30  31
ENDBRANCH  23  25
ENDBRANCH  22  23
ENDBRANCH  21  22
ENDBRANCH  20  21
ENDBRANCH  19  20
ENDBRANCH  18  19
ENDBRANCH   1  18
TORSDOF 20
ENDMDL
MODEL 3
REMARK VINA RESULT:      -8.4      1.696      2.701
REMARK SMILES CN(C)C(=O)CC(C)(C)CC(=O)OCCOCCOCCOC(=O)c1ccc(-c2c3nc(c(-c4ccccc4)c4ccc([nH]4)c(-c4ccccc4)c4nc(c(-c5ccccc5)c5ccc2[nH]5)C=C4)C=C3)cc1
REMARK SMILES IDX 17 1 16 2 15 3 14 4 13 5 11 6 12 7 10 8 7 9 8 10 9 11 6 12
REMARK SMILES IDX 4 13 1 14 2 15 3 16 5 17 18 18 19 19 20 20 21 21 22 22 23 23
REMARK SMILES IDX 24 24 25 25 26 26 72 27 27 28 71 29 28 30 29 31 30 32 65 33
REMARK SMILES IDX 31 34 70 35 64 36 66 37 32 38 69 39 63 40 62 41 33 43 55 44
REMARK SMILES IDX 40 45 54 46 41 47 44 48 53 49 67 50 42 51 43 52 52 54 68 55
REMARK SMILES IDX 45 56 34 57 35 58 39 59 36 60 38 61 37 62 56 63 57 64 61 65
REMARK SMILES IDX 58 66 60 67 59 68 46 69 47 70 51 71 48 72 50 73 49 74
REMARK H PARENT 66 42 44 53
REMARK Flexibility Score: inf
ROOT
ATOM      1  C   UNL A   1      35.201  30.797  28.042  1.00  0.00     0.188 C 
ENDROOT
BRANCH   1   2
ATOM      2  O   UNL A   1      34.715  29.520  27.654  1.00  0.00    -0.376 OA
BRANCH   2   3
ATOM      3  C   UNL A   1      34.164  29.426  26.337  1.00  0.00     0.202 C 
BRANCH   3   4
ATOM      4  C   UNL A   1      33.518  28.078  25.960  1.00  0.00     0.261 C 
BRANCH   4   5
ATOM      5  O   UNL A   1      33.110  28.034  24.573  1.00  0.00    -0.463 OA
BRANCH   5   6
ATOM      6  C   UNL A   1      31.774  28.154  24.328  1.00  0.00     0.306 C 
ATOM      7  O   UNL A   1      31.097  29.137  24.600  1.00  0.00    -0.252 OA
BRANCH   6   8
ATOM      8  C   UNL A   1      31.241  26.948  23.558  1.00  0.00     0.129 C 
BRANCH   8   9
ATOM      9  C   UNL A   1      30.229  26.006  24.268  1.00  0.00    -0.016 C 
ATOM     10  C   UNL A   1      28.795  26.462  23.943  1.00  0.00     0.012 C 
ATOM     11  C   UNL A   1      30.382  26.057  25.807  1.00  0.00     0.012 C 
BRANCH   9  12
ATOM     12  C   UNL A   1      30.421  24.510  23.869  1.00  0.00     0.107 C 
BRANCH  12  13
ATOM     13  C   UNL A   1      31.523  23.659  24.488  1.00  0.00     0.222 C 
ATOM     14  C   UNL A   1      32.264  21.485  25.215  1.00  0.00     0.146 C 
ATOM     15  N   UNL A   1      31.229  22.508  25.178  1.00  0.00    -0.349 N 
ATOM     16  C   UNL A   1      30.388  22.598  26.355  1.00  0.00     0.146 C 
ATOM     17  O   UNL A   1      32.687  24.055  24.444  1.00  0.00    -0.275 OA
ENDBRANCH  12  13
ENDBRANCH   9  12
ENDBRANCH   8   9
ENDBRANCH   6   8
ENDBRANCH   5   6
ENDBRANCH   4   5
ENDBRANCH   3   4
ENDBRANCH   2   3
ENDBRANCH   1   2
BRANCH   1  18
ATOM     18  C   UNL A   1      34.175  31.804  28.582  1.00  0.00     0.188 C 
BRANCH  18  19
ATOM     19  O   UNL A   1      34.488  33.180  28.412  1.00  0.00    -0.376 OA
BRANCH  19  20
ATOM     20  C   UNL A   1      33.353  34.033  28.225  1.00  0.00     0.202 C 
BRANCH  20  21
ATOM     21  C   UNL A   1      33.312  35.237  29.188  1.00  0.00     0.261 C 
BRANCH  21  22
ATOM     22  O   UNL A   1      32.542  35.003  30.386  1.00  0.00    -0.460 OA
BRANCH  22  23
ATOM     23  C   UNL A   1      32.893  35.746  31.454  1.00  0.00     0.338 C 
ATOM     24  O   UNL A   1      32.340  36.773  31.840  1.00  0.00    -0.246 OA
BRANCH  23  25
ATOM     25  C   UNL A   1      33.907  35.013  32.236  1.00  0.00     0.060 A 
ATOM     26  C   UNL A   1      35.125  35.649  32.469  1.00  0.00     0.016 A 
ATOM     27  C   UNL A   1      33.720  33.711  32.683  1.00  0.00     0.016 A 
ATOM     28  C   UNL A   1      36.214  34.971  32.995  1.00  0.00     0.010 A 
ATOM     29  C   UNL A   1      34.802  33.031  33.263  1.00  0.00     0.010 A 
ATOM     30  C   UNL A   1      36.075  33.633  33.357  1.00  0.00    -0.014 A 
BRANCH  30  31
ATOM     31  C   UNL A   1      37.294  32.823  33.613  1.00  0.00     0.031 A 
ATOM     32  C   UNL A   1      37.977  32.968  34.949  1.00  0.00     0.074 A 
ATOM     33  C   UNL A   1      37.741  31.898  32.742  1.00  0.00     0.049 A 
ATOM     34  N   UNL A   1      39.139  32.515  35.344  1.00  0.00    -0.248 NA
ATOM     35  C   UNL A   1      37.250  33.736  35.974  1.00  0.00     0.031 C 
ATOM     36  C   UNL A   1      37.105  31.538  31.475  1.00  0.00     0.029 A 
ATOM     37  N   UNL A   1      38.841  31.079  32.807  1.00  0.00    -0.354 N 
ATOM     38  C   UNL A   1      39.309  33.001  36.635  1.00  0.00     0.074 A 
ATOM     39  C   UNL A   1      38.136  33.782  36.956  1.00  0.00     0.031 C 
ATOM     40  C   UNL A   1      37.817  30.561  30.890  1.00  0.00     0.029 A 
ATOM     41  C   UNL A   1      39.000  30.282  31.699  1.00  0.00     0.049 A 
ATOM     42  H   UNL A   1      39.458  31.063  33.574  1.00  0.00     0.167 HD
ATOM     43  C   UNL A   1      40.353  32.816  37.477  1.00  0.00     0.031 A 
ATOM     44  C   UNL A   1      40.008  29.455  31.356  1.00  0.00     0.031 A 
ATOM     45  C   UNL A   1      41.496  31.999  37.176  1.00  0.00     0.049 A 
ATOM     46  C   UNL A   1      41.197  29.326  32.271  1.00  0.00     0.074 A 
ATOM     47  C   UNL A   1      42.620  31.765  37.951  1.00  0.00     0.029 A 
ATOM     48  N   UNL A   1      41.648  31.260  36.014  1.00  0.00    -0.354 N 
ATOM     49  N   UNL A   1      41.401  29.870  33.446  1.00  0.00    -0.248 NA
ATOM     50  C   UNL A   1      42.301  28.474  31.804  1.00  0.00     0.031 C 
ATOM     51  C   UNL A   1      43.470  30.915  37.236  1.00  0.00     0.029 A 
ATOM     52  C   UNL A   1      42.850  30.576  36.045  1.00  0.00     0.049 A 
ATOM     53  H   UNL A   1      40.997  31.227  35.276  1.00  0.00     0.167 HD
ATOM     54  C   UNL A   1      42.644  29.410  33.867  1.00  0.00     0.074 A 
ATOM     55  C   UNL A   1      43.136  28.526  32.830  1.00  0.00     0.031 C 
ATOM     56  C   UNL A   1      43.320  29.695  35.007  1.00  0.00     0.031 A 
BRANCH  43  57
ATOM     57  C   UNL A   1      40.328  33.567  38.778  1.00  0.00    -0.014 A 
ATOM     58  C   UNL A   1      40.842  34.869  38.895  1.00  0.00     0.009 A 
ATOM     59  C   UNL A   1      39.772  32.953  39.912  1.00  0.00     0.009 A 
ATOM     60  C   UNL A   1      40.832  35.522  40.129  1.00  0.00     0.001 A 
ATOM     61  C   UNL A   1      39.736  33.621  41.136  1.00  0.00     0.001 A 
ATOM     62  C   UNL A   1      40.276  34.900  41.247  1.00  0.00     0.000 A 
ENDBRANCH  43  57
BRANCH  44  63
ATOM     63  C   UNL A   1      39.976  28.730  30.057  1.00  0.00    -0.014 A 
ATOM     64  C   UNL A   1      40.439  29.340  28.881  1.00  0.00     0.009 A 
ATOM     65  C   UNL A   1      39.444  27.433  29.980  1.00  0.00     0.009 A 
ATOM     66  C   UNL A   1      40.349  28.675  27.655  1.00  0.00     0.001 A 
ATOM     67  C   UNL A   1      39.386  26.757  28.760  1.00  0.00     0.001 A 
ATOM     68  C   UNL A   1      39.829  27.383  27.596  1.00  0.00     0.000 A 
ENDBRANCH  44  63
BRANCH  56  69
ATOM     69  C   UNL A   1      44.637  29.003  35.216  1.00  0.00    -0.014 A 
ATOM     70  C   UNL A   1      45.844  29.586  34.802  1.00  0.00     0.009 A 
ATOM     71  C   UNL A   1      44.669  27.760  35.868  1.00  0.00     0.009 A 
ATOM     72  C   UNL A   1      47.055  28.918  35.002  1.00  0.00     0.001 A 
ATOM     73  C   UNL A   1      45.881  27.108  36.093  1.00  0.00     0.001 A 
ATOM     74  C   UNL A   1      47.072  27.682  35.650  1.00  0.00     0.000 A 
ENDBRANCH  56  69
ENDBRANCH  30  31
ENDBRANCH  23  25
ENDBRANCH  22  23
ENDBRANCH  21  22
ENDBRANCH  20  21
ENDBRANCH  19  20
ENDBRANCH  18  19
ENDBRANCH   1  18
TORSDOF 20
ENDMDL
