MODEL 1
REMARK VINA RESULT:     -10.7      0.000      0.000
REMARK SMILES COc1ccc(-c2ccc(C(=O)NCc3ccc(C(=O)OCCOCCOCCOC(=O)c4ccc(-c5c6nc(c(-c7ccccc7)c7ccc([nH]7)c(-c7ccccc7)c7nc(c(-c8ccccc8)c8ccc5[nH]8)C=C7)C=C6)cc4)cc3)o2)c([N+](=O)[O-])c1
REMARK SMILES IDX 24 1 23 2 22 3 21 4 19 5 20 6 18 7 15 8 16 9 82 10 17 11
REMARK SMILES IDX 81 12 14 13 13 14 11 15 12 16 10 18 7 19 8 20 83 21 9 22
REMARK SMILES IDX 6 23 3 24 4 25 88 26 5 27 84 28 2 29 1 30 85 31 86 32 87 33
REMARK SMILES IDX 25 34 26 35 27 36 28 37 29 38 30 39 31 40 32 41 33 42 34 43
REMARK SMILES IDX 80 44 35 45 79 46 36 47 37 48 38 49 73 50 39 51 78 52 72 53
REMARK SMILES IDX 74 54 40 55 77 56 71 57 70 58 41 60 63 61 48 62 62 63 49 64
REMARK SMILES IDX 52 65 61 66 75 67 50 68 51 69 60 71 76 72 53 73 42 74 43 75
REMARK SMILES IDX 47 76 44 77 46 78 45 79 64 80 65 81 69 82 66 83 68 84 67 85
REMARK SMILES IDX 54 86 55 87 59 88 56 89 58 90 57 91
REMARK H PARENT 13 17 74 59 52 70
REMARK Flexibility Score: inf
ROOT
ATOM      1  O   UNL A   1      36.799  21.383  25.150  1.00  0.00    -0.376 OA
ENDROOT
BRANCH   1   2
ATOM      2  C   UNL A   1      35.831  20.354  24.986  1.00  0.00     0.202 C 
BRANCH   2   3
ATOM      3  C   UNL A   1      34.342  20.656  25.196  1.00  0.00     0.261 C 
BRANCH   3   4
ATOM      4  O   UNL A   1      34.036  22.056  25.299  1.00  0.00    -0.460 OA
BRANCH   4   5
ATOM      5  C   UNL A   1      33.655  22.647  24.141  1.00  0.00     0.338 C 
ATOM      6  O   UNL A   1      33.162  22.100  23.166  1.00  0.00    -0.246 OA
BRANCH   5   7
ATOM      7  C   UNL A   1      33.743  24.118  24.261  1.00  0.00     0.060 A 
ATOM      8  C   UNL A   1      33.855  26.899  24.650  1.00  0.00    -0.029 A 
ATOM      9  C   UNL A   1      34.075  26.021  25.720  1.00  0.00     0.006 A 
ATOM     10  C   UNL A   1      33.612  26.363  23.373  1.00  0.00     0.006 A 
ATOM     11  C   UNL A   1      34.015  24.642  25.529  1.00  0.00     0.016 A 
ATOM     12  C   UNL A   1      33.563  24.977  23.174  1.00  0.00     0.016 A 
BRANCH   8  13
ATOM     13  C   UNL A   1      33.785  28.388  24.886  1.00  0.00     0.152 C 
BRANCH  13  14
ATOM     14  N   UNL A   1      32.700  28.693  25.791  1.00  0.00    -0.345 N 
ATOM     15  C   UNL A   1      32.559  29.551  26.852  1.00  0.00     0.287 C 
ATOM     16  O   UNL A   1      31.448  29.522  27.392  1.00  0.00    -0.266 OA
ATOM     17  H   UNL A   1      31.886  28.172  25.606  1.00  0.00     0.164 HD
BRANCH  15  18
ATOM     18  C   UNL A   1      33.622  30.429  27.311  1.00  0.00     0.192 A 
ATOM     19  C   UNL A   1      34.317  32.305  28.281  1.00  0.00     0.142 A 
ATOM     20  C   UNL A   1      35.450  31.614  27.928  1.00  0.00     0.052 A 
ATOM     21  O   UNL A   1      33.214  31.590  27.940  1.00  0.00    -0.451 OA
ATOM     22  C   UNL A   1      35.007  30.417  27.310  1.00  0.00     0.057 A 
BRANCH  19  23
ATOM     23  C   UNL A   1      34.076  33.579  28.937  1.00  0.00     0.095 A 
ATOM     24  C   UNL A   1      33.335  36.028  30.159  1.00  0.00     0.125 A 
ATOM     25  C   UNL A   1      33.128  35.819  28.795  1.00  0.00     0.047 A 
ATOM     26  C   UNL A   1      33.932  35.026  30.919  1.00  0.00     0.132 A 
ATOM     27  C   UNL A   1      33.504  34.616  28.187  1.00  0.00     0.023 A 
ATOM     28  C   UNL A   1      34.301  33.813  30.303  1.00  0.00     0.284 A 
BRANCH  24  29
ATOM     29  O   UNL A   1      32.883  37.228  30.631  1.00  0.00    -0.497 OA
ATOM     30  C   UNL A   1      33.389  37.656  31.890  1.00  0.00     0.278 C 
ENDBRANCH  24  29
BRANCH  28  31
ATOM     31  N   UNL A   1      34.932  32.806  31.149  1.00  0.00     0.063 N 
ATOM     32  O   UNL A   1      36.123  32.535  30.950  1.00  0.00    -0.258 OA
ATOM     33  O   UNL A   1      34.235  32.310  32.047  1.00  0.00    -0.258 OA
ENDBRANCH  28  31
ENDBRANCH  19  23
ENDBRANCH  15  18
ENDBRANCH  13  14
ENDBRANCH   8  13
ENDBRANCH   5   7
ENDBRANCH   4   5
ENDBRANCH   3   4
ENDBRANCH   2   3
ENDBRANCH   1   2
BRANCH   1  34
ATOM     34  C   UNL A   1      38.177  21.051  25.217  1.00  0.00     0.188 C 
BRANCH  34  35
ATOM     35  C   UNL A   1      39.145  21.895  26.072  1.00  0.00     0.188 C 
BRANCH  35  36
ATOM     36  O   UNL A   1      40.201  21.216  26.704  1.00  0.00    -0.376 OA
BRANCH  36  37
ATOM     37  C   UNL A   1      40.667  19.963  26.231  1.00  0.00     0.202 C 
BRANCH  37  38
ATOM     38  C   UNL A   1      42.135  19.511  26.120  1.00  0.00     0.261 C 
BRANCH  38  39
ATOM     39  O   UNL A   1      42.759  19.524  24.837  1.00  0.00    -0.460 OA
BRANCH  39  40
ATOM     40  C   UNL A   1      44.106  19.633  24.844  1.00  0.00     0.338 C 
ATOM     41  O   UNL A   1      44.927  18.769  24.568  1.00  0.00    -0.246 OA
BRANCH  40  42
ATOM     42  C   UNL A   1      44.459  21.040  25.088  1.00  0.00     0.060 A 
ATOM     43  C   UNL A   1      45.248  21.349  26.203  1.00  0.00     0.016 A 
ATOM     44  C   UNL A   1      43.985  22.046  24.244  1.00  0.00     0.016 A 
ATOM     45  C   UNL A   1      45.547  22.680  26.492  1.00  0.00     0.010 A 
ATOM     46  C   UNL A   1      44.271  23.379  24.546  1.00  0.00     0.010 A 
ATOM     47  C   UNL A   1      45.029  23.702  25.686  1.00  0.00    -0.014 A 
BRANCH  47  48
ATOM     48  C   UNL A   1      45.136  25.113  26.123  1.00  0.00     0.031 A 
ATOM     49  C   UNL A   1      46.486  25.775  26.092  1.00  0.00     0.074 A 
ATOM     50  C   UNL A   1      44.056  25.799  26.536  1.00  0.00     0.049 A 
ATOM     51  N   UNL A   1      46.829  26.977  26.478  1.00  0.00    -0.248 NA
ATOM     52  C   UNL A   1      47.596  24.972  25.554  1.00  0.00     0.031 C 
ATOM     53  C   UNL A   1      42.689  25.287  26.571  1.00  0.00     0.029 A 
ATOM     54  N   UNL A   1      43.952  27.080  27.019  1.00  0.00    -0.354 N 
ATOM     55  C   UNL A   1      48.194  27.072  26.236  1.00  0.00     0.074 A 
ATOM     56  C   UNL A   1      48.620  25.801  25.694  1.00  0.00     0.031 C 
ATOM     57  C   UNL A   1      41.880  26.243  27.063  1.00  0.00     0.029 A 
ATOM     58  C   UNL A   1      42.681  27.417  27.409  1.00  0.00     0.049 A 
ATOM     59  H   UNL A   1      44.717  27.697  27.079  1.00  0.00     0.167 HD
ATOM     60  C   UNL A   1      49.020  28.124  26.446  1.00  0.00     0.031 A 
ATOM     61  C   UNL A   1      42.221  28.536  28.002  1.00  0.00     0.031 A 
ATOM     62  C   UNL A   1      48.605  29.380  27.007  1.00  0.00     0.049 A 
ATOM     63  C   UNL A   1      43.178  29.657  28.312  1.00  0.00     0.074 A 
ATOM     64  C   UNL A   1      49.367  30.510  27.250  1.00  0.00     0.029 A 
ATOM     65  N   UNL A   1      47.317  29.667  27.427  1.00  0.00    -0.354 N 
ATOM     66  N   UNL A   1      44.460  29.748  28.053  1.00  0.00    -0.248 NA
ATOM     67  C   UNL A   1      42.618  30.836  28.992  1.00  0.00     0.031 C 
ATOM     68  C   UNL A   1      48.550  31.463  27.868  1.00  0.00     0.029 A 
ATOM     69  C   UNL A   1      47.267  30.947  27.955  1.00  0.00     0.049 A 
ATOM     70  H   UNL A   1      46.550  29.054  27.362  1.00  0.00     0.167 HD
ATOM     71  C   UNL A   1      44.853  31.000  28.512  1.00  0.00     0.074 A 
ATOM     72  C   UNL A   1      43.672  31.638  29.052  1.00  0.00     0.031 C 
ATOM     73  C   UNL A   1      46.083  31.570  28.488  1.00  0.00     0.031 A 
BRANCH  60  74
ATOM     74  C   UNL A   1      50.470  27.938  26.099  1.00  0.00    -0.014 A 
ATOM     75  C   UNL A   1      50.969  28.292  24.836  1.00  0.00     0.009 A 
ATOM     76  C   UNL A   1      51.353  27.423  27.061  1.00  0.00     0.009 A 
ATOM     77  C   UNL A   1      52.319  28.101  24.532  1.00  0.00     0.001 A 
ATOM     78  C   UNL A   1      52.707  27.259  26.763  1.00  0.00     0.001 A 
ATOM     79  C   UNL A   1      53.187  27.589  25.497  1.00  0.00     0.000 A 
ENDBRANCH  60  74
BRANCH  61  80
ATOM     80  C   UNL A   1      40.787  28.648  28.375  1.00  0.00    -0.014 A 
ATOM     81  C   UNL A   1      39.853  29.181  27.474  1.00  0.00     0.009 A 
ATOM     82  C   UNL A   1      40.350  28.253  29.650  1.00  0.00     0.009 A 
ATOM     83  C   UNL A   1      38.517  29.339  27.851  1.00  0.00     0.001 A 
ATOM     84  C   UNL A   1      39.009  28.385  30.013  1.00  0.00     0.001 A 
ATOM     85  C   UNL A   1      38.095  28.937  29.118  1.00  0.00     0.000 A 
ENDBRANCH  61  80
BRANCH  73  86
ATOM     86  C   UNL A   1      46.208  32.970  29.022  1.00  0.00    -0.014 A 
ATOM     87  C   UNL A   1      46.381  34.068  28.164  1.00  0.00     0.009 A 
ATOM     88  C   UNL A   1      46.105  33.196  30.404  1.00  0.00     0.009 A 
ATOM     89  C   UNL A   1      46.480  35.360  28.684  1.00  0.00     0.001 A 
ATOM     90  C   UNL A   1      46.174  34.492  30.918  1.00  0.00     0.001 A 
ATOM     91  C   UNL A   1      46.370  35.571  30.059  1.00  0.00     0.000 A 
ENDBRANCH  73  86
ENDBRANCH  47  48
ENDBRANCH  40  42
ENDBRANCH  39  40
ENDBRANCH  38  39
ENDBRANCH  37  38
ENDBRANCH  36  37
ENDBRANCH  35  36
ENDBRANCH  34  35
ENDBRANCH   1  34
TORSDOF 23
ENDMDL
MODEL 2
REMARK VINA RESULT:      -9.8      2.859      7.066
REMARK SMILES COc1ccc(-c2ccc(C(=O)NCc3ccc(C(=O)OCCOCCOCCOC(=O)c4ccc(-c5c6nc(c(-c7ccccc7)c7ccc([nH]7)c(-c7ccccc7)c7nc(c(-c8ccccc8)c8ccc5[nH]8)C=C7)C=C6)cc4)cc3)o2)c([N+](=O)[O-])c1
REMARK SMILES IDX 24 1 23 2 22 3 21 4 19 5 20 6 18 7 15 8 16 9 82 10 17 11
REMARK SMILES IDX 81 12 14 13 13 14 11 15 12 16 10 18 7 19 8 20 83 21 9 22
REMARK SMILES IDX 6 23 3 24 4 25 88 26 5 27 84 28 2 29 1 30 85 31 86 32 87 33
REMARK SMILES IDX 25 34 26 35 27 36 28 37 29 38 30 39 31 40 32 41 33 42 34 43
REMARK SMILES IDX 80 44 35 45 79 46 36 47 37 48 38 49 73 50 39 51 78 52 72 53
REMARK SMILES IDX 74 54 40 55 77 56 71 57 70 58 41 60 63 61 48 62 62 63 49 64
REMARK SMILES IDX 52 65 61 66 75 67 50 68 51 69 60 71 76 72 53 73 42 74 43 75
REMARK SMILES IDX 47 76 44 77 46 78 45 79 64 80 65 81 69 82 66 83 68 84 67 85
REMARK SMILES IDX 54 86 55 87 59 88 56 89 58 90 57 91
REMARK H PARENT 13 17 74 59 52 70
REMARK Flexibility Score: inf
ROOT
ATOM      1  O   UNL A   1      37.453  22.766  25.568  1.00  0.00    -0.376 OA
ENDROOT
BRANCH   1   2
ATOM      2  C   UNL A   1      36.740  21.678  24.994  1.00  0.00     0.202 C 
BRANCH   2   3
ATOM      3  C   UNL A   1      35.438  21.186  25.637  1.00  0.00     0.261 C 
BRANCH   3   4
ATOM      4  O   UNL A   1      34.837  22.126  26.541  1.00  0.00    -0.460 OA
BRANCH   4   5
ATOM      5  C   UNL A   1      33.563  22.476  26.242  1.00  0.00     0.338 C 
ATOM      6  O   UNL A   1      32.545  22.075  26.786  1.00  0.00    -0.246 OA
BRANCH   5   7
ATOM      7  C   UNL A   1      33.549  23.580  25.257  1.00  0.00     0.060 A 
ATOM      8  C   UNL A   1      33.510  25.559  23.263  1.00  0.00    -0.029 A 
ATOM      9  C   UNL A   1      32.827  24.350  23.078  1.00  0.00     0.006 A 
ATOM     10  C   UNL A   1      34.186  25.777  24.477  1.00  0.00     0.006 A 
ATOM     11  C   UNL A   1      32.850  23.366  24.065  1.00  0.00     0.016 A 
ATOM     12  C   UNL A   1      34.201  24.795  25.476  1.00  0.00     0.016 A 
BRANCH   8  13
ATOM     13  C   UNL A   1      33.599  26.565  22.141  1.00  0.00     0.152 C 
BRANCH  13  14
ATOM     14  N   UNL A   1      32.287  27.097  21.852  1.00  0.00    -0.345 N 
ATOM     15  C   UNL A   1      31.257  27.564  22.628  1.00  0.00     0.287 C 
ATOM     16  O   UNL A   1      30.265  27.941  21.995  1.00  0.00    -0.266 OA
ATOM     17  H   UNL A   1      32.088  27.131  20.888  1.00  0.00     0.164 HD
BRANCH  15  18
ATOM     18  C   UNL A   1      31.317  27.619  24.080  1.00  0.00     0.192 A 
ATOM     19  C   UNL A   1      32.175  28.426  25.965  1.00  0.00     0.142 A 
ATOM     20  C   UNL A   1      31.217  27.515  26.339  1.00  0.00     0.052 A 
ATOM     21  O   UNL A   1      32.223  28.515  24.611  1.00  0.00    -0.451 OA
ATOM     22  C   UNL A   1      30.669  27.002  25.137  1.00  0.00     0.057 A 
BRANCH  19  23
ATOM     23  C   UNL A   1      33.088  29.288  26.697  1.00  0.00     0.095 A 
ATOM     24  C   UNL A   1      35.056  30.919  27.924  1.00  0.00     0.125 A 
ATOM     25  C   UNL A   1      35.265  29.549  27.758  1.00  0.00     0.047 A 
ATOM     26  C   UNL A   1      33.856  31.481  27.498  1.00  0.00     0.132 A 
ATOM     27  C   UNL A   1      34.291  28.740  27.164  1.00  0.00     0.023 A 
ATOM     28  C   UNL A   1      32.881  30.663  26.892  1.00  0.00     0.284 A 
BRANCH  24  29
ATOM     29  O   UNL A   1      36.106  31.597  28.478  1.00  0.00    -0.497 OA
ATOM     30  C   UNL A   1      37.344  30.903  28.566  1.00  0.00     0.278 C 
ENDBRANCH  24  29
BRANCH  28  31
ATOM     31  N   UNL A   1      31.640  31.308  26.478  1.00  0.00     0.063 N 
ATOM     32  O   UNL A   1      31.113  30.940  25.421  1.00  0.00    -0.258 OA
ATOM     33  O   UNL A   1      31.172  32.166  27.241  1.00  0.00    -0.258 OA
ENDBRANCH  28  31
ENDBRANCH  19  23
ENDBRANCH  15  18
ENDBRANCH  13  14
ENDBRANCH   8  13
ENDBRANCH   5   7
ENDBRANCH   4   5
ENDBRANCH   3   4
ENDBRANCH   2   3
ENDBRANCH   1   2
BRANCH   1  34
ATOM     34  C   UNL A   1      38.733  22.547  26.140  1.00  0.00     0.188 C 
BRANCH  34  35
ATOM     35  C   UNL A   1      39.334  21.127  26.198  1.00  0.00     0.188 C 
BRANCH  35  36
ATOM     36  O   UNL A   1      40.659  20.972  25.757  1.00  0.00    -0.376 OA
BRANCH  36  37
ATOM     37  C   UNL A   1      41.761  21.221  26.613  1.00  0.00     0.202 C 
BRANCH  37  38
ATOM     38  C   UNL A   1      42.755  22.393  26.515  1.00  0.00     0.261 C 
BRANCH  38  39
ATOM     39  O   UNL A   1      42.262  23.675  26.129  1.00  0.00    -0.460 OA
BRANCH  39  40
ATOM     40  C   UNL A   1      42.239  24.610  27.105  1.00  0.00     0.338 C 
ATOM     41  O   UNL A   1      41.464  24.688  28.048  1.00  0.00    -0.246 OA
BRANCH  40  42
ATOM     42  C   UNL A   1      43.424  25.468  26.955  1.00  0.00     0.060 A 
ATOM     43  C   UNL A   1      44.058  25.944  28.110  1.00  0.00     0.016 A 
ATOM     44  C   UNL A   1      43.883  25.828  25.687  1.00  0.00     0.016 A 
ATOM     45  C   UNL A   1      45.147  26.807  27.997  1.00  0.00     0.010 A 
ATOM     46  C   UNL A   1      44.962  26.707  25.577  1.00  0.00     0.010 A 
ATOM     47  C   UNL A   1      45.580  27.221  26.730  1.00  0.00    -0.014 A 
BRANCH  47  48
ATOM     48  C   UNL A   1      46.568  28.318  26.611  1.00  0.00     0.031 A 
ATOM     49  C   UNL A   1      46.075  29.738  26.661  1.00  0.00     0.074 A 
ATOM     50  C   UNL A   1      47.880  28.063  26.466  1.00  0.00     0.049 A 
ATOM     51  N   UNL A   1      46.744  30.854  26.522  1.00  0.00    -0.248 NA
ATOM     52  C   UNL A   1      44.634  29.922  26.898  1.00  0.00     0.031 C 
ATOM     53  C   UNL A   1      48.489  26.735  26.448  1.00  0.00     0.029 A 
ATOM     54  N   UNL A   1      48.935  28.923  26.294  1.00  0.00    -0.354 N 
ATOM     55  C   UNL A   1      45.806  31.871  26.648  1.00  0.00     0.074 A 
ATOM     56  C   UNL A   1      44.519  31.241  26.849  1.00  0.00     0.031 C 
ATOM     57  C   UNL A   1      49.814  26.868  26.262  1.00  0.00     0.029 A 
ATOM     58  C   UNL A   1      50.137  28.287  26.112  1.00  0.00     0.049 A 
ATOM     59  H   UNL A   1      48.838  29.903  26.301  1.00  0.00     0.167 HD
ATOM     60  C   UNL A   1      45.998  33.209  26.601  1.00  0.00     0.031 A 
ATOM     61  C   UNL A   1      51.355  28.791  25.830  1.00  0.00     0.031 A 
ATOM     62  C   UNL A   1      47.270  33.839  26.376  1.00  0.00     0.049 A 
ATOM     63  C   UNL A   1      51.525  30.281  25.690  1.00  0.00     0.074 A 
ATOM     64  C   UNL A   1      47.567  35.190  26.321  1.00  0.00     0.029 A 
ATOM     65  N   UNL A   1      48.456  33.158  26.156  1.00  0.00    -0.354 N 
ATOM     66  N   UNL A   1      50.637  31.234  25.839  1.00  0.00    -0.248 NA
ATOM     67  C   UNL A   1      52.872  30.763  25.347  1.00  0.00     0.031 C 
ATOM     68  C   UNL A   1      48.924  35.326  26.012  1.00  0.00     0.029 A 
ATOM     69  C   UNL A   1      49.484  34.060  25.934  1.00  0.00     0.049 A 
ATOM     70  H   UNL A   1      48.555  32.179  26.155  1.00  0.00     0.167 HD
ATOM     71  C   UNL A   1      51.323  32.427  25.636  1.00  0.00     0.074 A 
ATOM     72  C   UNL A   1      52.701  32.078  25.367  1.00  0.00     0.031 C 
ATOM     73  C   UNL A   1      50.852  33.698  25.670  1.00  0.00     0.031 A 
BRANCH  60  74
ATOM     74  C   UNL A   1      44.785  34.083  26.758  1.00  0.00    -0.014 A 
ATOM     75  C   UNL A   1      44.011  34.463  25.650  1.00  0.00     0.009 A 
ATOM     76  C   UNL A   1      44.398  34.511  28.037  1.00  0.00     0.009 A 
ATOM     77  C   UNL A   1      42.894  35.283  25.818  1.00  0.00     0.001 A 
ATOM     78  C   UNL A   1      43.265  35.308  28.205  1.00  0.00     0.001 A 
ATOM     79  C   UNL A   1      42.519  35.702  27.094  1.00  0.00     0.000 A 
ENDBRANCH  60  74
BRANCH  61  80
ATOM     80  C   UNL A   1      52.512  27.881  25.630  1.00  0.00    -0.014 A 
ATOM     81  C   UNL A   1      52.678  27.191  24.420  1.00  0.00     0.009 A 
ATOM     82  C   UNL A   1      53.441  27.673  26.662  1.00  0.00     0.009 A 
ATOM     83  C   UNL A   1      53.735  26.292  24.257  1.00  0.00     0.001 A 
ATOM     84  C   UNL A   1      54.512  26.796  26.486  1.00  0.00     0.001 A 
ATOM     85  C   UNL A   1      54.653  26.098  25.289  1.00  0.00     0.000 A 
ENDBRANCH  61  80
BRANCH  73  86
ATOM     86  C   UNL A   1      51.841  34.809  25.452  1.00  0.00    -0.014 A 
ATOM     87  C   UNL A   1      52.046  35.367  24.180  1.00  0.00     0.009 A 
ATOM     88  C   UNL A   1      52.546  35.334  26.547  1.00  0.00     0.009 A 
ATOM     89  C   UNL A   1      52.960  36.408  24.005  1.00  0.00     0.001 A 
ATOM     90  C   UNL A   1      53.438  36.394  26.374  1.00  0.00     0.001 A 
ATOM     91  C   UNL A   1      53.651  36.924  25.103  1.00  0.00     0.000 A 
ENDBRANCH  73  86
ENDBRANCH  47  48
ENDBRANCH  40  42
ENDBRANCH  39  40
ENDBRANCH  38  39
ENDBRANCH  37  38
ENDBRANCH  36  37
ENDBRANCH  35  36
ENDBRANCH  34  35
ENDBRANCH   1  34
TORSDOF 23
ENDMDL
MODEL 3
REMARK VINA RESULT:      -9.8      4.482      7.158
REMARK SMILES COc1ccc(-c2ccc(C(=O)NCc3ccc(C(=O)OCCOCCOCCOC(=O)c4ccc(-c5c6nc(c(-c7ccccc7)c7ccc([nH]7)c(-c7ccccc7)c7nc(c(-c8ccccc8)c8ccc5[nH]8)C=C7)C=C6)cc4)cc3)o2)c([N+](=O)[O-])c1
REMARK SMILES IDX 24 1 23 2 22 3 21 4 19 5 20 6 18 7 15 8 16 9 82 10 17 11
REMARK SMILES IDX 81 12 14 13 13 14 11 15 12 16 10 18 7 19 8 20 83 21 9 22
REMARK SMILES IDX 6 23 3 24 4 25 88 26 5 27 84 28 2 29 1 30 85 31 86 32 87 33
REMARK SMILES IDX 25 34 26 35 27 36 28 37 29 38 30 39 31 40 32 41 33 42 34 43
REMARK SMILES IDX 80 44 35 45 79 46 36 47 37 48 38 49 73 50 39 51 78 52 72 53
REMARK SMILES IDX 74 54 40 55 77 56 71 57 70 58 41 60 63 61 48 62 62 63 49 64
REMARK SMILES IDX 52 65 61 66 75 67 50 68 51 69 60 71 76 72 53 73 42 74 43 75
REMARK SMILES IDX 47 76 44 77 46 78 45 79 64 80 65 81 69 82 66 83 68 84 67 85
REMARK SMILES IDX 54 86 55 87 59 88 56 89 58 90 57 91
REMARK H PARENT 13 17 74 59 52 70
REMARK Flexibility Score: inf
ROOT
ATOM      1  O   UNL A   1      36.997  22.660  24.930  1.00  0.00    -0.376 OA
ENDROOT
BRANCH   1   2
ATOM      2  C   UNL A   1      36.618  22.575  23.563  1.00  0.00     0.202 C 
BRANCH   2   3
ATOM      3  C   UNL A   1      35.358  23.293  23.066  1.00  0.00     0.261 C 
BRANCH   3   4
ATOM      4  O   UNL A   1      34.974  22.945  21.726  1.00  0.00    -0.460 OA
BRANCH   4   5
ATOM      5  C   UNL A   1      33.686  23.222  21.407  1.00  0.00     0.338 C 
ATOM      6  O   UNL A   1      33.249  23.509  20.303  1.00  0.00    -0.246 OA
BRANCH   5   7
ATOM      7  C   UNL A   1      32.801  22.952  22.561  1.00  0.00     0.060 A 
ATOM      8  C   UNL A   1      31.103  22.609  24.774  1.00  0.00    -0.029 A 
ATOM      9  C   UNL A   1      30.966  23.726  23.938  1.00  0.00     0.006 A 
ATOM     10  C   UNL A   1      32.083  21.649  24.466  1.00  0.00     0.006 A 
ATOM     11  C   UNL A   1      31.811  23.899  22.843  1.00  0.00     0.016 A 
ATOM     12  C   UNL A   1      32.926  21.813  23.359  1.00  0.00     0.016 A 
BRANCH   8  13
ATOM     13  C   UNL A   1      30.280  22.494  26.034  1.00  0.00     0.152 C 
BRANCH  13  14
ATOM     14  N   UNL A   1      31.150  22.439  27.187  1.00  0.00    -0.345 N 
ATOM     15  C   UNL A   1      32.302  23.094  27.542  1.00  0.00     0.287 C 
ATOM     16  O   UNL A   1      32.767  22.762  28.637  1.00  0.00    -0.266 OA
ATOM     17  H   UNL A   1      30.852  21.791  27.865  1.00  0.00     0.164 HD
BRANCH  15  18
ATOM     18  C   UNL A   1      32.933  24.103  26.706  1.00  0.00     0.192 A 
ATOM     19  C   UNL A   1      32.885  26.043  25.622  1.00  0.00     0.142 A 
ATOM     20  C   UNL A   1      34.132  25.511  25.401  1.00  0.00     0.052 A 
ATOM     21  O   UNL A   1      32.167  25.218  26.427  1.00  0.00    -0.451 OA
ATOM     22  C   UNL A   1      34.163  24.274  26.093  1.00  0.00     0.057 A 
BRANCH  19  23
ATOM     23  C   UNL A   1      32.221  27.266  25.203  1.00  0.00     0.095 A 
ATOM     24  C   UNL A   1      30.686  29.534  24.466  1.00  0.00     0.125 A 
ATOM     25  C   UNL A   1      30.495  28.304  23.833  1.00  0.00     0.047 A 
ATOM     26  C   UNL A   1      31.659  29.645  25.456  1.00  0.00     0.132 A 
ATOM     27  C   UNL A   1      31.259  27.187  24.186  1.00  0.00     0.023 A 
ATOM     28  C   UNL A   1      32.420  28.515  25.814  1.00  0.00     0.284 A 
BRANCH  24  29
ATOM     29  O   UNL A   1      29.844  30.528  24.055  1.00  0.00    -0.497 OA
ATOM     30  C   UNL A   1      28.835  30.170  23.118  1.00  0.00     0.278 C 
ENDBRANCH  24  29
BRANCH  28  31
ATOM     31  N   UNL A   1      33.431  28.698  26.850  1.00  0.00     0.063 N 
ATOM     32  O   UNL A   1      33.086  28.582  28.033  1.00  0.00    -0.258 OA
ATOM     33  O   UNL A   1      34.589  28.924  26.469  1.00  0.00    -0.258 OA
ENDBRANCH  28  31
ENDBRANCH  19  23
ENDBRANCH  15  18
ENDBRANCH  13  14
ENDBRANCH   8  13
ENDBRANCH   5   7
ENDBRANCH   4   5
ENDBRANCH   3   4
ENDBRANCH   2   3
ENDBRANCH   1   2
BRANCH   1  34
ATOM     34  C   UNL A   1      37.995  21.792  25.442  1.00  0.00     0.188 C 
BRANCH  34  35
ATOM     35  C   UNL A   1      39.164  22.350  26.280  1.00  0.00     0.188 C 
BRANCH  35  36
ATOM     36  O   UNL A   1      40.025  21.416  26.883  1.00  0.00    -0.376 OA
BRANCH  36  37
ATOM     37  C   UNL A   1      41.137  20.875  26.191  1.00  0.00     0.202 C 
BRANCH  37  38
ATOM     38  C   UNL A   1      42.484  21.574  25.925  1.00  0.00     0.261 C 
BRANCH  38  39
ATOM     39  O   UNL A   1      42.472  22.899  25.399  1.00  0.00    -0.460 OA
BRANCH  39  40
ATOM     40  C   UNL A   1      43.470  23.706  25.826  1.00  0.00     0.338 C 
ATOM     41  O   UNL A   1      44.645  23.685  25.488  1.00  0.00    -0.246 OA
BRANCH  40  42
ATOM     42  C   UNL A   1      42.887  24.759  26.672  1.00  0.00     0.060 A 
ATOM     43  C   UNL A   1      43.465  26.034  26.648  1.00  0.00     0.016 A 
ATOM     44  C   UNL A   1      41.804  24.479  27.506  1.00  0.00     0.016 A 
ATOM     45  C   UNL A   1      42.971  27.034  27.484  1.00  0.00     0.010 A 
ATOM     46  C   UNL A   1      41.322  25.477  28.356  1.00  0.00     0.010 A 
ATOM     47  C   UNL A   1      41.921  26.749  28.367  1.00  0.00    -0.014 A 
BRANCH  47  48
ATOM     48  C   UNL A   1      41.558  27.724  29.421  1.00  0.00     0.031 A 
ATOM     49  C   UNL A   1      42.334  27.714  30.710  1.00  0.00     0.074 A 
ATOM     50  C   UNL A   1      40.562  28.609  29.240  1.00  0.00     0.049 A 
ATOM     51  N   UNL A   1      42.160  28.434  31.788  1.00  0.00    -0.248 NA
ATOM     52  C   UNL A   1      43.455  26.764  30.789  1.00  0.00     0.031 C 
ATOM     53  C   UNL A   1      39.765  28.751  28.023  1.00  0.00     0.029 A 
ATOM     54  N   UNL A   1      40.046  29.550  30.096  1.00  0.00    -0.354 N 
ATOM     55  C   UNL A   1      43.144  28.018  32.677  1.00  0.00     0.074 A 
ATOM     56  C   UNL A   1      43.894  26.969  32.022  1.00  0.00     0.031 C 
ATOM     57  C   UNL A   1      38.849  29.717  28.215  1.00  0.00     0.029 A 
ATOM     58  C   UNL A   1      38.974  30.233  29.578  1.00  0.00     0.049 A 
ATOM     59  H   UNL A   1      40.411  29.718  30.994  1.00  0.00     0.167 HD
ATOM     60  C   UNL A   1      43.401  28.470  33.927  1.00  0.00     0.031 A 
ATOM     61  C   UNL A   1      38.170  31.151  30.149  1.00  0.00     0.031 A 
ATOM     62  C   UNL A   1      42.642  29.494  34.590  1.00  0.00     0.049 A 
ATOM     63  C   UNL A   1      38.419  31.570  31.575  1.00  0.00     0.074 A 
ATOM     64  C   UNL A   1      42.831  30.027  35.854  1.00  0.00     0.029 A 
ATOM     65  N   UNL A   1      41.539  30.133  34.047  1.00  0.00    -0.354 N 
ATOM     66  N   UNL A   1      39.369  31.192  32.396  1.00  0.00    -0.248 NA
ATOM     67  C   UNL A   1      37.483  32.549  32.149  1.00  0.00     0.031 C 
ATOM     68  C   UNL A   1      41.808  30.949  36.097  1.00  0.00     0.029 A 
ATOM     69  C   UNL A   1      41.018  31.033  34.961  1.00  0.00     0.049 A 
ATOM     70  H   UNL A   1      41.178  29.970  33.146  1.00  0.00     0.167 HD
ATOM     71  C   UNL A   1      39.162  31.906  33.571  1.00  0.00     0.074 A 
ATOM     72  C   UNL A   1      38.006  32.749  33.351  1.00  0.00     0.031 C 
ATOM     73  C   UNL A   1      39.867  31.867  34.728  1.00  0.00     0.031 A 
BRANCH  60  74
ATOM     74  C   UNL A   1      44.533  27.822  34.672  1.00  0.00    -0.014 A 
ATOM     75  C   UNL A   1      45.838  28.334  34.606  1.00  0.00     0.009 A 
ATOM     76  C   UNL A   1      44.284  26.695  35.470  1.00  0.00     0.009 A 
ATOM     77  C   UNL A   1      46.877  27.709  35.299  1.00  0.00     0.001 A 
ATOM     78  C   UNL A   1      45.319  26.089  36.183  1.00  0.00     0.001 A 
ATOM     79  C   UNL A   1      46.617  26.591  36.090  1.00  0.00     0.000 A 
ENDBRANCH  60  74
BRANCH  61  80
ATOM     80  C   UNL A   1      37.030  31.722  29.388  1.00  0.00    -0.014 A 
ATOM     81  C   UNL A   1      37.171  32.927  28.683  1.00  0.00     0.009 A 
ATOM     82  C   UNL A   1      35.781  31.079  29.387  1.00  0.00     0.009 A 
ATOM     83  C   UNL A   1      36.080  33.490  28.017  1.00  0.00     0.001 A 
ATOM     84  C   UNL A   1      34.700  31.629  28.697  1.00  0.00     0.001 A 
ATOM     85  C   UNL A   1      34.847  32.839  28.021  1.00  0.00     0.000 A 
ENDBRANCH  61  80
BRANCH  73  86
ATOM     86  C   UNL A   1      39.436  32.792  35.833  1.00  0.00    -0.014 A 
ATOM     87  C   UNL A   1      38.511  32.385  36.807  1.00  0.00     0.009 A 
ATOM     88  C   UNL A   1      40.000  34.074  35.924  1.00  0.00     0.009 A 
ATOM     89  C   UNL A   1      38.136  33.257  37.832  1.00  0.00     0.001 A 
ATOM     90  C   UNL A   1      39.647  34.932  36.966  1.00  0.00     0.001 A 
ATOM     91  C   UNL A   1      38.709  34.527  37.913  1.00  0.00     0.000 A 
ENDBRANCH  73  86
ENDBRANCH  47  48
ENDBRANCH  40  42
ENDBRANCH  39  40
ENDBRANCH  38  39
ENDBRANCH  37  38
ENDBRANCH  36  37
ENDBRANCH  35  36
ENDBRANCH  34  35
ENDBRANCH   1  34
TORSDOF 23
ENDMDL
