MODEL 1
REMARK VINA RESULT:      -9.4      0.000      0.000
REMARK SMILES C[C@@H](C(=O)OCCOCCOCCOC(=O)c1ccc(-c2c3nc(c(-c4ccccc4)c4ccc([nH]4)c(-c4ccccc4)c4nc(c(-c5ccccc5)c5ccc2[nH]5)C=C4)C=C3)cc1)c1ccc(C[C@H]2CCC[C@H]2O)cc1
REMARK SMILES IDX 9 1 8 2 7 3 6 4 5 5 3 6 4 7 2 8 1 9 65 10 66 11 77 12 67 13
REMARK SMILES IDX 76 14 68 15 69 16 70 17 71 18 74 19 72 20 73 21 75 22 10 24
REMARK SMILES IDX 11 25 12 26 13 27 14 28 15 29 16 30 17 31 18 32 64 33 19 34
REMARK SMILES IDX 63 35 20 36 21 37 22 38 57 39 23 40 62 41 56 42 58 43 24 44
REMARK SMILES IDX 61 45 55 46 54 47 25 49 47 50 32 51 46 52 33 53 36 54 45 55
REMARK SMILES IDX 59 56 34 57 35 58 44 60 60 61 37 62 26 63 27 64 31 65 28 66
REMARK SMILES IDX 30 67 29 68 48 69 49 70 53 71 50 72 52 73 51 74 38 75 39 76
REMARK SMILES IDX 43 77 40 78 42 79 41 80
REMARK H PARENT 75 23 58 48 36 59
REMARK Flexibility Score: inf
ROOT
ATOM      1  C   UNL A   1      31.986  27.970  22.474  1.00  0.00     0.188 C 
ENDROOT
BRANCH   1   2
ATOM      2  O   UNL A   1      32.697  26.796  22.100  1.00  0.00    -0.376 OA
BRANCH   2   3
ATOM      3  C   UNL A   1      31.961  25.584  21.948  1.00  0.00     0.202 C 
BRANCH   3   4
ATOM      4  C   UNL A   1      32.080  24.520  23.049  1.00  0.00     0.261 C 
BRANCH   4   5
ATOM      5  O   UNL A   1      30.841  24.200  23.727  1.00  0.00    -0.463 OA
BRANCH   5   6
ATOM      6  C   UNL A   1      30.900  24.196  25.087  1.00  0.00     0.313 C 
ATOM      7  O   UNL A   1      31.112  25.208  25.754  1.00  0.00    -0.252 OA
BRANCH   6   8
ATOM      8  C   UNL A   1      30.678  22.817  25.750  1.00  0.00     0.126 C 
ATOM      9  C   UNL A   1      29.866  22.807  27.045  1.00  0.00     0.025 C 
BRANCH   8  10
ATOM     10  C   UNL A   1      31.995  22.036  25.793  1.00  0.00    -0.034 A 
ATOM     11  C   UNL A   1      33.000  22.253  26.744  1.00  0.00     0.005 A 
ATOM     12  C   UNL A   1      32.271  21.151  24.735  1.00  0.00     0.005 A 
ATOM     13  C   UNL A   1      34.287  21.737  26.544  1.00  0.00     0.004 A 
ATOM     14  C   UNL A   1      33.552  20.643  24.533  1.00  0.00     0.004 A 
ATOM     15  C   UNL A   1      34.596  21.030  25.375  1.00  0.00    -0.048 A 
BRANCH  15  16
ATOM     16  C   UNL A   1      36.032  20.894  24.922  1.00  0.00     0.041 C 
BRANCH  16  17
ATOM     17  C   UNL A   1      37.076  21.649  25.792  1.00  0.00     0.022 C 
ATOM     18  C   UNL A   1      38.491  21.059  25.777  1.00  0.00     0.007 C 
ATOM     19  C   UNL A   1      37.306  23.146  25.526  1.00  0.00     0.117 C 
ATOM     20  C   UNL A   1      39.433  22.180  26.212  1.00  0.00     0.003 C 
ATOM     21  C   UNL A   1      38.630  23.475  26.207  1.00  0.00     0.032 C 
BRANCH  19  22
ATOM     22  O   UNL A   1      37.452  23.521  24.171  1.00  0.00    -0.393 OA
ATOM     23  H   UNL A   1      36.576  23.623  23.767  1.00  0.00     0.210 HD
ENDBRANCH  19  22
ENDBRANCH  16  17
ENDBRANCH  15  16
ENDBRANCH   8  10
ENDBRANCH   6   8
ENDBRANCH   5   6
ENDBRANCH   4   5
ENDBRANCH   3   4
ENDBRANCH   2   3
ENDBRANCH   1   2
BRANCH   1  24
ATOM     24  C   UNL A   1      31.617  28.160  23.952  1.00  0.00     0.188 C 
BRANCH  24  25
ATOM     25  O   UNL A   1      30.743  29.245  24.196  1.00  0.00    -0.376 OA
BRANCH  25  26
ATOM     26  C   UNL A   1      31.130  30.167  25.202  1.00  0.00     0.202 C 
BRANCH  26  27
ATOM     27  C   UNL A   1      32.578  30.061  25.709  1.00  0.00     0.261 C 
BRANCH  27  28
ATOM     28  O   UNL A   1      32.784  30.372  27.099  1.00  0.00    -0.460 OA
BRANCH  28  29
ATOM     29  C   UNL A   1      33.488  31.493  27.378  1.00  0.00     0.338 C 
ATOM     30  O   UNL A   1      33.074  32.636  27.397  1.00  0.00    -0.246 OA
BRANCH  29  31
ATOM     31  C   UNL A   1      34.841  31.088  27.821  1.00  0.00     0.060 A 
ATOM     32  C   UNL A   1      35.103  29.736  28.060  1.00  0.00     0.016 A 
ATOM     33  C   UNL A   1      35.836  32.047  28.034  1.00  0.00     0.016 A 
ATOM     34  C   UNL A   1      36.360  29.344  28.529  1.00  0.00     0.010 A 
ATOM     35  C   UNL A   1      37.087  31.654  28.532  1.00  0.00     0.010 A 
ATOM     36  C   UNL A   1      37.352  30.303  28.801  1.00  0.00    -0.014 A 
BRANCH  36  37
ATOM     37  C   UNL A   1      38.596  29.878  29.497  1.00  0.00     0.031 A 
ATOM     38  C   UNL A   1      38.704  30.076  30.975  1.00  0.00     0.074 A 
ATOM     39  C   UNL A   1      39.619  29.302  28.843  1.00  0.00     0.049 A 
ATOM     40  N   UNL A   1      39.683  29.743  31.775  1.00  0.00    -0.248 NA
ATOM     41  C   UNL A   1      37.604  30.803  31.625  1.00  0.00     0.031 C 
ATOM     42  C   UNL A   1      39.708  29.167  27.401  1.00  0.00     0.029 A 
ATOM     43  N   UNL A   1      40.747  28.660  29.305  1.00  0.00    -0.354 N 
ATOM     44  C   UNL A   1      39.373  30.316  32.998  1.00  0.00     0.074 A 
ATOM     45  C   UNL A   1      38.076  30.948  32.854  1.00  0.00     0.031 C 
ATOM     46  C   UNL A   1      40.719  28.332  27.105  1.00  0.00     0.029 A 
ATOM     47  C   UNL A   1      41.389  27.929  28.330  1.00  0.00     0.049 A 
ATOM     48  H   UNL A   1      41.061  28.719  30.236  1.00  0.00     0.167 HD
ATOM     49  C   UNL A   1      40.144  30.379  34.108  1.00  0.00     0.031 A 
ATOM     50  C   UNL A   1      42.380  27.020  28.418  1.00  0.00     0.031 A 
ATOM     51  C   UNL A   1      41.446  29.778  34.227  1.00  0.00     0.049 A 
ATOM     52  C   UNL A   1      43.110  26.914  29.725  1.00  0.00     0.074 A 
ATOM     53  C   UNL A   1      42.335  29.837  35.286  1.00  0.00     0.029 A 
ATOM     54  N   UNL A   1      42.047  29.000  33.247  1.00  0.00    -0.354 N 
ATOM     55  N   UNL A   1      42.834  27.497  30.865  1.00  0.00    -0.248 NA
ATOM     56  C   UNL A   1      44.341  26.110  29.737  1.00  0.00     0.031 C 
ATOM     57  C   UNL A   1      43.486  29.120  34.934  1.00  0.00     0.029 A 
ATOM     58  C   UNL A   1      43.290  28.568  33.679  1.00  0.00     0.049 A 
ATOM     59  H   UNL A   1      41.647  28.784  32.373  1.00  0.00     0.167 HD
ATOM     60  C   UNL A   1      43.899  27.204  31.702  1.00  0.00     0.074 A 
ATOM     61  C   UNL A   1      44.770  26.301  30.976  1.00  0.00     0.031 C 
ATOM     62  C   UNL A   1      44.163  27.698  32.935  1.00  0.00     0.031 A 
BRANCH  49  63
ATOM     63  C   UNL A   1      39.636  31.243  35.225  1.00  0.00    -0.014 A 
ATOM     64  C   UNL A   1      38.607  30.823  36.080  1.00  0.00     0.009 A 
ATOM     65  C   UNL A   1      40.183  32.526  35.393  1.00  0.00     0.009 A 
ATOM     66  C   UNL A   1      38.108  31.690  37.056  1.00  0.00     0.001 A 
ATOM     67  C   UNL A   1      39.702  33.377  36.387  1.00  0.00     0.001 A 
ATOM     68  C   UNL A   1      38.656  32.963  37.210  1.00  0.00     0.000 A 
ENDBRANCH  49  63
BRANCH  50  69
ATOM     69  C   UNL A   1      42.764  26.151  27.265  1.00  0.00    -0.014 A 
ATOM     70  C   UNL A   1      43.830  26.533  26.430  1.00  0.00     0.009 A 
ATOM     71  C   UNL A   1      42.084  24.960  26.969  1.00  0.00     0.009 A 
ATOM     72  C   UNL A   1      44.194  25.755  25.326  1.00  0.00     0.001 A 
ATOM     73  C   UNL A   1      42.479  24.159  25.893  1.00  0.00     0.001 A 
ATOM     74  C   UNL A   1      43.527  24.561  25.066  1.00  0.00     0.000 A 
ENDBRANCH  50  69
BRANCH  62  75
ATOM     75  C   UNL A   1      45.476  27.307  33.545  1.00  0.00    -0.014 A 
ATOM     76  C   UNL A   1      46.648  28.023  33.244  1.00  0.00     0.009 A 
ATOM     77  C   UNL A   1      45.545  26.228  34.436  1.00  0.00     0.009 A 
ATOM     78  C   UNL A   1      47.870  27.642  33.797  1.00  0.00     0.001 A 
ATOM     79  C   UNL A   1      46.766  25.863  35.006  1.00  0.00     0.001 A 
ATOM     80  C   UNL A   1      47.927  26.563  34.680  1.00  0.00     0.000 A 
ENDBRANCH  62  75
ENDBRANCH  36  37
ENDBRANCH  29  31
ENDBRANCH  28  29
ENDBRANCH  27  28
ENDBRANCH  26  27
ENDBRANCH  25  26
ENDBRANCH  24  25
ENDBRANCH   1  24
TORSDOF 21
ENDMDL
MODEL 2
REMARK VINA RESULT:      -9.2      1.965      4.714
REMARK SMILES C[C@@H](C(=O)OCCOCCOCCOC(=O)c1ccc(-c2c3nc(c(-c4ccccc4)c4ccc([nH]4)c(-c4ccccc4)c4nc(c(-c5ccccc5)c5ccc2[nH]5)C=C4)C=C3)cc1)c1ccc(C[C@H]2CCC[C@H]2O)cc1
REMARK SMILES IDX 9 1 8 2 7 3 6 4 5 5 3 6 4 7 2 8 1 9 65 10 66 11 77 12 67 13
REMARK SMILES IDX 76 14 68 15 69 16 70 17 71 18 74 19 72 20 73 21 75 22 10 24
REMARK SMILES IDX 11 25 12 26 13 27 14 28 15 29 16 30 17 31 18 32 64 33 19 34
REMARK SMILES IDX 63 35 20 36 21 37 22 38 57 39 23 40 62 41 56 42 58 43 24 44
REMARK SMILES IDX 61 45 55 46 54 47 25 49 47 50 32 51 46 52 33 53 36 54 45 55
REMARK SMILES IDX 59 56 34 57 35 58 44 60 60 61 37 62 26 63 27 64 31 65 28 66
REMARK SMILES IDX 30 67 29 68 48 69 49 70 53 71 50 72 52 73 51 74 38 75 39 76
REMARK SMILES IDX 43 77 40 78 42 79 41 80
REMARK H PARENT 75 23 58 48 36 59
REMARK Flexibility Score: inf
ROOT
ATOM      1  C   UNL A   1      33.173  25.921  26.461  1.00  0.00     0.188 C 
ENDROOT
BRANCH   1   2
ATOM      2  O   UNL A   1      34.186  25.777  25.472  1.00  0.00    -0.376 OA
BRANCH   2   3
ATOM      3  C   UNL A   1      34.973  24.587  25.483  1.00  0.00     0.202 C 
BRANCH   3   4
ATOM      4  C   UNL A   1      34.318  23.290  25.978  1.00  0.00     0.261 C 
BRANCH   4   5
ATOM      5  O   UNL A   1      33.760  22.450  24.938  1.00  0.00    -0.463 OA
BRANCH   5   6
ATOM      6  C   UNL A   1      32.400  22.405  24.884  1.00  0.00     0.313 C 
ATOM      7  O   UNL A   1      31.701  22.051  25.832  1.00  0.00    -0.252 OA
BRANCH   6   8
ATOM      8  C   UNL A   1      31.782  22.835  23.533  1.00  0.00     0.126 C 
ATOM      9  C   UNL A   1      32.456  22.290  22.273  1.00  0.00     0.025 C 
BRANCH   8  10
ATOM     10  C   UNL A   1      31.510  24.342  23.534  1.00  0.00    -0.034 A 
ATOM     11  C   UNL A   1      30.362  24.926  24.083  1.00  0.00     0.005 A 
ATOM     12  C   UNL A   1      32.393  25.171  22.820  1.00  0.00     0.005 A 
ATOM     13  C   UNL A   1      30.027  26.253  23.778  1.00  0.00     0.004 A 
ATOM     14  C   UNL A   1      32.058  26.488  22.512  1.00  0.00     0.004 A 
ATOM     15  C   UNL A   1      30.817  26.999  22.893  1.00  0.00    -0.048 A 
BRANCH  15  16
ATOM     16  C   UNL A   1      30.240  28.207  22.191  1.00  0.00     0.041 C 
BRANCH  16  17
ATOM     17  C   UNL A   1      29.295  29.088  23.054  1.00  0.00     0.022 C 
ATOM     18  C   UNL A   1      29.891  30.418  23.530  1.00  0.00     0.007 C 
ATOM     19  C   UNL A   1      27.932  29.494  22.468  1.00  0.00     0.117 C 
ATOM     20  C   UNL A   1      28.711  31.328  23.866  1.00  0.00     0.003 C 
ATOM     21  C   UNL A   1      27.453  30.654  23.333  1.00  0.00     0.032 C 
BRANCH  19  22
ATOM     22  O   UNL A   1      27.945  29.968  21.136  1.00  0.00    -0.393 OA
ATOM     23  H   UNL A   1      27.875  30.935  21.137  1.00  0.00     0.210 HD
ENDBRANCH  19  22
ENDBRANCH  16  17
ENDBRANCH  15  16
ENDBRANCH   8  10
ENDBRANCH   6   8
ENDBRANCH   5   6
ENDBRANCH   4   5
ENDBRANCH   3   4
ENDBRANCH   2   3
ENDBRANCH   1   2
BRANCH   1  24
ATOM     24  C   UNL A   1      32.221  27.121  26.359  1.00  0.00     0.188 C 
BRANCH  24  25
ATOM     25  O   UNL A   1      32.668  28.274  27.048  1.00  0.00    -0.376 OA
BRANCH  25  26
ATOM     26  C   UNL A   1      32.002  29.492  26.757  1.00  0.00     0.202 C 
BRANCH  26  27
ATOM     27  C   UNL A   1      32.830  30.779  26.905  1.00  0.00     0.261 C 
BRANCH  27  28
ATOM     28  O   UNL A   1      34.217  30.602  27.246  1.00  0.00    -0.460 OA
BRANCH  28  29
ATOM     29  C   UNL A   1      34.829  31.631  27.876  1.00  0.00     0.338 C 
ATOM     30  O   UNL A   1      34.424  32.772  27.985  1.00  0.00    -0.246 OA
BRANCH  29  31
ATOM     31  C   UNL A   1      36.027  31.101  28.564  1.00  0.00     0.060 A 
ATOM     32  C   UNL A   1      37.186  31.881  28.612  1.00  0.00     0.016 A 
ATOM     33  C   UNL A   1      36.016  29.821  29.127  1.00  0.00     0.016 A 
ATOM     34  C   UNL A   1      38.342  31.373  29.211  1.00  0.00     0.010 A 
ATOM     35  C   UNL A   1      37.185  29.302  29.702  1.00  0.00     0.010 A 
ATOM     36  C   UNL A   1      38.361  30.067  29.732  1.00  0.00    -0.014 A 
BRANCH  36  37
ATOM     37  C   UNL A   1      39.658  29.482  30.167  1.00  0.00     0.031 A 
ATOM     38  C   UNL A   1      40.197  29.835  31.516  1.00  0.00     0.074 A 
ATOM     39  C   UNL A   1      40.351  28.628  29.394  1.00  0.00     0.049 A 
ATOM     40  N   UNL A   1      41.287  29.407  32.098  1.00  0.00    -0.248 NA
ATOM     41  C   UNL A   1      39.455  30.851  32.277  1.00  0.00     0.031 C 
ATOM     42  C   UNL A   1      40.019  28.300  28.021  1.00  0.00     0.029 A 
ATOM     43  N   UNL A   1      41.438  27.828  29.671  1.00  0.00    -0.354 N 
ATOM     44  C   UNL A   1      41.424  30.180  33.240  1.00  0.00     0.074 A 
ATOM     45  C   UNL A   1      40.263  31.045  33.309  1.00  0.00     0.031 C 
ATOM     46  C   UNL A   1      40.755  27.242  27.637  1.00  0.00     0.029 A 
ATOM     47  C   UNL A   1      41.656  26.864  28.712  1.00  0.00     0.049 A 
ATOM     48  H   UNL A   1      41.999  27.936  30.472  1.00  0.00     0.167 HD
ATOM     49  C   UNL A   1      42.469  30.219  34.100  1.00  0.00     0.031 A 
ATOM     50  C   UNL A   1      42.466  25.786  28.713  1.00  0.00     0.031 A 
ATOM     51  C   UNL A   1      43.633  29.379  34.000  1.00  0.00     0.049 A 
ATOM     52  C   UNL A   1      43.496  25.695  29.800  1.00  0.00     0.074 A 
ATOM     53  C   UNL A   1      44.774  29.383  34.783  1.00  0.00     0.029 A 
ATOM     54  N   UNL A   1      43.803  28.377  33.055  1.00  0.00    -0.354 N 
ATOM     55  N   UNL A   1      43.645  26.460  30.853  1.00  0.00    -0.248 NA
ATOM     56  C   UNL A   1      44.530  24.659  29.651  1.00  0.00     0.031 C 
ATOM     57  C   UNL A   1      45.647  28.404  34.292  1.00  0.00     0.029 A 
ATOM     58  C   UNL A   1      45.026  27.753  33.238  1.00  0.00     0.049 A 
ATOM     59  H   UNL A   1      43.149  28.143  32.356  1.00  0.00     0.167 HD
ATOM     60  C   UNL A   1      44.833  26.057  31.442  1.00  0.00     0.074 A 
ATOM     61  C   UNL A   1      45.307  24.910  30.695  1.00  0.00     0.031 C 
ATOM     62  C   UNL A   1      45.503  26.635  32.467  1.00  0.00     0.031 A 
BRANCH  49  63
ATOM     63  C   UNL A   1      42.438  31.301  35.138  1.00  0.00    -0.014 A 
ATOM     64  C   UNL A   1      42.796  32.624  34.843  1.00  0.00     0.009 A 
ATOM     65  C   UNL A   1      42.078  30.970  36.455  1.00  0.00     0.009 A 
ATOM     66  C   UNL A   1      42.832  33.585  35.857  1.00  0.00     0.001 A 
ATOM     67  C   UNL A   1      42.086  31.937  37.458  1.00  0.00     0.001 A 
ATOM     68  C   UNL A   1      42.476  33.242  37.160  1.00  0.00     0.000 A 
ENDBRANCH  49  63
BRANCH  50  69
ATOM     69  C   UNL A   1      42.368  24.721  27.671  1.00  0.00    -0.014 A 
ATOM     70  C   UNL A   1      41.513  23.622  27.878  1.00  0.00     0.009 A 
ATOM     71  C   UNL A   1      43.117  24.764  26.486  1.00  0.00     0.009 A 
ATOM     72  C   UNL A   1      41.421  22.594  26.934  1.00  0.00     0.001 A 
ATOM     73  C   UNL A   1      42.989  23.759  25.522  1.00  0.00     0.001 A 
ATOM     74  C   UNL A   1      42.150  22.670  25.750  1.00  0.00     0.000 A 
ENDBRANCH  50  69
BRANCH  62  75
ATOM     75  C   UNL A   1      46.848  26.057  32.797  1.00  0.00    -0.014 A 
ATOM     76  C   UNL A   1      46.970  25.022  33.740  1.00  0.00     0.009 A 
ATOM     77  C   UNL A   1      47.997  26.538  32.156  1.00  0.00     0.009 A 
ATOM     78  C   UNL A   1      48.225  24.503  34.059  1.00  0.00     0.001 A 
ATOM     79  C   UNL A   1      49.249  26.000  32.461  1.00  0.00     0.001 A 
ATOM     80  C   UNL A   1      49.362  24.991  33.417  1.00  0.00     0.000 A 
ENDBRANCH  62  75
ENDBRANCH  36  37
ENDBRANCH  29  31
ENDBRANCH  28  29
ENDBRANCH  27  28
ENDBRANCH  26  27
ENDBRANCH  25  26
ENDBRANCH  24  25
ENDBRANCH   1  24
TORSDOF 21
ENDMDL
MODEL 3
REMARK VINA RESULT:      -9.2      2.011      7.325
REMARK SMILES C[C@@H](C(=O)OCCOCCOCCOC(=O)c1ccc(-c2c3nc(c(-c4ccccc4)c4ccc([nH]4)c(-c4ccccc4)c4nc(c(-c5ccccc5)c5ccc2[nH]5)C=C4)C=C3)cc1)c1ccc(C[C@H]2CCC[C@H]2O)cc1
REMARK SMILES IDX 9 1 8 2 7 3 6 4 5 5 3 6 4 7 2 8 1 9 65 10 66 11 77 12 67 13
REMARK SMILES IDX 76 14 68 15 69 16 70 17 71 18 74 19 72 20 73 21 75 22 10 24
REMARK SMILES IDX 11 25 12 26 13 27 14 28 15 29 16 30 17 31 18 32 64 33 19 34
REMARK SMILES IDX 63 35 20 36 21 37 22 38 57 39 23 40 62 41 56 42 58 43 24 44
REMARK SMILES IDX 61 45 55 46 54 47 25 49 47 50 32 51 46 52 33 53 36 54 45 55
REMARK SMILES IDX 59 56 34 57 35 58 44 60 60 61 37 62 26 63 27 64 31 65 28 66
REMARK SMILES IDX 30 67 29 68 48 69 49 70 53 71 50 72 52 73 51 74 38 75 39 76
REMARK SMILES IDX 43 77 40 78 42 79 41 80
REMARK H PARENT 75 23 58 48 36 59
REMARK Flexibility Score: inf
ROOT
ATOM      1  C   UNL A   1      32.673  25.989  26.595  1.00  0.00     0.188 C 
ENDROOT
BRANCH   1   2
ATOM      2  O   UNL A   1      33.712  25.875  25.629  1.00  0.00    -0.376 OA
BRANCH   2   3
ATOM      3  C   UNL A   1      34.569  24.737  25.695  1.00  0.00     0.202 C 
BRANCH   3   4
ATOM      4  C   UNL A   1      33.939  23.372  26.007  1.00  0.00     0.261 C 
BRANCH   4   5
ATOM      5  O   UNL A   1      33.605  22.572  24.847  1.00  0.00    -0.463 OA
BRANCH   5   6
ATOM      6  C   UNL A   1      32.278  22.320  24.669  1.00  0.00     0.313 C 
ATOM      7  O   UNL A   1      31.583  21.750  25.509  1.00  0.00    -0.252 OA
BRANCH   6   8
ATOM      8  C   UNL A   1      31.693  22.805  23.322  1.00  0.00     0.126 C 
ATOM      9  C   UNL A   1      32.379  22.287  22.057  1.00  0.00     0.025 C 
BRANCH   8  10
ATOM     10  C   UNL A   1      31.450  24.316  23.367  1.00  0.00    -0.034 A 
ATOM     11  C   UNL A   1      30.318  24.907  23.940  1.00  0.00     0.005 A 
ATOM     12  C   UNL A   1      32.344  25.148  22.668  1.00  0.00     0.005 A 
ATOM     13  C   UNL A   1      30.007  26.248  23.675  1.00  0.00     0.004 A 
ATOM     14  C   UNL A   1      32.032  26.479  22.400  1.00  0.00     0.004 A 
ATOM     15  C   UNL A   1      30.804  27.002  22.805  1.00  0.00    -0.048 A 
BRANCH  15  16
ATOM     16  C   UNL A   1      30.245  28.241  22.141  1.00  0.00     0.041 C 
BRANCH  16  17
ATOM     17  C   UNL A   1      29.277  29.083  23.016  1.00  0.00     0.022 C 
ATOM     18  C   UNL A   1      29.836  30.422  23.511  1.00  0.00     0.007 C 
ATOM     19  C   UNL A   1      27.903  29.460  22.435  1.00  0.00     0.117 C 
ATOM     20  C   UNL A   1      28.632  31.295  23.860  1.00  0.00     0.003 C 
ATOM     21  C   UNL A   1      27.393  30.594  23.316  1.00  0.00     0.032 C 
BRANCH  19  22
ATOM     22  O   UNL A   1      27.902  29.953  21.110  1.00  0.00    -0.393 OA
ATOM     23  H   UNL A   1      27.789  30.916  21.124  1.00  0.00     0.210 HD
ENDBRANCH  19  22
ENDBRANCH  16  17
ENDBRANCH  15  16
ENDBRANCH   8  10
ENDBRANCH   6   8
ENDBRANCH   5   6
ENDBRANCH   4   5
ENDBRANCH   3   4
ENDBRANCH   2   3
ENDBRANCH   1   2
BRANCH   1  24
ATOM     24  C   UNL A   1      31.846  27.282  26.627  1.00  0.00     0.188 C 
BRANCH  24  25
ATOM     25  O   UNL A   1      32.495  28.369  27.259  1.00  0.00    -0.376 OA
BRANCH  25  26
ATOM     26  C   UNL A   1      31.971  29.663  27.007  1.00  0.00     0.202 C 
BRANCH  26  27
ATOM     27  C   UNL A   1      32.978  30.824  27.016  1.00  0.00     0.261 C 
BRANCH  27  28
ATOM     28  O   UNL A   1      34.327  30.488  27.387  1.00  0.00    -0.460 OA
BRANCH  28  29
ATOM     29  C   UNL A   1      35.130  31.508  27.767  1.00  0.00     0.338 C 
ATOM     30  O   UNL A   1      34.932  32.697  27.613  1.00  0.00    -0.246 OA
BRANCH  29  31
ATOM     31  C   UNL A   1      36.245  30.944  28.561  1.00  0.00     0.060 A 
ATOM     32  C   UNL A   1      37.448  31.649  28.642  1.00  0.00     0.016 A 
ATOM     33  C   UNL A   1      36.111  29.703  29.191  1.00  0.00     0.016 A 
ATOM     34  C   UNL A   1      38.528  31.104  29.343  1.00  0.00     0.010 A 
ATOM     35  C   UNL A   1      37.205  29.145  29.870  1.00  0.00     0.010 A 
ATOM     36  C   UNL A   1      38.425  29.833  29.935  1.00  0.00    -0.014 A 
BRANCH  36  37
ATOM     37  C   UNL A   1      39.650  29.192  30.486  1.00  0.00     0.031 A 
ATOM     38  C   UNL A   1      40.402  28.215  29.639  1.00  0.00     0.074 A 
ATOM     39  C   UNL A   1      40.115  29.479  31.715  1.00  0.00     0.049 A 
ATOM     40  N   UNL A   1      41.508  27.576  29.916  1.00  0.00    -0.248 NA
ATOM     41  C   UNL A   1      39.795  27.859  28.349  1.00  0.00     0.031 C 
ATOM     42  C   UNL A   1      39.423  30.301  32.690  1.00  0.00     0.029 A 
ATOM     43  N   UNL A   1      41.308  29.170  32.329  1.00  0.00    -0.354 N 
ATOM     44  C   UNL A   1      41.673  26.661  28.889  1.00  0.00     0.074 A 
ATOM     45  C   UNL A   1      40.597  26.885  27.944  1.00  0.00     0.031 C 
ATOM     46  C   UNL A   1      40.269  30.587  33.694  1.00  0.00     0.029 A 
ATOM     47  C   UNL A   1      41.537  29.914  33.466  1.00  0.00     0.049 A 
ATOM     48  H   UNL A   1      41.932  28.489  31.990  1.00  0.00     0.167 HD
ATOM     49  C   UNL A   1      42.591  25.671  28.794  1.00  0.00     0.031 A 
ATOM     50  C   UNL A   1      42.646  30.057  34.219  1.00  0.00     0.031 A 
ATOM     51  C   UNL A   1      43.633  25.436  29.758  1.00  0.00     0.049 A 
ATOM     52  C   UNL A   1      43.777  29.101  33.975  1.00  0.00     0.074 A 
ATOM     53  C   UNL A   1      44.574  24.422  29.787  1.00  0.00     0.029 A 
ATOM     54  N   UNL A   1      43.874  26.234  30.868  1.00  0.00    -0.354 N 
ATOM     55  N   UNL A   1      43.902  28.207  33.025  1.00  0.00    -0.248 NA
ATOM     56  C   UNL A   1      44.871  29.100  34.957  1.00  0.00     0.031 C 
ATOM     57  C   UNL A   1      45.365  24.589  30.931  1.00  0.00     0.029 A 
ATOM     58  C   UNL A   1      44.952  25.739  31.584  1.00  0.00     0.049 A 
ATOM     59  H   UNL A   1      43.356  27.036  31.110  1.00  0.00     0.167 HD
ATOM     60  C   UNL A   1      45.038  27.480  33.345  1.00  0.00     0.074 A 
ATOM     61  C   UNL A   1      45.627  28.108  34.510  1.00  0.00     0.031 C 
ATOM     62  C   UNL A   1      45.508  26.352  32.762  1.00  0.00     0.031 A 
BRANCH  49  63
ATOM     63  C   UNL A   1      42.407  24.696  27.669  1.00  0.00    -0.014 A 
ATOM     64  C   UNL A   1      41.565  23.581  27.781  1.00  0.00     0.009 A 
ATOM     65  C   UNL A   1      43.131  24.887  26.480  1.00  0.00     0.009 A 
ATOM     66  C   UNL A   1      41.484  22.654  26.739  1.00  0.00     0.001 A 
ATOM     67  C   UNL A   1      43.026  23.975  25.430  1.00  0.00     0.001 A 
ATOM     68  C   UNL A   1      42.211  22.852  25.566  1.00  0.00     0.000 A 
ENDBRANCH  49  63
BRANCH  50  69
ATOM     69  C   UNL A   1      42.760  31.111  35.270  1.00  0.00    -0.014 A 
ATOM     70  C   UNL A   1      42.341  30.832  36.584  1.00  0.00     0.009 A 
ATOM     71  C   UNL A   1      43.261  32.392  34.992  1.00  0.00     0.009 A 
ATOM     72  C   UNL A   1      42.410  31.808  37.584  1.00  0.00     0.001 A 
ATOM     73  C   UNL A   1      43.372  33.352  36.003  1.00  0.00     0.001 A 
ATOM     74  C   UNL A   1      42.938  33.063  37.296  1.00  0.00     0.000 A 
ENDBRANCH  50  69
BRANCH  62  75
ATOM     75  C   UNL A   1      46.689  25.701  33.419  1.00  0.00    -0.014 A 
ATOM     76  C   UNL A   1      46.507  24.738  34.426  1.00  0.00     0.009 A 
ATOM     77  C   UNL A   1      47.990  26.039  33.024  1.00  0.00     0.009 A 
ATOM     78  C   UNL A   1      47.609  24.152  35.049  1.00  0.00     0.001 A 
ATOM     79  C   UNL A   1      49.090  25.434  33.633  1.00  0.00     0.001 A 
ATOM     80  C   UNL A   1      48.899  24.499  34.650  1.00  0.00     0.000 A 
ENDBRANCH  62  75
ENDBRANCH  36  37
ENDBRANCH  29  31
ENDBRANCH  28  29
ENDBRANCH  27  28
ENDBRANCH  26  27
ENDBRANCH  25  26
ENDBRANCH  24  25
ENDBRANCH   1  24
TORSDOF 21
ENDMDL
