MODEL 1
REMARK VINA RESULT:     -10.6      0.000      0.000
REMARK SMILES CCCC(=O)N(c1cc2sc(=O)oc2c2ccccc12)S(=O)(=O)c1ccc(C(=O)OCCOCCOCCOC(=O)c2ccc(-c3c4nc(c(-c5ccccc5)c5ccc([nH]5)c(-c5ccccc5)c5nc(c(-c6ccccc6)c6ccc3[nH]6)C=C5)C=C4)cc2)cc1
REMARK SMILES IDX 33 1 32 2 31 3 30 4 28 5 29 6 27 7 24 8 25 9 91 10 26 11
REMARK SMILES IDX 90 12 21 13 22 14 23 15 6 16 4 17 5 18 3 19 2 20 1 21 7 22
REMARK SMILES IDX 8 23 20 24 9 25 15 26 19 27 10 28 14 29 16 30 18 31 11 32
REMARK SMILES IDX 13 33 17 34 12 35 34 36 35 37 36 38 37 39 38 40 39 41 40 42
REMARK SMILES IDX 41 43 42 44 43 45 89 46 44 47 88 48 45 49 46 50 47 51 82 52
REMARK SMILES IDX 48 53 87 54 81 55 83 56 49 57 86 58 80 59 79 60 50 62 72 63
REMARK SMILES IDX 57 64 71 65 58 66 61 67 70 68 84 69 59 70 60 71 69 73 85 74
REMARK SMILES IDX 62 75 51 76 52 77 56 78 53 79 55 80 54 81 73 82 74 83 78 84
REMARK SMILES IDX 75 85 77 86 76 87 63 88 64 89 68 90 65 91 67 92 66 93
REMARK H PARENT 83 61 61 72
REMARK Flexibility Score: inf
ROOT
ATOM      1  O   UNL A   1      39.971  21.300  26.962  1.00  0.00    -0.376 OA
ENDROOT
BRANCH   1   2
ATOM      2  C   UNL A   1      38.965  21.646  26.024  1.00  0.00     0.202 C 
BRANCH   2   3
ATOM      3  C   UNL A   1      37.963  20.632  25.446  1.00  0.00     0.261 C 
BRANCH   3   4
ATOM      4  O   UNL A   1      37.014  21.161  24.508  1.00  0.00    -0.460 OA
BRANCH   4   5
ATOM      5  C   UNL A   1      35.830  21.545  25.056  1.00  0.00     0.338 C 
ATOM      6  O   UNL A   1      35.405  21.242  26.159  1.00  0.00    -0.246 OA
BRANCH   5   7
ATOM      7  C   UNL A   1      35.182  22.582  24.217  1.00  0.00     0.060 A 
ATOM      8  C   UNL A   1      33.896  24.619  22.798  1.00  0.00     0.088 A 
ATOM      9  C   UNL A   1      34.778  24.952  23.828  1.00  0.00     0.023 A 
ATOM     10  C   UNL A   1      33.686  23.271  22.450  1.00  0.00     0.023 A 
ATOM     11  C   UNL A   1      35.422  23.931  24.533  1.00  0.00     0.017 A 
ATOM     12  C   UNL A   1      34.335  22.252  23.156  1.00  0.00     0.017 A 
BRANCH   8  13
ATOM     13  S   UNL A   1      32.812  25.873  22.116  1.00  0.00     0.270 S 
ATOM     14  O   UNL A   1      32.160  25.229  20.995  1.00  0.00    -0.201 OA
ATOM     15  O   UNL A   1      33.638  27.052  21.930  1.00  0.00    -0.201 OA
BRANCH  13  16
ATOM     16  N   UNL A   1      31.641  26.284  23.266  1.00  0.00    -0.202 N 
BRANCH  16  17
ATOM     17  C   UNL A   1      30.906  25.199  23.858  1.00  0.00     0.241 C 
ATOM     18  O   UNL A   1      30.099  24.549  23.197  1.00  0.00    -0.273 OA
BRANCH  17  19
ATOM     19  C   UNL A   1      31.068  24.873  25.338  1.00  0.00     0.101 C 
BRANCH  19  20
ATOM     20  C   UNL A   1      31.730  23.524  25.616  1.00  0.00     0.006 C 
ATOM     21  C   UNL A   1      32.590  23.555  26.872  1.00  0.00     0.004 C 
ENDBRANCH  19  20
ENDBRANCH  17  19
ENDBRANCH  16  17
BRANCH  16  22
ATOM     22  C   UNL A   1      31.141  27.623  23.385  1.00  0.00     0.070 A 
ATOM     23  C   UNL A   1      30.047  28.031  22.612  1.00  0.00     0.051 A 
ATOM     24  C   UNL A   1      31.675  28.467  24.416  1.00  0.00     0.010 A 
ATOM     25  C   UNL A   1      29.481  29.269  22.866  1.00  0.00     0.080 A 
ATOM     26  C   UNL A   1      31.058  29.718  24.676  1.00  0.00     0.028 A 
ATOM     27  C   UNL A   1      32.747  28.083  25.255  1.00  0.00     0.011 A 
ATOM     28  S   UNL A   1      28.024  29.942  22.159  1.00  0.00    -0.052 S 
ATOM     29  C   UNL A   1      29.967  30.089  23.880  1.00  0.00     0.157 A 
ATOM     30  C   UNL A   1      31.487  30.501  25.767  1.00  0.00     0.013 A 
ATOM     31  C   UNL A   1      33.114  28.840  26.370  1.00  0.00     0.001 A 
ATOM     32  C   UNL A   1      28.062  31.206  23.400  1.00  0.00     0.396 A 
ATOM     33  O   UNL A   1      29.232  31.250  24.157  1.00  0.00    -0.413 OA
ATOM     34  C   UNL A   1      32.488  30.051  26.624  1.00  0.00     0.001 A 
ATOM     35  O   UNL A   1      27.097  31.920  23.634  1.00  0.00    -0.233 OA
ENDBRANCH  16  22
ENDBRANCH  13  16
ENDBRANCH   8  13
ENDBRANCH   5   7
ENDBRANCH   4   5
ENDBRANCH   3   4
ENDBRANCH   2   3
ENDBRANCH   1   2
BRANCH   1  36
ATOM     36  C   UNL A   1      40.810  20.196  26.724  1.00  0.00     0.188 C 
BRANCH  36  37
ATOM     37  C   UNL A   1      42.329  20.393  26.548  1.00  0.00     0.188 C 
BRANCH  37  38
ATOM     38  O   UNL A   1      42.969  19.909  25.383  1.00  0.00    -0.376 OA
BRANCH  38  39
ATOM     39  C   UNL A   1      44.320  20.303  25.147  1.00  0.00     0.202 C 
BRANCH  39  40
ATOM     40  C   UNL A   1      44.600  21.627  24.425  1.00  0.00     0.261 C 
BRANCH  40  41
ATOM     41  O   UNL A   1      44.404  22.768  25.280  1.00  0.00    -0.460 OA
BRANCH  41  42
ATOM     42  C   UNL A   1      45.512  23.267  25.879  1.00  0.00     0.338 C 
ATOM     43  O   UNL A   1      46.640  22.804  25.864  1.00  0.00    -0.246 OA
BRANCH  42  44
ATOM     44  C   UNL A   1      45.209  24.624  26.346  1.00  0.00     0.060 A 
ATOM     45  C   UNL A   1      43.930  24.957  26.780  1.00  0.00     0.016 A 
ATOM     46  C   UNL A   1      46.205  25.599  26.223  1.00  0.00     0.016 A 
ATOM     47  C   UNL A   1      43.633  26.295  27.026  1.00  0.00     0.010 A 
ATOM     48  C   UNL A   1      45.883  26.940  26.402  1.00  0.00     0.010 A 
ATOM     49  C   UNL A   1      44.589  27.304  26.793  1.00  0.00    -0.014 A 
BRANCH  49  50
ATOM     50  C   UNL A   1      44.221  28.711  27.059  1.00  0.00     0.031 A 
ATOM     51  C   UNL A   1      42.770  29.004  27.317  1.00  0.00     0.074 A 
ATOM     52  C   UNL A   1      45.123  29.561  27.593  1.00  0.00     0.049 A 
ATOM     53  N   UNL A   1      42.194  28.949  28.486  1.00  0.00    -0.248 NA
ATOM     54  C   UNL A   1      41.828  29.123  26.202  1.00  0.00     0.031 C 
ATOM     55  C   UNL A   1      46.034  29.212  28.691  1.00  0.00     0.029 A 
ATOM     56  N   UNL A   1      45.268  30.918  27.443  1.00  0.00    -0.354 N 
ATOM     57  C   UNL A   1      40.824  29.022  28.272  1.00  0.00     0.074 A 
ATOM     58  C   UNL A   1      40.649  29.120  26.839  1.00  0.00     0.031 C 
ATOM     59  C   UNL A   1      46.520  30.351  29.223  1.00  0.00     0.029 A 
ATOM     60  C   UNL A   1      46.071  31.490  28.425  1.00  0.00     0.049 A 
ATOM     61  H   UNL A   1      44.848  31.432  26.716  1.00  0.00     0.167 HD
ATOM     62  C   UNL A   1      39.890  29.006  29.263  1.00  0.00     0.031 A 
ATOM     63  C   UNL A   1      45.939  32.770  28.869  1.00  0.00     0.031 A 
ATOM     64  C   UNL A   1      40.387  28.935  30.600  1.00  0.00     0.049 A 
ATOM     65  C   UNL A   1      44.724  32.622  29.754  1.00  0.00     0.074 A 
ATOM     66  C   UNL A   1      40.553  27.993  31.592  1.00  0.00     0.029 A 
ATOM     67  N   UNL A   1      40.842  30.098  31.169  1.00  0.00    -0.354 N 
ATOM     68  N   UNL A   1      44.692  32.121  30.958  1.00  0.00    -0.248 NA
ATOM     69  C   UNL A   1      43.419  32.706  29.093  1.00  0.00     0.031 C 
ATOM     70  C   UNL A   1      41.532  28.545  32.480  1.00  0.00     0.029 A 
ATOM     71  C   UNL A   1      41.922  29.771  31.944  1.00  0.00     0.049 A 
ATOM     72  H   UNL A   1      40.463  30.997  31.044  1.00  0.00     0.167 HD
ATOM     73  C   UNL A   1      43.426  31.545  31.088  1.00  0.00     0.074 A 
ATOM     74  C   UNL A   1      42.689  31.959  29.908  1.00  0.00     0.031 C 
ATOM     75  C   UNL A   1      43.100  30.610  32.031  1.00  0.00     0.031 A 
BRANCH  62  76
ATOM     76  C   UNL A   1      38.443  29.228  29.040  1.00  0.00    -0.014 A 
ATOM     77  C   UNL A   1      37.524  29.231  30.091  1.00  0.00     0.009 A 
ATOM     78  C   UNL A   1      38.015  29.618  27.762  1.00  0.00     0.009 A 
ATOM     79  C   UNL A   1      36.201  29.631  29.870  1.00  0.00     0.001 A 
ATOM     80  C   UNL A   1      36.701  30.031  27.543  1.00  0.00     0.001 A 
ATOM     81  C   UNL A   1      35.794  30.040  28.599  1.00  0.00     0.000 A 
ENDBRANCH  62  76
BRANCH  63  82
ATOM     82  C   UNL A   1      46.050  33.829  27.811  1.00  0.00    -0.014 A 
ATOM     83  C   UNL A   1      45.713  33.655  26.461  1.00  0.00     0.009 A 
ATOM     84  C   UNL A   1      46.541  35.096  28.191  1.00  0.00     0.009 A 
ATOM     85  C   UNL A   1      46.003  34.642  25.509  1.00  0.00     0.001 A 
ATOM     86  C   UNL A   1      46.804  36.095  27.248  1.00  0.00     0.001 A 
ATOM     87  C   UNL A   1      46.566  35.853  25.901  1.00  0.00     0.000 A 
ENDBRANCH  63  82
BRANCH  75  88
ATOM     88  C   UNL A   1      44.140  30.293  33.060  1.00  0.00    -0.014 A 
ATOM     89  C   UNL A   1      45.302  29.586  32.705  1.00  0.00     0.009 A 
ATOM     90  C   UNL A   1      43.938  30.620  34.407  1.00  0.00     0.009 A 
ATOM     91  C   UNL A   1      46.204  29.157  33.680  1.00  0.00     0.001 A 
ATOM     92  C   UNL A   1      44.856  30.216  35.378  1.00  0.00     0.001 A 
ATOM     93  C   UNL A   1      45.976  29.470  35.017  1.00  0.00     0.000 A 
ENDBRANCH  75  88
ENDBRANCH  49  50
ENDBRANCH  42  44
ENDBRANCH  41  42
ENDBRANCH  40  41
ENDBRANCH  39  40
ENDBRANCH  38  39
ENDBRANCH  37  38
ENDBRANCH  36  37
ENDBRANCH   1  36
TORSDOF 23
ENDMDL
MODEL 2
REMARK VINA RESULT:     -10.5      4.503      6.458
REMARK SMILES CCCC(=O)N(c1cc2sc(=O)oc2c2ccccc12)S(=O)(=O)c1ccc(C(=O)OCCOCCOCCOC(=O)c2ccc(-c3c4nc(c(-c5ccccc5)c5ccc([nH]5)c(-c5ccccc5)c5nc(c(-c6ccccc6)c6ccc3[nH]6)C=C5)C=C4)cc2)cc1
REMARK SMILES IDX 33 1 32 2 31 3 30 4 28 5 29 6 27 7 24 8 25 9 91 10 26 11
REMARK SMILES IDX 90 12 21 13 22 14 23 15 6 16 4 17 5 18 3 19 2 20 1 21 7 22
REMARK SMILES IDX 8 23 20 24 9 25 15 26 19 27 10 28 14 29 16 30 18 31 11 32
REMARK SMILES IDX 13 33 17 34 12 35 34 36 35 37 36 38 37 39 38 40 39 41 40 42
REMARK SMILES IDX 41 43 42 44 43 45 89 46 44 47 88 48 45 49 46 50 47 51 82 52
REMARK SMILES IDX 48 53 87 54 81 55 83 56 49 57 86 58 80 59 79 60 50 62 72 63
REMARK SMILES IDX 57 64 71 65 58 66 61 67 70 68 84 69 59 70 60 71 69 73 85 74
REMARK SMILES IDX 62 75 51 76 52 77 56 78 53 79 55 80 54 81 73 82 74 83 78 84
REMARK SMILES IDX 75 85 77 86 76 87 63 88 64 89 68 90 65 91 67 92 66 93
REMARK H PARENT 83 61 61 72
REMARK Flexibility Score: inf
ROOT
ATOM      1  O   UNL A   1      39.205  20.927  26.191  1.00  0.00    -0.376 OA
ENDROOT
BRANCH   1   2
ATOM      2  C   UNL A   1      38.323  20.350  25.242  1.00  0.00     0.202 C 
BRANCH   2   3
ATOM      3  C   UNL A   1      37.009  21.012  24.797  1.00  0.00     0.261 C 
BRANCH   3   4
ATOM      4  O   UNL A   1      36.052  21.258  25.838  1.00  0.00    -0.460 OA
BRANCH   4   5
ATOM      5  C   UNL A   1      34.752  21.165  25.446  1.00  0.00     0.338 C 
ATOM      6  O   UNL A   1      33.928  20.356  25.838  1.00  0.00    -0.246 OA
BRANCH   5   7
ATOM      7  C   UNL A   1      34.378  22.334  24.613  1.00  0.00     0.060 A 
ATOM      8  C   UNL A   1      33.591  24.615  23.201  1.00  0.00     0.088 A 
ATOM      9  C   UNL A   1      34.311  24.759  24.389  1.00  0.00     0.023 A 
ATOM     10  C   UNL A   1      33.297  23.334  22.698  1.00  0.00     0.023 A 
ATOM     11  C   UNL A   1      34.707  23.616  25.090  1.00  0.00     0.017 A 
ATOM     12  C   UNL A   1      33.697  22.192  23.402  1.00  0.00     0.017 A 
BRANCH   8  13
ATOM     13  S   UNL A   1      32.787  26.042  22.472  1.00  0.00     0.270 S 
ATOM     14  O   UNL A   1      32.225  25.555  21.229  1.00  0.00    -0.201 OA
ATOM     15  O   UNL A   1      33.775  27.104  22.487  1.00  0.00    -0.201 OA
BRANCH  13  16
ATOM     16  N   UNL A   1      31.524  26.546  23.479  1.00  0.00    -0.202 N 
BRANCH  16  17
ATOM     17  C   UNL A   1      30.665  25.520  24.005  1.00  0.00     0.241 C 
ATOM     18  O   UNL A   1      29.744  25.061  23.333  1.00  0.00    -0.273 OA
BRANCH  17  19
ATOM     19  C   UNL A   1      30.843  25.022  25.435  1.00  0.00     0.101 C 
BRANCH  19  20
ATOM     20  C   UNL A   1      30.965  23.504  25.563  1.00  0.00     0.006 C 
ATOM     21  C   UNL A   1      31.391  23.077  26.961  1.00  0.00     0.004 C 
ENDBRANCH  19  20
ENDBRANCH  17  19
ENDBRANCH  16  17
BRANCH  16  22
ATOM     22  C   UNL A   1      31.095  27.914  23.520  1.00  0.00     0.070 A 
ATOM     23  C   UNL A   1      30.156  28.379  22.591  1.00  0.00     0.051 A 
ATOM     24  C   UNL A   1      31.519  28.735  24.618  1.00  0.00     0.010 A 
ATOM     25  C   UNL A   1      29.636  29.652  22.755  1.00  0.00     0.080 A 
ATOM     26  C   UNL A   1      30.948  30.024  24.780  1.00  0.00     0.028 A 
ATOM     27  C   UNL A   1      32.428  28.296  25.609  1.00  0.00     0.011 A 
ATOM     28  S   UNL A   1      28.345  30.404  21.836  1.00  0.00    -0.052 S 
ATOM     29  C   UNL A   1      30.014  30.452  23.829  1.00  0.00     0.157 A 
ATOM     30  C   UNL A   1      31.257  30.792  25.923  1.00  0.00     0.013 A 
ATOM     31  C   UNL A   1      32.670  29.042  26.765  1.00  0.00     0.001 A 
ATOM     32  C   UNL A   1      28.275  31.676  23.067  1.00  0.00     0.396 A 
ATOM     33  O   UNL A   1      29.318  31.657  23.990  1.00  0.00    -0.413 OA
ATOM     34  C   UNL A   1      32.088  30.291  26.921  1.00  0.00     0.001 A 
ATOM     35  O   UNL A   1      27.331  32.450  23.152  1.00  0.00    -0.233 OA
ENDBRANCH  16  22
ENDBRANCH  13  16
ENDBRANCH   8  13
ENDBRANCH   5   7
ENDBRANCH   4   5
ENDBRANCH   3   4
ENDBRANCH   2   3
ENDBRANCH   1   2
BRANCH   1  36
ATOM     36  C   UNL A   1      40.499  20.402  26.365  1.00  0.00     0.188 C 
BRANCH  36  37
ATOM     37  C   UNL A   1      41.731  21.327  26.309  1.00  0.00     0.188 C 
BRANCH  37  38
ATOM     38  O   UNL A   1      42.854  20.955  25.533  1.00  0.00    -0.376 OA
BRANCH  38  39
ATOM     39  C   UNL A   1      43.992  21.816  25.543  1.00  0.00     0.202 C 
BRANCH  39  40
ATOM     40  C   UNL A   1      43.915  23.169  24.825  1.00  0.00     0.261 C 
BRANCH  40  41
ATOM     41  O   UNL A   1      44.431  24.245  25.630  1.00  0.00    -0.460 OA
BRANCH  41  42
ATOM     42  C   UNL A   1      45.774  24.274  25.804  1.00  0.00     0.338 C 
ATOM     43  O   UNL A   1      46.638  24.032  24.979  1.00  0.00    -0.246 OA
BRANCH  42  44
ATOM     44  C   UNL A   1      46.055  24.913  27.094  1.00  0.00     0.060 A 
ATOM     45  C   UNL A   1      46.872  26.037  27.168  1.00  0.00     0.016 A 
ATOM     46  C   UNL A   1      45.584  24.287  28.254  1.00  0.00     0.016 A 
ATOM     47  C   UNL A   1      47.272  26.493  28.420  1.00  0.00     0.010 A 
ATOM     48  C   UNL A   1      46.044  24.705  29.498  1.00  0.00     0.010 A 
ATOM     49  C   UNL A   1      46.904  25.805  29.594  1.00  0.00    -0.014 A 
BRANCH  49  50
ATOM     50  C   UNL A   1      47.365  26.324  30.900  1.00  0.00     0.031 A 
ATOM     51  C   UNL A   1      46.425  26.188  32.063  1.00  0.00     0.074 A 
ATOM     52  C   UNL A   1      48.683  26.387  31.179  1.00  0.00     0.049 A 
ATOM     53  N   UNL A   1      46.354  25.147  32.846  1.00  0.00    -0.248 NA
ATOM     54  C   UNL A   1      45.324  27.136  32.242  1.00  0.00     0.031 C 
ATOM     55  C   UNL A   1      49.647  25.328  30.852  1.00  0.00     0.029 A 
ATOM     56  N   UNL A   1      49.386  27.257  31.976  1.00  0.00    -0.354 N 
ATOM     57  C   UNL A   1      45.206  25.290  33.615  1.00  0.00     0.074 A 
ATOM     58  C   UNL A   1      44.599  26.535  33.197  1.00  0.00     0.031 C 
ATOM     59  C   UNL A   1      50.765  25.526  31.577  1.00  0.00     0.029 A 
ATOM     60  C   UNL A   1      50.655  26.788  32.305  1.00  0.00     0.049 A 
ATOM     61  H   UNL A   1      49.030  28.122  32.282  1.00  0.00     0.167 HD
ATOM     62  C   UNL A   1      44.800  24.399  34.561  1.00  0.00     0.031 A 
ATOM     63  C   UNL A   1      51.310  27.103  33.456  1.00  0.00     0.031 A 
ATOM     64  C   UNL A   1      45.645  23.267  34.770  1.00  0.00     0.049 A 
ATOM     65  C   UNL A   1      50.577  26.214  34.433  1.00  0.00     0.074 A 
ATOM     66  C   UNL A   1      45.690  21.933  34.425  1.00  0.00     0.029 A 
ATOM     67  N   UNL A   1      46.764  23.446  35.545  1.00  0.00    -0.354 N 
ATOM     68  N   UNL A   1      50.746  24.931  34.598  1.00  0.00    -0.248 NA
ATOM     69  C   UNL A   1      49.328  26.743  34.987  1.00  0.00     0.031 C 
ATOM     70  C   UNL A   1      47.057  21.543  34.598  1.00  0.00     0.029 A 
ATOM     71  C   UNL A   1      47.758  22.679  35.001  1.00  0.00     0.049 A 
ATOM     72  H   UNL A   1      46.837  24.017  36.343  1.00  0.00     0.167 HD
ATOM     73  C   UNL A   1      49.500  24.440  34.997  1.00  0.00     0.074 A 
ATOM     74  C   UNL A   1      48.679  25.614  35.233  1.00  0.00     0.031 C 
ATOM     75  C   UNL A   1      49.134  23.125  34.926  1.00  0.00     0.031 A 
BRANCH  62  76
ATOM     76  C   UNL A   1      43.658  24.627  35.476  1.00  0.00    -0.014 A 
ATOM     77  C   UNL A   1      43.743  25.502  36.562  1.00  0.00     0.009 A 
ATOM     78  C   UNL A   1      42.410  24.084  35.138  1.00  0.00     0.009 A 
ATOM     79  C   UNL A   1      42.594  25.837  37.289  1.00  0.00     0.001 A 
ATOM     80  C   UNL A   1      41.263  24.428  35.852  1.00  0.00     0.001 A 
ATOM     81  C   UNL A   1      41.355  25.308  36.926  1.00  0.00     0.000 A 
ENDBRANCH  62  76
BRANCH  63  82
ATOM     82  C   UNL A   1      51.520  28.571  33.692  1.00  0.00    -0.014 A 
ATOM     83  C   UNL A   1      51.599  29.544  32.685  1.00  0.00     0.009 A 
ATOM     84  C   UNL A   1      51.662  29.013  35.024  1.00  0.00     0.009 A 
ATOM     85  C   UNL A   1      51.962  30.865  32.982  1.00  0.00     0.001 A 
ATOM     86  C   UNL A   1      51.995  30.337  35.326  1.00  0.00     0.001 A 
ATOM     87  C   UNL A   1      52.178  31.255  34.300  1.00  0.00     0.000 A 
ENDBRANCH  63  82
BRANCH  75  88
ATOM     88  C   UNL A   1      50.191  22.148  34.517  1.00  0.00    -0.014 A 
ATOM     89  C   UNL A   1      50.854  22.288  33.285  1.00  0.00     0.009 A 
ATOM     90  C   UNL A   1      50.481  21.031  35.312  1.00  0.00     0.009 A 
ATOM     91  C   UNL A   1      51.732  21.303  32.828  1.00  0.00     0.001 A 
ATOM     92  C   UNL A   1      51.381  20.061  34.867  1.00  0.00     0.001 A 
ATOM     93  C   UNL A   1      51.990  20.188  33.620  1.00  0.00     0.000 A 
ENDBRANCH  75  88
ENDBRANCH  49  50
ENDBRANCH  42  44
ENDBRANCH  41  42
ENDBRANCH  40  41
ENDBRANCH  39  40
ENDBRANCH  38  39
ENDBRANCH  37  38
ENDBRANCH  36  37
ENDBRANCH   1  36
TORSDOF 23
ENDMDL
MODEL 3
REMARK VINA RESULT:      -9.1      2.585      5.070
REMARK SMILES CCCC(=O)N(c1cc2sc(=O)oc2c2ccccc12)S(=O)(=O)c1ccc(C(=O)OCCOCCOCCOC(=O)c2ccc(-c3c4nc(c(-c5ccccc5)c5ccc([nH]5)c(-c5ccccc5)c5nc(c(-c6ccccc6)c6ccc3[nH]6)C=C5)C=C4)cc2)cc1
REMARK SMILES IDX 33 1 32 2 31 3 30 4 28 5 29 6 27 7 24 8 25 9 91 10 26 11
REMARK SMILES IDX 90 12 21 13 22 14 23 15 6 16 4 17 5 18 3 19 2 20 1 21 7 22
REMARK SMILES IDX 8 23 20 24 9 25 15 26 19 27 10 28 14 29 16 30 18 31 11 32
REMARK SMILES IDX 13 33 17 34 12 35 34 36 35 37 36 38 37 39 38 40 39 41 40 42
REMARK SMILES IDX 41 43 42 44 43 45 89 46 44 47 88 48 45 49 46 50 47 51 82 52
REMARK SMILES IDX 48 53 87 54 81 55 83 56 49 57 86 58 80 59 79 60 50 62 72 63
REMARK SMILES IDX 57 64 71 65 58 66 61 67 70 68 84 69 59 70 60 71 69 73 85 74
REMARK SMILES IDX 62 75 51 76 52 77 56 78 53 79 55 80 54 81 73 82 74 83 78 84
REMARK SMILES IDX 75 85 77 86 76 87 63 88 64 89 68 90 65 91 67 92 66 93
REMARK H PARENT 83 61 61 72
REMARK Flexibility Score: inf
ROOT
ATOM      1  O   UNL A   1      39.363  20.672  26.180  1.00  0.00    -0.376 OA
ENDROOT
BRANCH   1   2
ATOM      2  C   UNL A   1      38.530  20.412  25.062  1.00  0.00     0.202 C 
BRANCH   2   3
ATOM      3  C   UNL A   1      37.273  21.235  24.734  1.00  0.00     0.261 C 
BRANCH   3   4
ATOM      4  O   UNL A   1      36.183  21.101  25.658  1.00  0.00    -0.460 OA
BRANCH   4   5
ATOM      5  C   UNL A   1      34.974  20.870  25.078  1.00  0.00     0.338 C 
ATOM      6  O   UNL A   1      34.242  19.913  25.272  1.00  0.00    -0.246 OA
BRANCH   5   7
ATOM      7  C   UNL A   1      34.532  22.060  24.311  1.00  0.00     0.060 A 
ATOM      8  C   UNL A   1      33.659  24.389  23.033  1.00  0.00     0.088 A 
ATOM      9  C   UNL A   1      34.628  24.478  24.036  1.00  0.00     0.023 A 
ATOM     10  C   UNL A   1      33.155  23.135  22.642  1.00  0.00     0.023 A 
ATOM     11  C   UNL A   1      35.065  23.311  24.669  1.00  0.00     0.017 A 
ATOM     12  C   UNL A   1      33.597  21.968  23.277  1.00  0.00     0.017 A 
BRANCH   8  13
ATOM     13  S   UNL A   1      32.844  25.875  22.452  1.00  0.00     0.270 S 
ATOM     14  O   UNL A   1      32.156  25.472  21.243  1.00  0.00    -0.201 OA
ATOM     15  O   UNL A   1      33.866  26.905  22.429  1.00  0.00    -0.201 OA
BRANCH  13  16
ATOM     16  N   UNL A   1      31.695  26.365  23.594  1.00  0.00    -0.202 N 
BRANCH  16  17
ATOM     17  C   UNL A   1      30.992  25.323  24.293  1.00  0.00     0.241 C 
ATOM     18  O   UNL A   1      30.098  24.684  23.742  1.00  0.00    -0.273 OA
BRANCH  17  19
ATOM     19  C   UNL A   1      31.300  25.032  25.757  1.00  0.00     0.101 C 
BRANCH  19  20
ATOM     20  C   UNL A   1      30.746  23.701  26.264  1.00  0.00     0.006 C 
ATOM     21  C   UNL A   1      31.835  22.812  26.851  1.00  0.00     0.004 C 
ENDBRANCH  19  20
ENDBRANCH  17  19
ENDBRANCH  16  17
BRANCH  16  22
ATOM     22  C   UNL A   1      31.177  27.702  23.614  1.00  0.00     0.070 A 
ATOM     23  C   UNL A   1      30.113  28.051  22.773  1.00  0.00     0.051 A 
ATOM     24  C   UNL A   1      31.657  28.610  24.617  1.00  0.00     0.010 A 
ATOM     25  C   UNL A   1      29.525  29.295  22.931  1.00  0.00     0.080 A 
ATOM     26  C   UNL A   1      31.017  29.866  24.777  1.00  0.00     0.028 A 
ATOM     27  C   UNL A   1      32.695  28.288  25.522  1.00  0.00     0.011 A 
ATOM     28  S   UNL A   1      28.093  29.909  22.124  1.00  0.00    -0.052 S 
ATOM     29  C   UNL A   1      29.958  30.178  23.915  1.00  0.00     0.157 A 
ATOM     30  C   UNL A   1      31.390  30.716  25.839  1.00  0.00     0.013 A 
ATOM     31  C   UNL A   1      33.006  29.112  26.606  1.00  0.00     0.001 A 
ATOM     32  C   UNL A   1      28.065  31.241  23.290  1.00  0.00     0.396 A 
ATOM     33  O   UNL A   1      29.200  31.343  24.093  1.00  0.00    -0.413 OA
ATOM     34  C   UNL A   1      32.357  30.328  26.763  1.00  0.00     0.001 A 
ATOM     35  O   UNL A   1      27.084  31.956  23.441  1.00  0.00    -0.233 OA
ENDBRANCH  16  22
ENDBRANCH  13  16
ENDBRANCH   8  13
ENDBRANCH   5   7
ENDBRANCH   4   5
ENDBRANCH   3   4
ENDBRANCH   2   3
ENDBRANCH   1   2
BRANCH   1  36
ATOM     36  C   UNL A   1      40.586  19.992  26.324  1.00  0.00     0.188 C 
BRANCH  36  37
ATOM     37  C   UNL A   1      41.920  20.765  26.283  1.00  0.00     0.188 C 
BRANCH  37  38
ATOM     38  O   UNL A   1      43.041  20.196  25.634  1.00  0.00    -0.376 OA
BRANCH  38  39
ATOM     39  C   UNL A   1      44.181  21.025  25.417  1.00  0.00     0.202 C 
BRANCH  39  40
ATOM     40  C   UNL A   1      43.981  22.459  24.908  1.00  0.00     0.261 C 
BRANCH  40  41
ATOM     41  O   UNL A   1      44.440  23.443  25.852  1.00  0.00    -0.460 OA
BRANCH  41  42
ATOM     42  C   UNL A   1      45.705  23.290  26.312  1.00  0.00     0.338 C 
ATOM     43  O   UNL A   1      46.589  22.594  25.843  1.00  0.00    -0.246 OA
BRANCH  42  44
ATOM     44  C   UNL A   1      45.948  24.313  27.334  1.00  0.00     0.060 A 
ATOM     45  C   UNL A   1      47.136  25.038  27.346  1.00  0.00     0.016 A 
ATOM     46  C   UNL A   1      45.011  24.449  28.364  1.00  0.00     0.016 A 
ATOM     47  C   UNL A   1      47.412  25.854  28.439  1.00  0.00     0.010 A 
ATOM     48  C   UNL A   1      45.324  25.211  29.485  1.00  0.00     0.010 A 
ATOM     49  C   UNL A   1      46.534  25.911  29.540  1.00  0.00    -0.014 A 
BRANCH  49  50
ATOM     50  C   UNL A   1      46.879  26.786  30.682  1.00  0.00     0.031 A 
ATOM     51  C   UNL A   1      46.313  28.177  30.676  1.00  0.00     0.074 A 
ATOM     52  C   UNL A   1      47.177  26.249  31.883  1.00  0.00     0.049 A 
ATOM     53  N   UNL A   1      45.150  28.511  31.163  1.00  0.00    -0.248 NA
ATOM     54  C   UNL A   1      46.940  29.229  29.873  1.00  0.00     0.031 C 
ATOM     55  C   UNL A   1      46.442  25.132  32.493  1.00  0.00     0.029 A 
ATOM     56  N   UNL A   1      48.009  26.697  32.880  1.00  0.00    -0.354 N 
ATOM     57  C   UNL A   1      44.883  29.806  30.735  1.00  0.00     0.074 A 
ATOM     58  C   UNL A   1      46.019  30.202  29.931  1.00  0.00     0.031 C 
ATOM     59  C   UNL A   1      46.738  25.090  33.807  1.00  0.00     0.029 A 
ATOM     60  C   UNL A   1      47.778  26.073  34.102  1.00  0.00     0.049 A 
ATOM     61  H   UNL A   1      48.697  27.388  32.743  1.00  0.00     0.167 HD
ATOM     62  C   UNL A   1      43.758  30.503  31.053  1.00  0.00     0.031 A 
ATOM     63  C   UNL A   1      48.000  26.658  35.311  1.00  0.00     0.031 A 
ATOM     64  C   UNL A   1      42.823  29.841  31.907  1.00  0.00     0.049 A 
ATOM     65  C   UNL A   1      46.798  27.569  35.393  1.00  0.00     0.074 A 
ATOM     66  C   UNL A   1      41.625  29.167  31.802  1.00  0.00     0.029 A 
ATOM     67  N   UNL A   1      43.091  29.831  33.253  1.00  0.00    -0.354 N 
ATOM     68  N   UNL A   1      45.577  27.225  35.699  1.00  0.00    -0.248 NA
ATOM     69  C   UNL A   1      46.918  28.870  34.731  1.00  0.00     0.031 C 
ATOM     70  C   UNL A   1      41.522  28.389  33.000  1.00  0.00     0.029 A 
ATOM     71  C   UNL A   1      42.684  28.617  33.735  1.00  0.00     0.049 A 
ATOM     72  H   UNL A   1      43.498  30.560  33.773  1.00  0.00     0.167 HD
ATOM     73  C   UNL A   1      44.755  28.110  34.998  1.00  0.00     0.074 A 
ATOM     74  C   UNL A   1      45.648  29.108  34.438  1.00  0.00     0.031 C 
ATOM     75  C   UNL A   1      43.430  27.888  34.741  1.00  0.00     0.031 A 
BRANCH  62  76
ATOM     76  C   UNL A   1      43.545  31.928  30.715  1.00  0.00    -0.014 A 
ATOM     77  C   UNL A   1      43.497  32.377  29.393  1.00  0.00     0.009 A 
ATOM     78  C   UNL A   1      43.208  32.818  31.746  1.00  0.00     0.009 A 
ATOM     79  C   UNL A   1      43.106  33.690  29.108  1.00  0.00     0.001 A 
ATOM     80  C   UNL A   1      42.805  34.122  31.462  1.00  0.00     0.001 A 
ATOM     81  C   UNL A   1      42.751  34.558  30.141  1.00  0.00     0.000 A 
ENDBRANCH  62  76
BRANCH  63  82
ATOM     82  C   UNL A   1      49.403  27.140  35.541  1.00  0.00    -0.014 A 
ATOM     83  C   UNL A   1      50.504  26.826  34.731  1.00  0.00     0.009 A 
ATOM     84  C   UNL A   1      49.645  27.964  36.660  1.00  0.00     0.009 A 
ATOM     85  C   UNL A   1      51.806  27.181  35.110  1.00  0.00     0.001 A 
ATOM     86  C   UNL A   1      50.940  28.345  37.025  1.00  0.00     0.001 A 
ATOM     87  C   UNL A   1      52.024  27.924  36.266  1.00  0.00     0.000 A 
ENDBRANCH  63  82
BRANCH  75  88
ATOM     88  C   UNL A   1      42.811  26.679  35.368  1.00  0.00    -0.014 A 
ATOM     89  C   UNL A   1      43.243  25.390  35.011  1.00  0.00     0.009 A 
ATOM     90  C   UNL A   1      41.736  26.804  36.257  1.00  0.00     0.009 A 
ATOM     91  C   UNL A   1      42.574  24.256  35.476  1.00  0.00     0.001 A 
ATOM     92  C   UNL A   1      41.085  25.669  36.745  1.00  0.00     0.001 A 
ATOM     93  C   UNL A   1      41.492  24.399  36.340  1.00  0.00     0.000 A 
ENDBRANCH  75  88
ENDBRANCH  49  50
ENDBRANCH  42  44
ENDBRANCH  41  42
ENDBRANCH  40  41
ENDBRANCH  39  40
ENDBRANCH  38  39
ENDBRANCH  37  38
ENDBRANCH  36  37
ENDBRANCH   1  36
TORSDOF 23
ENDMDL
