MODEL 1
REMARK VINA RESULT:      -8.8      0.000      0.000
REMARK SMILES CCC[NH2+][C@]1(C(=O)OCCOCCOCCOC(=O)c2ccc(-c3c4nc(c(-c5ccccc5)c5ccc([nH]5)c(-c5ccccc5)c5nc(c(-c6ccccc6)c6ccc3[nH]6)C=C5)C=C4)cc2)CCC[C@H](OC(C)(C)C)C1
REMARK SMILES IDX 12 1 11 2 10 3 9 4 8 5 6 6 7 7 5 8 68 9 77 10 69 11 71 12
REMARK SMILES IDX 70 13 4 14 3 17 2 18 1 19 72 20 73 21 74 22 75 23 76 24
REMARK SMILES IDX 13 25 14 26 15 27 16 28 17 29 18 30 19 31 20 32 21 33 67 34
REMARK SMILES IDX 22 35 66 36 23 37 24 38 25 39 60 40 26 41 65 42 59 43 61 44
REMARK SMILES IDX 27 45 64 46 58 47 57 48 28 50 50 51 35 52 49 53 36 54 39 55
REMARK SMILES IDX 48 56 62 57 37 58 38 59 47 61 63 62 40 63 29 64 30 65 34 66
REMARK SMILES IDX 31 67 33 68 32 69 51 70 52 71 56 72 53 73 55 74 54 75 41 76
REMARK SMILES IDX 42 77 46 78 43 79 45 80 44 81
REMARK H PARENT 4 15 4 16 61 49 39 60
REMARK Flexibility Score: inf
ROOT
ATOM      1  C   UNL A   1      33.704  28.919  25.727  1.00  0.00     0.188 C 
ENDROOT
BRANCH   1   2
ATOM      2  O   UNL A   1      33.084  28.457  24.552  1.00  0.00    -0.376 OA
BRANCH   2   3
ATOM      3  C   UNL A   1      31.871  29.081  24.170  1.00  0.00     0.202 C 
BRANCH   3   4
ATOM      4  C   UNL A   1      31.027  28.647  22.945  1.00  0.00     0.261 C 
BRANCH   4   5
ATOM      5  O   UNL A   1      31.235  27.343  22.360  1.00  0.00    -0.459 OA
BRANCH   5   6
ATOM      6  C   UNL A   1      30.816  26.294  23.101  1.00  0.00     0.368 C 
ATOM      7  O   UNL A   1      29.655  26.183  23.502  1.00  0.00    -0.245 OA
BRANCH   6   8
ATOM      8  C   UNL A   1      31.873  25.149  23.380  1.00  0.00     0.196 C 
ATOM      9  C   UNL A   1      30.980  23.852  23.507  1.00  0.00     0.081 C 
ATOM     10  C   UNL A   1      33.006  24.854  22.370  1.00  0.00     0.113 C 
ATOM     11  C   UNL A   1      31.546  22.446  23.207  1.00  0.00     0.010 C 
ATOM     12  C   UNL A   1      33.773  23.543  22.721  1.00  0.00     0.125 C 
ATOM     13  C   UNL A   1      32.845  22.380  22.433  1.00  0.00     0.032 C 
BRANCH   8  14
ATOM     14  N   UNL A   1      32.457  25.574  24.699  1.00  0.00    -0.332 N 
ATOM     15  H   UNL A   1      33.448  25.333  24.705  1.00  0.00     0.347 HD
ATOM     16  H   UNL A   1      32.300  26.577  24.786  1.00  0.00     0.347 HD
BRANCH  14  17
ATOM     17  C   UNL A   1      31.815  24.933  25.860  1.00  0.00     0.261 C 
BRANCH  17  18
ATOM     18  C   UNL A   1      32.704  24.097  26.788  1.00  0.00     0.058 C 
ATOM     19  C   UNL A   1      32.471  22.600  26.799  1.00  0.00     0.010 C 
ENDBRANCH  17  18
ENDBRANCH  14  17
ENDBRANCH   8  14
BRANCH  12  20
ATOM     20  O   UNL A   1      34.479  23.637  23.954  1.00  0.00    -0.372 OA
BRANCH  20  21
ATOM     21  C   UNL A   1      35.661  22.980  24.427  1.00  0.00     0.060 C 
ATOM     22  C   UNL A   1      36.506  23.717  25.478  1.00  0.00     0.042 C 
ATOM     23  C   UNL A   1      35.456  21.528  24.861  1.00  0.00     0.042 C 
ATOM     24  C   UNL A   1      36.556  22.953  23.163  1.00  0.00     0.042 C 
ENDBRANCH  20  21
ENDBRANCH  12  20
ENDBRANCH   6   8
ENDBRANCH   5   6
ENDBRANCH   4   5
ENDBRANCH   3   4
ENDBRANCH   2   3
ENDBRANCH   1   2
BRANCH   1  25
ATOM     25  C   UNL A   1      32.816  29.888  26.532  1.00  0.00     0.188 C 
BRANCH  25  26
ATOM     26  O   UNL A   1      33.327  30.544  27.680  1.00  0.00    -0.376 OA
BRANCH  26  27
ATOM     27  C   UNL A   1      33.685  31.916  27.572  1.00  0.00     0.202 C 
BRANCH  27  28
ATOM     28  C   UNL A   1      32.628  33.016  27.786  1.00  0.00     0.261 C 
BRANCH  28  29
ATOM     29  O   UNL A   1      33.058  34.372  27.565  1.00  0.00    -0.460 OA
BRANCH  29  30
ATOM     30  C   UNL A   1      33.162  35.145  28.680  1.00  0.00     0.338 C 
ATOM     31  O   UNL A   1      32.393  36.008  29.054  1.00  0.00    -0.246 OA
BRANCH  30  32
ATOM     32  C   UNL A   1      34.275  34.647  29.521  1.00  0.00     0.060 A 
ATOM     33  C   UNL A   1      35.580  34.646  28.998  1.00  0.00     0.016 A 
ATOM     34  C   UNL A   1      34.024  34.125  30.786  1.00  0.00     0.016 A 
ATOM     35  C   UNL A   1      36.636  34.104  29.732  1.00  0.00     0.010 A 
ATOM     36  C   UNL A   1      35.074  33.548  31.504  1.00  0.00     0.010 A 
ATOM     37  C   UNL A   1      36.376  33.505  30.967  1.00  0.00    -0.014 A 
BRANCH  37  38
ATOM     38  C   UNL A   1      37.383  32.622  31.602  1.00  0.00     0.031 A 
ATOM     39  C   UNL A   1      37.956  33.050  32.925  1.00  0.00     0.074 A 
ATOM     40  C   UNL A   1      37.815  31.495  31.013  1.00  0.00     0.049 A 
ATOM     41  N   UNL A   1      38.978  32.570  33.585  1.00  0.00    -0.248 NA
ATOM     42  C   UNL A   1      37.289  34.185  33.584  1.00  0.00     0.031 C 
ATOM     43  C   UNL A   1      37.290  30.925  29.777  1.00  0.00     0.029 A 
ATOM     44  N   UNL A   1      38.829  30.642  31.378  1.00  0.00    -0.354 N 
ATOM     45  C   UNL A   1      39.096  33.365  34.717  1.00  0.00     0.074 A 
ATOM     46  C   UNL A   1      38.052  34.363  34.650  1.00  0.00     0.031 C 
ATOM     47  C   UNL A   1      38.006  29.828  29.467  1.00  0.00     0.029 A 
ATOM     48  C   UNL A   1      39.070  29.656  30.454  1.00  0.00     0.049 A 
ATOM     49  H   UNL A   1      39.332  30.730  32.220  1.00  0.00     0.167 HD
ATOM     50  C   UNL A   1      40.000  33.279  35.721  1.00  0.00     0.031 A 
ATOM     51  C   UNL A   1      40.065  28.747  30.392  1.00  0.00     0.031 A 
ATOM     52  C   UNL A   1      41.052  32.299  35.774  1.00  0.00     0.049 A 
ATOM     53  C   UNL A   1      41.122  28.729  31.467  1.00  0.00     0.074 A 
ATOM     54  C   UNL A   1      42.020  32.126  36.747  1.00  0.00     0.029 A 
ATOM     55  N   UNL A   1      41.276  31.333  34.806  1.00  0.00    -0.354 N 
ATOM     56  N   UNL A   1      41.236  29.487  32.532  1.00  0.00    -0.248 NA
ATOM     57  C   UNL A   1      42.191  27.728  31.329  1.00  0.00     0.031 C 
ATOM     58  C   UNL A   1      42.870  31.095  36.334  1.00  0.00     0.029 A 
ATOM     59  C   UNL A   1      42.384  30.576  35.144  1.00  0.00     0.049 A 
ATOM     60  H   UNL A   1      40.730  31.204  33.997  1.00  0.00     0.167 HD
ATOM     61  C   UNL A   1      42.360  29.027  33.210  1.00  0.00     0.074 A 
ATOM     62  C   UNL A   1      42.893  27.925  32.437  1.00  0.00     0.031 C 
ATOM     63  C   UNL A   1      42.897  29.472  34.373  1.00  0.00     0.031 A 
BRANCH  50  64
ATOM     64  C   UNL A   1      39.926  34.316  36.806  1.00  0.00    -0.014 A 
ATOM     65  C   UNL A   1      40.580  35.553  36.691  1.00  0.00     0.009 A 
ATOM     66  C   UNL A   1      39.180  34.049  37.966  1.00  0.00     0.009 A 
ATOM     67  C   UNL A   1      40.525  36.481  37.733  1.00  0.00     0.001 A 
ATOM     68  C   UNL A   1      39.098  34.993  38.991  1.00  0.00     0.001 A 
ATOM     69  C   UNL A   1      39.782  36.203  38.880  1.00  0.00     0.000 A 
ENDBRANCH  50  64
BRANCH  51  70
ATOM     70  C   UNL A   1      40.134  27.796  29.250  1.00  0.00    -0.014 A 
ATOM     71  C   UNL A   1      39.483  26.555  29.313  1.00  0.00     0.009 A 
ATOM     72  C   UNL A   1      40.867  28.118  28.095  1.00  0.00     0.009 A 
ATOM     73  C   UNL A   1      39.583  25.648  28.255  1.00  0.00     0.001 A 
ATOM     74  C   UNL A   1      40.937  27.222  27.026  1.00  0.00     0.001 A 
ATOM     75  C   UNL A   1      40.304  25.985  27.110  1.00  0.00     0.000 A 
ENDBRANCH  51  70
BRANCH  63  76
ATOM     76  C   UNL A   1      44.083  28.731  34.927  1.00  0.00    -0.014 A 
ATOM     77  C   UNL A   1      45.400  29.124  34.647  1.00  0.00     0.009 A 
ATOM     78  C   UNL A   1      43.869  27.658  35.809  1.00  0.00     0.009 A 
ATOM     79  C   UNL A   1      46.478  28.441  35.217  1.00  0.00     0.001 A 
ATOM     80  C   UNL A   1      44.946  26.998  36.402  1.00  0.00     0.001 A 
ATOM     81  C   UNL A   1      46.250  27.385  36.100  1.00  0.00     0.000 A 
ENDBRANCH  63  76
ENDBRANCH  37  38
ENDBRANCH  30  32
ENDBRANCH  29  30
ENDBRANCH  28  29
ENDBRANCH  27  28
ENDBRANCH  26  27
ENDBRANCH  25  26
ENDBRANCH   1  25
TORSDOF 22
ENDMDL
MODEL 2
REMARK VINA RESULT:      -8.3      1.687      2.679
REMARK SMILES CCC[NH2+][C@]1(C(=O)OCCOCCOCCOC(=O)c2ccc(-c3c4nc(c(-c5ccccc5)c5ccc([nH]5)c(-c5ccccc5)c5nc(c(-c6ccccc6)c6ccc3[nH]6)C=C5)C=C4)cc2)CCC[C@H](OC(C)(C)C)C1
REMARK SMILES IDX 12 1 11 2 10 3 9 4 8 5 6 6 7 7 5 8 68 9 77 10 69 11 71 12
REMARK SMILES IDX 70 13 4 14 3 17 2 18 1 19 72 20 73 21 74 22 75 23 76 24
REMARK SMILES IDX 13 25 14 26 15 27 16 28 17 29 18 30 19 31 20 32 21 33 67 34
REMARK SMILES IDX 22 35 66 36 23 37 24 38 25 39 60 40 26 41 65 42 59 43 61 44
REMARK SMILES IDX 27 45 64 46 58 47 57 48 28 50 50 51 35 52 49 53 36 54 39 55
REMARK SMILES IDX 48 56 62 57 37 58 38 59 47 61 63 62 40 63 29 64 30 65 34 66
REMARK SMILES IDX 31 67 33 68 32 69 51 70 52 71 56 72 53 73 55 74 54 75 41 76
REMARK SMILES IDX 42 77 46 78 43 79 45 80 44 81
REMARK H PARENT 4 15 4 16 61 49 39 60
REMARK Flexibility Score: inf
ROOT
ATOM      1  C   UNL A   1      34.786  31.363  28.641  1.00  0.00     0.188 C 
ENDROOT
BRANCH   1   2
ATOM      2  O   UNL A   1      33.865  30.449  28.099  1.00  0.00    -0.376 OA
BRANCH   2   3
ATOM      3  C   UNL A   1      33.365  30.724  26.802  1.00  0.00     0.202 C 
BRANCH   3   4
ATOM      4  C   UNL A   1      33.030  29.628  25.757  1.00  0.00     0.261 C 
BRANCH   4   5
ATOM      5  O   UNL A   1      32.502  28.359  26.198  1.00  0.00    -0.459 OA
BRANCH   5   6
ATOM      6  C   UNL A   1      31.788  27.670  25.280  1.00  0.00     0.368 C 
ATOM      7  O   UNL A   1      30.749  28.106  24.779  1.00  0.00    -0.245 OA
BRANCH   6   8
ATOM      8  C   UNL A   1      32.385  26.283  24.805  1.00  0.00     0.196 C 
ATOM      9  C   UNL A   1      31.349  25.794  23.717  1.00  0.00     0.081 C 
ATOM     10  C   UNL A   1      33.801  26.200  24.190  1.00  0.00     0.113 C 
ATOM     11  C   UNL A   1      31.759  24.827  22.584  1.00  0.00     0.010 C 
ATOM     12  C   UNL A   1      34.088  24.796  23.574  1.00  0.00     0.125 C 
ATOM     13  C   UNL A   1      33.242  24.667  22.323  1.00  0.00     0.032 C 
BRANCH   8  14
ATOM     14  N   UNL A   1      32.322  25.464  26.065  1.00  0.00    -0.332 N 
ATOM     15  H   UNL A   1      33.096  24.800  26.057  1.00  0.00     0.347 HD
ATOM     16  H   UNL A   1      32.377  26.115  26.847  1.00  0.00     0.347 HD
BRANCH  14  17
ATOM     17  C   UNL A   1      31.065  24.712  26.215  1.00  0.00     0.261 C 
BRANCH  17  18
ATOM     18  C   UNL A   1      31.166  23.244  26.646  1.00  0.00     0.058 C 
ATOM     19  C   UNL A   1      31.349  22.216  25.548  1.00  0.00     0.010 C 
ENDBRANCH  17  18
ENDBRANCH  14  17
ENDBRANCH   8  14
BRANCH  12  20
ATOM     20  O   UNL A   1      34.119  23.765  24.555  1.00  0.00    -0.372 OA
BRANCH  20  21
ATOM     21  C   UNL A   1      35.181  22.921  25.015  1.00  0.00     0.060 C 
ATOM     22  C   UNL A   1      35.010  21.405  24.827  1.00  0.00     0.042 C 
ATOM     23  C   UNL A   1      36.577  23.340  24.551  1.00  0.00     0.042 C 
ATOM     24  C   UNL A   1      35.132  23.128  26.548  1.00  0.00     0.042 C 
ENDBRANCH  20  21
ENDBRANCH  12  20
ENDBRANCH   6   8
ENDBRANCH   5   6
ENDBRANCH   4   5
ENDBRANCH   3   4
ENDBRANCH   2   3
ENDBRANCH   1   2
BRANCH   1  25
ATOM     25  C   UNL A   1      35.191  32.467  27.645  1.00  0.00     0.188 C 
BRANCH  25  26
ATOM     26  O   UNL A   1      35.082  33.834  28.005  1.00  0.00    -0.376 OA
BRANCH  26  27
ATOM     27  C   UNL A   1      33.785  34.411  28.080  1.00  0.00     0.202 C 
BRANCH  27  28
ATOM     28  C   UNL A   1      33.140  34.704  29.449  1.00  0.00     0.261 C 
BRANCH  28  29
ATOM     29  O   UNL A   1      33.913  35.500  30.365  1.00  0.00    -0.460 OA
BRANCH  29  30
ATOM     30  C   UNL A   1      34.125  34.948  31.591  1.00  0.00     0.338 C 
ATOM     31  O   UNL A   1      33.482  35.131  32.604  1.00  0.00    -0.246 OA
BRANCH  30  32
ATOM     32  C   UNL A   1      35.163  33.897  31.482  1.00  0.00     0.060 A 
ATOM     33  C   UNL A   1      34.964  32.669  32.137  1.00  0.00     0.016 A 
ATOM     34  C   UNL A   1      36.350  34.146  30.799  1.00  0.00     0.016 A 
ATOM     35  C   UNL A   1      35.960  31.691  32.125  1.00  0.00     0.010 A 
ATOM     36  C   UNL A   1      37.362  33.183  30.821  1.00  0.00     0.010 A 
ATOM     37  C   UNL A   1      37.184  31.967  31.511  1.00  0.00    -0.014 A 
BRANCH  37  38
ATOM     38  C   UNL A   1      38.368  31.117  31.777  1.00  0.00     0.031 A 
ATOM     39  C   UNL A   1      39.253  31.490  32.935  1.00  0.00     0.074 A 
ATOM     40  C   UNL A   1      38.685  30.069  30.998  1.00  0.00     0.049 A 
ATOM     41  N   UNL A   1      40.438  31.040  33.257  1.00  0.00    -0.248 NA
ATOM     42  C   UNL A   1      38.729  32.523  33.844  1.00  0.00     0.031 C 
ATOM     43  C   UNL A   1      37.877  29.552  29.898  1.00  0.00     0.029 A 
ATOM     44  N   UNL A   1      39.802  29.270  31.005  1.00  0.00    -0.354 N 
ATOM     45  C   UNL A   1      40.814  31.759  34.384  1.00  0.00     0.074 A 
ATOM     46  C   UNL A   1      39.740  32.680  34.683  1.00  0.00     0.031 C 
ATOM     47  C   UNL A   1      38.539  28.536  29.314  1.00  0.00     0.029 A 
ATOM     48  C   UNL A   1      39.838  28.373  29.967  1.00  0.00     0.049 A 
ATOM     49  H   UNL A   1      40.508  29.334  31.690  1.00  0.00     0.167 HD
ATOM     50  C   UNL A   1      41.958  31.668  35.102  1.00  0.00     0.031 A 
ATOM     51  C   UNL A   1      40.825  27.546  29.565  1.00  0.00     0.031 A 
ATOM     52  C   UNL A   1      43.035  30.767  34.790  1.00  0.00     0.049 A 
ATOM     53  C   UNL A   1      42.131  27.529  30.317  1.00  0.00     0.074 A 
ATOM     54  C   UNL A   1      44.236  30.597  35.454  1.00  0.00     0.029 A 
ATOM     55  N   UNL A   1      43.041  29.892  33.716  1.00  0.00    -0.354 N 
ATOM     56  N   UNL A   1      42.487  28.215  31.377  1.00  0.00    -0.248 NA
ATOM     57  C   UNL A   1      43.175  26.622  29.814  1.00  0.00     0.031 C 
ATOM     58  C   UNL A   1      44.996  29.663  34.743  1.00  0.00     0.029 A 
ATOM     59  C   UNL A   1      44.237  29.196  33.681  1.00  0.00     0.049 A 
ATOM     60  H   UNL A   1      42.304  29.781  33.071  1.00  0.00     0.167 HD
ATOM     61  C   UNL A   1      43.774  27.792  31.692  1.00  0.00     0.074 A 
ATOM     62  C   UNL A   1      44.137  26.790  30.712  1.00  0.00     0.031 C 
ATOM     63  C   UNL A   1      44.580  28.192  32.707  1.00  0.00     0.031 A 
BRANCH  50  64
ATOM     64  C   UNL A   1      42.123  32.617  36.257  1.00  0.00    -0.014 A 
ATOM     65  C   UNL A   1      42.702  33.885  36.092  1.00  0.00     0.009 A 
ATOM     66  C   UNL A   1      41.685  32.232  37.534  1.00  0.00     0.009 A 
ATOM     67  C   UNL A   1      42.880  34.729  37.191  1.00  0.00     0.001 A 
ATOM     68  C   UNL A   1      41.832  33.092  38.624  1.00  0.00     0.001 A 
ATOM     69  C   UNL A   1      42.441  34.334  38.455  1.00  0.00     0.000 A 
ENDBRANCH  50  64
BRANCH  51  70
ATOM     70  C   UNL A   1      40.634  26.687  28.365  1.00  0.00    -0.014 A 
ATOM     71  C   UNL A   1      41.065  27.118  27.102  1.00  0.00     0.009 A 
ATOM     72  C   UNL A   1      40.003  25.437  28.475  1.00  0.00     0.009 A 
ATOM     73  C   UNL A   1      40.849  26.327  25.971  1.00  0.00     0.001 A 
ATOM     74  C   UNL A   1      39.819  24.634  27.347  1.00  0.00     0.001 A 
ATOM     75  C   UNL A   1      40.233  25.082  26.096  1.00  0.00     0.000 A 
ENDBRANCH  51  70
BRANCH  63  76
ATOM     76  C   UNL A   1      45.908  27.502  32.862  1.00  0.00    -0.014 A 
ATOM     77  C   UNL A   1      47.081  28.016  32.290  1.00  0.00     0.009 A 
ATOM     78  C   UNL A   1      45.992  26.349  33.662  1.00  0.00     0.009 A 
ATOM     79  C   UNL A   1      48.306  27.375  32.494  1.00  0.00     0.001 A 
ATOM     80  C   UNL A   1      47.221  25.729  33.889  1.00  0.00     0.001 A 
ATOM     81  C   UNL A   1      48.376  26.237  33.298  1.00  0.00     0.000 A 
ENDBRANCH  63  76
ENDBRANCH  37  38
ENDBRANCH  30  32
ENDBRANCH  29  30
ENDBRANCH  28  29
ENDBRANCH  27  28
ENDBRANCH  26  27
ENDBRANCH  25  26
ENDBRANCH   1  25
TORSDOF 22
ENDMDL
MODEL 3
REMARK VINA RESULT:      -8.2      5.362     10.001
REMARK SMILES CCC[NH2+][C@]1(C(=O)OCCOCCOCCOC(=O)c2ccc(-c3c4nc(c(-c5ccccc5)c5ccc([nH]5)c(-c5ccccc5)c5nc(c(-c6ccccc6)c6ccc3[nH]6)C=C5)C=C4)cc2)CCC[C@H](OC(C)(C)C)C1
REMARK SMILES IDX 12 1 11 2 10 3 9 4 8 5 6 6 7 7 5 8 68 9 77 10 69 11 71 12
REMARK SMILES IDX 70 13 4 14 3 17 2 18 1 19 72 20 73 21 74 22 75 23 76 24
REMARK SMILES IDX 13 25 14 26 15 27 16 28 17 29 18 30 19 31 20 32 21 33 67 34
REMARK SMILES IDX 22 35 66 36 23 37 24 38 25 39 60 40 26 41 65 42 59 43 61 44
REMARK SMILES IDX 27 45 64 46 58 47 57 48 28 50 50 51 35 52 49 53 36 54 39 55
REMARK SMILES IDX 48 56 62 57 37 58 38 59 47 61 63 62 40 63 29 64 30 65 34 66
REMARK SMILES IDX 31 67 33 68 32 69 51 70 52 71 56 72 53 73 55 74 54 75 41 76
REMARK SMILES IDX 42 77 46 78 43 79 45 80 44 81
REMARK H PARENT 4 15 4 16 61 49 39 60
REMARK Flexibility Score: inf
ROOT
ATOM      1  C   UNL A   1      37.115  32.460  39.400  1.00  0.00     0.188 C 
ENDROOT
BRANCH   1   2
ATOM      2  O   UNL A   1      36.651  32.308  38.080  1.00  0.00    -0.376 OA
BRANCH   2   3
ATOM      3  C   UNL A   1      37.559  32.613  37.036  1.00  0.00     0.202 C 
BRANCH   3   4
ATOM      4  C   UNL A   1      38.176  31.548  36.093  1.00  0.00     0.261 C 
BRANCH   4   5
ATOM      5  O   UNL A   1      38.591  31.927  34.762  1.00  0.00    -0.459 OA
BRANCH   5   6
ATOM      6  C   UNL A   1      37.655  31.798  33.796  1.00  0.00     0.368 C 
ATOM      7  O   UNL A   1      36.606  32.446  33.794  1.00  0.00    -0.245 OA
BRANCH   6   8
ATOM      8  C   UNL A   1      37.993  30.817  32.601  1.00  0.00     0.196 C 
ATOM      9  C   UNL A   1      39.341  30.133  33.060  1.00  0.00     0.081 C 
ATOM     10  C   UNL A   1      37.005  29.702  32.189  1.00  0.00     0.113 C 
ATOM     11  C   UNL A   1      39.758  28.737  32.546  1.00  0.00     0.010 C 
ATOM     12  C   UNL A   1      37.639  28.712  31.163  1.00  0.00     0.125 C 
ATOM     13  C   UNL A   1      38.678  27.893  31.903  1.00  0.00     0.032 C 
BRANCH   8  14
ATOM     14  N   UNL A   1      38.197  31.773  31.457  1.00  0.00    -0.332 N 
ATOM     15  H   UNL A   1      38.209  31.239  30.589  1.00  0.00     0.347 HD
ATOM     16  H   UNL A   1      37.431  32.445  31.490  1.00  0.00     0.347 HD
BRANCH  14  17
ATOM     17  C   UNL A   1      39.450  32.541  31.548  1.00  0.00     0.261 C 
BRANCH  17  18
ATOM     18  C   UNL A   1      39.382  34.045  31.260  1.00  0.00     0.058 C 
ATOM     19  C   UNL A   1      39.567  34.479  29.820  1.00  0.00     0.010 C 
ENDBRANCH  17  18
ENDBRANCH  14  17
ENDBRANCH   8  14
BRANCH  12  20
ATOM     20  O   UNL A   1      37.937  29.333  29.917  1.00  0.00    -0.372 OA
BRANCH  20  21
ATOM     21  C   UNL A   1      38.947  29.064  28.937  1.00  0.00     0.060 C 
ATOM     22  C   UNL A   1      40.304  29.765  29.111  1.00  0.00     0.042 C 
ATOM     23  C   UNL A   1      39.171  27.580  28.641  1.00  0.00     0.042 C 
ATOM     24  C   UNL A   1      38.347  29.696  27.658  1.00  0.00     0.042 C 
ENDBRANCH  20  21
ENDBRANCH  12  20
ENDBRANCH   6   8
ENDBRANCH   5   6
ENDBRANCH   4   5
ENDBRANCH   3   4
ENDBRANCH   2   3
ENDBRANCH   1   2
BRANCH   1  25
ATOM     25  C   UNL A   1      38.400  33.305  39.491  1.00  0.00     0.188 C 
BRANCH  25  26
ATOM     26  O   UNL A   1      39.641  32.695  39.804  1.00  0.00    -0.376 OA
BRANCH  26  27
ATOM     27  C   UNL A   1      40.687  33.513  40.309  1.00  0.00     0.202 C 
BRANCH  27  28
ATOM     28  C   UNL A   1      40.473  35.028  40.492  1.00  0.00     0.261 C 
BRANCH  28  29
ATOM     29  O   UNL A   1      41.124  35.889  39.539  1.00  0.00    -0.460 OA
BRANCH  29  30
ATOM     30  C   UNL A   1      40.368  36.261  38.470  1.00  0.00     0.338 C 
ATOM     31  O   UNL A   1      39.457  37.063  38.453  1.00  0.00    -0.246 OA
BRANCH  30  32
ATOM     32  C   UNL A   1      40.950  35.687  37.235  1.00  0.00     0.060 A 
ATOM     33  C   UNL A   1      40.090  35.235  36.220  1.00  0.00     0.016 A 
ATOM     34  C   UNL A   1      42.329  35.537  37.109  1.00  0.00     0.016 A 
ATOM     35  C   UNL A   1      40.605  34.612  35.081  1.00  0.00     0.010 A 
ATOM     36  C   UNL A   1      42.840  34.878  35.988  1.00  0.00     0.010 A 
ATOM     37  C   UNL A   1      41.980  34.385  34.986  1.00  0.00    -0.014 A 
BRANCH  37  38
ATOM     38  C   UNL A   1      42.519  33.432  33.987  1.00  0.00     0.031 A 
ATOM     39  C   UNL A   1      42.816  33.954  32.609  1.00  0.00     0.074 A 
ATOM     40  C   UNL A   1      42.702  32.131  34.269  1.00  0.00     0.049 A 
ATOM     41  N   UNL A   1      43.100  33.300  31.513  1.00  0.00    -0.248 NA
ATOM     42  C   UNL A   1      42.772  35.417  32.447  1.00  0.00     0.031 C 
ATOM     43  C   UNL A   1      42.531  31.511  35.580  1.00  0.00     0.029 A 
ATOM     44  N   UNL A   1      43.049  31.090  33.443  1.00  0.00    -0.354 N 
ATOM     45  C   UNL A   1      43.235  34.268  30.526  1.00  0.00     0.074 A 
ATOM     46  C   UNL A   1      42.990  35.550  31.149  1.00  0.00     0.031 C 
ATOM     47  C   UNL A   1      42.746  30.188  35.464  1.00  0.00     0.029 A 
ATOM     48  C   UNL A   1      43.014  29.866  34.063  1.00  0.00     0.049 A 
ATOM     49  H   UNL A   1      43.299  31.211  32.498  1.00  0.00     0.167 HD
ATOM     50  C   UNL A   1      43.526  34.104  29.215  1.00  0.00     0.031 A 
ATOM     51  C   UNL A   1      43.141  28.626  33.549  1.00  0.00     0.031 A 
ATOM     52  C   UNL A   1      43.746  32.825  28.593  1.00  0.00     0.049 A 
ATOM     53  C   UNL A   1      43.367  28.456  32.068  1.00  0.00     0.074 A 
ATOM     54  C   UNL A   1      44.048  32.550  27.272  1.00  0.00     0.029 A 
ATOM     55  N   UNL A   1      43.678  31.608  29.253  1.00  0.00    -0.354 N 
ATOM     56  N   UNL A   1      43.485  29.372  31.136  1.00  0.00    -0.248 NA
ATOM     57  C   UNL A   1      43.474  27.077  31.567  1.00  0.00     0.031 C 
ATOM     58  C   UNL A   1      44.099  31.161  27.119  1.00  0.00     0.029 A 
ATOM     59  C   UNL A   1      43.906  30.576  28.360  1.00  0.00     0.049 A 
ATOM     60  H   UNL A   1      43.494  31.494  30.214  1.00  0.00     0.167 HD
ATOM     61  C   UNL A   1      43.724  28.684  29.951  1.00  0.00     0.074 A 
ATOM     62  C   UNL A   1      43.733  27.274  30.281  1.00  0.00     0.031 C 
ATOM     63  C   UNL A   1      43.925  29.177  28.703  1.00  0.00     0.031 A 
BRANCH  50  64
ATOM     64  C   UNL A   1      43.557  35.338  28.357  1.00  0.00    -0.014 A 
ATOM     65  C   UNL A   1      44.746  36.048  28.129  1.00  0.00     0.009 A 
ATOM     66  C   UNL A   1      42.371  35.794  27.760  1.00  0.00     0.009 A 
ATOM     67  C   UNL A   1      44.737  37.214  27.360  1.00  0.00     0.001 A 
ATOM     68  C   UNL A   1      42.371  36.939  26.963  1.00  0.00     0.001 A 
ATOM     69  C   UNL A   1      43.551  37.656  26.774  1.00  0.00     0.000 A 
ENDBRANCH  50  64
BRANCH  51  70
ATOM     70  C   UNL A   1      43.021  27.436  34.435  1.00  0.00    -0.014 A 
ATOM     71  C   UNL A   1      44.149  26.910  35.080  1.00  0.00     0.009 A 
ATOM     72  C   UNL A   1      41.778  26.810  34.625  1.00  0.00     0.009 A 
ATOM     73  C   UNL A   1      44.041  25.769  35.880  1.00  0.00     0.001 A 
ATOM     74  C   UNL A   1      41.668  25.689  35.452  1.00  0.00     0.001 A 
ATOM     75  C   UNL A   1      42.799  25.165  36.070  1.00  0.00     0.000 A 
ENDBRANCH  51  70
BRANCH  63  76
ATOM     76  C   UNL A   1      44.244  28.198  27.606  1.00  0.00    -0.014 A 
ATOM     77  C   UNL A   1      43.264  27.744  26.710  1.00  0.00     0.009 A 
ATOM     78  C   UNL A   1      45.574  27.779  27.426  1.00  0.00     0.009 A 
ATOM     79  C   UNL A   1      43.605  26.872  25.673  1.00  0.00     0.001 A 
ATOM     80  C   UNL A   1      45.917  26.934  26.371  1.00  0.00     0.001 A 
ATOM     81  C   UNL A   1      44.931  26.474  25.500  1.00  0.00     0.000 A 
ENDBRANCH  63  76
ENDBRANCH  37  38
ENDBRANCH  30  32
ENDBRANCH  29  30
ENDBRANCH  28  29
ENDBRANCH  27  28
ENDBRANCH  26  27
ENDBRANCH  25  26
ENDBRANCH   1  25
TORSDOF 22
ENDMDL
