MODEL 1
REMARK VINA RESULT:     -11.1      0.000      0.000
REMARK SMILES CC(C)c1ccc(NC(=O)C[C@H]2SC[C@@H](C(=O)OCCOCCOCCOC(=O)c3ccc(-c4c5nc(c(-c6ccccc6)c6ccc([nH]6)c(-c6ccccc6)c6nc(c(-c7ccccc7)c7ccc4[nH]7)C=C6)C=C5)cc3)NC2=O)cc1
REMARK SMILES IDX 22 1 21 2 20 3 19 4 18 5 16 6 17 7 15 8 12 9 13 10 79 11
REMARK SMILES IDX 14 12 78 13 80 14 11 16 9 17 8 18 10 20 7 21 4 22 5 23 82 24
REMARK SMILES IDX 6 25 81 26 2 27 1 28 3 29 23 30 24 31 25 32 26 33 27 34
REMARK SMILES IDX 28 35 29 36 30 37 31 38 77 39 32 40 76 41 33 42 34 43 35 44
REMARK SMILES IDX 70 45 36 46 75 47 69 48 71 49 37 50 74 51 68 52 67 53 38 55
REMARK SMILES IDX 60 56 45 57 59 58 46 59 49 60 58 61 72 62 47 63 48 64 57 66
REMARK SMILES IDX 73 67 50 68 39 69 40 70 44 71 41 72 43 73 42 74 61 75 62 76
REMARK SMILES IDX 66 77 63 78 65 79 64 80 51 81 52 82 56 83 53 84 55 85 54 86
REMARK H PARENT 78 15 8 19 71 54 49 65
REMARK Flexibility Score: inf
ROOT
ATOM      1  C   UNL A   1      41.360  20.709  27.058  1.00  0.00     0.188 C 
ENDROOT
BRANCH   1   2
ATOM      2  O   UNL A   1      40.047  21.184  27.236  1.00  0.00    -0.376 OA
BRANCH   2   3
ATOM      3  C   UNL A   1      39.436  21.933  26.200  1.00  0.00     0.202 C 
BRANCH   3   4
ATOM      4  C   UNL A   1      38.165  21.516  25.425  1.00  0.00     0.261 C 
BRANCH   4   5
ATOM      5  O   UNL A   1      37.197  22.530  25.082  1.00  0.00    -0.462 OA
BRANCH   5   6
ATOM      6  C   UNL A   1      36.020  22.062  24.613  1.00  0.00     0.329 C 
ATOM      7  O   UNL A   1      35.437  22.572  23.656  1.00  0.00    -0.250 OA
BRANCH   6   8
ATOM      8  C   UNL A   1      35.361  20.901  25.416  1.00  0.00     0.202 C 
ATOM      9  C   UNL A   1      32.496  21.920  25.973  1.00  0.00     0.145 C 
ATOM     10  S   UNL A   1      32.653  20.733  24.560  1.00  0.00    -0.145 SA
ATOM     11  C   UNL A   1      33.842  22.447  26.475  1.00  0.00     0.234 C 
ATOM     12  C   UNL A   1      34.281  19.975  24.882  1.00  0.00     0.107 C 
ATOM     13  N   UNL A   1      34.881  21.560  26.625  1.00  0.00    -0.341 N 
ATOM     14  O   UNL A   1      34.074  23.604  26.801  1.00  0.00    -0.274 OA
ATOM     15  H   UNL A   1      35.280  21.378  27.507  1.00  0.00     0.164 HD
BRANCH   9  16
ATOM     16  C   UNL A   1      31.436  22.970  25.578  1.00  0.00     0.124 C 
BRANCH  16  17
ATOM     17  C   UNL A   1      30.443  23.516  26.598  1.00  0.00     0.226 C 
ATOM     18  N   UNL A   1      29.972  24.796  26.576  1.00  0.00    -0.326 N 
ATOM     19  H   UNL A   1      29.388  25.053  27.326  1.00  0.00     0.169 HD
ATOM     20  O   UNL A   1      30.047  22.772  27.505  1.00  0.00    -0.275 OA
BRANCH  18  21
ATOM     21  C   UNL A   1      30.210  25.792  25.622  1.00  0.00     0.041 A 
ATOM     22  C   UNL A   1      30.421  28.155  24.109  1.00  0.00    -0.045 A 
ATOM     23  C   UNL A   1      29.479  27.166  23.785  1.00  0.00     0.006 A 
ATOM     24  C   UNL A   1      31.312  27.888  25.160  1.00  0.00     0.006 A 
ATOM     25  C   UNL A   1      29.382  25.987  24.528  1.00  0.00     0.026 A 
ATOM     26  C   UNL A   1      31.239  26.696  25.882  1.00  0.00     0.026 A 
BRANCH  22  27
ATOM     27  C   UNL A   1      30.447  29.512  23.411  1.00  0.00     0.013 C 
ATOM     28  C   UNL A   1      30.749  29.387  21.912  1.00  0.00     0.012 C 
ATOM     29  C   UNL A   1      29.168  30.341  23.592  1.00  0.00     0.012 C 
ENDBRANCH  22  27
ENDBRANCH  18  21
ENDBRANCH  16  17
ENDBRANCH   9  16
ENDBRANCH   6   8
ENDBRANCH   5   6
ENDBRANCH   4   5
ENDBRANCH   3   4
ENDBRANCH   2   3
ENDBRANCH   1   2
BRANCH   1  30
ATOM     30  C   UNL A   1      41.536  19.476  26.152  1.00  0.00     0.188 C 
BRANCH  30  31
ATOM     31  O   UNL A   1      42.510  19.487  25.135  1.00  0.00    -0.376 OA
BRANCH  31  32
ATOM     32  C   UNL A   1      43.812  19.968  25.408  1.00  0.00     0.202 C 
BRANCH  32  33
ATOM     33  C   UNL A   1      44.374  21.317  24.919  1.00  0.00     0.261 C 
BRANCH  33  34
ATOM     34  O   UNL A   1      43.512  22.460  24.950  1.00  0.00    -0.460 OA
BRANCH  34  35
ATOM     35  C   UNL A   1      44.136  23.662  24.938  1.00  0.00     0.338 C 
ATOM     36  O   UNL A   1      45.041  24.020  24.191  1.00  0.00    -0.246 OA
BRANCH  35  37
ATOM     37  C   UNL A   1      43.438  24.592  25.845  1.00  0.00     0.060 A 
ATOM     38  C   UNL A   1      43.834  25.936  25.871  1.00  0.00     0.016 A 
ATOM     39  C   UNL A   1      42.440  24.133  26.704  1.00  0.00     0.016 A 
ATOM     40  C   UNL A   1      43.237  26.827  26.763  1.00  0.00     0.010 A 
ATOM     41  C   UNL A   1      41.867  25.019  27.622  1.00  0.00     0.010 A 
ATOM     42  C   UNL A   1      42.278  26.364  27.672  1.00  0.00    -0.014 A 
BRANCH  42  43
ATOM     43  C   UNL A   1      41.840  27.238  28.787  1.00  0.00     0.031 A 
ATOM     44  C   UNL A   1      42.628  27.225  30.067  1.00  0.00     0.074 A 
ATOM     45  C   UNL A   1      40.776  28.052  28.666  1.00  0.00     0.049 A 
ATOM     46  N   UNL A   1      42.389  27.841  31.195  1.00  0.00    -0.248 NA
ATOM     47  C   UNL A   1      43.850  26.404  30.070  1.00  0.00     0.031 C 
ATOM     48  C   UNL A   1      39.958  28.202  27.468  1.00  0.00     0.029 A 
ATOM     49  N   UNL A   1      40.204  28.907  29.578  1.00  0.00    -0.354 N 
ATOM     50  C   UNL A   1      43.419  27.471  32.049  1.00  0.00     0.074 A 
ATOM     51  C   UNL A   1      44.278  26.567  31.314  1.00  0.00     0.031 C 
ATOM     52  C   UNL A   1      38.991  29.105  27.711  1.00  0.00     0.029 A 
ATOM     53  C   UNL A   1      39.087  29.550  29.101  1.00  0.00     0.049 A 
ATOM     54  H   UNL A   1      40.560  29.045  30.485  1.00  0.00     0.167 HD
ATOM     55  C   UNL A   1      43.630  27.843  33.334  1.00  0.00     0.031 A 
ATOM     56  C   UNL A   1      38.223  30.375  29.726  1.00  0.00     0.031 A 
ATOM     57  C   UNL A   1      42.760  28.711  34.083  1.00  0.00     0.049 A 
ATOM     58  C   UNL A   1      38.423  30.694  31.186  1.00  0.00     0.074 A 
ATOM     59  C   UNL A   1      42.875  29.117  35.401  1.00  0.00     0.029 A 
ATOM     60  N   UNL A   1      41.610  29.299  33.581  1.00  0.00    -0.354 N 
ATOM     61  N   UNL A   1      39.388  30.323  31.994  1.00  0.00    -0.248 NA
ATOM     62  C   UNL A   1      37.403  31.542  31.825  1.00  0.00     0.031 C 
ATOM     63  C   UNL A   1      41.764  29.906  35.714  1.00  0.00     0.029 A 
ATOM     64  C   UNL A   1      40.996  30.050  34.570  1.00  0.00     0.049 A 
ATOM     65  H   UNL A   1      41.279  29.198  32.660  1.00  0.00     0.167 HD
ATOM     66  C   UNL A   1      39.103  30.907  33.224  1.00  0.00     0.074 A 
ATOM     67  C   UNL A   1      37.888  31.675  33.052  1.00  0.00     0.031 C 
ATOM     68  C   UNL A   1      39.787  30.814  34.391  1.00  0.00     0.031 A 
BRANCH  55  69
ATOM     69  C   UNL A   1      44.831  27.263  34.027  1.00  0.00    -0.014 A 
ATOM     70  C   UNL A   1      46.013  28.002  34.182  1.00  0.00     0.009 A 
ATOM     71  C   UNL A   1      44.769  25.961  34.550  1.00  0.00     0.009 A 
ATOM     72  C   UNL A   1      47.122  27.437  34.816  1.00  0.00     0.001 A 
ATOM     73  C   UNL A   1      45.868  25.411  35.212  1.00  0.00     0.001 A 
ATOM     74  C   UNL A   1      47.047  26.144  35.335  1.00  0.00     0.000 A 
ENDBRANCH  55  69
BRANCH  56  75
ATOM     75  C   UNL A   1      37.053  30.927  28.991  1.00  0.00    -0.014 A 
ATOM     76  C   UNL A   1      37.016  32.278  28.611  1.00  0.00     0.009 A 
ATOM     77  C   UNL A   1      35.950  30.112  28.691  1.00  0.00     0.009 A 
ATOM     78  C   UNL A   1      35.893  32.803  27.967  1.00  0.00     0.001 A 
ATOM     79  C   UNL A   1      34.843  30.631  28.017  1.00  0.00     0.001 A 
ATOM     80  C   UNL A   1      34.811  31.979  27.665  1.00  0.00     0.000 A 
ENDBRANCH  56  75
BRANCH  68  81
ATOM     81  C   UNL A   1      39.268  31.594  35.570  1.00  0.00    -0.014 A 
ATOM     82  C   UNL A   1      39.673  32.915  35.814  1.00  0.00     0.009 A 
ATOM     83  C   UNL A   1      38.313  31.010  36.420  1.00  0.00     0.009 A 
ATOM     84  C   UNL A   1      39.157  33.623  36.904  1.00  0.00     0.001 A 
ATOM     85  C   UNL A   1      37.775  31.730  37.488  1.00  0.00     0.001 A 
ATOM     86  C   UNL A   1      38.205  33.032  37.736  1.00  0.00     0.000 A 
ENDBRANCH  68  81
ENDBRANCH  42  43
ENDBRANCH  35  37
ENDBRANCH  34  35
ENDBRANCH  33  34
ENDBRANCH  32  33
ENDBRANCH  31  32
ENDBRANCH  30  31
ENDBRANCH   1  30
TORSDOF 21
ENDMDL
MODEL 2
REMARK VINA RESULT:     -10.2      1.494      2.099
REMARK SMILES CC(C)c1ccc(NC(=O)C[C@H]2SC[C@@H](C(=O)OCCOCCOCCOC(=O)c3ccc(-c4c5nc(c(-c6ccccc6)c6ccc([nH]6)c(-c6ccccc6)c6nc(c(-c7ccccc7)c7ccc4[nH]7)C=C6)C=C5)cc3)NC2=O)cc1
REMARK SMILES IDX 22 1 21 2 20 3 19 4 18 5 16 6 17 7 15 8 12 9 13 10 79 11
REMARK SMILES IDX 14 12 78 13 80 14 11 16 9 17 8 18 10 20 7 21 4 22 5 23 82 24
REMARK SMILES IDX 6 25 81 26 2 27 1 28 3 29 23 30 24 31 25 32 26 33 27 34
REMARK SMILES IDX 28 35 29 36 30 37 31 38 77 39 32 40 76 41 33 42 34 43 35 44
REMARK SMILES IDX 70 45 36 46 75 47 69 48 71 49 37 50 74 51 68 52 67 53 38 55
REMARK SMILES IDX 60 56 45 57 59 58 46 59 49 60 58 61 72 62 47 63 48 64 57 66
REMARK SMILES IDX 73 67 50 68 39 69 40 70 44 71 41 72 43 73 42 74 61 75 62 76
REMARK SMILES IDX 66 77 63 78 65 79 64 80 51 81 52 82 56 83 53 84 55 85 54 86
REMARK H PARENT 78 15 8 19 71 54 49 65
REMARK Flexibility Score: inf
ROOT
ATOM      1  C   UNL A   1      39.504  22.054  26.409  1.00  0.00     0.188 C 
ENDROOT
BRANCH   1   2
ATOM      2  O   UNL A   1      38.240  22.153  25.799  1.00  0.00    -0.376 OA
BRANCH   2   3
ATOM      3  C   UNL A   1      37.746  21.057  25.049  1.00  0.00     0.202 C 
BRANCH   3   4
ATOM      4  C   UNL A   1      36.270  20.598  25.002  1.00  0.00     0.261 C 
BRANCH   4   5
ATOM      5  O   UNL A   1      35.230  21.597  25.056  1.00  0.00    -0.462 OA
BRANCH   5   6
ATOM      6  C   UNL A   1      34.347  21.449  26.067  1.00  0.00     0.329 C 
ATOM      7  O   UNL A   1      34.607  21.763  27.229  1.00  0.00    -0.250 OA
BRANCH   6   8
ATOM      8  C   UNL A   1      33.000  20.746  25.718  1.00  0.00     0.202 C 
ATOM      9  C   UNL A   1      31.520  22.818  23.965  1.00  0.00     0.145 C 
ATOM     10  S   UNL A   1      32.366  21.457  23.037  1.00  0.00    -0.145 SA
ATOM     11  C   UNL A   1      31.917  22.883  25.441  1.00  0.00     0.234 C 
ATOM     12  C   UNL A   1      32.626  20.213  24.345  1.00  0.00     0.107 C 
ATOM     13  N   UNL A   1      31.997  21.711  26.153  1.00  0.00    -0.341 N 
ATOM     14  O   UNL A   1      32.135  23.910  26.073  1.00  0.00    -0.274 OA
ATOM     15  H   UNL A   1      31.405  21.532  26.919  1.00  0.00     0.164 HD
BRANCH   9  16
ATOM     16  C   UNL A   1      31.683  24.111  23.138  1.00  0.00     0.124 C 
BRANCH  16  17
ATOM     17  C   UNL A   1      32.965  24.401  22.365  1.00  0.00     0.226 C 
ATOM     18  N   UNL A   1      33.732  25.511  22.573  1.00  0.00    -0.326 N 
ATOM     19  H   UNL A   1      34.498  25.624  21.966  1.00  0.00     0.169 HD
ATOM     20  O   UNL A   1      33.331  23.603  21.493  1.00  0.00    -0.275 OA
BRANCH  18  21
ATOM     21  C   UNL A   1      33.569  26.508  23.540  1.00  0.00     0.041 A 
ATOM     22  C   UNL A   1      32.850  28.122  25.732  1.00  0.00    -0.045 A 
ATOM     23  C   UNL A   1      32.370  28.392  24.441  1.00  0.00     0.006 A 
ATOM     24  C   UNL A   1      33.770  27.070  25.878  1.00  0.00     0.006 A 
ATOM     25  C   UNL A   1      32.736  27.600  23.351  1.00  0.00     0.026 A 
ATOM     26  C   UNL A   1      34.163  26.299  24.785  1.00  0.00     0.026 A 
BRANCH  22  27
ATOM     27  C   UNL A   1      32.350  28.876  26.960  1.00  0.00     0.013 C 
ATOM     28  C   UNL A   1      31.726  30.228  26.595  1.00  0.00     0.012 C 
ATOM     29  C   UNL A   1      31.356  28.087  27.824  1.00  0.00     0.012 C 
ENDBRANCH  22  27
ENDBRANCH  18  21
ENDBRANCH  16  17
ENDBRANCH   9  16
ENDBRANCH   6   8
ENDBRANCH   5   6
ENDBRANCH   4   5
ENDBRANCH   3   4
ENDBRANCH   2   3
ENDBRANCH   1   2
BRANCH   1  30
ATOM     30  C   UNL A   1      40.064  20.635  26.622  1.00  0.00     0.188 C 
BRANCH  30  31
ATOM     31  O   UNL A   1      41.446  20.401  26.494  1.00  0.00    -0.376 OA
BRANCH  31  32
ATOM     32  C   UNL A   1      42.246  21.285  25.734  1.00  0.00     0.202 C 
BRANCH  32  33
ATOM     33  C   UNL A   1      43.783  21.363  25.802  1.00  0.00     0.261 C 
BRANCH  33  34
ATOM     34  O   UNL A   1      44.375  22.541  26.360  1.00  0.00    -0.460 OA
BRANCH  34  35
ATOM     35  C   UNL A   1      44.182  23.682  25.656  1.00  0.00     0.338 C 
ATOM     36  O   UNL A   1      44.389  23.858  24.460  1.00  0.00    -0.246 OA
BRANCH  35  37
ATOM     37  C   UNL A   1      43.485  24.672  26.497  1.00  0.00     0.060 A 
ATOM     38  C   UNL A   1      43.937  25.999  26.494  1.00  0.00     0.016 A 
ATOM     39  C   UNL A   1      42.431  24.287  27.325  1.00  0.00     0.016 A 
ATOM     40  C   UNL A   1      43.339  26.945  27.327  1.00  0.00     0.010 A 
ATOM     41  C   UNL A   1      41.857  25.228  28.185  1.00  0.00     0.010 A 
ATOM     42  C   UNL A   1      42.323  26.557  28.207  1.00  0.00    -0.014 A 
BRANCH  42  43
ATOM     43  C   UNL A   1      41.873  27.488  29.270  1.00  0.00     0.031 A 
ATOM     44  C   UNL A   1      42.624  27.512  30.572  1.00  0.00     0.074 A 
ATOM     45  C   UNL A   1      40.833  28.320  29.083  1.00  0.00     0.049 A 
ATOM     46  N   UNL A   1      42.367  28.183  31.665  1.00  0.00    -0.248 NA
ATOM     47  C   UNL A   1      43.825  26.665  30.647  1.00  0.00     0.031 C 
ATOM     48  C   UNL A   1      40.053  28.436  27.856  1.00  0.00     0.029 A 
ATOM     49  N   UNL A   1      40.255  29.226  29.939  1.00  0.00    -0.354 N 
ATOM     50  C   UNL A   1      43.363  27.827  32.564  1.00  0.00     0.074 A 
ATOM     51  C   UNL A   1      44.221  26.873  31.894  1.00  0.00     0.031 C 
ATOM     52  C   UNL A   1      39.102  29.369  28.031  1.00  0.00     0.029 A 
ATOM     53  C   UNL A   1      39.169  29.873  29.403  1.00  0.00     0.049 A 
ATOM     54  H   UNL A   1      40.588  29.395  30.850  1.00  0.00     0.167 HD
ATOM     55  C   UNL A   1      43.546  28.250  33.838  1.00  0.00     0.031 A 
ATOM     56  C   UNL A   1      38.307  30.743  29.965  1.00  0.00     0.031 A 
ATOM     57  C   UNL A   1      42.676  29.169  34.522  1.00  0.00     0.049 A 
ATOM     58  C   UNL A   1      38.472  31.121  31.416  1.00  0.00     0.074 A 
ATOM     59  C   UNL A   1      42.763  29.630  35.825  1.00  0.00     0.029 A 
ATOM     60  N   UNL A   1      41.555  29.760  33.962  1.00  0.00    -0.354 N 
ATOM     61  N   UNL A   1      39.405  30.764  32.267  1.00  0.00    -0.248 NA
ATOM     62  C   UNL A   1      37.455  32.019  31.987  1.00  0.00     0.031 C 
ATOM     63  C   UNL A   1      41.662  30.456  36.071  1.00  0.00     0.029 A 
ATOM     64  C   UNL A   1      40.930  30.567  34.899  1.00  0.00     0.049 A 
ATOM     65  H   UNL A   1      41.248  29.627  33.037  1.00  0.00     0.167 HD
ATOM     66  C   UNL A   1      39.099  31.408  33.461  1.00  0.00     0.074 A 
ATOM     67  C   UNL A   1      37.907  32.195  33.220  1.00  0.00     0.031 C 
ATOM     68  C   UNL A   1      39.746  31.349  34.652  1.00  0.00     0.031 A 
BRANCH  55  69
ATOM     69  C   UNL A   1      44.712  27.673  34.591  1.00  0.00    -0.014 A 
ATOM     70  C   UNL A   1      45.946  28.338  34.646  1.00  0.00     0.009 A 
ATOM     71  C   UNL A   1      44.565  26.454  35.272  1.00  0.00     0.009 A 
ATOM     72  C   UNL A   1      47.021  27.776  35.339  1.00  0.00     0.001 A 
ATOM     73  C   UNL A   1      45.631  25.911  35.990  1.00  0.00     0.001 A 
ATOM     74  C   UNL A   1      46.861  26.566  36.014  1.00  0.00     0.000 A 
ENDBRANCH  55  69
BRANCH  56  75
ATOM     75  C   UNL A   1      37.171  31.289  29.173  1.00  0.00    -0.014 A 
ATOM     76  C   UNL A   1      37.101  32.658  28.868  1.00  0.00     0.009 A 
ATOM     77  C   UNL A   1      36.134  30.448  28.741  1.00  0.00     0.009 A 
ATOM     78  C   UNL A   1      36.008  33.173  28.168  1.00  0.00     0.001 A 
ATOM     79  C   UNL A   1      35.058  30.960  28.013  1.00  0.00     0.001 A 
ATOM     80  C   UNL A   1      34.991  32.324  27.736  1.00  0.00     0.000 A 
ENDBRANCH  56  75
BRANCH  68  81
ATOM     81  C   UNL A   1      39.211  32.192  35.780  1.00  0.00    -0.014 A 
ATOM     82  C   UNL A   1      39.555  33.546  35.915  1.00  0.00     0.009 A 
ATOM     83  C   UNL A   1      38.303  31.630  36.693  1.00  0.00     0.009 A 
ATOM     84  C   UNL A   1      39.026  34.310  36.959  1.00  0.00     0.001 A 
ATOM     85  C   UNL A   1      37.752  32.403  37.716  1.00  0.00     0.001 A 
ATOM     86  C   UNL A   1      38.121  33.739  37.855  1.00  0.00     0.000 A 
ENDBRANCH  68  81
ENDBRANCH  42  43
ENDBRANCH  35  37
ENDBRANCH  34  35
ENDBRANCH  33  34
ENDBRANCH  32  33
ENDBRANCH  31  32
ENDBRANCH  30  31
ENDBRANCH   1  30
TORSDOF 21
ENDMDL
MODEL 3
REMARK VINA RESULT:     -10.1      1.477      5.937
REMARK SMILES CC(C)c1ccc(NC(=O)C[C@H]2SC[C@@H](C(=O)OCCOCCOCCOC(=O)c3ccc(-c4c5nc(c(-c6ccccc6)c6ccc([nH]6)c(-c6ccccc6)c6nc(c(-c7ccccc7)c7ccc4[nH]7)C=C6)C=C5)cc3)NC2=O)cc1
REMARK SMILES IDX 22 1 21 2 20 3 19 4 18 5 16 6 17 7 15 8 12 9 13 10 79 11
REMARK SMILES IDX 14 12 78 13 80 14 11 16 9 17 8 18 10 20 7 21 4 22 5 23 82 24
REMARK SMILES IDX 6 25 81 26 2 27 1 28 3 29 23 30 24 31 25 32 26 33 27 34
REMARK SMILES IDX 28 35 29 36 30 37 31 38 77 39 32 40 76 41 33 42 34 43 35 44
REMARK SMILES IDX 70 45 36 46 75 47 69 48 71 49 37 50 74 51 68 52 67 53 38 55
REMARK SMILES IDX 60 56 45 57 59 58 46 59 49 60 58 61 72 62 47 63 48 64 57 66
REMARK SMILES IDX 73 67 50 68 39 69 40 70 44 71 41 72 43 73 42 74 61 75 62 76
REMARK SMILES IDX 66 77 63 78 65 79 64 80 51 81 52 82 56 83 53 84 55 85 54 86
REMARK H PARENT 78 15 8 19 71 54 49 65
REMARK Flexibility Score: inf
ROOT
ATOM      1  C   UNL A   1      41.042  21.683  26.417  1.00  0.00     0.188 C 
ENDROOT
BRANCH   1   2
ATOM      2  O   UNL A   1      39.643  21.582  26.532  1.00  0.00    -0.376 OA
BRANCH   2   3
ATOM      3  C   UNL A   1      38.952  20.623  25.751  1.00  0.00     0.202 C 
BRANCH   3   4
ATOM      4  C   UNL A   1      37.705  20.908  24.882  1.00  0.00     0.261 C 
BRANCH   4   5
ATOM      5  O   UNL A   1      36.542  21.492  25.506  1.00  0.00    -0.462 OA
BRANCH   5   6
ATOM      6  C   UNL A   1      35.467  21.626  24.700  1.00  0.00     0.329 C 
ATOM      7  O   UNL A   1      35.494  22.283  23.659  1.00  0.00    -0.250 OA
BRANCH   6   8
ATOM      8  C   UNL A   1      34.134  20.996  25.206  1.00  0.00     0.202 C 
ATOM      9  C   UNL A   1      31.956  22.881  24.084  1.00  0.00     0.145 C 
ATOM     10  S   UNL A   1      32.223  21.320  23.123  1.00  0.00    -0.145 SA
ATOM     11  C   UNL A   1      33.046  23.147  25.123  1.00  0.00     0.234 C 
ATOM     12  C   UNL A   1      33.119  20.284  24.327  1.00  0.00     0.107 C 
ATOM     13  N   UNL A   1      33.484  22.102  25.899  1.00  0.00    -0.341 N 
ATOM     14  O   UNL A   1      33.548  24.239  25.362  1.00  0.00    -0.274 OA
ATOM     15  H   UNL A   1      33.364  22.099  26.877  1.00  0.00     0.164 HD
BRANCH   9  16
ATOM     16  C   UNL A   1      31.668  24.006  23.067  1.00  0.00     0.124 C 
BRANCH  16  17
ATOM     17  C   UNL A   1      32.751  24.515  22.121  1.00  0.00     0.226 C 
ATOM     18  N   UNL A   1      33.162  25.816  22.083  1.00  0.00    -0.326 N 
ATOM     19  H   UNL A   1      33.819  26.039  21.384  1.00  0.00     0.169 HD
ATOM     20  O   UNL A   1      33.282  23.720  21.335  1.00  0.00    -0.275 OA
BRANCH  18  21
ATOM     21  C   UNL A   1      32.772  26.873  22.912  1.00  0.00     0.041 A 
ATOM     22  C   UNL A   1      31.900  28.561  24.989  1.00  0.00    -0.045 A 
ATOM     23  C   UNL A   1      31.065  28.252  23.903  1.00  0.00     0.006 A 
ATOM     24  C   UNL A   1      33.215  28.069  24.960  1.00  0.00     0.006 A 
ATOM     25  C   UNL A   1      31.501  27.425  22.866  1.00  0.00     0.026 A 
ATOM     26  C   UNL A   1      33.663  27.270  23.908  1.00  0.00     0.026 A 
BRANCH  22  27
ATOM     27  C   UNL A   1      31.400  29.336  26.204  1.00  0.00     0.013 C 
ATOM     28  C   UNL A   1      31.861  28.705  27.523  1.00  0.00     0.012 C 
ATOM     29  C   UNL A   1      31.780  30.823  26.206  1.00  0.00     0.012 C 
ENDBRANCH  22  27
ENDBRANCH  18  21
ENDBRANCH  16  17
ENDBRANCH   9  16
ENDBRANCH   6   8
ENDBRANCH   5   6
ENDBRANCH   4   5
ENDBRANCH   3   4
ENDBRANCH   2   3
ENDBRANCH   1   2
BRANCH   1  30
ATOM     30  C   UNL A   1      41.809  20.383  26.111  1.00  0.00     0.188 C 
BRANCH  30  31
ATOM     31  O   UNL A   1      43.069  20.443  25.486  1.00  0.00    -0.376 OA
BRANCH  31  32
ATOM     32  C   UNL A   1      43.865  21.605  25.609  1.00  0.00     0.202 C 
BRANCH  32  33
ATOM     33  C   UNL A   1      44.080  22.649  24.497  1.00  0.00     0.261 C 
BRANCH  33  34
ATOM     34  O   UNL A   1      43.444  23.924  24.635  1.00  0.00    -0.460 OA
BRANCH  34  35
ATOM     35  C   UNL A   1      44.231  24.920  25.109  1.00  0.00     0.338 C 
ATOM     36  O   UNL A   1      45.321  25.274  24.672  1.00  0.00    -0.246 OA
BRANCH  35  37
ATOM     37  C   UNL A   1      43.501  25.682  26.139  1.00  0.00     0.060 A 
ATOM     38  C   UNL A   1      43.917  26.986  26.438  1.00  0.00     0.016 A 
ATOM     39  C   UNL A   1      42.450  25.097  26.844  1.00  0.00     0.016 A 
ATOM     40  C   UNL A   1      43.288  27.709  27.451  1.00  0.00     0.010 A 
ATOM     41  C   UNL A   1      41.843  25.809  27.884  1.00  0.00     0.010 A 
ATOM     42  C   UNL A   1      42.273  27.110  28.207  1.00  0.00    -0.014 A 
BRANCH  42  43
ATOM     43  C   UNL A   1      41.790  27.770  29.444  1.00  0.00     0.031 A 
ATOM     44  C   UNL A   1      40.559  28.629  29.369  1.00  0.00     0.074 A 
ATOM     45  C   UNL A   1      42.411  27.596  30.624  1.00  0.00     0.049 A 
ATOM     46  N   UNL A   1      40.001  29.362  30.298  1.00  0.00    -0.248 NA
ATOM     47  C   UNL A   1      39.867  28.663  28.070  1.00  0.00     0.031 C 
ATOM     48  C   UNL A   1      43.580  26.751  30.847  1.00  0.00     0.029 A 
ATOM     49  N   UNL A   1      42.138  28.131  31.859  1.00  0.00    -0.354 N 
ATOM     50  C   UNL A   1      38.902  29.959  29.693  1.00  0.00     0.074 A 
ATOM     51  C   UNL A   1      38.880  29.513  28.316  1.00  0.00     0.031 C 
ATOM     52  C   UNL A   1      43.921  26.814  32.146  1.00  0.00     0.029 A 
ATOM     53  C   UNL A   1      43.031  27.751  32.832  1.00  0.00     0.049 A 
ATOM     54  H   UNL A   1      41.376  28.730  32.031  1.00  0.00     0.167 HD
ATOM     55  C   UNL A   1      37.996  30.808  30.231  1.00  0.00     0.031 A 
ATOM     56  C   UNL A   1      43.139  28.141  34.118  1.00  0.00     0.031 A 
ATOM     57  C   UNL A   1      38.034  31.285  31.588  1.00  0.00     0.049 A 
ATOM     58  C   UNL A   1      42.178  29.166  34.667  1.00  0.00     0.074 A 
ATOM     59  C   UNL A   1      37.177  32.174  32.214  1.00  0.00     0.029 A 
ATOM     60  N   UNL A   1      38.985  30.919  32.527  1.00  0.00    -0.354 N 
ATOM     61  N   UNL A   1      41.154  29.742  34.083  1.00  0.00    -0.248 NA
ATOM     62  C   UNL A   1      42.396  29.603  36.055  1.00  0.00     0.031 C 
ATOM     63  C   UNL A   1      37.642  32.390  33.514  1.00  0.00     0.029 A 
ATOM     64  C   UNL A   1      38.747  31.579  33.721  1.00  0.00     0.049 A 
ATOM     65  H   UNL A   1      39.721  30.284  32.369  1.00  0.00     0.167 HD
ATOM     66  C   UNL A   1      40.596  30.589  35.036  1.00  0.00     0.074 A 
ATOM     67  C   UNL A   1      41.381  30.435  36.243  1.00  0.00     0.031 C 
ATOM     68  C   UNL A   1      39.531  31.420  34.920  1.00  0.00     0.031 A 
BRANCH  55  69
ATOM     69  C   UNL A   1      36.911  31.318  29.324  1.00  0.00    -0.014 A 
ATOM     70  C   UNL A   1      36.941  32.624  28.812  1.00  0.00     0.009 A 
ATOM     71  C   UNL A   1      35.853  30.469  28.961  1.00  0.00     0.009 A 
ATOM     72  C   UNL A   1      35.914  33.082  27.984  1.00  0.00     0.001 A 
ATOM     73  C   UNL A   1      34.845  30.919  28.108  1.00  0.00     0.001 A 
ATOM     74  C   UNL A   1      34.870  32.228  27.628  1.00  0.00     0.000 A 
ENDBRANCH  55  69
BRANCH  56  75
ATOM     75  C   UNL A   1      44.229  27.602  34.975  1.00  0.00    -0.014 A 
ATOM     76  C   UNL A   1      44.045  26.420  35.711  1.00  0.00     0.009 A 
ATOM     77  C   UNL A   1      45.452  28.281  35.085  1.00  0.00     0.009 A 
ATOM     78  C   UNL A   1      45.052  25.945  36.553  1.00  0.00     0.001 A 
ATOM     79  C   UNL A   1      46.471  27.786  35.902  1.00  0.00     0.001 A 
ATOM     80  C   UNL A   1      46.266  26.625  36.644  1.00  0.00     0.000 A 
ENDBRANCH  56  75
BRANCH  68  81
ATOM     81  C   UNL A   1      39.117  32.200  36.139  1.00  0.00    -0.014 A 
ATOM     82  C   UNL A   1      39.632  33.478  36.406  1.00  0.00     0.009 A 
ATOM     83  C   UNL A   1      38.151  31.664  37.007  1.00  0.00     0.009 A 
ATOM     84  C   UNL A   1      39.212  34.188  37.535  1.00  0.00     0.001 A 
ATOM     85  C   UNL A   1      37.710  32.389  38.116  1.00  0.00     0.001 A 
ATOM     86  C   UNL A   1      38.248  33.645  38.385  1.00  0.00     0.000 A 
ENDBRANCH  68  81
ENDBRANCH  42  43
ENDBRANCH  35  37
ENDBRANCH  34  35
ENDBRANCH  33  34
ENDBRANCH  32  33
ENDBRANCH  31  32
ENDBRANCH  30  31
ENDBRANCH   1  30
TORSDOF 21
ENDMDL
