MODEL 1
REMARK VINA RESULT:      -8.7      0.000      0.000
REMARK SMILES O=C(OCCOCCOCCOC(=O)[C@H]1CC2(CC[NH+](C(=O)C3CC3)CC2)CN1C(=O)CCn1cccn1)c1ccc(-c2c3nc(c(-c4ccccc4)c4ccc([nH]4)c(-c4ccccc4)c4nc(c(-c5ccccc5)c5ccc2[nH]5)C=C4)C=C3)cc1
REMARK SMILES IDX 8 1 7 2 6 3 5 4 4 5 3 6 2 7 1 8 39 9 40 10 86 11 41 12 85 13
REMARK SMILES IDX 42 14 43 15 44 16 79 17 45 18 84 19 78 20 80 21 46 22 83 23
REMARK SMILES IDX 77 24 76 25 47 27 69 28 54 29 68 30 55 31 58 32 67 33 81 34
REMARK SMILES IDX 56 35 57 36 66 38 82 39 59 40 48 41 49 42 53 43 50 44 52 45
REMARK SMILES IDX 51 46 70 47 71 48 75 49 72 50 74 51 73 52 60 53 61 54 65 55
REMARK SMILES IDX 62 56 64 57 63 58 9 59 10 60 11 61 12 62 13 63 14 64 15 65
REMARK SMILES IDX 16 66 29 67 17 68 28 69 18 70 27 71 19 72 26 73 20 74 30 76
REMARK SMILES IDX 31 77 32 78 33 79 34 80 35 81 38 82 36 83 37 84 21 85 22 86
REMARK SMILES IDX 23 87 24 88 25 89
REMARK H PARENT 80 26 58 37 20 75
REMARK Flexibility Score: inf
ROOT
ATOM      1  C   UNL A   1      32.755  35.692  31.757  1.00  0.00     0.188 C 
ENDROOT
BRANCH   1   2
ATOM      2  C   UNL A   1      32.821  36.571  30.502  1.00  0.00     0.188 C 
BRANCH   2   3
ATOM      3  O   UNL A   1      32.583  36.007  29.215  1.00  0.00    -0.376 OA
BRANCH   3   4
ATOM      4  C   UNL A   1      33.170  34.756  28.904  1.00  0.00     0.202 C 
BRANCH   4   5
ATOM      5  C   UNL A   1      34.643  34.784  28.498  1.00  0.00     0.261 C 
BRANCH   5   6
ATOM      6  O   UNL A   1      35.105  33.706  27.665  1.00  0.00    -0.460 OA
BRANCH   6   7
ATOM      7  C   UNL A   1      35.182  32.375  27.868  1.00  0.00     0.338 C 
ATOM      8  O   UNL A   1      34.243  31.678  27.479  1.00  0.00    -0.246 OA
BRANCH   7   9
ATOM      9  C   UNL A   1      36.283  31.678  28.596  1.00  0.00     0.060 A 
ATOM     10  C   UNL A   1      37.490  32.251  28.987  1.00  0.00     0.016 A 
ATOM     11  C   UNL A   1      36.074  30.304  28.851  1.00  0.00     0.016 A 
ATOM     12  C   UNL A   1      38.536  31.442  29.389  1.00  0.00     0.010 A 
ATOM     13  C   UNL A   1      37.109  29.490  29.275  1.00  0.00     0.010 A 
ATOM     14  C   UNL A   1      38.363  30.057  29.426  1.00  0.00    -0.014 A 
BRANCH  14  15
ATOM     15  C   UNL A   1      39.557  29.246  29.570  1.00  0.00     0.031 A 
ATOM     16  C   UNL A   1      39.987  29.010  30.966  1.00  0.00     0.074 A 
ATOM     17  C   UNL A   1      40.251  28.809  28.500  1.00  0.00     0.049 A 
ATOM     18  N   UNL A   1      41.000  29.536  31.569  1.00  0.00    -0.248 NA
ATOM     19  C   UNL A   1      39.113  28.211  31.833  1.00  0.00     0.031 C 
ATOM     20  C   UNL A   1      39.853  28.779  27.089  1.00  0.00     0.029 A 
ATOM     21  N   UNL A   1      41.477  28.223  28.477  1.00  0.00    -0.354 N 
ATOM     22  C   UNL A   1      41.003  29.002  32.853  1.00  0.00     0.074 A 
ATOM     23  C   UNL A   1      39.754  28.297  33.002  1.00  0.00     0.031 C 
ATOM     24  C   UNL A   1      40.710  27.990  26.398  1.00  0.00     0.029 A 
ATOM     25  C   UNL A   1      41.799  27.603  27.278  1.00  0.00     0.049 A 
ATOM     26  H   UNL A   1      42.088  28.237  29.249  1.00  0.00     0.167 HD
ATOM     27  C   UNL A   1      42.128  29.007  33.618  1.00  0.00     0.031 A 
ATOM     28  C   UNL A   1      42.865  26.796  27.051  1.00  0.00     0.031 A 
ATOM     29  C   UNL A   1      43.106  29.941  33.127  1.00  0.00     0.049 A 
ATOM     30  C   UNL A   1      43.876  27.096  28.092  1.00  0.00     0.074 A 
ATOM     31  C   UNL A   1      43.151  31.311  32.974  1.00  0.00     0.029 A 
ATOM     32  N   UNL A   1      44.114  29.437  32.341  1.00  0.00    -0.354 N 
ATOM     33  N   UNL A   1      44.516  28.229  28.154  1.00  0.00    -0.248 NA
ATOM     34  C   UNL A   1      43.825  26.336  29.331  1.00  0.00     0.031 C 
ATOM     35  C   UNL A   1      43.845  31.518  31.746  1.00  0.00     0.029 A 
ATOM     36  C   UNL A   1      44.246  30.271  31.263  1.00  0.00     0.049 A 
ATOM     37  H   UNL A   1      44.645  28.628  32.520  1.00  0.00     0.167 HD
ATOM     38  C   UNL A   1      44.563  28.533  29.506  1.00  0.00     0.074 A 
ATOM     39  C   UNL A   1      44.195  27.292  30.189  1.00  0.00     0.031 C 
ATOM     40  C   UNL A   1      44.619  29.826  29.938  1.00  0.00     0.031 A 
BRANCH  27  41
ATOM     41  C   UNL A   1      42.506  27.877  34.539  1.00  0.00    -0.014 A 
ATOM     42  C   UNL A   1      43.056  26.707  33.981  1.00  0.00     0.009 A 
ATOM     43  C   UNL A   1      42.064  27.795  35.873  1.00  0.00     0.009 A 
ATOM     44  C   UNL A   1      43.071  25.501  34.691  1.00  0.00     0.001 A 
ATOM     45  C   UNL A   1      42.113  26.602  36.596  1.00  0.00     0.001 A 
ATOM     46  C   UNL A   1      42.587  25.447  35.992  1.00  0.00     0.000 A 
ENDBRANCH  27  41
BRANCH  28  47
ATOM     47  C   UNL A   1      42.912  25.561  26.236  1.00  0.00    -0.014 A 
ATOM     48  C   UNL A   1      43.929  25.352  25.293  1.00  0.00     0.009 A 
ATOM     49  C   UNL A   1      42.115  24.455  26.593  1.00  0.00     0.009 A 
ATOM     50  C   UNL A   1      44.163  24.077  24.754  1.00  0.00     0.001 A 
ATOM     51  C   UNL A   1      42.350  23.184  26.057  1.00  0.00     0.001 A 
ATOM     52  C   UNL A   1      43.384  22.992  25.148  1.00  0.00     0.000 A 
ENDBRANCH  28  47
BRANCH  40  53
ATOM     53  C   UNL A   1      44.839  30.913  28.917  1.00  0.00    -0.014 A 
ATOM     54  C   UNL A   1      43.845  31.841  28.554  1.00  0.00     0.009 A 
ATOM     55  C   UNL A   1      46.146  31.119  28.452  1.00  0.00     0.009 A 
ATOM     56  C   UNL A   1      44.156  32.937  27.741  1.00  0.00     0.001 A 
ATOM     57  C   UNL A   1      46.459  32.223  27.657  1.00  0.00     0.001 A 
ATOM     58  C   UNL A   1      45.464  33.131  27.301  1.00  0.00     0.000 A 
ENDBRANCH  40  53
ENDBRANCH  14  15
ENDBRANCH   7   9
ENDBRANCH   6   7
ENDBRANCH   5   6
ENDBRANCH   4   5
ENDBRANCH   3   4
ENDBRANCH   2   3
ENDBRANCH   1   2
BRANCH   1  59
ATOM     59  O   UNL A   1      33.798  35.961  32.680  1.00  0.00    -0.376 OA
BRANCH  59  60
ATOM     60  C   UNL A   1      34.969  35.169  32.557  1.00  0.00     0.202 C 
BRANCH  60  61
ATOM     61  C   UNL A   1      34.759  33.635  32.412  1.00  0.00     0.261 C 
BRANCH  61  62
ATOM     62  O   UNL A   1      35.279  32.656  33.362  1.00  0.00    -0.462 OA
BRANCH  62  63
ATOM     63  C   UNL A   1      36.611  32.424  33.350  1.00  0.00     0.328 C 
ATOM     64  O   UNL A   1      37.092  31.577  32.644  1.00  0.00    -0.250 OA
BRANCH  63  65
ATOM     65  C   UNL A   1      37.470  33.392  34.151  1.00  0.00     0.195 C 
ATOM     66  C   UNL A   1      38.485  32.737  35.080  1.00  0.00     0.046 C 
ATOM     67  N   UNL A   1      38.288  34.469  33.522  1.00  0.00    -0.328 N 
ATOM     68  C   UNL A   1      39.475  33.886  35.469  1.00  0.00     0.001 C 
ATOM     69  C   UNL A   1      38.973  35.099  34.650  1.00  0.00     0.128 C 
ATOM     70  C   UNL A   1      40.926  33.565  35.053  1.00  0.00     0.071 C 
ATOM     71  C   UNL A   1      39.475  34.151  36.981  1.00  0.00     0.071 C 
ATOM     72  C   UNL A   1      41.524  32.409  35.842  1.00  0.00     0.270 C 
ATOM     73  C   UNL A   1      40.089  32.981  37.759  1.00  0.00     0.270 C 
ATOM     74  N   UNL A   1      41.434  32.644  37.276  1.00  0.00    -0.272 N 
ATOM     75  H   UNL A   1      42.321  32.259  37.089  1.00  0.00     0.356 HD
BRANCH  67  76
ATOM     76  C   UNL A   1      38.995  34.455  32.310  1.00  0.00     0.225 C 
ATOM     77  O   UNL A   1      38.444  34.780  31.250  1.00  0.00    -0.275 OA
BRANCH  76  78
ATOM     78  C   UNL A   1      40.383  33.855  32.202  1.00  0.00     0.124 C 
BRANCH  78  79
ATOM     79  C   UNL A   1      40.995  33.582  30.806  1.00  0.00     0.154 C 
BRANCH  79  80
ATOM     80  N   UNL A   1      41.894  34.543  30.189  1.00  0.00    -0.272 N 
ATOM     81  C   UNL A   1      41.723  35.197  29.000  1.00  0.00     0.108 A 
ATOM     82  N   UNL A   1      43.081  34.862  30.769  1.00  0.00    -0.182 NA
ATOM     83  C   UNL A   1      42.677  36.192  28.976  1.00  0.00     0.042 A 
ATOM     84  C   UNL A   1      43.458  35.969  30.122  1.00  0.00     0.135 A 
ENDBRANCH  79  80
ENDBRANCH  78  79
ENDBRANCH  76  78
ENDBRANCH  67  76
BRANCH  74  85
ATOM     85  C   UNL A   1      42.433  32.461  38.238  1.00  0.00     0.315 C 
ATOM     86  O   UNL A   1      42.327  31.570  39.082  1.00  0.00    -0.231 OA
BRANCH  85  87
ATOM     87  C   UNL A   1      43.667  33.296  38.362  1.00  0.00     0.119 C 
ATOM     88  C   UNL A   1      44.627  33.792  37.320  1.00  0.00     0.019 C 
ATOM     89  C   UNL A   1      43.675  34.756  37.983  1.00  0.00     0.019 C 
ENDBRANCH  85  87
ENDBRANCH  74  85
ENDBRANCH  63  65
ENDBRANCH  62  63
ENDBRANCH  61  62
ENDBRANCH  60  61
ENDBRANCH  59  60
ENDBRANCH   1  59
TORSDOF 23
ENDMDL
MODEL 2
REMARK VINA RESULT:      -8.4      1.468      3.220
REMARK SMILES O=C(OCCOCCOCCOC(=O)[C@H]1CC2(CC[NH+](C(=O)C3CC3)CC2)CN1C(=O)CCn1cccn1)c1ccc(-c2c3nc(c(-c4ccccc4)c4ccc([nH]4)c(-c4ccccc4)c4nc(c(-c5ccccc5)c5ccc2[nH]5)C=C4)C=C3)cc1
REMARK SMILES IDX 8 1 7 2 6 3 5 4 4 5 3 6 2 7 1 8 39 9 40 10 86 11 41 12 85 13
REMARK SMILES IDX 42 14 43 15 44 16 79 17 45 18 84 19 78 20 80 21 46 22 83 23
REMARK SMILES IDX 77 24 76 25 47 27 69 28 54 29 68 30 55 31 58 32 67 33 81 34
REMARK SMILES IDX 56 35 57 36 66 38 82 39 59 40 48 41 49 42 53 43 50 44 52 45
REMARK SMILES IDX 51 46 70 47 71 48 75 49 72 50 74 51 73 52 60 53 61 54 65 55
REMARK SMILES IDX 62 56 64 57 63 58 9 59 10 60 11 61 12 62 13 63 14 64 15 65
REMARK SMILES IDX 16 66 29 67 17 68 28 69 18 70 27 71 19 72 26 73 20 74 30 76
REMARK SMILES IDX 31 77 32 78 33 79 34 80 35 81 38 82 36 83 37 84 21 85 22 86
REMARK SMILES IDX 23 87 24 88 25 89
REMARK H PARENT 80 26 58 37 20 75
REMARK Flexibility Score: inf
ROOT
ATOM      1  C   UNL A   1      32.842  35.843  31.061  1.00  0.00     0.188 C 
ENDROOT
BRANCH   1   2
ATOM      2  C   UNL A   1      33.124  36.741  29.851  1.00  0.00     0.188 C 
BRANCH   2   3
ATOM      3  O   UNL A   1      33.113  36.197  28.533  1.00  0.00    -0.376 OA
BRANCH   3   4
ATOM      4  C   UNL A   1      33.323  34.806  28.372  1.00  0.00     0.202 C 
BRANCH   4   5
ATOM      5  C   UNL A   1      34.764  34.317  28.521  1.00  0.00     0.261 C 
BRANCH   5   6
ATOM      6  O   UNL A   1      35.172  33.235  27.666  1.00  0.00    -0.460 OA
BRANCH   6   7
ATOM      7  C   UNL A   1      35.301  31.910  27.884  1.00  0.00     0.338 C 
ATOM      8  O   UNL A   1      34.396  31.171  27.492  1.00  0.00    -0.246 OA
BRANCH   7   9
ATOM      9  C   UNL A   1      36.422  31.267  28.631  1.00  0.00     0.060 A 
ATOM     10  C   UNL A   1      37.628  31.875  28.970  1.00  0.00     0.016 A 
ATOM     11  C   UNL A   1      36.234  29.907  28.964  1.00  0.00     0.016 A 
ATOM     12  C   UNL A   1      38.690  31.101  29.399  1.00  0.00     0.010 A 
ATOM     13  C   UNL A   1      37.286  29.130  29.416  1.00  0.00     0.010 A 
ATOM     14  C   UNL A   1      38.535  29.719  29.515  1.00  0.00    -0.014 A 
BRANCH  14  15
ATOM     15  C   UNL A   1      39.741  28.930  29.684  1.00  0.00     0.031 A 
ATOM     16  C   UNL A   1      40.196  28.776  31.083  1.00  0.00     0.074 A 
ATOM     17  C   UNL A   1      40.424  28.443  28.628  1.00  0.00     0.049 A 
ATOM     18  N   UNL A   1      41.211  29.347  31.640  1.00  0.00    -0.248 NA
ATOM     19  C   UNL A   1      39.345  28.017  32.007  1.00  0.00     0.031 C 
ATOM     20  C   UNL A   1      40.004  28.331  27.227  1.00  0.00     0.029 A 
ATOM     21  N   UNL A   1      41.656  27.871  28.617  1.00  0.00    -0.354 N 
ATOM     22  C   UNL A   1      41.241  28.885  32.951  1.00  0.00     0.074 A 
ATOM     23  C   UNL A   1      40.003  28.175  33.158  1.00  0.00     0.031 C 
ATOM     24  C   UNL A   1      40.859  27.515  26.567  1.00  0.00     0.029 A 
ATOM     25  C   UNL A   1      41.967  27.189  27.449  1.00  0.00     0.049 A 
ATOM     26  H   UNL A   1      42.279  27.934  29.377  1.00  0.00     0.167 HD
ATOM     27  C   UNL A   1      42.378  28.944  33.696  1.00  0.00     0.031 A 
ATOM     28  C   UNL A   1      43.039  26.383  27.249  1.00  0.00     0.031 A 
ATOM     29  C   UNL A   1      43.336  29.861  33.139  1.00  0.00     0.049 A 
ATOM     30  C   UNL A   1      44.062  26.752  28.255  1.00  0.00     0.074 A 
ATOM     31  C   UNL A   1      43.361  31.221  32.909  1.00  0.00     0.029 A 
ATOM     32  N   UNL A   1      44.338  29.327  32.365  1.00  0.00    -0.354 N 
ATOM     33  N   UNL A   1      44.690  27.894  28.245  1.00  0.00    -0.248 NA
ATOM     34  C   UNL A   1      44.040  26.061  29.535  1.00  0.00     0.031 C 
ATOM     35  C   UNL A   1      44.034  31.368  31.661  1.00  0.00     0.029 A 
ATOM     36  C   UNL A   1      44.443  30.101  31.241  1.00  0.00     0.049 A 
ATOM     37  H   UNL A   1      44.881  28.534  32.580  1.00  0.00     0.167 HD
ATOM     38  C   UNL A   1      44.754  28.273  29.577  1.00  0.00     0.074 A 
ATOM     39  C   UNL A   1      44.412  27.067  30.333  1.00  0.00     0.031 C 
ATOM     40  C   UNL A   1      44.800  29.588  29.936  1.00  0.00     0.031 A 
BRANCH  27  41
ATOM     41  C   UNL A   1      42.784  27.871  34.672  1.00  0.00    -0.014 A 
ATOM     42  C   UNL A   1      42.959  26.558  34.195  1.00  0.00     0.009 A 
ATOM     43  C   UNL A   1      42.700  28.033  36.067  1.00  0.00     0.009 A 
ATOM     44  C   UNL A   1      42.952  25.463  35.066  1.00  0.00     0.001 A 
ATOM     45  C   UNL A   1      42.731  26.945  36.940  1.00  0.00     0.001 A 
ATOM     46  C   UNL A   1      42.825  25.656  36.436  1.00  0.00     0.000 A 
ENDBRANCH  27  41
BRANCH  28  47
ATOM     47  C   UNL A   1      43.088  25.106  26.503  1.00  0.00    -0.014 A 
ATOM     48  C   UNL A   1      43.678  25.030  25.232  1.00  0.00     0.009 A 
ATOM     49  C   UNL A   1      42.810  23.895  27.167  1.00  0.00     0.009 A 
ATOM     50  C   UNL A   1      44.010  23.790  24.663  1.00  0.00     0.001 A 
ATOM     51  C   UNL A   1      43.143  22.659  26.600  1.00  0.00     0.001 A 
ATOM     52  C   UNL A   1      43.756  22.608  25.354  1.00  0.00     0.000 A 
ENDBRANCH  28  47
BRANCH  40  53
ATOM     53  C   UNL A   1      44.991  30.619  28.853  1.00  0.00    -0.014 A 
ATOM     54  C   UNL A   1      46.254  31.106  28.468  1.00  0.00     0.009 A 
ATOM     55  C   UNL A   1      43.878  30.964  28.074  1.00  0.00     0.009 A 
ATOM     56  C   UNL A   1      46.390  31.921  27.339  1.00  0.00     0.001 A 
ATOM     57  C   UNL A   1      44.017  31.762  26.937  1.00  0.00     0.001 A 
ATOM     58  C   UNL A   1      45.272  32.241  26.570  1.00  0.00     0.000 A 
ENDBRANCH  40  53
ENDBRANCH  14  15
ENDBRANCH   7   9
ENDBRANCH   6   7
ENDBRANCH   5   6
ENDBRANCH   4   5
ENDBRANCH   3   4
ENDBRANCH   2   3
ENDBRANCH   1   2
BRANCH   1  59
ATOM     59  O   UNL A   1      33.604  36.195  32.204  1.00  0.00    -0.376 OA
BRANCH  59  60
ATOM     60  C   UNL A   1      34.635  35.296  32.579  1.00  0.00     0.202 C 
BRANCH  60  61
ATOM     61  C   UNL A   1      34.198  33.846  32.934  1.00  0.00     0.261 C 
BRANCH  61  62
ATOM     62  O   UNL A   1      34.706  33.110  34.088  1.00  0.00    -0.462 OA
BRANCH  62  63
ATOM     63  C   UNL A   1      35.876  33.523  34.623  1.00  0.00     0.328 C 
ATOM     64  O   UNL A   1      35.907  34.325  35.518  1.00  0.00    -0.250 OA
BRANCH  63  65
ATOM     65  C   UNL A   1      37.128  32.802  34.142  1.00  0.00     0.195 C 
ATOM     66  C   UNL A   1      38.290  33.711  33.760  1.00  0.00     0.046 C 
ATOM     67  N   UNL A   1      37.819  31.747  34.938  1.00  0.00    -0.328 N 
ATOM     68  C   UNL A   1      39.536  32.765  33.690  1.00  0.00     0.001 C 
ATOM     69  C   UNL A   1      38.978  31.387  34.121  1.00  0.00     0.128 C 
ATOM     70  C   UNL A   1      40.642  33.191  34.677  1.00  0.00     0.071 C 
ATOM     71  C   UNL A   1      40.153  32.740  32.284  1.00  0.00     0.071 C 
ATOM     72  C   UNL A   1      41.286  34.519  34.304  1.00  0.00     0.270 C 
ATOM     73  C   UNL A   1      40.805  34.082  31.930  1.00  0.00     0.270 C 
ATOM     74  N   UNL A   1      41.787  34.501  32.938  1.00  0.00    -0.272 N 
ATOM     75  H   UNL A   1      42.456  34.957  33.498  1.00  0.00     0.356 HD
BRANCH  67  76
ATOM     76  C   UNL A   1      38.001  31.659  36.326  1.00  0.00     0.225 C 
ATOM     77  O   UNL A   1      37.850  30.583  36.919  1.00  0.00    -0.275 OA
BRANCH  76  78
ATOM     78  C   UNL A   1      38.186  32.892  37.188  1.00  0.00     0.124 C 
BRANCH  78  79
ATOM     79  C   UNL A   1      39.492  33.073  38.000  1.00  0.00     0.154 C 
BRANCH  79  80
ATOM     80  N   UNL A   1      40.193  34.346  38.006  1.00  0.00    -0.272 N 
ATOM     81  C   UNL A   1      41.524  34.561  38.233  1.00  0.00     0.108 A 
ATOM     82  N   UNL A   1      39.524  35.513  37.808  1.00  0.00    -0.182 NA
ATOM     83  C   UNL A   1      41.765  35.866  37.861  1.00  0.00     0.042 A 
ATOM     84  C   UNL A   1      40.498  36.392  37.557  1.00  0.00     0.135 A 
ENDBRANCH  79  80
ENDBRANCH  78  79
ENDBRANCH  76  78
ENDBRANCH  67  76
BRANCH  74  85
ATOM     85  C   UNL A   1      43.028  34.950  32.475  1.00  0.00     0.315 C 
ATOM     86  O   UNL A   1      43.133  35.431  31.346  1.00  0.00    -0.231 OA
BRANCH  85  87
ATOM     87  C   UNL A   1      44.307  34.881  33.246  1.00  0.00     0.119 C 
ATOM     88  C   UNL A   1      45.724  34.699  32.784  1.00  0.00     0.019 C 
ATOM     89  C   UNL A   1      45.267  36.043  33.292  1.00  0.00     0.019 C 
ENDBRANCH  85  87
ENDBRANCH  74  85
ENDBRANCH  63  65
ENDBRANCH  62  63
ENDBRANCH  61  62
ENDBRANCH  60  61
ENDBRANCH  59  60
ENDBRANCH   1  59
TORSDOF 23
ENDMDL
MODEL 3
REMARK VINA RESULT:      -7.0      3.911      9.808
REMARK SMILES O=C(OCCOCCOCCOC(=O)[C@H]1CC2(CC[NH+](C(=O)C3CC3)CC2)CN1C(=O)CCn1cccn1)c1ccc(-c2c3nc(c(-c4ccccc4)c4ccc([nH]4)c(-c4ccccc4)c4nc(c(-c5ccccc5)c5ccc2[nH]5)C=C4)C=C3)cc1
REMARK SMILES IDX 8 1 7 2 6 3 5 4 4 5 3 6 2 7 1 8 39 9 40 10 86 11 41 12 85 13
REMARK SMILES IDX 42 14 43 15 44 16 79 17 45 18 84 19 78 20 80 21 46 22 83 23
REMARK SMILES IDX 77 24 76 25 47 27 69 28 54 29 68 30 55 31 58 32 67 33 81 34
REMARK SMILES IDX 56 35 57 36 66 38 82 39 59 40 48 41 49 42 53 43 50 44 52 45
REMARK SMILES IDX 51 46 70 47 71 48 75 49 72 50 74 51 73 52 60 53 61 54 65 55
REMARK SMILES IDX 62 56 64 57 63 58 9 59 10 60 11 61 12 62 13 63 14 64 15 65
REMARK SMILES IDX 16 66 29 67 17 68 28 69 18 70 27 71 19 72 26 73 20 74 30 76
REMARK SMILES IDX 31 77 32 78 33 79 34 80 35 81 38 82 36 83 37 84 21 85 22 86
REMARK SMILES IDX 23 87 24 88 25 89
REMARK H PARENT 80 26 58 37 20 75
REMARK Flexibility Score: inf
ROOT
ATOM      1  C   UNL A   1      38.505  28.383  29.312  1.00  0.00     0.188 C 
ENDROOT
BRANCH   1   2
ATOM      2  C   UNL A   1      38.937  29.819  28.987  1.00  0.00     0.188 C 
BRANCH   2   3
ATOM      3  O   UNL A   1      38.049  30.701  28.305  1.00  0.00    -0.376 OA
BRANCH   3   4
ATOM      4  C   UNL A   1      36.909  30.154  27.667  1.00  0.00     0.202 C 
BRANCH   4   5
ATOM      5  C   UNL A   1      35.554  30.524  28.269  1.00  0.00     0.261 C 
BRANCH   5   6
ATOM      6  O   UNL A   1      35.244  31.926  28.353  1.00  0.00    -0.460 OA
BRANCH   6   7
ATOM      7  C   UNL A   1      34.931  32.722  29.395  1.00  0.00     0.338 C 
ATOM      8  O   UNL A   1      33.949  33.459  29.283  1.00  0.00    -0.246 OA
BRANCH   7   9
ATOM      9  C   UNL A   1      35.723  32.841  30.655  1.00  0.00     0.060 A 
ATOM     10  C   UNL A   1      36.748  33.755  30.887  1.00  0.00     0.016 A 
ATOM     11  C   UNL A   1      35.419  31.897  31.660  1.00  0.00     0.016 A 
ATOM     12  C   UNL A   1      37.592  33.578  31.967  1.00  0.00     0.010 A 
ATOM     13  C   UNL A   1      36.246  31.729  32.757  1.00  0.00     0.010 A 
ATOM     14  C   UNL A   1      37.392  32.500  32.832  1.00  0.00    -0.014 A 
BRANCH  14  15
ATOM     15  C   UNL A   1      38.460  32.194  33.764  1.00  0.00     0.031 A 
ATOM     16  C   UNL A   1      38.434  32.974  35.022  1.00  0.00     0.074 A 
ATOM     17  C   UNL A   1      39.437  31.315  33.461  1.00  0.00     0.049 A 
ATOM     18  N   UNL A   1      39.228  33.935  35.360  1.00  0.00    -0.248 NA
ATOM     19  C   UNL A   1      37.313  32.761  35.945  1.00  0.00     0.031 C 
ATOM     20  C   UNL A   1      39.490  30.330  32.376  1.00  0.00     0.029 A 
ATOM     21  N   UNL A   1      40.593  31.080  34.136  1.00  0.00    -0.354 N 
ATOM     22  C   UNL A   1      38.821  34.343  36.626  1.00  0.00     0.074 A 
ATOM     23  C   UNL A   1      37.566  33.678  36.881  1.00  0.00     0.031 C 
ATOM     24  C   UNL A   1      40.494  29.454  32.616  1.00  0.00     0.029 A 
ATOM     25  C   UNL A   1      41.249  29.914  33.768  1.00  0.00     0.049 A 
ATOM     26  H   UNL A   1      40.937  31.687  34.829  1.00  0.00     0.167 HD
ATOM     27  C   UNL A   1      39.656  35.032  37.449  1.00  0.00     0.031 A 
ATOM     28  C   UNL A   1      42.309  29.354  34.402  1.00  0.00     0.031 A 
ATOM     29  C   UNL A   1      40.764  35.603  36.732  1.00  0.00     0.049 A 
ATOM     30  C   UNL A   1      42.960  30.420  35.199  1.00  0.00     0.074 A 
ATOM     31  C   UNL A   1      40.894  36.549  35.735  1.00  0.00     0.029 A 
ATOM     32  N   UNL A   1      41.950  34.909  36.753  1.00  0.00    -0.354 N 
ATOM     33  N   UNL A   1      43.583  31.429  34.662  1.00  0.00    -0.248 NA
ATOM     34  C   UNL A   1      42.509  30.618  36.568  1.00  0.00     0.031 C 
ATOM     35  C   UNL A   1      41.937  36.056  34.898  1.00  0.00     0.029 A 
ATOM     36  C   UNL A   1      42.431  34.882  35.471  1.00  0.00     0.049 A 
ATOM     37  H   UNL A   1      42.376  34.507  37.544  1.00  0.00     0.167 HD
ATOM     38  C   UNL A   1      43.221  32.520  35.438  1.00  0.00     0.074 A 
ATOM     39  C   UNL A   1      42.626  31.947  36.646  1.00  0.00     0.031 C 
ATOM     40  C   UNL A   1      43.179  33.779  34.912  1.00  0.00     0.031 A 
BRANCH  27  41
ATOM     41  C   UNL A   1      39.701  34.828  38.941  1.00  0.00    -0.014 A 
ATOM     42  C   UNL A   1      40.033  33.553  39.438  1.00  0.00     0.009 A 
ATOM     43  C   UNL A   1      39.135  35.737  39.854  1.00  0.00     0.009 A 
ATOM     44  C   UNL A   1      39.726  33.183  40.752  1.00  0.00     0.001 A 
ATOM     45  C   UNL A   1      38.864  35.382  41.177  1.00  0.00     0.001 A 
ATOM     46  C   UNL A   1      39.130  34.094  41.616  1.00  0.00     0.000 A 
ENDBRANCH  27  41
BRANCH  28  47
ATOM     47  C   UNL A   1      42.568  27.916  34.643  1.00  0.00    -0.014 A 
ATOM     48  C   UNL A   1      43.843  27.460  35.013  1.00  0.00     0.009 A 
ATOM     49  C   UNL A   1      41.488  27.024  34.789  1.00  0.00     0.009 A 
ATOM     50  C   UNL A   1      44.023  26.173  35.544  1.00  0.00     0.001 A 
ATOM     51  C   UNL A   1      41.668  25.742  35.319  1.00  0.00     0.001 A 
ATOM     52  C   UNL A   1      42.934  25.322  35.710  1.00  0.00     0.000 A 
ENDBRANCH  28  47
BRANCH  40  53
ATOM     53  C   UNL A   1      43.734  33.994  33.527  1.00  0.00    -0.014 A 
ATOM     54  C   UNL A   1      42.961  33.857  32.359  1.00  0.00     0.009 A 
ATOM     55  C   UNL A   1      45.022  34.537  33.414  1.00  0.00     0.009 A 
ATOM     56  C   UNL A   1      43.474  34.245  31.116  1.00  0.00     0.001 A 
ATOM     57  C   UNL A   1      45.525  34.941  32.177  1.00  0.00     0.001 A 
ATOM     58  C   UNL A   1      44.752  34.794  31.028  1.00  0.00     0.000 A 
ENDBRANCH  40  53
ENDBRANCH  14  15
ENDBRANCH   7   9
ENDBRANCH   6   7
ENDBRANCH   5   6
ENDBRANCH   4   5
ENDBRANCH   3   4
ENDBRANCH   2   3
ENDBRANCH   1   2
BRANCH   1  59
ATOM     59  O   UNL A   1      38.912  27.445  28.328  1.00  0.00    -0.376 OA
BRANCH  59  60
ATOM     60  C   UNL A   1      40.074  26.687  28.621  1.00  0.00     0.202 C 
BRANCH  60  61
ATOM     61  C   UNL A   1      41.311  26.930  27.710  1.00  0.00     0.261 C 
BRANCH  61  62
ATOM     62  O   UNL A   1      42.360  25.938  27.491  1.00  0.00    -0.462 OA
BRANCH  62  63
ATOM     63  C   UNL A   1      42.785  25.753  26.222  1.00  0.00     0.328 C 
ATOM     64  O   UNL A   1      42.024  25.441  25.345  1.00  0.00    -0.250 OA
BRANCH  63  65
ATOM     65  C   UNL A   1      44.238  26.115  25.939  1.00  0.00     0.195 C 
ATOM     66  C   UNL A   1      45.112  26.288  27.175  1.00  0.00     0.046 C 
ATOM     67  N   UNL A   1      45.123  25.304  25.055  1.00  0.00    -0.328 N 
ATOM     68  C   UNL A   1      46.581  26.257  26.637  1.00  0.00     0.001 C 
ATOM     69  C   UNL A   1      46.414  25.987  25.122  1.00  0.00     0.128 C 
ATOM     70  C   UNL A   1      47.404  25.112  27.264  1.00  0.00     0.071 C 
ATOM     71  C   UNL A   1      47.321  27.572  26.926  1.00  0.00     0.071 C 
ATOM     72  C   UNL A   1      47.661  25.316  28.750  1.00  0.00     0.270 C 
ATOM     73  C   UNL A   1      47.580  27.755  28.426  1.00  0.00     0.270 C 
ATOM     74  N   UNL A   1      48.285  26.606  29.009  1.00  0.00    -0.272 N 
ATOM     75  H   UNL A   1      48.727  25.938  29.580  1.00  0.00     0.356 HD
BRANCH  67  76
ATOM     76  C   UNL A   1      45.177  23.912  24.888  1.00  0.00     0.225 C 
ATOM     77  O   UNL A   1      45.444  23.414  23.787  1.00  0.00    -0.275 OA
BRANCH  76  78
ATOM     78  C   UNL A   1      44.719  22.958  25.974  1.00  0.00     0.124 C 
BRANCH  78  79
ATOM     79  C   UNL A   1      43.412  22.149  25.784  1.00  0.00     0.154 C 
BRANCH  79  80
ATOM     80  N   UNL A   1      43.435  20.696  25.766  1.00  0.00    -0.272 N 
ATOM     81  C   UNL A   1      42.508  19.843  26.299  1.00  0.00     0.108 A 
ATOM     82  N   UNL A   1      44.474  20.020  25.209  1.00  0.00    -0.182 NA
ATOM     83  C   UNL A   1      42.808  18.596  25.795  1.00  0.00     0.042 A 
ATOM     84  C   UNL A   1      44.006  18.775  25.083  1.00  0.00     0.135 A 
ENDBRANCH  79  80
ENDBRANCH  78  79
ENDBRANCH  76  78
ENDBRANCH  67  76
BRANCH  74  85
ATOM     85  C   UNL A   1      49.378  26.877  29.837  1.00  0.00     0.315 C 
ATOM     86  O   UNL A   1      49.226  26.971  31.056  1.00  0.00    -0.231 OA
BRANCH  85  87
ATOM     87  C   UNL A   1      50.779  27.098  29.363  1.00  0.00     0.119 C 
ATOM     88  C   UNL A   1      52.047  26.355  29.667  1.00  0.00     0.019 C 
ATOM     89  C   UNL A   1      51.405  26.220  28.309  1.00  0.00     0.019 C 
ENDBRANCH  85  87
ENDBRANCH  74  85
ENDBRANCH  63  65
ENDBRANCH  62  63
ENDBRANCH  61  62
ENDBRANCH  60  61
ENDBRANCH  59  60
ENDBRANCH   1  59
TORSDOF 23
ENDMDL
