MODEL 1
REMARK VINA RESULT:     -11.0      0.000      0.000
REMARK SMILES CCc1ccc2c(CC(=O)OCCOCCOCCOC(=O)c3ccc(-c4c5nc(c(-c6ccccc6)c6ccc([nH]6)c(-c6ccccc6)c6nc(c(-c7ccccc7)c7ccc4[nH]7)C=C6)C=C5)cc3)c(C(=O)c3cc(C)ccn3)[nH]c2c1
REMARK SMILES IDX 15 1 14 2 13 3 12 4 11 5 9 6 10 7 8 8 7 9 3 10 4 11 83 12
REMARK SMILES IDX 5 13 82 14 6 15 81 16 71 17 2 19 1 20 72 21 73 22 74 23
REMARK SMILES IDX 75 24 80 25 76 26 79 27 77 28 78 29 16 30 17 31 18 32 19 33
REMARK SMILES IDX 20 34 21 35 22 36 23 37 24 38 70 39 25 40 69 41 26 42 27 43
REMARK SMILES IDX 28 44 63 45 29 46 68 47 62 48 64 49 30 50 67 51 61 52 60 53
REMARK SMILES IDX 31 55 53 56 38 57 52 58 39 59 42 60 51 61 65 62 40 63 41 64
REMARK SMILES IDX 50 66 66 67 43 68 32 69 33 70 37 71 34 72 36 73 35 74 54 75
REMARK SMILES IDX 55 76 59 77 56 78 58 79 57 80 44 81 45 82 49 83 46 84 48 85
REMARK SMILES IDX 47 86
REMARK H PARENT 81 18 64 54 42 65
REMARK Flexibility Score: inf
ROOT
ATOM      1  C   UNL A   1      33.685  32.421  28.229  1.00  0.00     0.188 C 
ENDROOT
BRANCH   1   2
ATOM      2  O   UNL A   1      34.781  31.769  27.591  1.00  0.00    -0.376 OA
BRANCH   2   3
ATOM      3  C   UNL A   1      34.706  30.362  27.403  1.00  0.00     0.202 C 
BRANCH   3   4
ATOM      4  C   UNL A   1      33.502  29.873  26.592  1.00  0.00     0.261 C 
BRANCH   4   5
ATOM      5  O   UNL A   1      32.887  28.709  27.187  1.00  0.00    -0.463 OA
BRANCH   5   6
ATOM      6  C   UNL A   1      31.701  28.310  26.663  1.00  0.00     0.310 C 
ATOM      7  O   UNL A   1      30.900  27.598  27.263  1.00  0.00    -0.252 OA
BRANCH   6   8
ATOM      8  C   UNL A   1      31.352  28.972  25.338  1.00  0.00     0.161 C 
BRANCH   8   9
ATOM      9  C   UNL A   1      31.409  28.154  24.069  1.00  0.00     0.000 A 
ATOM     10  C   UNL A   1      33.613  24.758  22.859  1.00  0.00    -0.046 A 
ATOM     11  C   UNL A   1      34.066  25.400  24.019  1.00  0.00     0.004 A 
ATOM     12  C   UNL A   1      32.586  25.341  22.104  1.00  0.00     0.030 A 
ATOM     13  C   UNL A   1      33.475  26.589  24.480  1.00  0.00     0.011 A 
ATOM     14  C   UNL A   1      31.989  26.503  22.601  1.00  0.00     0.046 A 
ATOM     15  C   UNL A   1      32.375  27.125  23.784  1.00  0.00     0.004 A 
ATOM     16  N   UNL A   1      30.932  27.217  22.103  1.00  0.00    -0.352 N 
ATOM     17  C   UNL A   1      30.406  28.014  23.095  1.00  0.00     0.093 A 
ATOM     18  H   UNL A   1      30.597  27.168  21.178  1.00  0.00     0.167 HD
BRANCH  10  19
ATOM     19  C   UNL A   1      34.155  23.399  22.480  1.00  0.00     0.032 C 
ATOM     20  C   UNL A   1      34.774  22.633  23.641  1.00  0.00     0.009 C 
ENDBRANCH  10  19
BRANCH  17  21
ATOM     21  C   UNL A   1      29.029  28.489  23.083  1.00  0.00     0.227 C 
ATOM     22  O   UNL A   1      28.077  27.814  23.466  1.00  0.00    -0.285 OA
BRANCH  21  23
ATOM     23  C   UNL A   1      28.740  29.845  22.525  1.00  0.00     0.113 A 
ATOM     24  C   UNL A   1      29.088  30.992  23.233  1.00  0.00     0.036 A 
ATOM     25  N   UNL A   1      28.169  29.858  21.296  1.00  0.00    -0.253 NA
ATOM     26  C   UNL A   1      28.866  32.235  22.627  1.00  0.00    -0.047 A 
ATOM     27  C   UNL A   1      28.031  31.068  20.710  1.00  0.00     0.112 A 
ATOM     28  C   UNL A   1      29.178  33.527  23.322  1.00  0.00     0.044 C 
ATOM     29  C   UNL A   1      28.368  32.263  21.321  1.00  0.00     0.023 A 
ENDBRANCH  21  23
ENDBRANCH  17  21
ENDBRANCH   8   9
ENDBRANCH   6   8
ENDBRANCH   5   6
ENDBRANCH   4   5
ENDBRANCH   3   4
ENDBRANCH   2   3
ENDBRANCH   1   2
BRANCH   1  30
ATOM     30  C   UNL A   1      33.453  33.926  27.974  1.00  0.00     0.188 C 
BRANCH  30  31
ATOM     31  O   UNL A   1      34.009  34.766  28.978  1.00  0.00    -0.376 OA
BRANCH  31  32
ATOM     32  C   UNL A   1      33.805  36.155  28.761  1.00  0.00     0.202 C 
BRANCH  32  33
ATOM     33  C   UNL A   1      33.055  36.792  29.927  1.00  0.00     0.261 C 
BRANCH  33  34
ATOM     34  O   UNL A   1      32.536  35.789  30.825  1.00  0.00    -0.460 OA
BRANCH  34  35
ATOM     35  C   UNL A   1      32.673  36.011  32.143  1.00  0.00     0.338 C 
ATOM     36  O   UNL A   1      32.011  36.786  32.828  1.00  0.00    -0.246 OA
BRANCH  35  37
ATOM     37  C   UNL A   1      33.804  35.224  32.681  1.00  0.00     0.060 A 
ATOM     38  C   UNL A   1      35.117  35.705  32.679  1.00  0.00     0.016 A 
ATOM     39  C   UNL A   1      33.556  33.920  33.106  1.00  0.00     0.016 A 
ATOM     40  C   UNL A   1      36.185  34.875  33.033  1.00  0.00     0.010 A 
ATOM     41  C   UNL A   1      34.616  33.111  33.523  1.00  0.00     0.010 A 
ATOM     42  C   UNL A   1      35.946  33.569  33.467  1.00  0.00    -0.014 A 
BRANCH  42  43
ATOM     43  C   UNL A   1      37.046  32.640  33.837  1.00  0.00     0.031 A 
ATOM     44  C   UNL A   1      37.777  32.838  35.136  1.00  0.00     0.074 A 
ATOM     45  C   UNL A   1      37.452  31.671  32.997  1.00  0.00     0.049 A 
ATOM     46  N   UNL A   1      38.955  32.401  35.501  1.00  0.00    -0.248 NA
ATOM     47  C   UNL A   1      37.089  33.645  36.155  1.00  0.00     0.031 C 
ATOM     48  C   UNL A   1      36.787  31.279  31.756  1.00  0.00     0.029 A 
ATOM     49  N   UNL A   1      38.560  30.857  33.055  1.00  0.00    -0.354 N 
ATOM     50  C   UNL A   1      39.178  32.929  36.765  1.00  0.00     0.074 A 
ATOM     51  C   UNL A   1      38.006  33.709  37.110  1.00  0.00     0.031 C 
ATOM     52  C   UNL A   1      37.508  30.317  31.157  1.00  0.00     0.029 A 
ATOM     53  C   UNL A   1      38.728  30.091  31.926  1.00  0.00     0.049 A 
ATOM     54  H   UNL A   1      39.171  30.826  33.826  1.00  0.00     0.167 HD
ATOM     55  C   UNL A   1      40.268  32.790  37.558  1.00  0.00     0.031 A 
ATOM     56  C   UNL A   1      39.775  29.350  31.515  1.00  0.00     0.031 A 
ATOM     57  C   UNL A   1      41.423  32.000  37.216  1.00  0.00     0.049 A 
ATOM     58  C   UNL A   1      41.020  29.293  32.355  1.00  0.00     0.074 A 
ATOM     59  C   UNL A   1      42.581  31.801  37.951  1.00  0.00     0.029 A 
ATOM     60  N   UNL A   1      41.564  31.272  36.046  1.00  0.00    -0.354 N 
ATOM     61  N   UNL A   1      41.263  29.854  33.514  1.00  0.00    -0.248 NA
ATOM     62  C   UNL A   1      42.146  28.515  31.816  1.00  0.00     0.031 C 
ATOM     63  C   UNL A   1      43.441  30.994  37.200  1.00  0.00     0.029 A 
ATOM     64  C   UNL A   1      42.797  30.642  36.026  1.00  0.00     0.049 A 
ATOM     65  H   UNL A   1      40.886  31.211  35.334  1.00  0.00     0.167 HD
ATOM     66  C   UNL A   1      42.556  29.478  33.854  1.00  0.00     0.074 A 
ATOM     67  C   UNL A   1      43.044  28.633  32.784  1.00  0.00     0.031 C 
ATOM     68  C   UNL A   1      43.273  29.801  34.958  1.00  0.00     0.031 A 
BRANCH  55  69
ATOM     69  C   UNL A   1      40.294  33.564  38.846  1.00  0.00    -0.014 A 
ATOM     70  C   UNL A   1      40.894  34.828  38.935  1.00  0.00     0.009 A 
ATOM     71  C   UNL A   1      39.668  33.025  39.981  1.00  0.00     0.009 A 
ATOM     72  C   UNL A   1      40.894  35.523  40.147  1.00  0.00     0.001 A 
ATOM     73  C   UNL A   1      39.646  33.734  41.184  1.00  0.00     0.001 A 
ATOM     74  C   UNL A   1      40.267  34.978  41.269  1.00  0.00     0.000 A 
ENDBRANCH  55  69
BRANCH  56  75
ATOM     75  C   UNL A   1      39.716  28.659  30.201  1.00  0.00    -0.014 A 
ATOM     76  C   UNL A   1      39.284  27.328  30.114  1.00  0.00     0.009 A 
ATOM     77  C   UNL A   1      40.084  29.332  29.024  1.00  0.00     0.009 A 
ATOM     78  C   UNL A   1      39.234  26.681  28.877  1.00  0.00     0.001 A 
ATOM     79  C   UNL A   1      40.002  28.694  27.786  1.00  0.00     0.001 A 
ATOM     80  C   UNL A   1      39.583  27.366  27.714  1.00  0.00     0.000 A 
ENDBRANCH  56  75
BRANCH  68  81
ATOM     81  C   UNL A   1      44.644  29.203  35.092  1.00  0.00    -0.014 A 
ATOM     82  C   UNL A   1      44.844  27.966  35.725  1.00  0.00     0.009 A 
ATOM     83  C   UNL A   1      45.747  29.871  34.537  1.00  0.00     0.009 A 
ATOM     84  C   UNL A   1      46.127  27.423  35.820  1.00  0.00     0.001 A 
ATOM     85  C   UNL A   1      47.024  29.312  34.611  1.00  0.00     0.001 A 
ATOM     86  C   UNL A   1      47.215  28.093  35.259  1.00  0.00     0.000 A 
ENDBRANCH  68  81
ENDBRANCH  42  43
ENDBRANCH  35  37
ENDBRANCH  34  35
ENDBRANCH  33  34
ENDBRANCH  32  33
ENDBRANCH  31  32
ENDBRANCH  30  31
ENDBRANCH   1  30
TORSDOF 21
ENDMDL
MODEL 2
REMARK VINA RESULT:     -10.9      5.398      8.543
REMARK SMILES CCc1ccc2c(CC(=O)OCCOCCOCCOC(=O)c3ccc(-c4c5nc(c(-c6ccccc6)c6ccc([nH]6)c(-c6ccccc6)c6nc(c(-c7ccccc7)c7ccc4[nH]7)C=C6)C=C5)cc3)c(C(=O)c3cc(C)ccn3)[nH]c2c1
REMARK SMILES IDX 15 1 14 2 13 3 12 4 11 5 9 6 10 7 8 8 7 9 3 10 4 11 83 12
REMARK SMILES IDX 5 13 82 14 6 15 81 16 71 17 2 19 1 20 72 21 73 22 74 23
REMARK SMILES IDX 75 24 80 25 76 26 79 27 77 28 78 29 16 30 17 31 18 32 19 33
REMARK SMILES IDX 20 34 21 35 22 36 23 37 24 38 70 39 25 40 69 41 26 42 27 43
REMARK SMILES IDX 28 44 63 45 29 46 68 47 62 48 64 49 30 50 67 51 61 52 60 53
REMARK SMILES IDX 31 55 53 56 38 57 52 58 39 59 42 60 51 61 65 62 40 63 41 64
REMARK SMILES IDX 50 66 66 67 43 68 32 69 33 70 37 71 34 72 36 73 35 74 54 75
REMARK SMILES IDX 55 76 59 77 56 78 58 79 57 80 44 81 45 82 49 83 46 84 48 85
REMARK SMILES IDX 47 86
REMARK H PARENT 81 18 64 54 42 65
REMARK Flexibility Score: inf
ROOT
ATOM      1  C   UNL A   1      31.724  27.766  23.772  1.00  0.00     0.188 C 
ENDROOT
BRANCH   1   2
ATOM      2  O   UNL A   1      32.867  28.007  22.954  1.00  0.00    -0.376 OA
BRANCH   2   3
ATOM      3  C   UNL A   1      33.468  26.897  22.300  1.00  0.00     0.202 C 
BRANCH   3   4
ATOM      4  C   UNL A   1      32.927  25.523  22.710  1.00  0.00     0.261 C 
BRANCH   4   5
ATOM      5  O   UNL A   1      33.296  24.494  21.766  1.00  0.00    -0.463 OA
BRANCH   5   6
ATOM      6  C   UNL A   1      33.613  23.279  22.282  1.00  0.00     0.310 C 
ATOM      7  O   UNL A   1      34.767  22.911  22.487  1.00  0.00    -0.252 OA
BRANCH   6   8
ATOM      8  C   UNL A   1      32.415  22.475  22.764  1.00  0.00     0.161 C 
BRANCH   8   9
ATOM      9  C   UNL A   1      32.584  21.526  23.926  1.00  0.00     0.000 A 
ATOM     10  C   UNL A   1      32.806  17.321  24.276  1.00  0.00    -0.046 A 
ATOM     11  C   UNL A   1      32.345  17.809  23.046  1.00  0.00     0.004 A 
ATOM     12  C   UNL A   1      33.018  18.212  25.337  1.00  0.00     0.030 A 
ATOM     13  C   UNL A   1      32.142  19.182  22.830  1.00  0.00     0.011 A 
ATOM     14  C   UNL A   1      32.845  19.577  25.088  1.00  0.00     0.046 A 
ATOM     15  C   UNL A   1      32.451  20.094  23.858  1.00  0.00     0.004 A 
ATOM     16  N   UNL A   1      33.057  20.645  25.918  1.00  0.00    -0.352 N 
ATOM     17  C   UNL A   1      33.181  21.794  25.169  1.00  0.00     0.093 A 
ATOM     18  H   UNL A   1      33.113  20.599  26.901  1.00  0.00     0.167 HD
BRANCH  10  19
ATOM     19  C   UNL A   1      33.172  15.862  24.427  1.00  0.00     0.032 C 
ATOM     20  C   UNL A   1      32.522  15.179  25.622  1.00  0.00     0.009 C 
ENDBRANCH  10  19
BRANCH  17  21
ATOM     21  C   UNL A   1      33.895  22.972  25.640  1.00  0.00     0.227 C 
ATOM     22  O   UNL A   1      33.345  24.042  25.891  1.00  0.00    -0.285 OA
BRANCH  21  23
ATOM     23  C   UNL A   1      35.381  22.907  25.775  1.00  0.00     0.113 A 
ATOM     24  C   UNL A   1      36.075  21.749  25.433  1.00  0.00     0.036 A 
ATOM     25  N   UNL A   1      35.977  24.047  26.204  1.00  0.00    -0.253 NA
ATOM     26  C   UNL A   1      37.473  21.772  25.503  1.00  0.00    -0.047 A 
ATOM     27  C   UNL A   1      37.328  24.059  26.195  1.00  0.00     0.112 A 
ATOM     28  C   UNL A   1      38.306  20.565  25.186  1.00  0.00     0.044 C 
ATOM     29  C   UNL A   1      38.106  22.968  25.850  1.00  0.00     0.023 A 
ENDBRANCH  21  23
ENDBRANCH  17  21
ENDBRANCH   8   9
ENDBRANCH   6   8
ENDBRANCH   5   6
ENDBRANCH   4   5
ENDBRANCH   3   4
ENDBRANCH   2   3
ENDBRANCH   1   2
BRANCH   1  30
ATOM     30  C   UNL A   1      31.726  28.268  25.233  1.00  0.00     0.188 C 
BRANCH  30  31
ATOM     31  O   UNL A   1      32.605  27.541  26.082  1.00  0.00    -0.376 OA
BRANCH  31  32
ATOM     32  C   UNL A   1      33.797  28.234  26.425  1.00  0.00     0.202 C 
BRANCH  32  33
ATOM     33  C   UNL A   1      33.511  29.389  27.380  1.00  0.00     0.261 C 
BRANCH  33  34
ATOM     34  O   UNL A   1      34.483  30.445  27.228  1.00  0.00    -0.460 OA
BRANCH  34  35
ATOM     35  C   UNL A   1      35.110  30.869  28.337  1.00  0.00     0.338 C 
ATOM     36  O   UNL A   1      34.737  31.763  29.093  1.00  0.00    -0.246 OA
BRANCH  35  37
ATOM     37  C   UNL A   1      36.386  30.143  28.516  1.00  0.00     0.060 A 
ATOM     38  C   UNL A   1      36.764  29.588  29.743  1.00  0.00     0.016 A 
ATOM     39  C   UNL A   1      37.280  30.107  27.448  1.00  0.00     0.016 A 
ATOM     40  C   UNL A   1      38.046  29.061  29.926  1.00  0.00     0.010 A 
ATOM     41  C   UNL A   1      38.537  29.521  27.612  1.00  0.00     0.010 A 
ATOM     42  C   UNL A   1      38.946  29.013  28.860  1.00  0.00    -0.014 A 
BRANCH  42  43
ATOM     43  C   UNL A   1      40.326  28.481  29.006  1.00  0.00     0.031 A 
ATOM     44  C   UNL A   1      41.453  29.423  29.327  1.00  0.00     0.074 A 
ATOM     45  C   UNL A   1      40.600  27.183  28.781  1.00  0.00     0.049 A 
ATOM     46  N   UNL A   1      42.741  29.266  29.159  1.00  0.00    -0.248 NA
ATOM     47  C   UNL A   1      41.073  30.721  29.908  1.00  0.00     0.031 C 
ATOM     48  C   UNL A   1      39.616  26.124  28.566  1.00  0.00     0.029 A 
ATOM     49  N   UNL A   1      41.812  26.543  28.661  1.00  0.00    -0.354 N 
ATOM     50  C   UNL A   1      43.321  30.463  29.554  1.00  0.00     0.074 A 
ATOM     51  C   UNL A   1      42.245  31.334  29.983  1.00  0.00     0.031 C 
ATOM     52  C   UNL A   1      40.259  24.971  28.320  1.00  0.00     0.029 A 
ATOM     53  C   UNL A   1      41.694  25.231  28.271  1.00  0.00     0.049 A 
ATOM     54  H   UNL A   1      42.676  26.980  28.837  1.00  0.00     0.167 HD
ATOM     55  C   UNL A   1      44.631  30.810  29.542  1.00  0.00     0.031 A 
ATOM     56  C   UNL A   1      42.624  24.353  27.846  1.00  0.00     0.031 A 
ATOM     57  C   UNL A   1      45.698  29.934  29.130  1.00  0.00     0.049 A 
ATOM     58  C   UNL A   1      44.059  24.787  27.735  1.00  0.00     0.074 A 
ATOM     59  C   UNL A   1      47.057  30.196  29.077  1.00  0.00     0.029 A 
ATOM     60  N   UNL A   1      45.527  28.626  28.706  1.00  0.00    -0.354 N 
ATOM     61  N   UNL A   1      44.600  25.943  28.034  1.00  0.00    -0.248 NA
ATOM     62  C   UNL A   1      45.009  23.797  27.207  1.00  0.00     0.031 C 
ATOM     63  C   UNL A   1      47.701  29.061  28.574  1.00  0.00     0.029 A 
ATOM     64  C   UNL A   1      46.751  28.074  28.369  1.00  0.00     0.049 A 
ATOM     65  H   UNL A   1      44.662  28.158  28.655  1.00  0.00     0.167 HD
ATOM     66  C   UNL A   1      45.954  25.812  27.754  1.00  0.00     0.074 A 
ATOM     67  C   UNL A   1      46.155  24.462  27.271  1.00  0.00     0.031 C 
ATOM     68  C   UNL A   1      46.942  26.729  27.891  1.00  0.00     0.031 A 
BRANCH  55  69
ATOM     69  C   UNL A   1      44.980  32.221  29.924  1.00  0.00    -0.014 A 
ATOM     70  C   UNL A   1      45.022  33.254  28.976  1.00  0.00     0.009 A 
ATOM     71  C   UNL A   1      45.233  32.523  31.272  1.00  0.00     0.009 A 
ATOM     72  C   UNL A   1      45.343  34.556  29.368  1.00  0.00     0.001 A 
ATOM     73  C   UNL A   1      45.527  33.830  31.664  1.00  0.00     0.001 A 
ATOM     74  C   UNL A   1      45.591  34.844  30.710  1.00  0.00     0.000 A 
ENDBRANCH  55  69
BRANCH  56  75
ATOM     75  C   UNL A   1      42.210  22.991  27.420  1.00  0.00    -0.014 A 
ATOM     76  C   UNL A   1      41.957  21.993  28.371  1.00  0.00     0.009 A 
ATOM     77  C   UNL A   1      42.057  22.687  26.057  1.00  0.00     0.009 A 
ATOM     78  C   UNL A   1      41.571  20.713  27.965  1.00  0.00     0.001 A 
ATOM     79  C   UNL A   1      41.641  21.416  25.656  1.00  0.00     0.001 A 
ATOM     80  C   UNL A   1      41.405  20.428  26.611  1.00  0.00     0.000 A 
ENDBRANCH  56  75
BRANCH  68  81
ATOM     81  C   UNL A   1      48.341  26.293  27.559  1.00  0.00    -0.014 A 
ATOM     82  C   UNL A   1      49.140  25.622  28.497  1.00  0.00     0.009 A 
ATOM     83  C   UNL A   1      48.849  26.522  26.270  1.00  0.00     0.009 A 
ATOM     84  C   UNL A   1      50.430  25.210  28.156  1.00  0.00     0.001 A 
ATOM     85  C   UNL A   1      50.129  26.087  25.926  1.00  0.00     0.001 A 
ATOM     86  C   UNL A   1      50.922  25.438  26.871  1.00  0.00     0.000 A 
ENDBRANCH  68  81
ENDBRANCH  42  43
ENDBRANCH  35  37
ENDBRANCH  34  35
ENDBRANCH  33  34
ENDBRANCH  32  33
ENDBRANCH  31  32
ENDBRANCH  30  31
ENDBRANCH   1  30
TORSDOF 21
ENDMDL
MODEL 3
REMARK VINA RESULT:     -10.8      1.065      3.741
REMARK SMILES CCc1ccc2c(CC(=O)OCCOCCOCCOC(=O)c3ccc(-c4c5nc(c(-c6ccccc6)c6ccc([nH]6)c(-c6ccccc6)c6nc(c(-c7ccccc7)c7ccc4[nH]7)C=C6)C=C5)cc3)c(C(=O)c3cc(C)ccn3)[nH]c2c1
REMARK SMILES IDX 15 1 14 2 13 3 12 4 11 5 9 6 10 7 8 8 7 9 3 10 4 11 83 12
REMARK SMILES IDX 5 13 82 14 6 15 81 16 71 17 2 19 1 20 72 21 73 22 74 23
REMARK SMILES IDX 75 24 80 25 76 26 79 27 77 28 78 29 16 30 17 31 18 32 19 33
REMARK SMILES IDX 20 34 21 35 22 36 23 37 24 38 70 39 25 40 69 41 26 42 27 43
REMARK SMILES IDX 28 44 63 45 29 46 68 47 62 48 64 49 30 50 67 51 61 52 60 53
REMARK SMILES IDX 31 55 53 56 38 57 52 58 39 59 42 60 51 61 65 62 40 63 41 64
REMARK SMILES IDX 50 66 66 67 43 68 32 69 33 70 37 71 34 72 36 73 35 74 54 75
REMARK SMILES IDX 55 76 59 77 56 78 58 79 57 80 44 81 45 82 49 83 46 84 48 85
REMARK SMILES IDX 47 86
REMARK H PARENT 81 18 64 54 42 65
REMARK Flexibility Score: inf
ROOT
ATOM      1  C   UNL A   1      34.493  31.881  28.710  1.00  0.00     0.188 C 
ENDROOT
BRANCH   1   2
ATOM      2  O   UNL A   1      35.481  31.212  27.928  1.00  0.00    -0.376 OA
BRANCH   2   3
ATOM      3  C   UNL A   1      35.268  29.844  27.608  1.00  0.00     0.202 C 
BRANCH   3   4
ATOM      4  C   UNL A   1      33.965  29.540  26.861  1.00  0.00     0.261 C 
BRANCH   4   5
ATOM      5  O   UNL A   1      33.161  28.561  27.554  1.00  0.00    -0.463 OA
BRANCH   5   6
ATOM      6  C   UNL A   1      32.496  27.662  26.784  1.00  0.00     0.310 C 
ATOM      7  O   UNL A   1      31.451  27.116  27.130  1.00  0.00    -0.252 OA
BRANCH   6   8
ATOM      8  C   UNL A   1      33.046  27.525  25.372  1.00  0.00     0.161 C 
BRANCH   8   9
ATOM      9  C   UNL A   1      32.086  27.526  24.205  1.00  0.00     0.000 A 
ATOM     10  C   UNL A   1      29.385  30.366  22.626  1.00  0.00    -0.046 A 
ATOM     11  C   UNL A   1      29.883  30.641  23.907  1.00  0.00     0.004 A 
ATOM     12  C   UNL A   1      29.679  29.136  22.021  1.00  0.00     0.030 A 
ATOM     13  C   UNL A   1      30.720  29.735  24.580  1.00  0.00     0.011 A 
ATOM     14  C   UNL A   1      30.543  28.267  22.694  1.00  0.00     0.046 A 
ATOM     15  C   UNL A   1      31.103  28.543  23.936  1.00  0.00     0.004 A 
ATOM     16  N   UNL A   1      31.042  27.056  22.293  1.00  0.00    -0.352 N 
ATOM     17  C   UNL A   1      32.158  26.748  23.038  1.00  0.00     0.093 A 
ATOM     18  H   UNL A   1      30.661  26.492  21.581  1.00  0.00     0.167 HD
BRANCH  10  19
ATOM     19  C   UNL A   1      28.626  31.425  21.861  1.00  0.00     0.032 C 
ATOM     20  C   UNL A   1      28.392  32.709  22.644  1.00  0.00     0.009 C 
ENDBRANCH  10  19
BRANCH  17  21
ATOM     21  C   UNL A   1      33.200  25.846  22.567  1.00  0.00     0.227 C 
ATOM     22  O   UNL A   1      33.978  26.126  21.658  1.00  0.00    -0.285 OA
BRANCH  21  23
ATOM     23  C   UNL A   1      33.301  24.485  23.174  1.00  0.00     0.113 A 
ATOM     24  C   UNL A   1      33.870  24.309  24.432  1.00  0.00     0.036 A 
ATOM     25  N   UNL A   1      32.772  23.478  22.436  1.00  0.00    -0.253 NA
ATOM     26  C   UNL A   1      33.866  23.023  24.985  1.00  0.00    -0.047 A 
ATOM     27  C   UNL A   1      32.721  22.263  23.025  1.00  0.00     0.112 A 
ATOM     28  C   UNL A   1      34.483  22.728  26.320  1.00  0.00     0.044 C 
ATOM     29  C   UNL A   1      33.238  21.993  24.280  1.00  0.00     0.023 A 
ENDBRANCH  21  23
ENDBRANCH  17  21
ENDBRANCH   8   9
ENDBRANCH   6   8
ENDBRANCH   5   6
ENDBRANCH   4   5
ENDBRANCH   3   4
ENDBRANCH   2   3
ENDBRANCH   1   2
BRANCH   1  30
ATOM     30  C   UNL A   1      33.948  33.243  28.229  1.00  0.00     0.188 C 
BRANCH  30  31
ATOM     31  O   UNL A   1      33.898  34.229  29.252  1.00  0.00    -0.376 OA
BRANCH  31  32
ATOM     32  C   UNL A   1      33.794  35.564  28.776  1.00  0.00     0.202 C 
BRANCH  32  33
ATOM     33  C   UNL A   1      32.923  36.414  29.697  1.00  0.00     0.261 C 
BRANCH  33  34
ATOM     34  O   UNL A   1      32.288  35.604  30.708  1.00  0.00    -0.460 OA
BRANCH  34  35
ATOM     35  C   UNL A   1      32.497  35.945  31.991  1.00  0.00     0.338 C 
ATOM     36  O   UNL A   1      31.891  36.802  32.629  1.00  0.00    -0.246 OA
BRANCH  35  37
ATOM     37  C   UNL A   1      33.632  35.177  32.549  1.00  0.00     0.060 A 
ATOM     38  C   UNL A   1      34.927  35.701  32.616  1.00  0.00     0.016 A 
ATOM     39  C   UNL A   1      33.412  33.852  32.919  1.00  0.00     0.016 A 
ATOM     40  C   UNL A   1      36.008  34.895  32.986  1.00  0.00     0.010 A 
ATOM     41  C   UNL A   1      34.482  33.064  33.352  1.00  0.00     0.010 A 
ATOM     42  C   UNL A   1      35.796  33.567  33.366  1.00  0.00    -0.014 A 
BRANCH  42  43
ATOM     43  C   UNL A   1      36.912  32.663  33.749  1.00  0.00     0.031 A 
ATOM     44  C   UNL A   1      37.614  32.868  35.063  1.00  0.00     0.074 A 
ATOM     45  C   UNL A   1      37.358  31.711  32.910  1.00  0.00     0.049 A 
ATOM     46  N   UNL A   1      38.796  32.457  35.447  1.00  0.00    -0.248 NA
ATOM     47  C   UNL A   1      36.887  33.650  36.076  1.00  0.00     0.031 C 
ATOM     48  C   UNL A   1      36.726  31.313  31.653  1.00  0.00     0.029 A 
ATOM     49  N   UNL A   1      38.485  30.924  32.982  1.00  0.00    -0.354 N 
ATOM     50  C   UNL A   1      38.981  32.981  36.719  1.00  0.00     0.074 A 
ATOM     51  C   UNL A   1      37.784  33.728  37.048  1.00  0.00     0.031 C 
ATOM     52  C   UNL A   1      37.482  30.374  31.061  1.00  0.00     0.029 A 
ATOM     53  C   UNL A   1      38.692  30.172  31.851  1.00  0.00     0.049 A 
ATOM     54  H   UNL A   1      39.081  30.902  33.764  1.00  0.00     0.167 HD
ATOM     55  C   UNL A   1      40.060  32.862  37.531  1.00  0.00     0.031 A 
ATOM     56  C   UNL A   1      39.764  29.460  31.454  1.00  0.00     0.031 A 
ATOM     57  C   UNL A   1      41.240  32.103  37.205  1.00  0.00     0.049 A 
ATOM     58  C   UNL A   1      40.995  29.427  32.316  1.00  0.00     0.074 A 
ATOM     59  C   UNL A   1      42.388  31.928  37.960  1.00  0.00     0.029 A 
ATOM     60  N   UNL A   1      41.421  31.388  36.032  1.00  0.00    -0.354 N 
ATOM     61  N   UNL A   1      41.202  29.984  33.484  1.00  0.00    -0.248 NA
ATOM     62  C   UNL A   1      42.149  28.681  31.792  1.00  0.00     0.031 C 
ATOM     63  C   UNL A   1      43.283  31.148  37.219  1.00  0.00     0.029 A 
ATOM     64  C   UNL A   1      42.670  30.790  36.031  1.00  0.00     0.049 A 
ATOM     65  H   UNL A   1      40.758  31.317  35.307  1.00  0.00     0.167 HD
ATOM     66  C   UNL A   1      42.498  29.638  33.846  1.00  0.00     0.074 A 
ATOM     67  C   UNL A   1      43.026  28.814  32.779  1.00  0.00     0.031 C 
ATOM     68  C   UNL A   1      43.185  29.970  34.965  1.00  0.00     0.031 A 
BRANCH  55  69
ATOM     69  C   UNL A   1      40.043  33.626  38.825  1.00  0.00    -0.014 A 
ATOM     70  C   UNL A   1      40.521  34.941  38.912  1.00  0.00     0.009 A 
ATOM     71  C   UNL A   1      39.498  33.021  39.970  1.00  0.00     0.009 A 
ATOM     72  C   UNL A   1      40.484  35.625  40.131  1.00  0.00     0.001 A 
ATOM     73  C   UNL A   1      39.437  33.717  41.179  1.00  0.00     0.001 A 
ATOM     74  C   UNL A   1      39.939  35.014  41.261  1.00  0.00     0.000 A 
ENDBRANCH  55  69
BRANCH  56  75
ATOM     75  C   UNL A   1      39.747  28.778  30.134  1.00  0.00    -0.014 A 
ATOM     76  C   UNL A   1      39.347  27.439  30.028  1.00  0.00     0.009 A 
ATOM     77  C   UNL A   1      40.123  29.469  28.969  1.00  0.00     0.009 A 
ATOM     78  C   UNL A   1      39.336  26.801  28.785  1.00  0.00     0.001 A 
ATOM     79  C   UNL A   1      40.080  28.839  27.725  1.00  0.00     0.001 A 
ATOM     80  C   UNL A   1      39.693  27.503  27.635  1.00  0.00     0.000 A 
ENDBRANCH  56  75
BRANCH  68  81
ATOM     81  C   UNL A   1      44.569  29.404  35.121  1.00  0.00    -0.014 A 
ATOM     82  C   UNL A   1      44.777  28.106  35.611  1.00  0.00     0.009 A 
ATOM     83  C   UNL A   1      45.677  30.171  34.728  1.00  0.00     0.009 A 
ATOM     84  C   UNL A   1      46.073  27.597  35.728  1.00  0.00     0.001 A 
ATOM     85  C   UNL A   1      46.968  29.650  34.822  1.00  0.00     0.001 A 
ATOM     86  C   UNL A   1      47.166  28.367  35.329  1.00  0.00     0.000 A 
ENDBRANCH  68  81
ENDBRANCH  42  43
ENDBRANCH  35  37
ENDBRANCH  34  35
ENDBRANCH  33  34
ENDBRANCH  32  33
ENDBRANCH  31  32
ENDBRANCH  30  31
ENDBRANCH   1  30
TORSDOF 21
ENDMDL
