MODEL 1
REMARK VINA RESULT:     -10.5      0.000      0.000
REMARK SMILES Cc1cc2c(c(C)c1Br)C=C(C(=O)OCCOCCOCCOC(=O)c1ccc(-c3c4nc(c(-c5ccccc5)c5ccc([nH]5)c(-c5ccccc5)c5nc(c(-c6ccccc6)c6ccc3[nH]6)C=C5)C=C4)cc1)[C@@H](C(F)(F)F)O2
REMARK SMILES IDX 19 1 18 2 17 3 16 4 15 5 14 6 12 7 13 8 11 9 1 10 2 11 3 12
REMARK SMILES IDX 8 13 4 14 6 15 9 16 5 17 79 18 7 19 10 20 74 21 75 22 76 23
REMARK SMILES IDX 77 24 78 25 20 26 21 27 22 28 23 29 24 30 25 31 26 32 27 33
REMARK SMILES IDX 73 34 28 35 72 36 29 37 30 38 31 39 66 40 32 41 71 42 65 43
REMARK SMILES IDX 67 44 33 45 70 46 64 47 63 48 34 50 56 51 41 52 55 53 42 54
REMARK SMILES IDX 45 55 54 56 68 57 43 58 44 59 53 61 69 62 46 63 35 64 36 65
REMARK SMILES IDX 40 66 37 67 39 68 38 69 57 70 58 71 62 72 59 73 61 74 60 75
REMARK SMILES IDX 47 76 48 77 52 78 49 79 51 80 50 81
REMARK H PARENT 67 49 45 60
REMARK Flexibility Score: inf
ROOT
ATOM      1  C   UNL A   1      40.493  21.547  27.230  1.00  0.00     0.188 C 
ENDROOT
BRANCH   1   2
ATOM      2  C   UNL A   1      39.674  21.096  26.002  1.00  0.00     0.188 C 
BRANCH   2   3
ATOM      3  O   UNL A   1      38.404  21.661  25.772  1.00  0.00    -0.376 OA
BRANCH   3   4
ATOM      4  C   UNL A   1      37.428  20.985  24.999  1.00  0.00     0.202 C 
BRANCH   4   5
ATOM      5  C   UNL A   1      36.044  21.549  24.637  1.00  0.00     0.261 C 
BRANCH   5   6
ATOM      6  O   UNL A   1      35.892  22.971  24.680  1.00  0.00    -0.460 OA
BRANCH   6   7
ATOM      7  C   UNL A   1      34.967  23.426  25.560  1.00  0.00     0.338 C 
ATOM      8  O   UNL A   1      34.872  23.129  26.740  1.00  0.00    -0.246 OA
BRANCH   7   9
ATOM      9  C   UNL A   1      34.154  24.482  24.921  1.00  0.00     0.087 C 
ATOM     10  C   UNL A   1      30.157  29.382  23.598  1.00  0.00     0.046 C 
ATOM     11  C   UNL A   1      31.310  28.530  24.066  1.00  0.00    -0.033 A 
ATOM     12  C   UNL A   1      31.545  27.319  23.405  1.00  0.00     0.051 A 
ATOM     13  C   UNL A   1      32.113  28.868  25.176  1.00  0.00     0.024 A 
ATOM     14  C   UNL A   1      32.505  26.423  23.867  1.00  0.00     0.128 A 
ATOM     15  C   UNL A   1      33.121  27.986  25.640  1.00  0.00    -0.026 A 
ATOM     16  Br  UNL A   1      31.780  30.531  26.067  1.00  0.00    -0.050 Br
ATOM     17  C   UNL A   1      33.269  26.726  24.999  1.00  0.00     0.021 A 
ATOM     18  O   UNL A   1      32.614  25.272  23.141  1.00  0.00    -0.475 OA
ATOM     19  C   UNL A   1      34.032  28.336  26.796  1.00  0.00     0.046 C 
ATOM     20  C   UNL A   1      34.143  25.678  25.524  1.00  0.00     0.027 C 
ATOM     21  C   UNL A   1      33.396  24.170  23.664  1.00  0.00     0.316 C 
BRANCH  21  22
ATOM     22  C   UNL A   1      32.479  22.950  23.821  1.00  0.00     0.430 C 
ATOM     23  F   UNL A   1      33.139  21.799  23.550  1.00  0.00    -0.167 F 
ATOM     24  F   UNL A   1      32.008  22.838  25.086  1.00  0.00    -0.167 F 
ATOM     25  F   UNL A   1      31.411  23.011  22.996  1.00  0.00    -0.167 F 
ENDBRANCH  21  22
ENDBRANCH   7   9
ENDBRANCH   6   7
ENDBRANCH   5   6
ENDBRANCH   4   5
ENDBRANCH   3   4
ENDBRANCH   2   3
ENDBRANCH   1   2
BRANCH   1  26
ATOM     26  O   UNL A   1      41.854  21.198  27.340  1.00  0.00    -0.376 OA
BRANCH  26  27
ATOM     27  C   UNL A   1      42.608  20.958  26.161  1.00  0.00     0.202 C 
BRANCH  27  28
ATOM     28  C   UNL A   1      43.494  22.023  25.485  1.00  0.00     0.261 C 
BRANCH  28  29
ATOM     29  O   UNL A   1      42.852  23.247  25.101  1.00  0.00    -0.460 OA
BRANCH  29  30
ATOM     30  C   UNL A   1      43.601  24.374  25.244  1.00  0.00     0.338 C 
ATOM     31  O   UNL A   1      44.579  24.700  24.604  1.00  0.00    -0.246 OA
BRANCH  30  32
ATOM     32  C   UNL A   1      42.911  25.283  26.183  1.00  0.00     0.060 A 
ATOM     33  C   UNL A   1      43.415  26.581  26.349  1.00  0.00     0.016 A 
ATOM     34  C   UNL A   1      41.793  24.861  26.901  1.00  0.00     0.016 A 
ATOM     35  C   UNL A   1      42.789  27.468  27.221  1.00  0.00     0.010 A 
ATOM     36  C   UNL A   1      41.187  25.742  27.807  1.00  0.00     0.010 A 
ATOM     37  C   UNL A   1      41.693  27.043  27.981  1.00  0.00    -0.014 A 
BRANCH  37  38
ATOM     38  C   UNL A   1      41.235  27.892  29.107  1.00  0.00     0.031 A 
ATOM     39  C   UNL A   1      42.015  27.838  30.392  1.00  0.00     0.074 A 
ATOM     40  C   UNL A   1      40.206  28.749  28.981  1.00  0.00     0.049 A 
ATOM     41  N   UNL A   1      41.829  28.500  31.504  1.00  0.00    -0.248 NA
ATOM     42  C   UNL A   1      43.167  26.920  30.420  1.00  0.00     0.031 C 
ATOM     43  C   UNL A   1      39.415  28.955  27.769  1.00  0.00     0.029 A 
ATOM     44  N   UNL A   1      39.659  29.619  29.893  1.00  0.00    -0.354 N 
ATOM     45  C   UNL A   1      42.842  28.087  32.358  1.00  0.00     0.074 A 
ATOM     46  C   UNL A   1      43.617  27.090  31.653  1.00  0.00     0.031 C 
ATOM     47  C   UNL A   1      38.487  29.898  28.012  1.00  0.00     0.029 A 
ATOM     48  C   UNL A   1      38.594  30.338  29.403  1.00  0.00     0.049 A 
ATOM     49  H   UNL A   1      39.997  29.719  30.811  1.00  0.00     0.167 HD
ATOM     50  C   UNL A   1      43.116  28.508  33.613  1.00  0.00     0.031 A 
ATOM     51  C   UNL A   1      37.793  31.235  30.013  1.00  0.00     0.031 A 
ATOM     52  C   UNL A   1      42.340  29.484  34.326  1.00  0.00     0.049 A 
ATOM     53  C   UNL A   1      38.036  31.588  31.461  1.00  0.00     0.074 A 
ATOM     54  C   UNL A   1      42.541  29.970  35.606  1.00  0.00     0.029 A 
ATOM     55  N   UNL A   1      41.214  30.116  33.826  1.00  0.00    -0.354 N 
ATOM     56  N   UNL A   1      39.010  31.208  32.252  1.00  0.00    -0.248 NA
ATOM     57  C   UNL A   1      37.065  32.491  32.100  1.00  0.00     0.031 C 
ATOM     58  C   UNL A   1      41.495  30.846  35.906  1.00  0.00     0.029 A 
ATOM     59  C   UNL A   1      40.681  30.954  34.789  1.00  0.00     0.049 A 
ATOM     60  H   UNL A   1      40.847  29.986  32.921  1.00  0.00     0.167 HD
ATOM     61  C   UNL A   1      38.780  31.835  33.471  1.00  0.00     0.074 A 
ATOM     62  C   UNL A   1      37.586  32.639  33.312  1.00  0.00     0.031 C 
ATOM     63  C   UNL A   1      39.491  31.748  34.621  1.00  0.00     0.031 A 
BRANCH  50  64
ATOM     64  C   UNL A   1      44.295  27.893  34.308  1.00  0.00    -0.014 A 
ATOM     65  C   UNL A   1      44.154  26.737  35.091  1.00  0.00     0.009 A 
ATOM     66  C   UNL A   1      45.573  28.449  34.137  1.00  0.00     0.009 A 
ATOM     67  C   UNL A   1      45.266  26.164  35.710  1.00  0.00     0.001 A 
ATOM     68  C   UNL A   1      46.687  27.857  34.732  1.00  0.00     0.001 A 
ATOM     69  C   UNL A   1      46.531  26.719  35.523  1.00  0.00     0.000 A 
ENDBRANCH  50  64
BRANCH  51  70
ATOM     70  C   UNL A   1      36.663  31.857  29.269  1.00  0.00    -0.014 A 
ATOM     71  C   UNL A   1      36.762  33.172  28.787  1.00  0.00     0.009 A 
ATOM     72  C   UNL A   1      35.470  31.147  29.055  1.00  0.00     0.009 A 
ATOM     73  C   UNL A   1      35.686  33.765  28.121  1.00  0.00     0.001 A 
ATOM     74  C   UNL A   1      34.408  31.733  28.364  1.00  0.00     0.001 A 
ATOM     75  C   UNL A   1      34.513  33.044  27.904  1.00  0.00     0.000 A 
ENDBRANCH  51  70
BRANCH  63  76
ATOM     76  C   UNL A   1      39.015  32.529  35.814  1.00  0.00    -0.014 A 
ATOM     77  C   UNL A   1      38.168  31.940  36.766  1.00  0.00     0.009 A 
ATOM     78  C   UNL A   1      39.519  33.818  36.056  1.00  0.00     0.009 A 
ATOM     79  C   UNL A   1      37.831  32.630  37.933  1.00  0.00     0.001 A 
ATOM     80  C   UNL A   1      39.204  34.492  37.238  1.00  0.00     0.001 A 
ATOM     81  C   UNL A   1      38.358  33.898  38.173  1.00  0.00     0.000 A 
ENDBRANCH  63  76
ENDBRANCH  37  38
ENDBRANCH  30  32
ENDBRANCH  29  30
ENDBRANCH  28  29
ENDBRANCH  27  28
ENDBRANCH  26  27
ENDBRANCH   1  26
TORSDOF 18
ENDMDL
MODEL 2
REMARK VINA RESULT:     -10.2      0.902      5.829
REMARK SMILES Cc1cc2c(c(C)c1Br)C=C(C(=O)OCCOCCOCCOC(=O)c1ccc(-c3c4nc(c(-c5ccccc5)c5ccc([nH]5)c(-c5ccccc5)c5nc(c(-c6ccccc6)c6ccc3[nH]6)C=C5)C=C4)cc1)[C@@H](C(F)(F)F)O2
REMARK SMILES IDX 19 1 18 2 17 3 16 4 15 5 14 6 12 7 13 8 11 9 1 10 2 11 3 12
REMARK SMILES IDX 8 13 4 14 6 15 9 16 5 17 79 18 7 19 10 20 74 21 75 22 76 23
REMARK SMILES IDX 77 24 78 25 20 26 21 27 22 28 23 29 24 30 25 31 26 32 27 33
REMARK SMILES IDX 73 34 28 35 72 36 29 37 30 38 31 39 66 40 32 41 71 42 65 43
REMARK SMILES IDX 67 44 33 45 70 46 64 47 63 48 34 50 56 51 41 52 55 53 42 54
REMARK SMILES IDX 45 55 54 56 68 57 43 58 44 59 53 61 69 62 46 63 35 64 36 65
REMARK SMILES IDX 40 66 37 67 39 68 38 69 57 70 58 71 62 72 59 73 61 74 60 75
REMARK SMILES IDX 47 76 48 77 52 78 49 79 51 80 50 81
REMARK H PARENT 67 49 45 60
REMARK Flexibility Score: inf
ROOT
ATOM      1  C   UNL A   1      41.206  21.255  27.211  1.00  0.00     0.188 C 
ENDROOT
BRANCH   1   2
ATOM      2  C   UNL A   1      40.028  22.248  27.104  1.00  0.00     0.188 C 
BRANCH   2   3
ATOM      3  O   UNL A   1      39.328  22.362  25.887  1.00  0.00    -0.376 OA
BRANCH   3   4
ATOM      4  C   UNL A   1      37.990  21.913  25.764  1.00  0.00     0.202 C 
BRANCH   4   5
ATOM      5  C   UNL A   1      37.086  22.157  24.544  1.00  0.00     0.261 C 
BRANCH   5   6
ATOM      6  O   UNL A   1      35.810  21.511  24.544  1.00  0.00    -0.460 OA
BRANCH   6   7
ATOM      7  C   UNL A   1      34.863  22.103  25.313  1.00  0.00     0.338 C 
ATOM      8  O   UNL A   1      34.684  21.937  26.509  1.00  0.00    -0.246 OA
BRANCH   7   9
ATOM      9  C   UNL A   1      34.150  23.126  24.520  1.00  0.00     0.087 C 
ATOM     10  C   UNL A   1      30.482  28.024  22.451  1.00  0.00     0.046 C 
ATOM     11  C   UNL A   1      31.555  27.178  23.087  1.00  0.00    -0.033 A 
ATOM     12  C   UNL A   1      31.795  25.907  22.552  1.00  0.00     0.051 A 
ATOM     13  C   UNL A   1      32.277  27.584  24.230  1.00  0.00     0.024 A 
ATOM     14  C   UNL A   1      32.676  25.023  23.169  1.00  0.00     0.128 A 
ATOM     15  C   UNL A   1      33.205  26.712  24.852  1.00  0.00    -0.026 A 
ATOM     16  Br  UNL A   1      31.939  29.328  24.947  1.00  0.00    -0.050 Br
ATOM     17  C   UNL A   1      33.355  25.397  24.334  1.00  0.00     0.021 A 
ATOM     18  O   UNL A   1      32.799  23.810  22.554  1.00  0.00    -0.475 OA
ATOM     19  C   UNL A   1      34.029  27.131  26.050  1.00  0.00     0.046 C 
ATOM     20  C   UNL A   1      34.138  24.369  25.018  1.00  0.00     0.027 C 
ATOM     21  C   UNL A   1      33.489  22.732  23.232  1.00  0.00     0.316 C 
BRANCH  21  22
ATOM     22  C   UNL A   1      32.512  21.562  23.410  1.00  0.00     0.430 C 
ATOM     23  F   UNL A   1      31.760  21.713  24.527  1.00  0.00    -0.167 F 
ATOM     24  F   UNL A   1      31.648  21.469  22.371  1.00  0.00    -0.167 F 
ATOM     25  F   UNL A   1      33.155  20.378  23.509  1.00  0.00    -0.167 F 
ENDBRANCH  21  22
ENDBRANCH   7   9
ENDBRANCH   6   7
ENDBRANCH   5   6
ENDBRANCH   4   5
ENDBRANCH   3   4
ENDBRANCH   2   3
ENDBRANCH   1   2
BRANCH   1  26
ATOM     26  O   UNL A   1      41.926  20.884  26.057  1.00  0.00    -0.376 OA
BRANCH  26  27
ATOM     27  C   UNL A   1      43.282  21.284  25.926  1.00  0.00     0.202 C 
BRANCH  27  28
ATOM     28  C   UNL A   1      43.768  22.324  24.897  1.00  0.00     0.261 C 
BRANCH  28  29
ATOM     29  O   UNL A   1      43.115  23.602  24.914  1.00  0.00    -0.460 OA
BRANCH  29  30
ATOM     30  C   UNL A   1      43.911  24.665  25.208  1.00  0.00     0.338 C 
ATOM     31  O   UNL A   1      44.921  25.017  24.634  1.00  0.00    -0.246 OA
BRANCH  30  32
ATOM     32  C   UNL A   1      43.239  25.489  26.234  1.00  0.00     0.060 A 
ATOM     33  C   UNL A   1      43.749  26.766  26.507  1.00  0.00     0.016 A 
ATOM     34  C   UNL A   1      42.130  25.006  26.930  1.00  0.00     0.016 A 
ATOM     35  C   UNL A   1      43.140  27.573  27.465  1.00  0.00     0.010 A 
ATOM     36  C   UNL A   1      41.542  25.804  27.920  1.00  0.00     0.010 A 
ATOM     37  C   UNL A   1      42.054  27.084  28.201  1.00  0.00    -0.014 A 
BRANCH  37  38
ATOM     38  C   UNL A   1      41.617  27.831  29.405  1.00  0.00     0.031 A 
ATOM     39  C   UNL A   1      40.363  28.655  29.306  1.00  0.00     0.074 A 
ATOM     40  C   UNL A   1      42.263  27.728  30.581  1.00  0.00     0.049 A 
ATOM     41  N   UNL A   1      39.767  29.373  30.223  1.00  0.00    -0.248 NA
ATOM     42  C   UNL A   1      39.683  28.659  27.999  1.00  0.00     0.031 C 
ATOM     43  C   UNL A   1      43.444  26.905  30.832  1.00  0.00     0.029 A 
ATOM     44  N   UNL A   1      41.998  28.317  31.793  1.00  0.00    -0.354 N 
ATOM     45  C   UNL A   1      38.642  29.904  29.607  1.00  0.00     0.074 A 
ATOM     46  C   UNL A   1      38.657  29.461  28.230  1.00  0.00     0.031 C 
ATOM     47  C   UNL A   1      43.799  27.038  32.123  1.00  0.00     0.029 A 
ATOM     48  C   UNL A   1      42.893  27.980  32.781  1.00  0.00     0.049 A 
ATOM     49  H   UNL A   1      41.238  28.925  31.941  1.00  0.00     0.167 HD
ATOM     50  C   UNL A   1      37.673  30.682  30.140  1.00  0.00     0.031 A 
ATOM     51  C   UNL A   1      42.976  28.395  34.061  1.00  0.00     0.031 A 
ATOM     52  C   UNL A   1      37.661  31.141  31.501  1.00  0.00     0.049 A 
ATOM     53  C   UNL A   1      41.958  29.372  34.595  1.00  0.00     0.074 A 
ATOM     54  C   UNL A   1      36.720  31.937  32.129  1.00  0.00     0.029 A 
ATOM     55  N   UNL A   1      38.638  30.853  32.439  1.00  0.00    -0.354 N 
ATOM     56  N   UNL A   1      40.886  29.851  34.011  1.00  0.00    -0.248 NA
ATOM     57  C   UNL A   1      42.164  29.870  35.965  1.00  0.00     0.031 C 
ATOM     58  C   UNL A   1      37.163  32.188  33.429  1.00  0.00     0.029 A 
ATOM     59  C   UNL A   1      38.346  31.494  33.630  1.00  0.00     0.049 A 
ATOM     60  H   UNL A   1      39.423  30.279  32.281  1.00  0.00     0.167 HD
ATOM     61  C   UNL A   1      40.284  30.689  34.943  1.00  0.00     0.074 A 
ATOM     62  C   UNL A   1      41.096  30.639  36.141  1.00  0.00     0.031 C 
ATOM     63  C   UNL A   1      39.162  31.438  34.815  1.00  0.00     0.031 A 
BRANCH  50  64
ATOM     64  C   UNL A   1      36.552  31.107  29.237  1.00  0.00    -0.014 A 
ATOM     65  C   UNL A   1      35.543  30.208  28.861  1.00  0.00     0.009 A 
ATOM     66  C   UNL A   1      36.479  32.438  28.796  1.00  0.00     0.009 A 
ATOM     67  C   UNL A   1      34.494  30.627  28.041  1.00  0.00     0.001 A 
ATOM     68  C   UNL A   1      35.414  32.861  28.001  1.00  0.00     0.001 A 
ATOM     69  C   UNL A   1      34.427  31.954  27.619  1.00  0.00     0.000 A 
ENDBRANCH  50  64
BRANCH  51  70
ATOM     70  C   UNL A   1      44.079  27.908  34.935  1.00  0.00    -0.014 A 
ATOM     71  C   UNL A   1      43.910  26.764  35.731  1.00  0.00     0.009 A 
ATOM     72  C   UNL A   1      45.302  28.597  34.995  1.00  0.00     0.009 A 
ATOM     73  C   UNL A   1      44.934  26.331  36.577  1.00  0.00     0.001 A 
ATOM     74  C   UNL A   1      46.333  28.145  35.821  1.00  0.00     0.001 A 
ATOM     75  C   UNL A   1      46.147  27.017  36.617  1.00  0.00     0.000 A 
ENDBRANCH  51  70
BRANCH  63  76
ATOM     76  C   UNL A   1      38.728  32.276  35.986  1.00  0.00    -0.014 A 
ATOM     77  C   UNL A   1      37.932  31.730  37.004  1.00  0.00     0.009 A 
ATOM     78  C   UNL A   1      39.224  33.582  36.136  1.00  0.00     0.009 A 
ATOM     79  C   UNL A   1      37.637  32.477  38.147  1.00  0.00     0.001 A 
ATOM     80  C   UNL A   1      38.951  34.315  37.293  1.00  0.00     0.001 A 
ATOM     81  C   UNL A   1      38.156  33.763  38.296  1.00  0.00     0.000 A 
ENDBRANCH  63  76
ENDBRANCH  37  38
ENDBRANCH  30  32
ENDBRANCH  29  30
ENDBRANCH  28  29
ENDBRANCH  27  28
ENDBRANCH  26  27
ENDBRANCH   1  26
TORSDOF 18
ENDMDL
MODEL 3
REMARK VINA RESULT:     -10.0      4.541      9.843
REMARK SMILES Cc1cc2c(c(C)c1Br)C=C(C(=O)OCCOCCOCCOC(=O)c1ccc(-c3c4nc(c(-c5ccccc5)c5ccc([nH]5)c(-c5ccccc5)c5nc(c(-c6ccccc6)c6ccc3[nH]6)C=C5)C=C4)cc1)[C@@H](C(F)(F)F)O2
REMARK SMILES IDX 19 1 18 2 17 3 16 4 15 5 14 6 12 7 13 8 11 9 1 10 2 11 3 12
REMARK SMILES IDX 8 13 4 14 6 15 9 16 5 17 79 18 7 19 10 20 74 21 75 22 76 23
REMARK SMILES IDX 77 24 78 25 20 26 21 27 22 28 23 29 24 30 25 31 26 32 27 33
REMARK SMILES IDX 73 34 28 35 72 36 29 37 30 38 31 39 66 40 32 41 71 42 65 43
REMARK SMILES IDX 67 44 33 45 70 46 64 47 63 48 34 50 56 51 41 52 55 53 42 54
REMARK SMILES IDX 45 55 54 56 68 57 43 58 44 59 53 61 69 62 46 63 35 64 36 65
REMARK SMILES IDX 40 66 37 67 39 68 38 69 57 70 58 71 62 72 59 73 61 74 60 75
REMARK SMILES IDX 47 76 48 77 52 78 49 79 51 80 50 81
REMARK H PARENT 67 49 45 60
REMARK Flexibility Score: inf
ROOT
ATOM      1  C   UNL A   1      34.441  33.716  29.480  1.00  0.00     0.188 C 
ENDROOT
BRANCH   1   2
ATOM      2  C   UNL A   1      34.346  32.226  29.086  1.00  0.00     0.188 C 
BRANCH   2   3
ATOM      3  O   UNL A   1      34.581  31.848  27.749  1.00  0.00    -0.376 OA
BRANCH   3   4
ATOM      4  C   UNL A   1      35.421  30.751  27.433  1.00  0.00     0.202 C 
BRANCH   4   5
ATOM      5  C   UNL A   1      34.978  29.278  27.415  1.00  0.00     0.261 C 
BRANCH   5   6
ATOM      6  O   UNL A   1      34.166  28.860  26.314  1.00  0.00    -0.460 OA
BRANCH   6   7
ATOM      7  C   UNL A   1      32.867  28.616  26.615  1.00  0.00     0.338 C 
ATOM      8  O   UNL A   1      32.110  29.349  27.230  1.00  0.00    -0.246 OA
BRANCH   7   9
ATOM      9  C   UNL A   1      32.430  27.373  25.948  1.00  0.00     0.087 C 
ATOM     10  C   UNL A   1      32.041  21.790  22.720  1.00  0.00     0.046 C 
ATOM     11  C   UNL A   1      32.310  22.862  23.746  1.00  0.00    -0.033 A 
ATOM     12  C   UNL A   1      31.486  23.994  23.746  1.00  0.00     0.051 A 
ATOM     13  C   UNL A   1      33.388  22.804  24.654  1.00  0.00     0.024 A 
ATOM     14  C   UNL A   1      31.757  25.079  24.575  1.00  0.00     0.128 A 
ATOM     15  C   UNL A   1      33.659  23.883  25.532  1.00  0.00    -0.026 A 
ATOM     16  Br  UNL A   1      34.503  21.246  24.643  1.00  0.00    -0.050 Br
ATOM     17  C   UNL A   1      32.856  25.052  25.440  1.00  0.00     0.021 A 
ATOM     18  O   UNL A   1      30.886  26.124  24.457  1.00  0.00    -0.475 OA
ATOM     19  C   UNL A   1      34.777  23.835  26.550  1.00  0.00     0.046 C 
ATOM     20  C   UNL A   1      33.177  26.282  26.162  1.00  0.00     0.027 C 
ATOM     21  C   UNL A   1      31.205  27.393  25.081  1.00  0.00     0.316 C 
BRANCH  21  22
ATOM     22  C   UNL A   1      31.278  28.469  23.990  1.00  0.00     0.430 C 
ATOM     23  F   UNL A   1      30.775  29.649  24.427  1.00  0.00    -0.167 F 
ATOM     24  F   UNL A   1      32.556  28.710  23.609  1.00  0.00    -0.167 F 
ATOM     25  F   UNL A   1      30.587  28.116  22.884  1.00  0.00    -0.167 F 
ENDBRANCH  21  22
ENDBRANCH   7   9
ENDBRANCH   6   7
ENDBRANCH   5   6
ENDBRANCH   4   5
ENDBRANCH   3   4
ENDBRANCH   2   3
ENDBRANCH   1   2
BRANCH   1  26
ATOM     26  O   UNL A   1      33.577  34.246  30.458  1.00  0.00    -0.376 OA
BRANCH  26  27
ATOM     27  C   UNL A   1      34.129  34.873  31.607  1.00  0.00     0.202 C 
BRANCH  27  28
ATOM     28  C   UNL A   1      35.332  34.309  32.389  1.00  0.00     0.261 C 
BRANCH  28  29
ATOM     29  O   UNL A   1      35.445  32.880  32.458  1.00  0.00    -0.460 OA
BRANCH  29  30
ATOM     30  C   UNL A   1      36.467  32.407  33.220  1.00  0.00     0.338 C 
ATOM     31  O   UNL A   1      36.521  32.343  34.431  1.00  0.00    -0.246 OA
BRANCH  30  32
ATOM     32  C   UNL A   1      37.458  31.762  32.334  1.00  0.00     0.060 A 
ATOM     33  C   UNL A   1      38.516  31.051  32.918  1.00  0.00     0.016 A 
ATOM     34  C   UNL A   1      37.357  31.868  30.947  1.00  0.00     0.016 A 
ATOM     35  C   UNL A   1      39.467  30.426  32.116  1.00  0.00     0.010 A 
ATOM     36  C   UNL A   1      38.336  31.271  30.142  1.00  0.00     0.010 A 
ATOM     37  C   UNL A   1      39.402  30.561  30.724  1.00  0.00    -0.014 A 
BRANCH  37  38
ATOM     38  C   UNL A   1      40.574  30.149  29.914  1.00  0.00     0.031 A 
ATOM     39  C   UNL A   1      40.530  28.803  29.244  1.00  0.00     0.074 A 
ATOM     40  C   UNL A   1      41.621  30.969  29.708  1.00  0.00     0.049 A 
ATOM     41  N   UNL A   1      41.414  28.233  28.468  1.00  0.00    -0.248 NA
ATOM     42  C   UNL A   1      39.316  27.999  29.471  1.00  0.00     0.031 C 
ATOM     43  C   UNL A   1      41.755  32.325  30.235  1.00  0.00     0.029 A 
ATOM     44  N   UNL A   1      42.770  30.774  28.980  1.00  0.00    -0.354 N 
ATOM     45  C   UNL A   1      40.863  27.011  28.110  1.00  0.00     0.074 A 
ATOM     46  C   UNL A   1      39.586  26.902  28.780  1.00  0.00     0.031 C 
ATOM     47  C   UNL A   1      42.921  32.843  29.808  1.00  0.00     0.029 A 
ATOM     48  C   UNL A   1      43.630  31.846  29.006  1.00  0.00     0.049 A 
ATOM     49  H   UNL A   1      42.960  29.944  28.486  1.00  0.00     0.167 HD
ATOM     50  C   UNL A   1      41.364  26.065  27.283  1.00  0.00     0.031 A 
ATOM     51  C   UNL A   1      44.853  31.996  28.457  1.00  0.00     0.031 A 
ATOM     52  C   UNL A   1      42.639  26.157  26.628  1.00  0.00     0.049 A 
ATOM     53  C   UNL A   1      45.451  30.870  27.650  1.00  0.00     0.074 A 
ATOM     54  C   UNL A   1      43.232  25.244  25.775  1.00  0.00     0.029 A 
ATOM     55  N   UNL A   1      43.518  27.219  26.759  1.00  0.00    -0.354 N 
ATOM     56  N   UNL A   1      44.912  29.728  27.299  1.00  0.00    -0.248 NA
ATOM     57  C   UNL A   1      46.830  31.052  27.168  1.00  0.00     0.031 C 
ATOM     58  C   UNL A   1      44.502  25.722  25.444  1.00  0.00     0.029 A 
ATOM     59  C   UNL A   1      44.671  26.962  26.038  1.00  0.00     0.049 A 
ATOM     60  H   UNL A   1      43.349  28.033  27.287  1.00  0.00     0.167 HD
ATOM     61  C   UNL A   1      45.874  29.066  26.544  1.00  0.00     0.074 A 
ATOM     62  C   UNL A   1      47.025  29.941  26.468  1.00  0.00     0.031 C 
ATOM     63  C   UNL A   1      45.811  27.840  25.971  1.00  0.00     0.031 A 
BRANCH  50  64
ATOM     64  C   UNL A   1      40.539  24.832  27.061  1.00  0.00    -0.014 A 
ATOM     65  C   UNL A   1      40.958  23.582  27.541  1.00  0.00     0.009 A 
ATOM     66  C   UNL A   1      39.302  24.930  26.405  1.00  0.00     0.009 A 
ATOM     67  C   UNL A   1      40.166  22.449  27.347  1.00  0.00     0.001 A 
ATOM     68  C   UNL A   1      38.498  23.803  26.238  1.00  0.00     0.001 A 
ATOM     69  C   UNL A   1      38.934  22.562  26.703  1.00  0.00     0.000 A 
ENDBRANCH  50  64
BRANCH  51  70
ATOM     70  C   UNL A   1      45.616  33.258  28.664  1.00  0.00    -0.014 A 
ATOM     71  C   UNL A   1      46.357  33.461  29.839  1.00  0.00     0.009 A 
ATOM     72  C   UNL A   1      45.592  34.276  27.696  1.00  0.00     0.009 A 
ATOM     73  C   UNL A   1      47.043  34.662  30.045  1.00  0.00     0.001 A 
ATOM     74  C   UNL A   1      46.302  35.462  27.893  1.00  0.00     0.001 A 
ATOM     75  C   UNL A   1      47.021  35.658  29.071  1.00  0.00     0.000 A 
ENDBRANCH  51  70
BRANCH  63  76
ATOM     76  C   UNL A   1      47.010  27.347  25.209  1.00  0.00    -0.014 A 
ATOM     77  C   UNL A   1      47.225  27.738  23.878  1.00  0.00     0.009 A 
ATOM     78  C   UNL A   1      47.998  26.593  25.865  1.00  0.00     0.009 A 
ATOM     79  C   UNL A   1      48.403  27.377  23.219  1.00  0.00     0.001 A 
ATOM     80  C   UNL A   1      49.186  26.261  25.212  1.00  0.00     0.001 A 
ATOM     81  C   UNL A   1      49.386  26.651  23.889  1.00  0.00     0.000 A 
ENDBRANCH  63  76
ENDBRANCH  37  38
ENDBRANCH  30  32
ENDBRANCH  29  30
ENDBRANCH  28  29
ENDBRANCH  27  28
ENDBRANCH  26  27
ENDBRANCH   1  26
TORSDOF 18
ENDMDL
