MODEL 1
REMARK VINA RESULT:      -9.7      0.000      0.000
REMARK SMILES O=C(OCCOCCOCCOC(=O)c1ccc(Cl)nc1NC[C@@H]1C[N@H+]2CCC[C@@H]2CO1)c1ccc(-c2c3nc(c(-c4ccccc4)c4ccc([nH]4)c(-c4ccccc4)c4nc(c(-c5ccccc5)c5ccc2[nH]5)C=C4)C=C3)cc1
REMARK SMILES IDX 8 1 7 2 6 3 5 4 4 5 3 6 2 7 1 8 33 9 34 10 80 11 35 12 79 13
REMARK SMILES IDX 36 14 37 15 38 16 73 17 39 18 78 19 72 20 74 21 40 22 77 23
REMARK SMILES IDX 71 24 70 25 41 27 63 28 48 29 62 30 49 31 52 32 61 33 75 34
REMARK SMILES IDX 50 35 51 36 60 38 76 39 53 40 42 41 43 42 47 43 44 44 46 45
REMARK SMILES IDX 45 46 64 47 65 48 69 49 66 50 68 51 67 52 54 53 55 54 59 55
REMARK SMILES IDX 56 56 58 57 57 58 9 59 10 60 11 61 12 62 13 63 14 64 15 65
REMARK SMILES IDX 16 66 21 67 17 68 20 69 18 70 19 71 22 72 23 74 24 75 25 76
REMARK SMILES IDX 32 77 26 78 31 79 27 80 30 81 28 83 29 84
REMARK H PARENT 74 26 52 37 22 73 26 82
REMARK Flexibility Score: inf
ROOT
ATOM      1  C   UNL A   1      33.577  28.067  23.402  1.00  0.00     0.188 C 
ENDROOT
BRANCH   1   2
ATOM      2  C   UNL A   1      32.927  28.378  24.750  1.00  0.00     0.188 C 
BRANCH   2   3
ATOM      3  O   UNL A   1      32.657  29.754  25.003  1.00  0.00    -0.376 OA
BRANCH   3   4
ATOM      4  C   UNL A   1      33.038  30.241  26.282  1.00  0.00     0.202 C 
BRANCH   4   5
ATOM      5  C   UNL A   1      31.958  31.121  26.922  1.00  0.00     0.261 C 
BRANCH   5   6
ATOM      6  O   UNL A   1      32.298  32.519  26.832  1.00  0.00    -0.460 OA
BRANCH   6   7
ATOM      7  C   UNL A   1      32.902  33.350  27.714  1.00  0.00     0.338 C 
ATOM      8  O   UNL A   1      32.302  34.379  28.025  1.00  0.00    -0.246 OA
BRANCH   7   9
ATOM      9  C   UNL A   1      34.259  33.135  28.323  1.00  0.00     0.060 A 
ATOM     10  C   UNL A   1      35.476  33.592  27.819  1.00  0.00     0.016 A 
ATOM     11  C   UNL A   1      34.295  32.416  29.537  1.00  0.00     0.016 A 
ATOM     12  C   UNL A   1      36.685  33.270  28.430  1.00  0.00     0.010 A 
ATOM     13  C   UNL A   1      35.503  32.115  30.180  1.00  0.00     0.010 A 
ATOM     14  C   UNL A   1      36.709  32.493  29.587  1.00  0.00    -0.014 A 
BRANCH  14  15
ATOM     15  C   UNL A   1      38.006  31.924  30.004  1.00  0.00     0.031 A 
ATOM     16  C   UNL A   1      38.695  32.542  31.188  1.00  0.00     0.074 A 
ATOM     17  C   UNL A   1      38.459  30.779  29.466  1.00  0.00     0.049 A 
ATOM     18  N   UNL A   1      39.742  32.121  31.847  1.00  0.00    -0.248 NA
ATOM     19  C   UNL A   1      38.100  33.778  31.722  1.00  0.00     0.031 C 
ATOM     20  C   UNL A   1      37.801  30.041  28.390  1.00  0.00     0.029 A 
ATOM     21  N   UNL A   1      39.549  30.013  29.784  1.00  0.00    -0.354 N 
ATOM     22  C   UNL A   1      39.924  33.035  32.876  1.00  0.00     0.074 A 
ATOM     23  C   UNL A   1      38.901  34.048  32.740  1.00  0.00     0.031 C 
ATOM     24  C   UNL A   1      38.489  28.912  28.153  1.00  0.00     0.029 A 
ATOM     25  C   UNL A   1      39.646  28.865  29.040  1.00  0.00     0.049 A 
ATOM     26  H   UNL A   1      40.199  30.262  30.480  1.00  0.00     0.167 HD
ATOM     27  C   UNL A   1      40.855  33.030  33.856  1.00  0.00     0.031 A 
ATOM     28  C   UNL A   1      40.566  27.883  29.076  1.00  0.00     0.031 A 
ATOM     29  C   UNL A   1      41.889  32.042  33.970  1.00  0.00     0.049 A 
ATOM     30  C   UNL A   1      41.664  27.963  30.100  1.00  0.00     0.074 A 
ATOM     31  C   UNL A   1      42.922  31.970  34.886  1.00  0.00     0.029 A 
ATOM     32  N   UNL A   1      42.021  30.950  33.124  1.00  0.00    -0.354 N 
ATOM     33  N   UNL A   1      41.832  28.838  31.061  1.00  0.00    -0.248 NA
ATOM     34  C   UNL A   1      42.691  26.914  30.051  1.00  0.00     0.031 C 
ATOM     35  C   UNL A   1      43.706  30.856  34.566  1.00  0.00     0.029 A 
ATOM     36  C   UNL A   1      43.133  30.210  33.480  1.00  0.00     0.049 A 
ATOM     37  H   UNL A   1      41.413  30.735  32.380  1.00  0.00     0.167 HD
ATOM     38  C   UNL A   1      42.970  28.435  31.747  1.00  0.00     0.074 A 
ATOM     39  C   UNL A   1      43.441  27.226  31.099  1.00  0.00     0.031 C 
ATOM     40  C   UNL A   1      43.572  29.011  32.816  1.00  0.00     0.031 A 
BRANCH  27  41
ATOM     41  C   UNL A   1      40.812  34.173  34.826  1.00  0.00    -0.014 A 
ATOM     42  C   UNL A   1      40.057  34.097  36.008  1.00  0.00     0.009 A 
ATOM     43  C   UNL A   1      41.490  35.363  34.524  1.00  0.00     0.009 A 
ATOM     44  C   UNL A   1      39.951  35.208  36.848  1.00  0.00     0.001 A 
ATOM     45  C   UNL A   1      41.398  36.463  35.376  1.00  0.00     0.001 A 
ATOM     46  C   UNL A   1      40.620  36.390  36.531  1.00  0.00     0.000 A 
ENDBRANCH  27  41
BRANCH  28  47
ATOM     47  C   UNL A   1      40.494  26.751  28.115  1.00  0.00    -0.014 A 
ATOM     48  C   UNL A   1      41.118  26.828  26.861  1.00  0.00     0.009 A 
ATOM     49  C   UNL A   1      39.781  25.586  28.445  1.00  0.00     0.009 A 
ATOM     50  C   UNL A   1      41.011  25.773  25.950  1.00  0.00     0.001 A 
ATOM     51  C   UNL A   1      39.694  24.524  27.542  1.00  0.00     0.001 A 
ATOM     52  C   UNL A   1      40.301  24.623  26.291  1.00  0.00     0.000 A 
ENDBRANCH  28  47
BRANCH  40  53
ATOM     53  C   UNL A   1      44.788  28.322  33.362  1.00  0.00    -0.014 A 
ATOM     54  C   UNL A   1      46.075  28.682  32.938  1.00  0.00     0.009 A 
ATOM     55  C   UNL A   1      44.641  27.334  34.347  1.00  0.00     0.009 A 
ATOM     56  C   UNL A   1      47.194  28.043  33.472  1.00  0.00     0.001 A 
ATOM     57  C   UNL A   1      45.762  26.713  34.895  1.00  0.00     0.001 A 
ATOM     58  C   UNL A   1      47.037  27.062  34.451  1.00  0.00     0.000 A 
ENDBRANCH  40  53
ENDBRANCH  14  15
ENDBRANCH   7   9
ENDBRANCH   6   7
ENDBRANCH   5   6
ENDBRANCH   4   5
ENDBRANCH   3   4
ENDBRANCH   2   3
ENDBRANCH   1   2
BRANCH   1  59
ATOM     59  O   UNL A   1      33.173  26.895  22.708  1.00  0.00    -0.376 OA
BRANCH  59  60
ATOM     60  C   UNL A   1      32.104  26.119  23.233  1.00  0.00     0.202 C 
BRANCH  60  61
ATOM     61  C   UNL A   1      32.474  24.772  23.852  1.00  0.00     0.261 C 
BRANCH  61  62
ATOM     62  O   UNL A   1      33.850  24.405  23.634  1.00  0.00    -0.460 OA
BRANCH  62  63
ATOM     63  C   UNL A   1      34.638  24.365  24.735  1.00  0.00     0.341 C 
ATOM     64  O   UNL A   1      34.737  25.208  25.607  1.00  0.00    -0.246 OA
BRANCH  63  65
ATOM     65  C   UNL A   1      35.472  23.158  24.690  1.00  0.00     0.102 A 
ATOM     66  C   UNL A   1      36.863  23.341  24.642  1.00  0.00     0.023 A 
ATOM     67  C   UNL A   1      34.935  21.876  24.847  1.00  0.00     0.142 A 
ATOM     68  C   UNL A   1      37.696  22.239  24.760  1.00  0.00     0.042 A 
ATOM     69  N   UNL A   1      35.763  20.804  24.905  1.00  0.00    -0.218 NA
ATOM     70  C   UNL A   1      37.096  21.005  24.890  1.00  0.00     0.131 A 
ATOM     71  Cl  UNL A   1      38.036  19.579  25.039  1.00  0.00    -0.062 Cl
BRANCH  67  72
ATOM     72  N   UNL A   1      33.569  21.637  24.886  1.00  0.00    -0.366 N 
ATOM     73  H   UNL A   1      33.048  21.857  25.692  1.00  0.00     0.162 HD
BRANCH  72  74
ATOM     74  C   UNL A   1      32.911  21.055  23.718  1.00  0.00     0.152 C 
BRANCH  74  75
ATOM     75  C   UNL A   1      32.131  19.750  23.998  1.00  0.00     0.192 C 
ATOM     76  C   UNL A   1      32.674  18.917  25.187  1.00  0.00     0.296 C 
ATOM     77  O   UNL A   1      31.873  18.970  22.803  1.00  0.00    -0.364 OA
ATOM     78  N   UNL A   1      33.767  18.034  24.773  1.00  0.00    -0.328 N 
ATOM     79  C   UNL A   1      32.915  18.038  22.459  1.00  0.00     0.225 C 
ATOM     80  C   UNL A   1      34.184  17.080  25.803  1.00  0.00     0.262 C 
ATOM     81  C   UNL A   1      33.276  17.186  23.670  1.00  0.00     0.210 C 
ATOM     82  H   UNL A   1      34.548  18.646  24.540  1.00  0.00     0.348 HD
ATOM     83  C   UNL A   1      34.807  15.937  24.993  1.00  0.00     0.068 C 
ATOM     84  C   UNL A   1      34.433  16.218  23.533  1.00  0.00     0.073 C 
ENDBRANCH  74  75
ENDBRANCH  72  74
ENDBRANCH  67  72
ENDBRANCH  63  65
ENDBRANCH  62  63
ENDBRANCH  61  62
ENDBRANCH  60  61
ENDBRANCH  59  60
ENDBRANCH   1  59
TORSDOF 20
ENDMDL
MODEL 2
REMARK VINA RESULT:      -9.4      2.955      8.327
REMARK SMILES O=C(OCCOCCOCCOC(=O)c1ccc(Cl)nc1NC[C@@H]1C[N@H+]2CCC[C@@H]2CO1)c1ccc(-c2c3nc(c(-c4ccccc4)c4ccc([nH]4)c(-c4ccccc4)c4nc(c(-c5ccccc5)c5ccc2[nH]5)C=C4)C=C3)cc1
REMARK SMILES IDX 8 1 7 2 6 3 5 4 4 5 3 6 2 7 1 8 33 9 34 10 80 11 35 12 79 13
REMARK SMILES IDX 36 14 37 15 38 16 73 17 39 18 78 19 72 20 74 21 40 22 77 23
REMARK SMILES IDX 71 24 70 25 41 27 63 28 48 29 62 30 49 31 52 32 61 33 75 34
REMARK SMILES IDX 50 35 51 36 60 38 76 39 53 40 42 41 43 42 47 43 44 44 46 45
REMARK SMILES IDX 45 46 64 47 65 48 69 49 66 50 68 51 67 52 54 53 55 54 59 55
REMARK SMILES IDX 56 56 58 57 57 58 9 59 10 60 11 61 12 62 13 63 14 64 15 65
REMARK SMILES IDX 16 66 21 67 17 68 20 69 18 70 19 71 22 72 23 74 24 75 25 76
REMARK SMILES IDX 32 77 26 78 31 79 27 80 30 81 28 83 29 84
REMARK H PARENT 74 26 52 37 22 73 26 82
REMARK Flexibility Score: inf
ROOT
ATOM      1  C   UNL A   1      40.563  21.051  26.866  1.00  0.00     0.188 C 
ENDROOT
BRANCH   1   2
ATOM      2  C   UNL A   1      41.819  20.532  26.165  1.00  0.00     0.188 C 
BRANCH   2   3
ATOM      3  O   UNL A   1      42.615  21.517  25.513  1.00  0.00    -0.376 OA
BRANCH   3   4
ATOM      4  C   UNL A   1      44.004  21.234  25.417  1.00  0.00     0.202 C 
BRANCH   4   5
ATOM      5  C   UNL A   1      44.874  22.479  25.628  1.00  0.00     0.261 C 
BRANCH   5   6
ATOM      6  O   UNL A   1      44.270  23.649  25.041  1.00  0.00    -0.460 OA
BRANCH   6   7
ATOM      7  C   UNL A   1      44.463  24.967  25.280  1.00  0.00     0.338 C 
ATOM      8  O   UNL A   1      45.410  25.513  24.714  1.00  0.00    -0.246 OA
BRANCH   7   9
ATOM      9  C   UNL A   1      43.634  25.815  26.205  1.00  0.00     0.060 A 
ATOM     10  C   UNL A   1      43.814  27.171  26.470  1.00  0.00     0.016 A 
ATOM     11  C   UNL A   1      42.556  25.171  26.848  1.00  0.00     0.016 A 
ATOM     12  C   UNL A   1      43.029  27.842  27.405  1.00  0.00     0.010 A 
ATOM     13  C   UNL A   1      41.737  25.844  27.765  1.00  0.00     0.010 A 
ATOM     14  C   UNL A   1      42.017  27.172  28.090  1.00  0.00    -0.014 A 
BRANCH  14  15
ATOM     15  C   UNL A   1      41.438  27.833  29.276  1.00  0.00     0.031 A 
ATOM     16  C   UNL A   1      42.191  27.732  30.573  1.00  0.00     0.074 A 
ATOM     17  C   UNL A   1      40.380  28.653  29.159  1.00  0.00     0.049 A 
ATOM     18  N   UNL A   1      41.984  28.361  31.700  1.00  0.00    -0.248 NA
ATOM     19  C   UNL A   1      43.355  26.830  30.588  1.00  0.00     0.031 C 
ATOM     20  C   UNL A   1      39.650  28.907  27.918  1.00  0.00     0.029 A 
ATOM     21  N   UNL A   1      39.767  29.458  30.081  1.00  0.00    -0.354 N 
ATOM     22  C   UNL A   1      42.995  27.937  32.551  1.00  0.00     0.074 A 
ATOM     23  C   UNL A   1      43.797  26.978  31.826  1.00  0.00     0.031 C 
ATOM     24  C   UNL A   1      38.702  29.829  28.152  1.00  0.00     0.029 A 
ATOM     25  C   UNL A   1      38.741  30.206  29.560  1.00  0.00     0.049 A 
ATOM     26  H   UNL A   1      40.038  29.498  31.027  1.00  0.00     0.167 HD
ATOM     27  C   UNL A   1      43.242  28.318  33.824  1.00  0.00     0.031 A 
ATOM     28  C   UNL A   1      37.929  31.098  30.156  1.00  0.00     0.031 A 
ATOM     29  C   UNL A   1      42.426  29.245  34.554  1.00  0.00     0.049 A 
ATOM     30  C   UNL A   1      38.150  31.415  31.608  1.00  0.00     0.074 A 
ATOM     31  C   UNL A   1      42.546  29.659  35.867  1.00  0.00     0.029 A 
ATOM     32  N   UNL A   1      41.323  29.898  34.022  1.00  0.00    -0.354 N 
ATOM     33  N   UNL A   1      39.103  31.000  32.407  1.00  0.00    -0.248 NA
ATOM     34  C   UNL A   1      37.191  32.333  32.238  1.00  0.00     0.031 C 
ATOM     35  C   UNL A   1      41.488  30.532  36.143  1.00  0.00     0.029 A 
ATOM     36  C   UNL A   1      40.737  30.695  34.988  1.00  0.00     0.049 A 
ATOM     37  H   UNL A   1      41.006  29.807  33.095  1.00  0.00     0.167 HD
ATOM     38  C   UNL A   1      38.875  31.621  33.627  1.00  0.00     0.074 A 
ATOM     39  C   UNL A   1      37.700  32.454  33.458  1.00  0.00     0.031 C 
ATOM     40  C   UNL A   1      39.571  31.514  34.785  1.00  0.00     0.031 A 
BRANCH  27  41
ATOM     41  C   UNL A   1      44.410  27.666  34.503  1.00  0.00    -0.014 A 
ATOM     42  C   UNL A   1      45.696  28.229  34.442  1.00  0.00     0.009 A 
ATOM     43  C   UNL A   1      44.232  26.441  35.164  1.00  0.00     0.009 A 
ATOM     44  C   UNL A   1      46.787  27.554  34.996  1.00  0.00     0.001 A 
ATOM     45  C   UNL A   1      45.320  25.782  35.733  1.00  0.00     0.001 A 
ATOM     46  C   UNL A   1      46.598  26.332  35.640  1.00  0.00     0.000 A 
ENDBRANCH  27  41
BRANCH  28  47
ATOM     47  C   UNL A   1      36.834  31.746  29.387  1.00  0.00    -0.014 A 
ATOM     48  C   UNL A   1      37.071  32.903  28.629  1.00  0.00     0.009 A 
ATOM     49  C   UNL A   1      35.534  31.216  29.422  1.00  0.00     0.009 A 
ATOM     50  C   UNL A   1      36.026  33.527  27.943  1.00  0.00     0.001 A 
ATOM     51  C   UNL A   1      34.495  31.829  28.716  1.00  0.00     0.001 A 
ATOM     52  C   UNL A   1      34.741  32.990  27.985  1.00  0.00     0.000 A 
ENDBRANCH  28  47
BRANCH  40  53
ATOM     53  C   UNL A   1      39.093  32.338  35.943  1.00  0.00    -0.014 A 
ATOM     54  C   UNL A   1      39.501  33.671  36.100  1.00  0.00     0.009 A 
ATOM     55  C   UNL A   1      38.187  31.786  36.860  1.00  0.00     0.009 A 
ATOM     56  C   UNL A   1      39.030  34.427  37.174  1.00  0.00     0.001 A 
ATOM     57  C   UNL A   1      37.701  32.551  37.920  1.00  0.00     0.001 A 
ATOM     58  C   UNL A   1      38.129  33.869  38.079  1.00  0.00     0.000 A 
ENDBRANCH  40  53
ENDBRANCH  14  15
ENDBRANCH   7   9
ENDBRANCH   6   7
ENDBRANCH   5   6
ENDBRANCH   4   5
ENDBRANCH   3   4
ENDBRANCH   2   3
ENDBRANCH   1   2
BRANCH   1  59
ATOM     59  O   UNL A   1      39.628  21.806  26.110  1.00  0.00    -0.376 OA
BRANCH  59  60
ATOM     60  C   UNL A   1      39.075  22.985  26.679  1.00  0.00     0.202 C 
BRANCH  60  61
ATOM     61  C   UNL A   1      37.888  23.608  25.945  1.00  0.00     0.261 C 
BRANCH  61  62
ATOM     62  O   UNL A   1      36.928  22.636  25.488  1.00  0.00    -0.460 OA
BRANCH  62  63
ATOM     63  C   UNL A   1      35.707  22.682  26.074  1.00  0.00     0.341 C 
ATOM     64  O   UNL A   1      35.336  23.437  26.954  1.00  0.00    -0.246 OA
BRANCH  63  65
ATOM     65  C   UNL A   1      34.879  21.588  25.554  1.00  0.00     0.102 A 
ATOM     66  C   UNL A   1      35.548  20.463  25.046  1.00  0.00     0.023 A 
ATOM     67  C   UNL A   1      33.487  21.576  25.697  1.00  0.00     0.142 A 
ATOM     68  C   UNL A   1      34.814  19.341  24.693  1.00  0.00     0.042 A 
ATOM     69  N   UNL A   1      32.781  20.491  25.295  1.00  0.00    -0.218 NA
ATOM     70  C   UNL A   1      33.445  19.409  24.839  1.00  0.00     0.131 A 
ATOM     71  Cl  UNL A   1      32.447  18.078  24.428  1.00  0.00    -0.062 Cl
BRANCH  67  72
ATOM     72  N   UNL A   1      32.775  22.664  26.180  1.00  0.00    -0.366 N 
ATOM     73  H   UNL A   1      32.491  22.694  27.122  1.00  0.00     0.162 HD
BRANCH  72  74
ATOM     74  C   UNL A   1      32.452  23.766  25.276  1.00  0.00     0.152 C 
BRANCH  74  75
ATOM     75  C   UNL A   1      31.168  24.545  25.639  1.00  0.00     0.192 C 
ATOM     76  C   UNL A   1      30.476  25.241  24.439  1.00  0.00     0.296 C 
ATOM     77  O   UNL A   1      31.323  25.397  26.802  1.00  0.00    -0.364 OA
ATOM     78  N   UNL A   1      31.056  26.559  24.171  1.00  0.00    -0.328 N 
ATOM     79  C   UNL A   1      31.806  26.722  26.515  1.00  0.00     0.225 C 
ATOM     80  C   UNL A   1      30.316  27.346  23.183  1.00  0.00     0.262 C 
ATOM     81  C   UNL A   1      30.970  27.356  25.410  1.00  0.00     0.210 C 
ATOM     82  H   UNL A   1      32.001  26.385  23.828  1.00  0.00     0.348 HD
ATOM     83  C   UNL A   1      30.686  28.792  23.536  1.00  0.00     0.068 C 
ATOM     84  C   UNL A   1      31.397  28.714  24.892  1.00  0.00     0.073 C 
ENDBRANCH  74  75
ENDBRANCH  72  74
ENDBRANCH  67  72
ENDBRANCH  63  65
ENDBRANCH  62  63
ENDBRANCH  61  62
ENDBRANCH  60  61
ENDBRANCH  59  60
ENDBRANCH   1  59
TORSDOF 20
ENDMDL
MODEL 3
REMARK VINA RESULT:      -9.4      1.772      2.532
REMARK SMILES O=C(OCCOCCOCCOC(=O)c1ccc(Cl)nc1NC[C@@H]1C[N@H+]2CCC[C@@H]2CO1)c1ccc(-c2c3nc(c(-c4ccccc4)c4ccc([nH]4)c(-c4ccccc4)c4nc(c(-c5ccccc5)c5ccc2[nH]5)C=C4)C=C3)cc1
REMARK SMILES IDX 8 1 7 2 6 3 5 4 4 5 3 6 2 7 1 8 33 9 34 10 80 11 35 12 79 13
REMARK SMILES IDX 36 14 37 15 38 16 73 17 39 18 78 19 72 20 74 21 40 22 77 23
REMARK SMILES IDX 71 24 70 25 41 27 63 28 48 29 62 30 49 31 52 32 61 33 75 34
REMARK SMILES IDX 50 35 51 36 60 38 76 39 53 40 42 41 43 42 47 43 44 44 46 45
REMARK SMILES IDX 45 46 64 47 65 48 69 49 66 50 68 51 67 52 54 53 55 54 59 55
REMARK SMILES IDX 56 56 58 57 57 58 9 59 10 60 11 61 12 62 13 63 14 64 15 65
REMARK SMILES IDX 16 66 21 67 17 68 20 69 18 70 19 71 22 72 23 74 24 75 25 76
REMARK SMILES IDX 32 77 26 78 31 79 27 80 30 81 28 83 29 84
REMARK H PARENT 74 26 52 37 22 73 26 82
REMARK Flexibility Score: inf
ROOT
ATOM      1  C   UNL A   1      31.848  28.975  24.180  1.00  0.00     0.188 C 
ENDROOT
BRANCH   1   2
ATOM      2  C   UNL A   1      32.238  29.927  25.312  1.00  0.00     0.188 C 
BRANCH   2   3
ATOM      3  O   UNL A   1      31.296  30.954  25.608  1.00  0.00    -0.376 OA
BRANCH   3   4
ATOM      4  C   UNL A   1      31.393  31.537  26.900  1.00  0.00     0.202 C 
BRANCH   4   5
ATOM      5  C   UNL A   1      32.598  32.476  27.033  1.00  0.00     0.261 C 
BRANCH   5   6
ATOM      6  O   UNL A   1      32.237  33.703  27.698  1.00  0.00    -0.460 OA
BRANCH   6   7
ATOM      7  C   UNL A   1      32.971  34.561  28.446  1.00  0.00     0.338 C 
ATOM      8  O   UNL A   1      32.541  35.707  28.578  1.00  0.00    -0.246 OA
BRANCH   7   9
ATOM      9  C   UNL A   1      34.283  34.239  29.104  1.00  0.00     0.060 A 
ATOM     10  C   UNL A   1      35.547  34.635  28.669  1.00  0.00     0.016 A 
ATOM     11  C   UNL A   1      34.220  33.479  30.291  1.00  0.00     0.016 A 
ATOM     12  C   UNL A   1      36.706  34.215  29.319  1.00  0.00     0.010 A 
ATOM     13  C   UNL A   1      35.377  33.079  30.973  1.00  0.00     0.010 A 
ATOM     14  C   UNL A   1      36.629  33.399  30.446  1.00  0.00    -0.014 A 
BRANCH  14  15
ATOM     15  C   UNL A   1      37.868  32.735  30.897  1.00  0.00     0.031 A 
ATOM     16  C   UNL A   1      38.460  33.169  32.208  1.00  0.00     0.074 A 
ATOM     17  C   UNL A   1      38.340  31.653  30.254  1.00  0.00     0.049 A 
ATOM     18  N   UNL A   1      39.432  32.629  32.895  1.00  0.00    -0.248 NA
ATOM     19  C   UNL A   1      37.850  34.347  32.846  1.00  0.00     0.031 C 
ATOM     20  C   UNL A   1      37.767  31.085  29.037  1.00  0.00     0.029 A 
ATOM     21  N   UNL A   1      39.378  30.814  30.563  1.00  0.00    -0.354 N 
ATOM     22  C   UNL A   1      39.541  33.395  34.047  1.00  0.00     0.074 A 
ATOM     23  C   UNL A   1      38.560  34.453  33.957  1.00  0.00     0.031 C 
ATOM     24  C   UNL A   1      38.445  29.971  28.714  1.00  0.00     0.029 A 
ATOM     25  C   UNL A   1      39.515  29.768  29.685  1.00  0.00     0.049 A 
ATOM     26  H   UNL A   1      39.967  30.947  31.340  1.00  0.00     0.167 HD
ATOM     27  C   UNL A   1      40.378  33.230  35.096  1.00  0.00     0.031 A 
ATOM     28  C   UNL A   1      40.403  28.758  29.672  1.00  0.00     0.031 A 
ATOM     29  C   UNL A   1      41.373  32.198  35.169  1.00  0.00     0.049 A 
ATOM     30  C   UNL A   1      41.404  28.665  30.790  1.00  0.00     0.074 A 
ATOM     31  C   UNL A   1      42.315  31.971  36.155  1.00  0.00     0.029 A 
ATOM     32  N   UNL A   1      41.555  31.221  34.201  1.00  0.00    -0.354 N 
ATOM     33  N   UNL A   1      41.505  29.402  31.869  1.00  0.00    -0.248 NA
ATOM     34  C   UNL A   1      42.406  27.594  30.693  1.00  0.00     0.031 C 
ATOM     35  C   UNL A   1      43.097  30.880  35.761  1.00  0.00     0.029 A 
ATOM     36  C   UNL A   1      42.611  30.401  34.553  1.00  0.00     0.049 A 
ATOM     37  H   UNL A   1      41.012  31.126  33.385  1.00  0.00     0.167 HD
ATOM     38  C   UNL A   1      42.565  28.873  32.593  1.00  0.00     0.074 A 
ATOM     39  C   UNL A   1      43.064  27.741  31.836  1.00  0.00     0.031 C 
ATOM     40  C   UNL A   1      43.080  29.283  33.777  1.00  0.00     0.031 A 
BRANCH  27  41
ATOM     41  C   UNL A   1      40.274  34.238  36.201  1.00  0.00    -0.014 A 
ATOM     42  C   UNL A   1      39.418  34.034  37.297  1.00  0.00     0.009 A 
ATOM     43  C   UNL A   1      40.999  35.436  36.115  1.00  0.00     0.009 A 
ATOM     44  C   UNL A   1      39.261  35.030  38.263  1.00  0.00     0.001 A 
ATOM     45  C   UNL A   1      40.855  36.419  37.094  1.00  0.00     0.001 A 
ATOM     46  C   UNL A   1      39.979  36.221  38.161  1.00  0.00     0.000 A 
ENDBRANCH  27  41
BRANCH  28  47
ATOM     47  C   UNL A   1      40.392  27.763  28.568  1.00  0.00    -0.014 A 
ATOM     48  C   UNL A   1      39.705  26.547  28.699  1.00  0.00     0.009 A 
ATOM     49  C   UNL A   1      41.089  28.020  27.375  1.00  0.00     0.009 A 
ATOM     50  C   UNL A   1      39.734  25.601  27.670  1.00  0.00     0.001 A 
ATOM     51  C   UNL A   1      41.098  27.083  26.339  1.00  0.00     0.001 A 
ATOM     52  C   UNL A   1      40.428  25.870  26.491  1.00  0.00     0.000 A 
ENDBRANCH  28  47
BRANCH  40  53
ATOM     53  C   UNL A   1      44.223  28.486  34.333  1.00  0.00    -0.014 A 
ATOM     54  C   UNL A   1      43.996  27.370  35.152  1.00  0.00     0.009 A 
ATOM     55  C   UNL A   1      45.539  28.831  33.992  1.00  0.00     0.009 A 
ATOM     56  C   UNL A   1      45.073  26.630  35.643  1.00  0.00     0.001 A 
ATOM     57  C   UNL A   1      46.611  28.076  34.465  1.00  0.00     0.001 A 
ATOM     58  C   UNL A   1      46.377  26.981  35.297  1.00  0.00     0.000 A 
ENDBRANCH  40  53
ENDBRANCH  14  15
ENDBRANCH   7   9
ENDBRANCH   6   7
ENDBRANCH   5   6
ENDBRANCH   4   5
ENDBRANCH   3   4
ENDBRANCH   2   3
ENDBRANCH   1   2
BRANCH   1  59
ATOM     59  O   UNL A   1      30.846  28.001  24.429  1.00  0.00    -0.376 OA
BRANCH  59  60
ATOM     60  C   UNL A   1      30.962  27.172  25.577  1.00  0.00     0.202 C 
BRANCH  60  61
ATOM     61  C   UNL A   1      30.102  25.909  25.600  1.00  0.00     0.261 C 
BRANCH  61  62
ATOM     62  O   UNL A   1      30.828  24.719  25.237  1.00  0.00    -0.460 OA
BRANCH  62  63
ATOM     63  C   UNL A   1      30.960  24.483  23.909  1.00  0.00     0.341 C 
ATOM     64  O   UNL A   1      30.076  24.429  23.075  1.00  0.00    -0.246 OA
BRANCH  63  65
ATOM     65  C   UNL A   1      32.366  24.191  23.606  1.00  0.00     0.102 A 
ATOM     66  C   UNL A   1      33.322  25.125  24.036  1.00  0.00     0.023 A 
ATOM     67  C   UNL A   1      32.770  22.969  23.059  1.00  0.00     0.142 A 
ATOM     68  C   UNL A   1      34.670  24.818  23.918  1.00  0.00     0.042 A 
ATOM     69  N   UNL A   1      34.092  22.709  22.900  1.00  0.00    -0.218 NA
ATOM     70  C   UNL A   1      34.994  23.606  23.348  1.00  0.00     0.131 A 
ATOM     71  Cl  UNL A   1      36.630  23.133  23.153  1.00  0.00    -0.062 Cl
BRANCH  67  72
ATOM     72  N   UNL A   1      31.869  22.017  22.606  1.00  0.00    -0.366 N 
ATOM     73  H   UNL A   1      30.978  22.288  22.287  1.00  0.00     0.162 HD
BRANCH  72  74
ATOM     74  C   UNL A   1      32.255  20.608  22.608  1.00  0.00     0.152 C 
BRANCH  74  75
ATOM     75  C   UNL A   1      32.282  19.946  24.004  1.00  0.00     0.192 C 
ATOM     76  C   UNL A   1      31.876  20.883  25.170  1.00  0.00     0.296 C 
ATOM     77  O   UNL A   1      33.493  19.187  24.255  1.00  0.00    -0.364 OA
ATOM     78  N   UNL A   1      33.014  21.670  25.652  1.00  0.00    -0.328 N 
ATOM     79  C   UNL A   1      34.575  19.953  24.817  1.00  0.00     0.225 C 
ATOM     80  C   UNL A   1      32.742  22.423  26.877  1.00  0.00     0.262 C 
ATOM     81  C   UNL A   1      34.089  20.733  26.032  1.00  0.00     0.210 C 
ATOM     82  H   UNL A   1      33.245  22.318  24.899  1.00  0.00     0.348 HD
ATOM     83  C   UNL A   1      34.133  22.607  27.495  1.00  0.00     0.068 C 
ATOM     84  C   UNL A   1      35.061  21.685  26.695  1.00  0.00     0.073 C 
ENDBRANCH  74  75
ENDBRANCH  72  74
ENDBRANCH  67  72
ENDBRANCH  63  65
ENDBRANCH  62  63
ENDBRANCH  61  62
ENDBRANCH  60  61
ENDBRANCH  59  60
ENDBRANCH   1  59
TORSDOF 20
ENDMDL
