MODEL 1
REMARK VINA RESULT:     -10.1      0.000      0.000
REMARK SMILES C[C@@H](C(=O)OCCOCCOCCOC(=O)c1ccc(-c2c3nc(c(-c4ccccc4)c4ccc([nH]4)c(-c4ccccc4)c4nc(c(-c5ccccc5)c5ccc2[nH]5)C=C4)C=C3)cc1)c1ccc(-c2ccccc2)c(F)c1
REMARK SMILES IDX 9 1 8 2 7 3 6 4 5 5 3 6 4 7 2 8 1 9 65 10 66 11 77 12 67 13
REMARK SMILES IDX 75 14 68 15 76 16 69 17 70 18 74 19 71 20 73 21 72 22 10 23
REMARK SMILES IDX 11 24 12 25 13 26 14 27 15 28 16 29 17 30 18 31 64 32 19 33
REMARK SMILES IDX 63 34 20 35 21 36 22 37 57 38 23 39 62 40 56 41 58 42 24 43
REMARK SMILES IDX 61 44 55 45 54 46 25 48 47 49 32 50 46 51 33 52 36 53 45 54
REMARK SMILES IDX 59 55 34 56 35 57 44 59 60 60 37 61 26 62 27 63 31 64 28 65
REMARK SMILES IDX 30 66 29 67 48 68 49 69 53 70 50 71 52 72 51 73 38 74 39 75
REMARK SMILES IDX 43 76 40 77 42 78 41 79
REMARK H PARENT 58 47 36 58
REMARK Flexibility Score: inf
ROOT
ATOM      1  C   UNL A   1      36.826  22.965  24.674  1.00  0.00     0.188 C 
ENDROOT
BRANCH   1   2
ATOM      2  O   UNL A   1      36.253  24.077  25.347  1.00  0.00    -0.376 OA
BRANCH   2   3
ATOM      3  C   UNL A   1      34.852  24.296  25.236  1.00  0.00     0.202 C 
BRANCH   3   4
ATOM      4  C   UNL A   1      34.301  25.070  24.025  1.00  0.00     0.261 C 
BRANCH   4   5
ATOM      5  O   UNL A   1      33.667  24.284  22.991  1.00  0.00    -0.463 OA
BRANCH   5   6
ATOM      6  C   UNL A   1      32.366  24.580  22.714  1.00  0.00     0.313 C 
ATOM      7  O   UNL A   1      32.022  25.444  21.913  1.00  0.00    -0.252 OA
BRANCH   6   8
ATOM      8  C   UNL A   1      31.338  23.752  23.508  1.00  0.00     0.126 C 
ATOM      9  C   UNL A   1      30.729  24.371  24.772  1.00  0.00     0.025 C 
BRANCH   8  10
ATOM     10  C   UNL A   1      31.866  22.350  23.795  1.00  0.00    -0.031 A 
ATOM     11  C   UNL A   1      32.261  21.976  25.086  1.00  0.00     0.005 A 
ATOM     12  C   UNL A   1      31.934  21.384  22.788  1.00  0.00     0.044 A 
ATOM     13  C   UNL A   1      32.683  20.664  25.360  1.00  0.00     0.012 A 
ATOM     14  C   UNL A   1      32.333  20.081  23.073  1.00  0.00     0.131 A 
ATOM     15  C   UNL A   1      32.716  19.686  24.355  1.00  0.00     0.017 A 
ATOM     16  F   UNL A   1      32.322  19.197  22.070  1.00  0.00    -0.206 F 
BRANCH  15  17
ATOM     17  C   UNL A   1      33.127  18.300  24.627  1.00  0.00    -0.015 A 
ATOM     18  C   UNL A   1      34.414  17.852  24.295  1.00  0.00     0.009 A 
ATOM     19  C   UNL A   1      32.255  17.394  25.256  1.00  0.00     0.009 A 
ATOM     20  C   UNL A   1      34.809  16.542  24.571  1.00  0.00     0.001 A 
ATOM     21  C   UNL A   1      32.655  16.087  25.547  1.00  0.00     0.001 A 
ATOM     22  C   UNL A   1      33.934  15.661  25.202  1.00  0.00     0.000 A 
ENDBRANCH  15  17
ENDBRANCH   8  10
ENDBRANCH   6   8
ENDBRANCH   5   6
ENDBRANCH   4   5
ENDBRANCH   3   4
ENDBRANCH   2   3
ENDBRANCH   1   2
BRANCH   1  23
ATOM     23  C   UNL A   1      37.489  21.851  25.506  1.00  0.00     0.188 C 
BRANCH  23  24
ATOM     24  O   UNL A   1      37.460  20.584  24.883  1.00  0.00    -0.376 OA
BRANCH  24  25
ATOM     25  C   UNL A   1      38.571  19.731  25.090  1.00  0.00     0.202 C 
BRANCH  25  26
ATOM     26  C   UNL A   1      39.699  20.237  26.003  1.00  0.00     0.261 C 
BRANCH  26  27
ATOM     27  O   UNL A   1      40.813  19.349  26.203  1.00  0.00    -0.460 OA
BRANCH  27  28
ATOM     28  C   UNL A   1      42.042  19.781  25.840  1.00  0.00     0.338 C 
ATOM     29  O   UNL A   1      42.791  19.260  25.031  1.00  0.00    -0.246 OA
BRANCH  28  30
ATOM     30  C   UNL A   1      42.247  21.123  26.442  1.00  0.00     0.060 A 
ATOM     31  C   UNL A   1      42.556  22.202  25.605  1.00  0.00     0.016 A 
ATOM     32  C   UNL A   1      42.108  21.327  27.820  1.00  0.00     0.016 A 
ATOM     33  C   UNL A   1      42.741  23.478  26.150  1.00  0.00     0.010 A 
ATOM     34  C   UNL A   1      42.305  22.604  28.363  1.00  0.00     0.010 A 
ATOM     35  C   UNL A   1      42.632  23.689  27.533  1.00  0.00    -0.014 A 
BRANCH  35  36
ATOM     36  C   UNL A   1      43.038  24.993  28.125  1.00  0.00     0.031 A 
ATOM     37  C   UNL A   1      41.971  26.024  28.373  1.00  0.00     0.074 A 
ATOM     38  C   UNL A   1      44.316  25.275  28.442  1.00  0.00     0.049 A 
ATOM     39  N   UNL A   1      42.075  27.228  28.878  1.00  0.00    -0.248 NA
ATOM     40  C   UNL A   1      40.600  25.643  27.995  1.00  0.00     0.031 C 
ATOM     41  C   UNL A   1      45.446  24.364  28.295  1.00  0.00     0.029 A 
ATOM     42  N   UNL A   1      44.875  26.419  28.967  1.00  0.00    -0.354 N 
ATOM     43  C   UNL A   1      40.788  27.748  28.875  1.00  0.00     0.074 A 
ATOM     44  C   UNL A   1      39.922  26.736  28.308  1.00  0.00     0.031 C 
ATOM     45  C   UNL A   1      46.559  24.971  28.745  1.00  0.00     0.029 A 
ATOM     46  C   UNL A   1      46.233  26.333  29.164  1.00  0.00     0.049 A 
ATOM     47  H   UNL A   1      44.350  27.224  29.181  1.00  0.00     0.167 HD
ATOM     48  C   UNL A   1      40.361  28.962  29.292  1.00  0.00     0.031 A 
ATOM     49  C   UNL A   1      47.114  27.250  29.621  1.00  0.00     0.031 A 
ATOM     50  C   UNL A   1      41.218  29.998  29.801  1.00  0.00     0.049 A 
ATOM     51  C   UNL A   1      46.618  28.622  30.010  1.00  0.00     0.074 A 
ATOM     52  C   UNL A   1      40.874  31.271  30.223  1.00  0.00     0.029 A 
ATOM     53  N   UNL A   1      42.592  29.887  29.939  1.00  0.00    -0.354 N 
ATOM     54  N   UNL A   1      45.391  29.085  30.048  1.00  0.00    -0.248 NA
ATOM     55  C   UNL A   1      47.636  29.604  30.420  1.00  0.00     0.031 C 
ATOM     56  C   UNL A   1      42.048  31.952  30.560  1.00  0.00     0.029 A 
ATOM     57  C   UNL A   1      43.114  31.079  30.412  1.00  0.00     0.049 A 
ATOM     58  H   UNL A   1      43.118  29.081  29.733  1.00  0.00     0.167 HD
ATOM     59  C   UNL A   1      45.492  30.396  30.500  1.00  0.00     0.074 A 
ATOM     60  C   UNL A   1      46.892  30.647  30.759  1.00  0.00     0.031 C 
ATOM     61  C   UNL A   1      44.510  31.315  30.676  1.00  0.00     0.031 A 
BRANCH  48  62
ATOM     62  C   UNL A   1      38.893  29.252  29.150  1.00  0.00    -0.014 A 
ATOM     63  C   UNL A   1      38.007  29.074  30.225  1.00  0.00     0.009 A 
ATOM     64  C   UNL A   1      38.393  29.713  27.923  1.00  0.00     0.009 A 
ATOM     65  C   UNL A   1      36.643  29.316  30.061  1.00  0.00     0.001 A 
ATOM     66  C   UNL A   1      37.032  29.982  27.771  1.00  0.00     0.001 A 
ATOM     67  C   UNL A   1      36.157  29.774  28.837  1.00  0.00     0.000 A 
ENDBRANCH  48  62
BRANCH  49  68
ATOM     68  C   UNL A   1      48.568  26.929  29.722  1.00  0.00    -0.014 A 
ATOM     69  C   UNL A   1      49.429  27.137  28.632  1.00  0.00     0.009 A 
ATOM     70  C   UNL A   1      49.099  26.358  30.890  1.00  0.00     0.009 A 
ATOM     71  C   UNL A   1      50.779  26.785  28.704  1.00  0.00     0.001 A 
ATOM     72  C   UNL A   1      50.455  26.028  30.971  1.00  0.00     0.001 A 
ATOM     73  C   UNL A   1      51.292  26.236  29.876  1.00  0.00     0.000 A 
ENDBRANCH  49  68
BRANCH  61  74
ATOM     74  C   UNL A   1      44.908  32.667  31.204  1.00  0.00    -0.014 A 
ATOM     75  C   UNL A   1      45.227  33.727  30.341  1.00  0.00     0.009 A 
ATOM     76  C   UNL A   1      44.910  32.898  32.590  1.00  0.00     0.009 A 
ATOM     77  C   UNL A   1      45.572  34.980  30.855  1.00  0.00     0.001 A 
ATOM     78  C   UNL A   1      45.226  34.159  33.100  1.00  0.00     0.001 A 
ATOM     79  C   UNL A   1      45.566  35.195  32.233  1.00  0.00     0.000 A 
ENDBRANCH  61  74
ENDBRANCH  35  36
ENDBRANCH  28  30
ENDBRANCH  27  28
ENDBRANCH  26  27
ENDBRANCH  25  26
ENDBRANCH  24  25
ENDBRANCH  23  24
ENDBRANCH   1  23
TORSDOF 19
ENDMDL
MODEL 2
REMARK VINA RESULT:     -10.1      3.698      8.292
REMARK SMILES C[C@@H](C(=O)OCCOCCOCCOC(=O)c1ccc(-c2c3nc(c(-c4ccccc4)c4ccc([nH]4)c(-c4ccccc4)c4nc(c(-c5ccccc5)c5ccc2[nH]5)C=C4)C=C3)cc1)c1ccc(-c2ccccc2)c(F)c1
REMARK SMILES IDX 9 1 8 2 7 3 6 4 5 5 3 6 4 7 2 8 1 9 65 10 66 11 77 12 67 13
REMARK SMILES IDX 75 14 68 15 76 16 69 17 70 18 74 19 71 20 73 21 72 22 10 23
REMARK SMILES IDX 11 24 12 25 13 26 14 27 15 28 16 29 17 30 18 31 64 32 19 33
REMARK SMILES IDX 63 34 20 35 21 36 22 37 57 38 23 39 62 40 56 41 58 42 24 43
REMARK SMILES IDX 61 44 55 45 54 46 25 48 47 49 32 50 46 51 33 52 36 53 45 54
REMARK SMILES IDX 59 55 34 56 35 57 44 59 60 60 37 61 26 62 27 63 31 64 28 65
REMARK SMILES IDX 30 66 29 67 48 68 49 69 53 70 50 71 52 72 51 73 38 74 39 75
REMARK SMILES IDX 43 76 40 77 42 78 41 79
REMARK H PARENT 58 47 36 58
REMARK Flexibility Score: inf
ROOT
ATOM      1  C   UNL A   1      31.164  29.352  24.116  1.00  0.00     0.188 C 
ENDROOT
BRANCH   1   2
ATOM      2  O   UNL A   1      30.592  28.060  23.968  1.00  0.00    -0.376 OA
BRANCH   2   3
ATOM      3  C   UNL A   1      31.040  27.012  24.819  1.00  0.00     0.202 C 
BRANCH   3   4
ATOM      4  C   UNL A   1      30.984  25.557  24.323  1.00  0.00     0.261 C 
BRANCH   4   5
ATOM      5  O   UNL A   1      31.731  25.255  23.123  1.00  0.00    -0.463 OA
BRANCH   5   6
ATOM      6  C   UNL A   1      33.030  24.879  23.294  1.00  0.00     0.313 C 
ATOM      7  O   UNL A   1      33.869  24.911  22.400  1.00  0.00    -0.252 OA
BRANCH   6   8
ATOM      8  C   UNL A   1      33.370  24.382  24.712  1.00  0.00     0.126 C 
ATOM      9  C   UNL A   1      34.629  24.933  25.392  1.00  0.00     0.025 C 
BRANCH   8  10
ATOM     10  C   UNL A   1      33.345  22.858  24.780  1.00  0.00    -0.031 A 
ATOM     11  C   UNL A   1      32.144  22.148  24.651  1.00  0.00     0.005 A 
ATOM     12  C   UNL A   1      34.523  22.122  24.933  1.00  0.00     0.044 A 
ATOM     13  C   UNL A   1      32.133  20.743  24.647  1.00  0.00     0.012 A 
ATOM     14  C   UNL A   1      34.505  20.730  24.906  1.00  0.00     0.131 A 
ATOM     15  C   UNL A   1      33.321  20.006  24.763  1.00  0.00     0.017 A 
ATOM     16  F   UNL A   1      35.677  20.094  25.005  1.00  0.00    -0.206 F 
BRANCH  15  17
ATOM     17  C   UNL A   1      33.334  18.536  24.732  1.00  0.00    -0.015 A 
ATOM     18  C   UNL A   1      32.730  17.788  25.753  1.00  0.00     0.009 A 
ATOM     19  C   UNL A   1      33.924  17.837  23.664  1.00  0.00     0.009 A 
ATOM     20  C   UNL A   1      32.727  16.392  25.713  1.00  0.00     0.001 A 
ATOM     21  C   UNL A   1      33.907  16.441  23.615  1.00  0.00     0.001 A 
ATOM     22  C   UNL A   1      33.308  15.719  24.642  1.00  0.00     0.000 A 
ENDBRANCH  15  17
ENDBRANCH   8  10
ENDBRANCH   6   8
ENDBRANCH   5   6
ENDBRANCH   4   5
ENDBRANCH   3   4
ENDBRANCH   2   3
ENDBRANCH   1   2
BRANCH   1  23
ATOM     23  C   UNL A   1      31.827  29.725  25.456  1.00  0.00     0.188 C 
BRANCH  23  24
ATOM     24  O   UNL A   1      31.387  30.957  25.983  1.00  0.00    -0.376 OA
BRANCH  24  25
ATOM     25  C   UNL A   1      32.189  31.564  26.980  1.00  0.00     0.202 C 
BRANCH  25  26
ATOM     26  C   UNL A   1      32.334  33.093  26.945  1.00  0.00     0.261 C 
BRANCH  26  27
ATOM     27  O   UNL A   1      32.183  33.784  28.199  1.00  0.00    -0.460 OA
BRANCH  27  28
ATOM     28  C   UNL A   1      33.146  34.662  28.559  1.00  0.00     0.338 C 
ATOM     29  O   UNL A   1      33.014  35.861  28.734  1.00  0.00    -0.246 OA
BRANCH  28  30
ATOM     30  C   UNL A   1      34.360  33.882  28.913  1.00  0.00     0.060 A 
ATOM     31  C   UNL A   1      34.278  32.923  29.929  1.00  0.00     0.016 A 
ATOM     32  C   UNL A   1      35.567  34.074  28.231  1.00  0.00     0.016 A 
ATOM     33  C   UNL A   1      35.406  32.168  30.270  1.00  0.00     0.010 A 
ATOM     34  C   UNL A   1      36.698  33.325  28.583  1.00  0.00     0.010 A 
ATOM     35  C   UNL A   1      36.630  32.372  29.612  1.00  0.00    -0.014 A 
BRANCH  35  36
ATOM     36  C   UNL A   1      37.870  31.724  30.122  1.00  0.00     0.031 A 
ATOM     37  C   UNL A   1      38.585  32.369  31.277  1.00  0.00     0.074 A 
ATOM     38  C   UNL A   1      38.364  30.593  29.586  1.00  0.00     0.049 A 
ATOM     39  N   UNL A   1      39.677  31.996  31.895  1.00  0.00    -0.248 NA
ATOM     40  C   UNL A   1      37.986  33.606  31.803  1.00  0.00     0.031 C 
ATOM     41  C   UNL A   1      37.760  29.837  28.494  1.00  0.00     0.029 A 
ATOM     42  N   UNL A   1      39.495  29.873  29.904  1.00  0.00    -0.354 N 
ATOM     43  C   UNL A   1      39.898  32.951  32.878  1.00  0.00     0.074 A 
ATOM     44  C   UNL A   1      38.834  33.927  32.768  1.00  0.00     0.031 C 
ATOM     45  C   UNL A   1      38.508  28.746  28.248  1.00  0.00     0.029 A 
ATOM     46  C   UNL A   1      39.674  28.750  29.131  1.00  0.00     0.049 A 
ATOM     47  H   UNL A   1      40.118  30.139  30.619  1.00  0.00     0.167 HD
ATOM     48  C   UNL A   1      40.899  33.023  33.785  1.00  0.00     0.031 A 
ATOM     49  C   UNL A   1      40.669  27.835  29.129  1.00  0.00     0.031 A 
ATOM     50  C   UNL A   1      41.993  32.095  33.867  1.00  0.00     0.049 A 
ATOM     51  C   UNL A   1      41.812  27.983  30.103  1.00  0.00     0.074 A 
ATOM     52  C   UNL A   1      43.070  32.106  34.738  1.00  0.00     0.029 A 
ATOM     53  N   UNL A   1      42.162  31.000  33.035  1.00  0.00    -0.354 N 
ATOM     54  N   UNL A   1      41.983  28.865  31.060  1.00  0.00    -0.248 NA
ATOM     55  C   UNL A   1      42.906  27.004  29.996  1.00  0.00     0.031 C 
ATOM     56  C   UNL A   1      43.921  31.052  34.394  1.00  0.00     0.029 A 
ATOM     57  C   UNL A   1      43.340  30.345  33.353  1.00  0.00     0.049 A 
ATOM     58  H   UNL A   1      41.538  30.728  32.324  1.00  0.00     0.167 HD
ATOM     59  C   UNL A   1      43.187  28.535  31.673  1.00  0.00     0.074 A 
ATOM     60  C   UNL A   1      43.688  27.353  31.008  1.00  0.00     0.031 C 
ATOM     61  C   UNL A   1      43.826  29.163  32.690  1.00  0.00     0.031 A 
BRANCH  48  62
ATOM     62  C   UNL A   1      40.882  34.196  34.724  1.00  0.00    -0.014 A 
ATOM     63  C   UNL A   1      40.244  34.121  35.972  1.00  0.00     0.009 A 
ATOM     64  C   UNL A   1      41.519  35.391  34.354  1.00  0.00     0.009 A 
ATOM     65  C   UNL A   1      40.211  35.233  36.815  1.00  0.00     0.001 A 
ATOM     66  C   UNL A   1      41.508  36.492  35.211  1.00  0.00     0.001 A 
ATOM     67  C   UNL A   1      40.846  36.415  36.436  1.00  0.00     0.000 A 
ENDBRANCH  48  62
BRANCH  49  68
ATOM     68  C   UNL A   1      40.659  26.700  28.161  1.00  0.00    -0.014 A 
ATOM     69  C   UNL A   1      41.203  26.846  26.873  1.00  0.00     0.009 A 
ATOM     70  C   UNL A   1      40.057  25.476  28.493  1.00  0.00     0.009 A 
ATOM     71  C   UNL A   1      41.145  25.803  25.945  1.00  0.00     0.001 A 
ATOM     72  C   UNL A   1      40.021  24.424  27.573  1.00  0.00     0.001 A 
ATOM     73  C   UNL A   1      40.559  24.591  26.299  1.00  0.00     0.000 A 
ENDBRANCH  49  68
BRANCH  61  74
ATOM     74  C   UNL A   1      45.121  28.566  33.174  1.00  0.00    -0.014 A 
ATOM     75  C   UNL A   1      45.150  27.621  34.211  1.00  0.00     0.009 A 
ATOM     76  C   UNL A   1      46.326  28.919  32.544  1.00  0.00     0.009 A 
ATOM     77  C   UNL A   1      46.363  27.066  34.628  1.00  0.00     0.001 A 
ATOM     78  C   UNL A   1      47.532  28.338  32.943  1.00  0.00     0.001 A 
ATOM     79  C   UNL A   1      47.551  27.421  33.991  1.00  0.00     0.000 A 
ENDBRANCH  61  74
ENDBRANCH  35  36
ENDBRANCH  28  30
ENDBRANCH  27  28
ENDBRANCH  26  27
ENDBRANCH  25  26
ENDBRANCH  24  25
ENDBRANCH  23  24
ENDBRANCH   1  23
TORSDOF 19
ENDMDL
MODEL 3
REMARK VINA RESULT:     -10.1      0.771      5.916
REMARK SMILES C[C@@H](C(=O)OCCOCCOCCOC(=O)c1ccc(-c2c3nc(c(-c4ccccc4)c4ccc([nH]4)c(-c4ccccc4)c4nc(c(-c5ccccc5)c5ccc2[nH]5)C=C4)C=C3)cc1)c1ccc(-c2ccccc2)c(F)c1
REMARK SMILES IDX 9 1 8 2 7 3 6 4 5 5 3 6 4 7 2 8 1 9 65 10 66 11 77 12 67 13
REMARK SMILES IDX 75 14 68 15 76 16 69 17 70 18 74 19 71 20 73 21 72 22 10 23
REMARK SMILES IDX 11 24 12 25 13 26 14 27 15 28 16 29 17 30 18 31 64 32 19 33
REMARK SMILES IDX 63 34 20 35 21 36 22 37 57 38 23 39 62 40 56 41 58 42 24 43
REMARK SMILES IDX 61 44 55 45 54 46 25 48 47 49 32 50 46 51 33 52 36 53 45 54
REMARK SMILES IDX 59 55 34 56 35 57 44 59 60 60 37 61 26 62 27 63 31 64 28 65
REMARK SMILES IDX 30 66 29 67 48 68 49 69 53 70 50 71 52 72 51 73 38 74 39 75
REMARK SMILES IDX 43 76 40 77 42 78 41 79
REMARK H PARENT 58 47 36 58
REMARK Flexibility Score: inf
ROOT
ATOM      1  C   UNL A   1      36.998  22.136  24.632  1.00  0.00     0.188 C 
ENDROOT
BRANCH   1   2
ATOM      2  O   UNL A   1      36.677  23.159  25.564  1.00  0.00    -0.376 OA
BRANCH   2   3
ATOM      3  C   UNL A   1      35.710  24.136  25.202  1.00  0.00     0.202 C 
BRANCH   3   4
ATOM      4  C   UNL A   1      35.058  24.078  23.809  1.00  0.00     0.261 C 
BRANCH   4   5
ATOM      5  O   UNL A   1      33.923  24.946  23.592  1.00  0.00    -0.463 OA
BRANCH   5   6
ATOM      6  C   UNL A   1      33.073  24.594  22.586  1.00  0.00     0.313 C 
ATOM      7  O   UNL A   1      33.297  24.813  21.400  1.00  0.00    -0.252 OA
BRANCH   6   8
ATOM      8  C   UNL A   1      31.776  23.907  23.056  1.00  0.00     0.126 C 
ATOM      9  C   UNL A   1      30.956  24.582  24.160  1.00  0.00     0.025 C 
BRANCH   8  10
ATOM     10  C   UNL A   1      32.023  22.438  23.389  1.00  0.00    -0.031 A 
ATOM     11  C   UNL A   1      31.946  21.450  22.399  1.00  0.00     0.005 A 
ATOM     12  C   UNL A   1      32.371  22.039  24.682  1.00  0.00     0.044 A 
ATOM     13  C   UNL A   1      32.238  20.108  22.695  1.00  0.00     0.012 A 
ATOM     14  C   UNL A   1      32.681  20.711  24.961  1.00  0.00     0.131 A 
ATOM     15  C   UNL A   1      32.624  19.715  23.985  1.00  0.00     0.017 A 
ATOM     16  F   UNL A   1      33.058  20.413  26.208  1.00  0.00    -0.206 F 
BRANCH  15  17
ATOM     17  C   UNL A   1      32.963  18.321  24.309  1.00  0.00    -0.015 A 
ATOM     18  C   UNL A   1      33.804  17.571  23.475  1.00  0.00     0.009 A 
ATOM     19  C   UNL A   1      32.480  17.710  25.480  1.00  0.00     0.009 A 
ATOM     20  C   UNL A   1      34.140  16.254  23.794  1.00  0.00     0.001 A 
ATOM     21  C   UNL A   1      32.828  16.397  25.808  1.00  0.00     0.001 A 
ATOM     22  C   UNL A   1      33.658  15.669  24.962  1.00  0.00     0.000 A 
ENDBRANCH  15  17
ENDBRANCH   8  10
ENDBRANCH   6   8
ENDBRANCH   5   6
ENDBRANCH   4   5
ENDBRANCH   3   4
ENDBRANCH   2   3
ENDBRANCH   1   2
BRANCH   1  23
ATOM     23  C   UNL A   1      36.690  20.672  24.997  1.00  0.00     0.188 C 
BRANCH  23  24
ATOM     24  O   UNL A   1      37.649  19.754  24.516  1.00  0.00    -0.376 OA
BRANCH  24  25
ATOM     25  C   UNL A   1      38.588  19.245  25.446  1.00  0.00     0.202 C 
BRANCH  25  26
ATOM     26  C   UNL A   1      39.737  20.170  25.877  1.00  0.00     0.261 C 
BRANCH  26  27
ATOM     27  O   UNL A   1      40.898  19.536  26.443  1.00  0.00    -0.460 OA
BRANCH  27  28
ATOM     28  C   UNL A   1      42.111  19.880  25.954  1.00  0.00     0.338 C 
ATOM     29  O   UNL A   1      42.758  19.279  25.113  1.00  0.00    -0.246 OA
BRANCH  28  30
ATOM     30  C   UNL A   1      42.436  21.237  26.463  1.00  0.00     0.060 A 
ATOM     31  C   UNL A   1      42.381  21.475  27.841  1.00  0.00     0.016 A 
ATOM     32  C   UNL A   1      42.820  22.263  25.593  1.00  0.00     0.016 A 
ATOM     33  C   UNL A   1      42.695  22.743  28.344  1.00  0.00     0.010 A 
ATOM     34  C   UNL A   1      43.123  23.535  26.099  1.00  0.00     0.010 A 
ATOM     35  C   UNL A   1      43.054  23.788  27.478  1.00  0.00    -0.014 A 
BRANCH  35  36
ATOM     36  C   UNL A   1      43.176  25.179  27.995  1.00  0.00     0.031 A 
ATOM     37  C   UNL A   1      44.547  25.687  28.351  1.00  0.00     0.074 A 
ATOM     38  C   UNL A   1      42.111  25.986  28.153  1.00  0.00     0.049 A 
ATOM     39  N   UNL A   1      44.909  26.856  28.816  1.00  0.00    -0.248 NA
ATOM     40  C   UNL A   1      45.660  24.743  28.156  1.00  0.00     0.031 C 
ATOM     41  C   UNL A   1      40.733  25.647  27.815  1.00  0.00     0.029 A 
ATOM     42  N   UNL A   1      42.029  27.275  28.633  1.00  0.00    -0.354 N 
ATOM     43  C   UNL A   1      46.287  26.787  28.973  1.00  0.00     0.074 A 
ATOM     44  C   UNL A   1      46.695  25.460  28.565  1.00  0.00     0.031 C 
ATOM     45  C   UNL A   1      39.944  26.706  28.071  1.00  0.00     0.029 A 
ATOM     46  C   UNL A   1      40.752  27.785  28.639  1.00  0.00     0.049 A 
ATOM     47  H   UNL A   1      42.813  27.784  28.942  1.00  0.00     0.167 HD
ATOM     48  C   UNL A   1      47.139  27.735  29.427  1.00  0.00     0.031 A 
ATOM     49  C   UNL A   1      40.286  28.980  29.064  1.00  0.00     0.031 A 
ATOM     50  C   UNL A   1      46.740  29.035  29.891  1.00  0.00     0.049 A 
ATOM     51  C   UNL A   1      41.252  29.990  29.636  1.00  0.00     0.074 A 
ATOM     52  C   UNL A   1      47.535  30.051  30.395  1.00  0.00     0.029 A 
ATOM     53  N   UNL A   1      45.433  29.493  29.927  1.00  0.00    -0.354 N 
ATOM     54  N   UNL A   1      42.559  29.930  29.734  1.00  0.00    -0.248 NA
ATOM     55  C   UNL A   1      40.674  31.238  30.159  1.00  0.00     0.031 C 
ATOM     56  C   UNL A   1      46.702  31.102  30.791  1.00  0.00     0.029 A 
ATOM     57  C   UNL A   1      45.396  30.766  30.471  1.00  0.00     0.049 A 
ATOM     58  H   UNL A   1      44.649  28.990  29.611  1.00  0.00     0.167 HD
ATOM     59  C   UNL A   1      42.954  31.133  30.309  1.00  0.00     0.074 A 
ATOM     60  C   UNL A   1      41.756  31.919  30.506  1.00  0.00     0.031 C 
ATOM     61  C   UNL A   1      44.199  31.545  30.654  1.00  0.00     0.031 A 
BRANCH  48  62
ATOM     62  C   UNL A   1      48.592  27.361  29.502  1.00  0.00    -0.014 A 
ATOM     63  C   UNL A   1      49.130  26.747  30.644  1.00  0.00     0.009 A 
ATOM     64  C   UNL A   1      49.433  27.624  28.409  1.00  0.00     0.009 A 
ATOM     65  C   UNL A   1      50.490  26.439  30.705  1.00  0.00     0.001 A 
ATOM     66  C   UNL A   1      50.787  27.289  28.462  1.00  0.00     0.001 A 
ATOM     67  C   UNL A   1      51.316  26.706  29.614  1.00  0.00     0.000 A 
ENDBRANCH  48  62
BRANCH  49  68
ATOM     68  C   UNL A   1      38.830  29.299  28.996  1.00  0.00    -0.014 A 
ATOM     69  C   UNL A   1      38.000  29.118  30.115  1.00  0.00     0.009 A 
ATOM     70  C   UNL A   1      38.244  29.735  27.797  1.00  0.00     0.009 A 
ATOM     71  C   UNL A   1      36.626  29.363  30.039  1.00  0.00     0.001 A 
ATOM     72  C   UNL A   1      36.874  30.003  27.727  1.00  0.00     0.001 A 
ATOM     73  C   UNL A   1      36.066  29.810  28.846  1.00  0.00     0.000 A 
ENDBRANCH  49  68
BRANCH  61  74
ATOM     74  C   UNL A   1      44.338  32.921  31.247  1.00  0.00    -0.014 A 
ATOM     75  C   UNL A   1      44.599  34.042  30.444  1.00  0.00     0.009 A 
ATOM     76  C   UNL A   1      44.152  33.105  32.628  1.00  0.00     0.009 A 
ATOM     77  C   UNL A   1      44.703  35.313  31.016  1.00  0.00     0.001 A 
ATOM     78  C   UNL A   1      44.226  34.380  33.191  1.00  0.00     0.001 A 
ATOM     79  C   UNL A   1      44.511  35.481  32.387  1.00  0.00     0.000 A 
ENDBRANCH  61  74
ENDBRANCH  35  36
ENDBRANCH  28  30
ENDBRANCH  27  28
ENDBRANCH  26  27
ENDBRANCH  25  26
ENDBRANCH  24  25
ENDBRANCH  23  24
ENDBRANCH   1  23
TORSDOF 19
ENDMDL
