MODEL 1
REMARK VINA RESULT:      -7.3      0.000      0.000
REMARK SMILES Cc1coc2cc3c(cc12)[C@@H](C)[C@H](CCC(=O)N[C@@H](Cc1c[nH]c2ccccc12)C(=O)OCCOCCOCCOC(=O)c1ccc(-c2c4nc(c(-c5ccccc5)c5ccc([nH]5)c(-c5ccccc5)c5nc(c(-c6ccccc6)c6ccc2[nH]6)C=C5)C=C4)cc1)C(=O)O3
REMARK SMILES IDX 36 1 35 2 34 3 33 4 32 5 30 6 31 7 19 8 18 9 16 10 17 11
REMARK SMILES IDX 15 13 14 14 13 15 1 16 2 17 3 18 10 19 4 20 5 21 9 22 6 23
REMARK SMILES IDX 8 24 7 25 11 26 94 27 12 28 92 29 93 30 20 31 21 32 22 33
REMARK SMILES IDX 29 34 23 35 24 36 28 37 25 39 27 40 26 41 37 42 38 43 39 44
REMARK SMILES IDX 40 45 41 46 42 47 43 48 44 49 45 50 91 51 46 52 90 53 47 54
REMARK SMILES IDX 48 55 49 56 84 57 50 58 89 59 83 60 85 61 51 62 88 63 82 64
REMARK SMILES IDX 81 65 52 67 74 68 59 69 73 70 60 71 63 72 72 73 86 74 61 75
REMARK SMILES IDX 62 76 71 78 87 79 64 80 53 81 54 82 58 83 55 84 57 85 56 86
REMARK SMILES IDX 75 87 76 88 80 89 77 90 79 91 78 92 65 93 66 94 70 95 67 96
REMARK SMILES IDX 69 97 68 98
REMARK H PARENT 18 12 23 38 85 66 63 77
REMARK Flexibility Score: inf
ROOT
ATOM      1  C   UNL A   1      36.520  32.408  33.674  1.00  0.00     0.188 C 
ENDROOT
BRANCH   1   2
ATOM      2  O   UNL A   1      37.474  31.450  34.041  1.00  0.00    -0.376 OA
BRANCH   2   3
ATOM      3  C   UNL A   1      38.661  31.902  34.637  1.00  0.00     0.202 C 
BRANCH   3   4
ATOM      4  C   UNL A   1      38.872  31.893  36.150  1.00  0.00     0.261 C 
BRANCH   4   5
ATOM      5  O   UNL A   1      40.156  31.473  36.667  1.00  0.00    -0.462 OA
BRANCH   5   6
ATOM      6  C   UNL A   1      40.816  32.445  37.353  1.00  0.00     0.329 C 
ATOM      7  O   UNL A   1      40.786  32.490  38.582  1.00  0.00    -0.250 OA
BRANCH   6   8
ATOM      8  C   UNL A   1      41.573  33.523  36.521  1.00  0.00     0.196 C 
BRANCH   8   9
ATOM      9  N   UNL A   1      41.038  34.908  36.400  1.00  0.00    -0.342 N 
ATOM     10  C   UNL A   1      40.415  35.600  35.382  1.00  0.00     0.220 C 
ATOM     11  O   UNL A   1      40.028  36.756  35.560  1.00  0.00    -0.275 OA
ATOM     12  H   UNL A   1      41.153  35.443  37.219  1.00  0.00     0.164 HD
BRANCH  10  13
ATOM     13  C   UNL A   1      40.192  34.982  34.015  1.00  0.00     0.101 C 
BRANCH  13  14
ATOM     14  C   UNL A   1      41.318  34.230  33.321  1.00  0.00     0.026 C 
BRANCH  14  15
ATOM     15  C   UNL A   1      41.661  34.964  32.055  1.00  0.00     0.107 C 
ATOM     16  C   UNL A   1      46.192  38.799  28.254  1.00  0.00     0.048 C 
ATOM     17  C   UNL A   1      44.590  37.442  27.976  1.00  0.00    -0.005 A 
ATOM     18  C   UNL A   1      43.515  37.339  26.929  1.00  0.00     0.199 A 
ATOM     19  C   UNL A   1      44.117  36.006  28.640  1.00  0.00     0.024 A 
ATOM     20  O   UNL A   1      42.679  36.302  26.946  1.00  0.00    -0.464 OA
ATOM     21  C   UNL A   1      42.987  35.530  27.978  1.00  0.00     0.137 A 
ATOM     22  C   UNL A   1      44.540  35.171  29.710  1.00  0.00     0.020 A 
ATOM     23  C   UNL A   1      42.212  34.431  28.338  1.00  0.00     0.095 A 
ATOM     24  C   UNL A   1      43.492  34.546  30.373  1.00  0.00    -0.001 A 
ATOM     25  C   UNL A   1      42.439  34.022  29.638  1.00  0.00     0.138 A 
ATOM     26  C   UNL A   1      43.182  34.974  31.794  1.00  0.00     0.034 C 
ATOM     27  O   UNL A   1      41.437  33.359  30.302  1.00  0.00    -0.426 OA
ATOM     28  C   UNL A   1      43.515  36.444  31.983  1.00  0.00     0.014 C 
ATOM     29  C   UNL A   1      40.867  34.452  30.867  1.00  0.00     0.314 C 
ATOM     30  O   UNL A   1      39.856  34.976  30.423  1.00  0.00    -0.251 OA
ENDBRANCH  14  15
ENDBRANCH  13  14
ENDBRANCH  10  13
ENDBRANCH   8   9
BRANCH   8  31
ATOM     31  C   UNL A   1      43.046  33.430  36.972  1.00  0.00     0.074 C 
BRANCH  31  32
ATOM     32  C   UNL A   1      44.025  32.986  35.958  1.00  0.00    -0.020 A 
ATOM     33  C   UNL A   1      44.648  33.779  35.025  1.00  0.00     0.087 A 
ATOM     34  C   UNL A   1      44.443  31.641  35.716  1.00  0.00     0.003 A 
ATOM     35  N   UNL A   1      45.581  33.011  34.392  1.00  0.00    -0.361 N 
ATOM     36  C   UNL A   1      45.553  31.726  34.884  1.00  0.00     0.046 A 
ATOM     37  C   UNL A   1      44.047  30.371  36.188  1.00  0.00     0.010 A 
ATOM     38  H   UNL A   1      46.187  33.330  33.685  1.00  0.00     0.166 HD
ATOM     39  C   UNL A   1      46.403  30.641  34.664  1.00  0.00     0.026 A 
ATOM     40  C   UNL A   1      44.883  29.271  35.974  1.00  0.00     0.001 A 
ATOM     41  C   UNL A   1      46.071  29.423  35.267  1.00  0.00     0.002 A 
ENDBRANCH  31  32
ENDBRANCH   8  31
ENDBRANCH   6   8
ENDBRANCH   5   6
ENDBRANCH   4   5
ENDBRANCH   3   4
ENDBRANCH   2   3
ENDBRANCH   1   2
BRANCH   1  42
ATOM     42  C   UNL A   1      36.969  33.888  33.668  1.00  0.00     0.188 C 
BRANCH  42  43
ATOM     43  O   UNL A   1      35.978  34.865  33.473  1.00  0.00    -0.376 OA
BRANCH  43  44
ATOM     44  C   UNL A   1      34.821  34.330  32.836  1.00  0.00     0.202 C 
BRANCH  44  45
ATOM     45  C   UNL A   1      34.612  34.611  31.299  1.00  0.00     0.261 C 
BRANCH  45  46
ATOM     46  O   UNL A   1      35.532  33.923  30.351  1.00  0.00    -0.460 OA
BRANCH  46  47
ATOM     47  C   UNL A   1      35.182  32.713  29.780  1.00  0.00     0.338 C 
ATOM     48  O   UNL A   1      34.021  32.410  29.538  1.00  0.00    -0.246 OA
BRANCH  47  49
ATOM     49  C   UNL A   1      36.374  31.989  29.060  1.00  0.00     0.060 A 
ATOM     50  C   UNL A   1      36.382  30.931  28.129  1.00  0.00     0.016 A 
ATOM     51  C   UNL A   1      37.622  32.248  29.594  1.00  0.00     0.016 A 
ATOM     52  C   UNL A   1      37.497  29.960  28.033  1.00  0.00     0.010 A 
ATOM     53  C   UNL A   1      38.705  31.339  29.415  1.00  0.00     0.010 A 
ATOM     54  C   UNL A   1      38.658  30.054  28.821  1.00  0.00    -0.014 A 
BRANCH  54  55
ATOM     55  C   UNL A   1      40.019  29.212  28.846  1.00  0.00     0.031 A 
ATOM     56  C   UNL A   1      40.170  28.736  30.237  1.00  0.00     0.074 A 
ATOM     57  C   UNL A   1      41.106  28.801  28.060  1.00  0.00     0.049 A 
ATOM     58  N   UNL A   1      40.815  29.430  31.116  1.00  0.00    -0.248 NA
ATOM     59  C   UNL A   1      39.371  27.641  30.789  1.00  0.00     0.031 C 
ATOM     60  C   UNL A   1      41.596  29.260  26.772  1.00  0.00     0.029 A 
ATOM     61  N   UNL A   1      42.093  27.772  28.276  1.00  0.00    -0.354 N 
ATOM     62  C   UNL A   1      40.652  28.752  32.302  1.00  0.00     0.074 A 
ATOM     63  C   UNL A   1      39.543  27.859  32.094  1.00  0.00     0.031 C 
ATOM     64  C   UNL A   1      42.528  28.438  26.216  1.00  0.00     0.029 A 
ATOM     65  C   UNL A   1      42.790  27.278  27.067  1.00  0.00     0.049 A 
ATOM     66  H   UNL A   1      42.292  27.418  29.173  1.00  0.00     0.167 HD
ATOM     67  C   UNL A   1      41.621  28.776  33.252  1.00  0.00     0.031 A 
ATOM     68  C   UNL A   1      43.960  26.526  26.853  1.00  0.00     0.031 A 
ATOM     69  C   UNL A   1      42.675  29.698  32.888  1.00  0.00     0.049 A 
ATOM     70  C   UNL A   1      44.773  26.974  28.028  1.00  0.00     0.074 A 
ATOM     71  C   UNL A   1      42.784  31.068  32.789  1.00  0.00     0.029 A 
ATOM     72  N   UNL A   1      43.690  29.153  32.130  1.00  0.00    -0.354 N 
ATOM     73  N   UNL A   1      45.195  28.208  28.170  1.00  0.00    -0.248 NA
ATOM     74  C   UNL A   1      44.738  26.204  29.263  1.00  0.00     0.031 C 
ATOM     75  C   UNL A   1      43.698  31.306  31.722  1.00  0.00     0.029 A 
ATOM     76  C   UNL A   1      44.176  30.084  31.245  1.00  0.00     0.049 A 
ATOM     77  H   UNL A   1      44.019  28.229  32.212  1.00  0.00     0.167 HD
ATOM     78  C   UNL A   1      45.075  28.487  29.527  1.00  0.00     0.074 A 
ATOM     79  C   UNL A   1      44.910  27.182  30.158  1.00  0.00     0.031 C 
ATOM     80  C   UNL A   1      44.832  29.753  29.988  1.00  0.00     0.031 A 
BRANCH  67  81
ATOM     81  C   UNL A   1      41.824  27.694  34.274  1.00  0.00    -0.014 A 
ATOM     82  C   UNL A   1      42.498  26.483  34.028  1.00  0.00     0.009 A 
ATOM     83  C   UNL A   1      41.503  27.974  35.611  1.00  0.00     0.009 A 
ATOM     84  C   UNL A   1      42.833  25.595  35.051  1.00  0.00     0.001 A 
ATOM     85  C   UNL A   1      41.870  27.106  36.645  1.00  0.00     0.001 A 
ATOM     86  C   UNL A   1      42.536  25.917  36.364  1.00  0.00     0.000 A 
ENDBRANCH  67  81
BRANCH  68  87
ATOM     87  C   UNL A   1      44.155  25.005  26.235  1.00  0.00    -0.014 A 
ATOM     88  C   UNL A   1      45.603  24.623  25.213  1.00  0.00     0.009 A 
ATOM     89  C   UNL A   1      42.835  23.730  26.266  1.00  0.00     0.009 A 
ATOM     90  C   UNL A   1      45.837  22.994  24.366  1.00  0.00     0.001 A 
ATOM     91  C   UNL A   1      42.986  22.131  25.351  1.00  0.00     0.001 A 
ATOM     92  C   UNL A   1      44.536  21.739  24.457  1.00  0.00     0.000 A 
ENDBRANCH  68  87
BRANCH  80  93
ATOM     93  C   UNL A   1      45.019  30.915  29.038  1.00  0.00    -0.014 A 
ATOM     94  C   UNL A   1      44.090  31.146  28.018  1.00  0.00     0.009 A 
ATOM     95  C   UNL A   1      46.226  31.624  28.984  1.00  0.00     0.009 A 
ATOM     96  C   UNL A   1      44.362  32.066  26.995  1.00  0.00     0.001 A 
ATOM     97  C   UNL A   1      46.491  32.574  27.992  1.00  0.00     0.001 A 
ATOM     98  C   UNL A   1      45.555  32.790  26.989  1.00  0.00     0.000 A 
ENDBRANCH  80  93
ENDBRANCH  54  55
ENDBRANCH  47  49
ENDBRANCH  46  47
ENDBRANCH  45  46
ENDBRANCH  44  45
ENDBRANCH  43  44
ENDBRANCH  42  43
ENDBRANCH   1  42
TORSDOF 23
ENDMDL
MODEL 2
REMARK VINA RESULT:      -7.0      7.547     13.694
REMARK SMILES Cc1coc2cc3c(cc12)[C@@H](C)[C@H](CCC(=O)N[C@@H](Cc1c[nH]c2ccccc12)C(=O)OCCOCCOCCOC(=O)c1ccc(-c2c4nc(c(-c5ccccc5)c5ccc([nH]5)c(-c5ccccc5)c5nc(c(-c6ccccc6)c6ccc2[nH]6)C=C5)C=C4)cc1)C(=O)O3
REMARK SMILES IDX 36 1 35 2 34 3 33 4 32 5 30 6 31 7 19 8 18 9 16 10 17 11
REMARK SMILES IDX 15 13 14 14 13 15 1 16 2 17 3 18 10 19 4 20 5 21 9 22 6 23
REMARK SMILES IDX 8 24 7 25 11 26 94 27 12 28 92 29 93 30 20 31 21 32 22 33
REMARK SMILES IDX 29 34 23 35 24 36 28 37 25 39 27 40 26 41 37 42 38 43 39 44
REMARK SMILES IDX 40 45 41 46 42 47 43 48 44 49 45 50 91 51 46 52 90 53 47 54
REMARK SMILES IDX 48 55 49 56 84 57 50 58 89 59 83 60 85 61 51 62 88 63 82 64
REMARK SMILES IDX 81 65 52 67 74 68 59 69 73 70 60 71 63 72 72 73 86 74 61 75
REMARK SMILES IDX 62 76 71 78 87 79 64 80 53 81 54 82 58 83 55 84 57 85 56 86
REMARK SMILES IDX 75 87 76 88 80 89 77 90 79 91 78 92 65 93 66 94 70 95 67 96
REMARK SMILES IDX 69 97 68 98
REMARK H PARENT 18 12 23 38 85 66 63 77
REMARK Flexibility Score: inf
ROOT
ATOM      1  C   UNL A   1      42.674  24.319  35.612  1.00  0.00     0.188 C 
ENDROOT
BRANCH   1   2
ATOM      2  O   UNL A   1      42.701  23.547  34.443  1.00  0.00    -0.376 OA
BRANCH   2   3
ATOM      3  C   UNL A   1      43.747  22.625  34.290  1.00  0.00     0.202 C 
BRANCH   3   4
ATOM      4  C   UNL A   1      44.804  22.399  35.370  1.00  0.00     0.261 C 
BRANCH   4   5
ATOM      5  O   UNL A   1      46.190  22.298  34.971  1.00  0.00    -0.462 OA
BRANCH   5   6
ATOM      6  C   UNL A   1      47.033  21.977  35.989  1.00  0.00     0.329 C 
ATOM      7  O   UNL A   1      47.789  22.815  36.478  1.00  0.00    -0.250 OA
BRANCH   6   8
ATOM      8  C   UNL A   1      47.038  20.498  36.480  1.00  0.00     0.196 C 
BRANCH   8   9
ATOM      9  N   UNL A   1      46.526  19.403  35.609  1.00  0.00    -0.342 N 
ATOM     10  C   UNL A   1      45.620  18.381  35.801  1.00  0.00     0.220 C 
ATOM     11  O   UNL A   1      45.341  17.614  34.879  1.00  0.00    -0.275 OA
ATOM     12  H   UNL A   1      46.917  19.410  34.705  1.00  0.00     0.164 HD
BRANCH  10  13
ATOM     13  C   UNL A   1      44.943  18.154  37.140  1.00  0.00     0.101 C 
BRANCH  13  14
ATOM     14  C   UNL A   1      45.765  18.136  38.420  1.00  0.00     0.026 C 
BRANCH  14  15
ATOM     15  C   UNL A   1      45.253  17.022  39.289  1.00  0.00     0.107 C 
ATOM     16  C   UNL A   1      45.170  13.647  45.478  1.00  0.00     0.048 C 
ATOM     17  C   UNL A   1      43.919  13.985  43.802  1.00  0.00    -0.005 A 
ATOM     18  C   UNL A   1      42.888  13.134  43.115  1.00  0.00     0.199 A 
ATOM     19  C   UNL A   1      43.518  15.280  42.858  1.00  0.00     0.024 A 
ATOM     20  O   UNL A   1      42.165  13.650  42.122  1.00  0.00    -0.464 OA
ATOM     21  C   UNL A   1      42.558  14.900  41.922  1.00  0.00     0.137 A 
ATOM     22  C   UNL A   1      43.919  16.638  42.739  1.00  0.00     0.020 A 
ATOM     23  C   UNL A   1      42.077  15.666  40.864  1.00  0.00     0.095 A 
ATOM     24  C   UNL A   1      43.924  17.102  41.430  1.00  0.00    -0.001 A 
ATOM     25  C   UNL A   1      42.888  16.749  40.580  1.00  0.00     0.138 A 
ATOM     26  C   UNL A   1      45.260  17.412  40.782  1.00  0.00     0.034 C 
ATOM     27  O   UNL A   1      42.878  17.258  39.305  1.00  0.00    -0.426 OA
ATOM     28  C   UNL A   1      46.336  16.493  41.334  1.00  0.00     0.014 C 
ATOM     29  C   UNL A   1      43.903  16.511  38.824  1.00  0.00     0.314 C 
ATOM     30  O   UNL A   1      43.729  15.515  38.136  1.00  0.00    -0.251 OA
ENDBRANCH  14  15
ENDBRANCH  13  14
ENDBRANCH  10  13
ENDBRANCH   8   9
BRANCH   8  31
ATOM     31  C   UNL A   1      48.447  20.264  37.063  1.00  0.00     0.074 C 
BRANCH  31  32
ATOM     32  C   UNL A   1      48.563  20.247  38.536  1.00  0.00    -0.020 A 
ATOM     33  C   UNL A   1      47.757  20.917  39.424  1.00  0.00     0.087 A 
ATOM     34  C   UNL A   1      49.579  19.592  39.298  1.00  0.00     0.003 A 
ATOM     35  N   UNL A   1      48.107  20.512  40.679  1.00  0.00    -0.361 N 
ATOM     36  C   UNL A   1      49.143  19.610  40.617  1.00  0.00     0.046 A 
ATOM     37  C   UNL A   1      50.777  18.911  38.990  1.00  0.00     0.010 A 
ATOM     38  H   UNL A   1      47.679  20.822  41.510  1.00  0.00     0.166 HD
ATOM     39  C   UNL A   1      49.730  18.816  41.605  1.00  0.00     0.026 A 
ATOM     40  C   UNL A   1      51.381  18.116  39.967  1.00  0.00     0.001 A 
ATOM     41  C   UNL A   1      50.828  18.031  41.241  1.00  0.00     0.002 A 
ENDBRANCH  31  32
ENDBRANCH   8  31
ENDBRANCH   6   8
ENDBRANCH   5   6
ENDBRANCH   4   5
ENDBRANCH   3   4
ENDBRANCH   2   3
ENDBRANCH   1   2
BRANCH   1  42
ATOM     42  C   UNL A   1      41.579  25.406  35.717  1.00  0.00     0.188 C 
BRANCH  42  43
ATOM     43  O   UNL A   1      41.740  26.394  36.704  1.00  0.00    -0.376 OA
BRANCH  43  44
ATOM     44  C   UNL A   1      42.884  26.153  37.518  1.00  0.00     0.202 C 
BRANCH  44  45
ATOM     45  C   UNL A   1      43.915  27.327  37.730  1.00  0.00     0.261 C 
BRANCH  45  46
ATOM     46  O   UNL A   1      44.838  27.633  36.602  1.00  0.00    -0.460 OA
BRANCH  46  47
ATOM     47  C   UNL A   1      46.074  27.019  36.512  1.00  0.00     0.338 C 
ATOM     48  O   UNL A   1      46.561  26.381  37.437  1.00  0.00    -0.246 OA
BRANCH  47  49
ATOM     49  C   UNL A   1      46.569  26.812  35.038  1.00  0.00     0.060 A 
ATOM     50  C   UNL A   1      47.203  27.700  34.146  1.00  0.00     0.016 A 
ATOM     51  C   UNL A   1      46.097  25.670  34.419  1.00  0.00     0.016 A 
ATOM     52  C   UNL A   1      47.034  27.612  32.676  1.00  0.00     0.010 A 
ATOM     53  C   UNL A   1      46.023  25.576  32.999  1.00  0.00     0.010 A 
ATOM     54  C   UNL A   1      46.277  26.603  32.056  1.00  0.00    -0.014 A 
BRANCH  54  55
ATOM     55  C   UNL A   1      46.019  26.233  30.521  1.00  0.00     0.031 A 
ATOM     56  C   UNL A   1      47.166  26.794  29.776  1.00  0.00     0.074 A 
ATOM     57  C   UNL A   1      45.111  25.619  29.645  1.00  0.00     0.049 A 
ATOM     58  N   UNL A   1      47.128  27.989  29.288  1.00  0.00    -0.248 NA
ATOM     59  C   UNL A   1      48.496  26.184  29.797  1.00  0.00     0.031 C 
ATOM     60  C   UNL A   1      43.722  25.227  29.812  1.00  0.00     0.029 A 
ATOM     61  N   UNL A   1      45.269  25.164  28.285  1.00  0.00    -0.354 N 
ATOM     62  C   UNL A   1      48.386  28.212  28.777  1.00  0.00     0.074 A 
ATOM     63  C   UNL A   1      49.232  27.212  29.371  1.00  0.00     0.031 C 
ATOM     64  C   UNL A   1      43.257  24.423  28.815  1.00  0.00     0.029 A 
ATOM     65  C   UNL A   1      44.297  24.146  27.825  1.00  0.00     0.049 A 
ATOM     66  H   UNL A   1      45.980  25.508  27.698  1.00  0.00     0.167 HD
ATOM     67  C   UNL A   1      48.561  29.011  27.694  1.00  0.00     0.031 A 
ATOM     68  C   UNL A   1      43.921  23.657  26.560  1.00  0.00     0.031 A 
ATOM     69  C   UNL A   1      47.321  29.657  27.324  1.00  0.00     0.049 A 
ATOM     70  C   UNL A   1      44.129  24.889  25.735  1.00  0.00     0.074 A 
ATOM     71  C   UNL A   1      46.527  30.637  27.878  1.00  0.00     0.029 A 
ATOM     72  N   UNL A   1      46.535  28.947  26.442  1.00  0.00    -0.354 N 
ATOM     73  N   UNL A   1      43.415  25.978  25.893  1.00  0.00    -0.248 NA
ATOM     74  C   UNL A   1      45.402  25.096  25.060  1.00  0.00     0.031 C 
ATOM     75  C   UNL A   1      45.190  30.298  27.522  1.00  0.00     0.029 A 
ATOM     76  C   UNL A   1      45.205  29.164  26.707  1.00  0.00     0.049 A 
ATOM     77  H   UNL A   1      46.878  28.366  25.724  1.00  0.00     0.167 HD
ATOM     78  C   UNL A   1      44.306  27.033  25.727  1.00  0.00     0.074 A 
ATOM     79  C   UNL A   1      45.476  26.430  25.095  1.00  0.00     0.031 C 
ATOM     80  C   UNL A   1      44.140  28.230  26.368  1.00  0.00     0.031 A 
BRANCH  67  81
ATOM     81  C   UNL A   1      49.715  28.891  26.739  1.00  0.00    -0.014 A 
ATOM     82  C   UNL A   1      49.801  27.935  25.710  1.00  0.00     0.009 A 
ATOM     83  C   UNL A   1      50.680  29.910  26.732  1.00  0.00     0.009 A 
ATOM     84  C   UNL A   1      50.791  27.982  24.729  1.00  0.00     0.001 A 
ATOM     85  C   UNL A   1      51.653  29.984  25.728  1.00  0.00     0.001 A 
ATOM     86  C   UNL A   1      51.707  29.020  24.727  1.00  0.00     0.000 A 
ENDBRANCH  67  81
BRANCH  68  87
ATOM     87  C   UNL A   1      44.125  22.160  25.890  1.00  0.00    -0.014 A 
ATOM     88  C   UNL A   1      42.807  20.922  26.028  1.00  0.00     0.009 A 
ATOM     89  C   UNL A   1      45.737  21.550  25.260  1.00  0.00     0.009 A 
ATOM     90  C   UNL A   1      42.996  19.179  25.432  1.00  0.00     0.001 A 
ATOM     91  C   UNL A   1      45.996  19.792  24.751  1.00  0.00     0.001 A 
ATOM     92  C   UNL A   1      44.587  18.623  24.770  1.00  0.00     0.000 A 
ENDBRANCH  68  87
BRANCH  80  93
ATOM     93  C   UNL A   1      42.802  28.526  27.009  1.00  0.00    -0.014 A 
ATOM     94  C   UNL A   1      42.594  28.245  28.363  1.00  0.00     0.009 A 
ATOM     95  C   UNL A   1      41.677  28.839  26.235  1.00  0.00     0.009 A 
ATOM     96  C   UNL A   1      41.305  28.294  28.916  1.00  0.00     0.001 A 
ATOM     97  C   UNL A   1      40.394  28.931  26.784  1.00  0.00     0.001 A 
ATOM     98  C   UNL A   1      40.208  28.650  28.131  1.00  0.00     0.000 A 
ENDBRANCH  80  93
ENDBRANCH  54  55
ENDBRANCH  47  49
ENDBRANCH  46  47
ENDBRANCH  45  46
ENDBRANCH  44  45
ENDBRANCH  43  44
ENDBRANCH  42  43
ENDBRANCH   1  42
TORSDOF 23
ENDMDL
MODEL 3
REMARK VINA RESULT:      -6.9      7.908     14.574
REMARK SMILES Cc1coc2cc3c(cc12)[C@@H](C)[C@H](CCC(=O)N[C@@H](Cc1c[nH]c2ccccc12)C(=O)OCCOCCOCCOC(=O)c1ccc(-c2c4nc(c(-c5ccccc5)c5ccc([nH]5)c(-c5ccccc5)c5nc(c(-c6ccccc6)c6ccc2[nH]6)C=C5)C=C4)cc1)C(=O)O3
REMARK SMILES IDX 36 1 35 2 34 3 33 4 32 5 30 6 31 7 19 8 18 9 16 10 17 11
REMARK SMILES IDX 15 13 14 14 13 15 1 16 2 17 3 18 10 19 4 20 5 21 9 22 6 23
REMARK SMILES IDX 8 24 7 25 11 26 94 27 12 28 92 29 93 30 20 31 21 32 22 33
REMARK SMILES IDX 29 34 23 35 24 36 28 37 25 39 27 40 26 41 37 42 38 43 39 44
REMARK SMILES IDX 40 45 41 46 42 47 43 48 44 49 45 50 91 51 46 52 90 53 47 54
REMARK SMILES IDX 48 55 49 56 84 57 50 58 89 59 83 60 85 61 51 62 88 63 82 64
REMARK SMILES IDX 81 65 52 67 74 68 59 69 73 70 60 71 63 72 72 73 86 74 61 75
REMARK SMILES IDX 62 76 71 78 87 79 64 80 53 81 54 82 58 83 55 84 57 85 56 86
REMARK SMILES IDX 75 87 76 88 80 89 77 90 79 91 78 92 65 93 66 94 70 95 67 96
REMARK SMILES IDX 69 97 68 98
REMARK H PARENT 18 12 23 38 85 66 63 77
REMARK Flexibility Score: inf
ROOT
ATOM      1  C   UNL A   1      51.164  24.405  38.786  1.00  0.00     0.188 C 
ENDROOT
BRANCH   1   2
ATOM      2  O   UNL A   1      50.513  23.542  39.676  1.00  0.00    -0.376 OA
BRANCH   2   3
ATOM      3  C   UNL A   1      49.183  23.832  40.016  1.00  0.00     0.202 C 
BRANCH   3   4
ATOM      4  C   UNL A   1      48.034  23.689  39.019  1.00  0.00     0.261 C 
BRANCH   4   5
ATOM      5  O   UNL A   1      46.740  23.271  39.510  1.00  0.00    -0.462 OA
BRANCH   5   6
ATOM      6  C   UNL A   1      46.625  21.927  39.680  1.00  0.00     0.329 C 
ATOM      7  O   UNL A   1      45.925  21.455  40.575  1.00  0.00    -0.250 OA
BRANCH   6   8
ATOM      8  C   UNL A   1      47.449  21.008  38.729  1.00  0.00     0.196 C 
BRANCH   8   9
ATOM      9  N   UNL A   1      48.539  20.142  39.259  1.00  0.00    -0.342 N 
ATOM     10  C   UNL A   1      48.572  18.859  39.767  1.00  0.00     0.220 C 
ATOM     11  O   UNL A   1      49.640  18.352  40.110  1.00  0.00    -0.275 OA
ATOM     12  H   UNL A   1      49.423  20.576  39.245  1.00  0.00     0.164 HD
BRANCH  10  13
ATOM     13  C   UNL A   1      47.311  18.033  39.932  1.00  0.00     0.101 C 
BRANCH  13  14
ATOM     14  C   UNL A   1      46.567  18.025  41.259  1.00  0.00     0.026 C 
BRANCH  14  15
ATOM     15  C   UNL A   1      45.766  16.756  41.340  1.00  0.00     0.107 C 
ATOM     16  C   UNL A   1      43.262  11.342  45.096  1.00  0.00     0.048 C 
ATOM     17  C   UNL A   1      42.782  12.475  43.372  1.00  0.00    -0.005 A 
ATOM     18  C   UNL A   1      42.123  12.114  42.069  1.00  0.00     0.199 A 
ATOM     19  C   UNL A   1      42.773  14.075  42.964  1.00  0.00     0.024 A 
ATOM     20  O   UNL A   1      41.851  13.071  41.183  1.00  0.00    -0.464 OA
ATOM     21  C   UNL A   1      42.273  14.228  41.672  1.00  0.00     0.137 A 
ATOM     22  C   UNL A   1      43.168  15.300  43.567  1.00  0.00     0.020 A 
ATOM     23  C   UNL A   1      42.245  15.402  40.923  1.00  0.00     0.095 A 
ATOM     24  C   UNL A   1      43.691  16.218  42.666  1.00  0.00    -0.001 A 
ATOM     25  C   UNL A   1      43.086  16.375  41.428  1.00  0.00     0.138 A 
ATOM     26  C   UNL A   1      45.169  16.545  42.747  1.00  0.00     0.034 C 
ATOM     27  O   UNL A   1      43.580  17.325  40.569  1.00  0.00    -0.426 OA
ATOM     28  C   UNL A   1      45.948  15.334  43.232  1.00  0.00     0.014 C 
ATOM     29  C   UNL A   1      44.723  16.670  40.243  1.00  0.00     0.314 C 
ATOM     30  O   UNL A   1      44.853  16.048  39.199  1.00  0.00    -0.251 OA
ENDBRANCH  14  15
ENDBRANCH  13  14
ENDBRANCH  10  13
ENDBRANCH   8   9
BRANCH   8  31
ATOM     31  C   UNL A   1      46.406  20.283  37.854  1.00  0.00     0.074 C 
BRANCH  31  32
ATOM     32  C   UNL A   1      46.314  20.705  36.441  1.00  0.00    -0.020 A 
ATOM     33  C   UNL A   1      46.908  20.090  35.366  1.00  0.00     0.087 A 
ATOM     34  C   UNL A   1      45.652  21.872  35.947  1.00  0.00     0.003 A 
ATOM     35  N   UNL A   1      46.448  20.704  34.237  1.00  0.00    -0.361 N 
ATOM     36  C   UNL A   1      45.584  21.722  34.568  1.00  0.00     0.046 A 
ATOM     37  C   UNL A   1      45.029  22.993  36.538  1.00  0.00     0.010 A 
ATOM     38  H   UNL A   1      46.697  20.453  33.319  1.00  0.00     0.166 HD
ATOM     39  C   UNL A   1      44.759  22.520  33.773  1.00  0.00     0.026 A 
ATOM     40  C   UNL A   1      44.203  23.805  35.758  1.00  0.00     0.001 A 
ATOM     41  C   UNL A   1      44.031  23.534  34.404  1.00  0.00     0.002 A 
ENDBRANCH  31  32
ENDBRANCH   8  31
ENDBRANCH   6   8
ENDBRANCH   5   6
ENDBRANCH   4   5
ENDBRANCH   3   4
ENDBRANCH   2   3
ENDBRANCH   1   2
BRANCH   1  42
ATOM     42  C   UNL A   1      51.551  23.834  37.402  1.00  0.00     0.188 C 
BRANCH  42  43
ATOM     43  O   UNL A   1      50.635  22.968  36.779  1.00  0.00    -0.376 OA
BRANCH  43  44
ATOM     44  C   UNL A   1      51.230  22.246  35.705  1.00  0.00     0.202 C 
BRANCH  44  45
ATOM     45  C   UNL A   1      50.293  21.674  34.574  1.00  0.00     0.261 C 
BRANCH  45  46
ATOM     46  O   UNL A   1      50.259  22.414  33.281  1.00  0.00    -0.460 OA
BRANCH  46  47
ATOM     47  C   UNL A   1      50.629  23.744  33.219  1.00  0.00     0.338 C 
ATOM     48  O   UNL A   1      51.755  24.101  32.895  1.00  0.00    -0.246 OA
BRANCH  47  49
ATOM     49  C   UNL A   1      49.413  24.733  33.136  1.00  0.00     0.060 A 
ATOM     50  C   UNL A   1      48.230  24.804  33.898  1.00  0.00     0.016 A 
ATOM     51  C   UNL A   1      49.363  25.500  31.987  1.00  0.00     0.016 A 
ATOM     52  C   UNL A   1      46.953  25.312  33.344  1.00  0.00     0.010 A 
ATOM     53  C   UNL A   1      48.134  26.051  31.520  1.00  0.00     0.010 A 
ATOM     54  C   UNL A   1      46.837  25.816  32.037  1.00  0.00    -0.014 A 
BRANCH  54  55
ATOM     55  C   UNL A   1      45.625  26.497  31.245  1.00  0.00     0.031 A 
ATOM     56  C   UNL A   1      45.120  25.462  30.318  1.00  0.00     0.074 A 
ATOM     57  C   UNL A   1      44.909  27.693  31.089  1.00  0.00     0.049 A 
ATOM     58  N   UNL A   1      45.583  25.354  29.118  1.00  0.00    -0.248 NA
ATOM     59  C   UNL A   1      44.313  24.326  30.766  1.00  0.00     0.031 C 
ATOM     60  C   UNL A   1      45.205  29.056  31.496  1.00  0.00     0.029 A 
ATOM     61  N   UNL A   1      43.629  27.958  30.478  1.00  0.00    -0.354 N 
ATOM     62  C   UNL A   1      44.982  24.232  28.596  1.00  0.00     0.074 A 
ATOM     63  C   UNL A   1      44.464  23.506  29.725  1.00  0.00     0.031 C 
ATOM     64  C   UNL A   1      44.142  29.902  31.391  1.00  0.00     0.029 A 
ATOM     65  C   UNL A   1      42.953  29.206  30.900  1.00  0.00     0.049 A 
ATOM     66  H   UNL A   1      43.229  27.346  29.819  1.00  0.00     0.167 HD
ATOM     67  C   UNL A   1      44.709  24.146  27.269  1.00  0.00     0.031 A 
ATOM     68  C   UNL A   1      41.886  29.961  30.382  1.00  0.00     0.031 A 
ATOM     69  C   UNL A   1      45.273  25.270  26.554  1.00  0.00     0.049 A 
ATOM     70  C   UNL A   1      42.064  29.691  28.920  1.00  0.00     0.074 A 
ATOM     71  C   UNL A   1      46.547  25.684  26.233  1.00  0.00     0.029 A 
ATOM     72  N   UNL A   1      44.452  26.374  26.462  1.00  0.00    -0.354 N 
ATOM     73  N   UNL A   1      43.113  30.098  28.246  1.00  0.00    -0.248 NA
ATOM     74  C   UNL A   1      41.336  28.596  28.297  1.00  0.00     0.031 C 
ATOM     75  C   UNL A   1      46.504  27.108  26.240  1.00  0.00     0.029 A 
ATOM     76  C   UNL A   1      45.196  27.526  26.496  1.00  0.00     0.049 A 
ATOM     77  H   UNL A   1      43.470  26.339  26.384  1.00  0.00     0.167 HD
ATOM     78  C   UNL A   1      43.410  29.065  27.364  1.00  0.00     0.074 A 
ATOM     79  C   UNL A   1      42.212  28.231  27.357  1.00  0.00     0.031 C 
ATOM     80  C   UNL A   1      44.689  28.816  26.943  1.00  0.00     0.031 A 
BRANCH  67  81
ATOM     81  C   UNL A   1      43.612  23.299  26.690  1.00  0.00    -0.014 A 
ATOM     82  C   UNL A   1      43.786  21.984  26.218  1.00  0.00     0.009 A 
ATOM     83  C   UNL A   1      42.290  23.757  26.801  1.00  0.00     0.009 A 
ATOM     84  C   UNL A   1      42.709  21.168  25.872  1.00  0.00     0.001 A 
ATOM     85  C   UNL A   1      41.204  22.930  26.491  1.00  0.00     0.001 A 
ATOM     86  C   UNL A   1      41.415  21.635  26.027  1.00  0.00     0.000 A 
ENDBRANCH  67  81
BRANCH  68  87
ATOM     87  C   UNL A   1      40.379  30.245  31.001  1.00  0.00    -0.014 A 
ATOM     88  C   UNL A   1      40.122  31.616  32.159  1.00  0.00     0.009 A 
ATOM     89  C   UNL A   1      38.981  29.070  30.824  1.00  0.00     0.009 A 
ATOM     90  C   UNL A   1      38.506  31.928  33.009  1.00  0.00     0.001 A 
ATOM     91  C   UNL A   1      37.387  29.289  31.734  1.00  0.00     0.001 A 
ATOM     92  C   UNL A   1      37.131  30.775  32.774  1.00  0.00     0.000 A 
ENDBRANCH  68  87
BRANCH  80  93
ATOM     93  C   UNL A   1      45.745  29.873  27.179  1.00  0.00    -0.014 A 
ATOM     94  C   UNL A   1      46.524  29.840  28.341  1.00  0.00     0.009 A 
ATOM     95  C   UNL A   1      45.802  31.033  26.397  1.00  0.00     0.009 A 
ATOM     96  C   UNL A   1      47.339  30.927  28.688  1.00  0.00     0.001 A 
ATOM     97  C   UNL A   1      46.642  32.106  26.711  1.00  0.00     0.001 A 
ATOM     98  C   UNL A   1      47.410  32.054  27.867  1.00  0.00     0.000 A 
ENDBRANCH  80  93
ENDBRANCH  54  55
ENDBRANCH  47  49
ENDBRANCH  46  47
ENDBRANCH  45  46
ENDBRANCH  44  45
ENDBRANCH  43  44
ENDBRANCH  42  43
ENDBRANCH   1  42
TORSDOF 23
ENDMDL
