MODEL 1
REMARK VINA RESULT:     -11.2      0.000      0.000
REMARK SMILES CC1(C)Oc2ccc(NC(=O)[C@H]3CC=CC[C@@H]3C(=O)OCCOCCOCCOC(=O)c3ccc(-c4c5nc(c(-c6ccccc6)c6ccc([nH]6)c(-c6ccccc6)c6nc(c(-c7ccccc7)c7ccc4[nH]7)C=C6)C=C5)cc3)cc2NC1=O
REMARK SMILES IDX 24 1 23 2 22 3 21 4 20 5 18 6 19 7 17 8 12 9 13 10 14 11
REMARK SMILES IDX 16 12 15 13 10 14 9 15 11 17 8 18 1 19 2 20 3 21 4 22 83 23
REMARK SMILES IDX 5 24 82 25 84 26 6 27 81 28 7 30 80 31 25 32 26 33 27 34
REMARK SMILES IDX 28 35 29 36 30 37 31 38 32 39 33 40 79 41 34 42 78 43 35 44
REMARK SMILES IDX 36 45 37 46 72 47 38 48 77 49 71 50 73 51 39 52 76 53 70 54
REMARK SMILES IDX 69 55 40 57 62 58 47 59 61 60 48 61 51 62 60 63 74 64 49 65
REMARK SMILES IDX 50 66 59 68 75 69 52 70 41 71 42 72 46 73 43 74 45 75 44 76
REMARK SMILES IDX 63 77 64 78 68 79 65 80 67 81 66 82 53 83 54 84 58 85 55 86
REMARK SMILES IDX 57 87 56 88
REMARK H PARENT 9 16 82 29 73 56 51 67
REMARK Flexibility Score: inf
ROOT
ATOM      1  C   UNL A   1      36.870  23.246  23.729  1.00  0.00     0.188 C 
ENDROOT
BRANCH   1   2
ATOM      2  O   UNL A   1      35.874  22.957  22.762  1.00  0.00    -0.376 OA
BRANCH   2   3
ATOM      3  C   UNL A   1      34.529  23.137  23.196  1.00  0.00     0.202 C 
BRANCH   3   4
ATOM      4  C   UNL A   1      33.512  23.296  22.059  1.00  0.00     0.261 C 
BRANCH   4   5
ATOM      5  O   UNL A   1      32.485  24.278  22.296  1.00  0.00    -0.463 OA
BRANCH   5   6
ATOM      6  C   UNL A   1      32.877  25.459  22.843  1.00  0.00     0.310 C 
ATOM      7  O   UNL A   1      33.452  26.345  22.228  1.00  0.00    -0.252 OA
BRANCH   6   8
ATOM      8  C   UNL A   1      32.427  25.544  24.297  1.00  0.00     0.116 C 
ATOM      9  C   UNL A   1      30.993  24.971  24.446  1.00  0.00     0.097 C 
ATOM     10  C   UNL A   1      29.929  25.940  23.893  1.00  0.00     0.041 C 
ATOM     11  C   UNL A   1      30.274  27.397  23.973  1.00  0.00    -0.030 C 
ATOM     12  C   UNL A   1      32.586  26.977  24.801  1.00  0.00     0.043 C 
ATOM     13  C   UNL A   1      31.453  27.865  24.399  1.00  0.00    -0.030 C 
BRANCH   9  14
ATOM     14  C   UNL A   1      30.699  24.569  25.890  1.00  0.00     0.228 C 
ATOM     15  N   UNL A   1      31.128  23.403  26.455  1.00  0.00    -0.326 N 
ATOM     16  H   UNL A   1      30.740  23.264  27.350  1.00  0.00     0.169 HD
ATOM     17  O   UNL A   1      30.046  25.312  26.632  1.00  0.00    -0.274 OA
BRANCH  15  18
ATOM     18  C   UNL A   1      31.986  22.349  26.086  1.00  0.00     0.043 A 
ATOM     19  C   UNL A   1      34.440  16.992  23.625  1.00  0.00     0.067 C 
ATOM     20  C   UNL A   1      33.461  17.994  24.236  1.00  0.00     0.182 C 
ATOM     21  C   UNL A   1      32.573  17.237  25.241  1.00  0.00     0.067 C 
ATOM     22  O   UNL A   1      34.220  19.001  24.931  1.00  0.00    -0.476 OA
ATOM     23  C   UNL A   1      32.576  18.572  23.109  1.00  0.00     0.268 C 
ATOM     24  C   UNL A   1      33.484  20.113  25.250  1.00  0.00     0.144 A 
ATOM     25  N   UNL A   1      31.958  19.757  23.428  1.00  0.00    -0.319 N 
ATOM     26  O   UNL A   1      32.341  18.009  22.044  1.00  0.00    -0.270 OA
ATOM     27  C   UNL A   1      33.920  20.902  26.304  1.00  0.00     0.051 A 
ATOM     28  C   UNL A   1      32.338  20.486  24.556  1.00  0.00     0.086 A 
ATOM     29  H   UNL A   1      31.237  20.098  22.851  1.00  0.00     0.170 HD
ATOM     30  C   UNL A   1      33.156  21.987  26.748  1.00  0.00     0.030 A 
ATOM     31  C   UNL A   1      31.597  21.597  24.963  1.00  0.00     0.056 A 
ENDBRANCH  15  18
ENDBRANCH   9  14
ENDBRANCH   6   8
ENDBRANCH   5   6
ENDBRANCH   4   5
ENDBRANCH   3   4
ENDBRANCH   2   3
ENDBRANCH   1   2
BRANCH   1  32
ATOM     32  C   UNL A   1      37.001  22.217  24.873  1.00  0.00     0.188 C 
BRANCH  32  33
ATOM     33  O   UNL A   1      37.055  20.826  24.603  1.00  0.00    -0.376 OA
BRANCH  33  34
ATOM     34  C   UNL A   1      38.210  20.086  24.967  1.00  0.00     0.202 C 
BRANCH  34  35
ATOM     35  C   UNL A   1      39.298  20.767  25.808  1.00  0.00     0.261 C 
BRANCH  35  36
ATOM     36  O   UNL A   1      40.216  19.873  26.454  1.00  0.00    -0.460 OA
BRANCH  36  37
ATOM     37  C   UNL A   1      41.516  19.979  26.062  1.00  0.00     0.338 C 
ATOM     38  O   UNL A   1      42.122  19.260  25.302  1.00  0.00    -0.246 OA
BRANCH  37  39
ATOM     39  C   UNL A   1      42.060  21.253  26.585  1.00  0.00     0.060 A 
ATOM     40  C   UNL A   1      42.415  22.284  25.715  1.00  0.00     0.016 A 
ATOM     41  C   UNL A   1      42.199  21.411  27.971  1.00  0.00     0.016 A 
ATOM     42  C   UNL A   1      42.885  23.489  26.237  1.00  0.00     0.010 A 
ATOM     43  C   UNL A   1      42.691  22.611  28.493  1.00  0.00     0.010 A 
ATOM     44  C   UNL A   1      43.014  23.665  27.626  1.00  0.00    -0.014 A 
BRANCH  44  45
ATOM     45  C   UNL A   1      43.326  25.013  28.160  1.00  0.00     0.031 A 
ATOM     46  C   UNL A   1      44.733  25.518  28.239  1.00  0.00     0.074 A 
ATOM     47  C   UNL A   1      42.289  25.791  28.521  1.00  0.00     0.049 A 
ATOM     48  N   UNL A   1      45.176  26.702  28.582  1.00  0.00    -0.248 NA
ATOM     49  C   UNL A   1      45.786  24.563  27.880  1.00  0.00     0.031 C 
ATOM     50  C   UNL A   1      40.880  25.406  28.396  1.00  0.00     0.029 A 
ATOM     51  N   UNL A   1      42.247  27.078  28.989  1.00  0.00    -0.354 N 
ATOM     52  C   UNL A   1      46.565  26.605  28.584  1.00  0.00     0.074 A 
ATOM     53  C   UNL A   1      46.882  25.276  28.109  1.00  0.00     0.031 C 
ATOM     54  C   UNL A   1      40.114  26.472  28.666  1.00  0.00     0.029 A 
ATOM     55  C   UNL A   1      40.971  27.590  29.041  1.00  0.00     0.049 A 
ATOM     56  H   UNL A   1      43.047  27.583  29.261  1.00  0.00     0.167 HD
ATOM     57  C   UNL A   1      47.469  27.522  29.015  1.00  0.00     0.031 A 
ATOM     58  C   UNL A   1      40.550  28.839  29.317  1.00  0.00     0.031 A 
ATOM     59  C   UNL A   1      47.098  28.853  29.446  1.00  0.00     0.049 A 
ATOM     60  C   UNL A   1      41.569  29.878  29.684  1.00  0.00     0.074 A 
ATOM     61  C   UNL A   1      47.923  29.879  29.877  1.00  0.00     0.029 A 
ATOM     62  N   UNL A   1      45.795  29.328  29.538  1.00  0.00    -0.354 N 
ATOM     63  N   UNL A   1      42.877  29.778  29.706  1.00  0.00    -0.248 NA
ATOM     64  C   UNL A   1      41.055  31.198  30.070  1.00  0.00     0.031 C 
ATOM     65  C   UNL A   1      47.117  30.915  30.354  1.00  0.00     0.029 A 
ATOM     66  C   UNL A   1      45.793  30.601  30.086  1.00  0.00     0.049 A 
ATOM     67  H   UNL A   1      44.992  28.833  29.256  1.00  0.00     0.167 HD
ATOM     68  C   UNL A   1      43.346  31.025  30.097  1.00  0.00     0.074 A 
ATOM     69  C   UNL A   1      42.182  31.871  30.275  1.00  0.00     0.031 C 
ATOM     70  C   UNL A   1      44.626  31.428  30.292  1.00  0.00     0.031 A 
BRANCH  57  71
ATOM     71  C   UNL A   1      48.911  27.086  29.212  1.00  0.00    -0.014 A 
ATOM     72  C   UNL A   1      49.282  26.512  30.445  1.00  0.00     0.009 A 
ATOM     73  C   UNL A   1      49.916  27.250  28.249  1.00  0.00     0.009 A 
ATOM     74  C   UNL A   1      50.589  26.101  30.707  1.00  0.00     0.001 A 
ATOM     75  C   UNL A   1      51.222  26.802  28.495  1.00  0.00     0.001 A 
ATOM     76  C   UNL A   1      51.559  26.233  29.723  1.00  0.00     0.000 A 
ENDBRANCH  57  71
BRANCH  58  77
ATOM     77  C   UNL A   1      39.113  29.184  29.150  1.00  0.00    -0.014 A 
ATOM     78  C   UNL A   1      38.196  29.050  30.204  1.00  0.00     0.009 A 
ATOM     79  C   UNL A   1      38.639  29.582  27.890  1.00  0.00     0.009 A 
ATOM     80  C   UNL A   1      36.834  29.278  29.993  1.00  0.00     0.001 A 
ATOM     81  C   UNL A   1      37.281  29.839  27.689  1.00  0.00     0.001 A 
ATOM     82  C   UNL A   1      36.377  29.674  28.737  1.00  0.00     0.000 A 
ENDBRANCH  58  77
BRANCH  70  83
ATOM     83  C   UNL A   1      44.858  32.853  30.726  1.00  0.00    -0.014 A 
ATOM     84  C   UNL A   1      44.729  33.188  32.085  1.00  0.00     0.009 A 
ATOM     85  C   UNL A   1      45.103  33.878  29.799  1.00  0.00     0.009 A 
ATOM     86  C   UNL A   1      44.826  34.515  32.504  1.00  0.00     0.001 A 
ATOM     87  C   UNL A   1      45.241  35.201  30.227  1.00  0.00     0.001 A 
ATOM     88  C   UNL A   1      45.091  35.520  31.576  1.00  0.00     0.000 A 
ENDBRANCH  70  83
ENDBRANCH  44  45
ENDBRANCH  37  39
ENDBRANCH  36  37
ENDBRANCH  35  36
ENDBRANCH  34  35
ENDBRANCH  33  34
ENDBRANCH  32  33
ENDBRANCH   1  32
TORSDOF 19
ENDMDL
MODEL 2
REMARK VINA RESULT:     -11.1      0.504      5.657
REMARK SMILES CC1(C)Oc2ccc(NC(=O)[C@H]3CC=CC[C@@H]3C(=O)OCCOCCOCCOC(=O)c3ccc(-c4c5nc(c(-c6ccccc6)c6ccc([nH]6)c(-c6ccccc6)c6nc(c(-c7ccccc7)c7ccc4[nH]7)C=C6)C=C5)cc3)cc2NC1=O
REMARK SMILES IDX 24 1 23 2 22 3 21 4 20 5 18 6 19 7 17 8 12 9 13 10 14 11
REMARK SMILES IDX 16 12 15 13 10 14 9 15 11 17 8 18 1 19 2 20 3 21 4 22 83 23
REMARK SMILES IDX 5 24 82 25 84 26 6 27 81 28 7 30 80 31 25 32 26 33 27 34
REMARK SMILES IDX 28 35 29 36 30 37 31 38 32 39 33 40 79 41 34 42 78 43 35 44
REMARK SMILES IDX 36 45 37 46 72 47 38 48 77 49 71 50 73 51 39 52 76 53 70 54
REMARK SMILES IDX 69 55 40 57 62 58 47 59 61 60 48 61 51 62 60 63 74 64 49 65
REMARK SMILES IDX 50 66 59 68 75 69 52 70 41 71 42 72 46 73 43 74 45 75 44 76
REMARK SMILES IDX 63 77 64 78 68 79 65 80 67 81 66 82 53 83 54 84 58 85 55 86
REMARK SMILES IDX 57 87 56 88
REMARK H PARENT 9 16 82 29 73 56 51 67
REMARK Flexibility Score: inf
ROOT
ATOM      1  C   UNL A   1      36.970  23.200  23.722  1.00  0.00     0.188 C 
ENDROOT
BRANCH   1   2
ATOM      2  O   UNL A   1      35.935  22.938  22.790  1.00  0.00    -0.376 OA
BRANCH   2   3
ATOM      3  C   UNL A   1      34.629  23.334  23.198  1.00  0.00     0.202 C 
BRANCH   3   4
ATOM      4  C   UNL A   1      33.575  23.292  22.083  1.00  0.00     0.261 C 
BRANCH   4   5
ATOM      5  O   UNL A   1      32.600  24.350  22.129  1.00  0.00    -0.463 OA
BRANCH   5   6
ATOM      6  C   UNL A   1      33.005  25.540  22.646  1.00  0.00     0.310 C 
ATOM      7  O   UNL A   1      33.594  26.401  22.009  1.00  0.00    -0.252 OA
BRANCH   6   8
ATOM      8  C   UNL A   1      32.554  25.669  24.095  1.00  0.00     0.116 C 
ATOM      9  C   UNL A   1      31.132  25.073  24.266  1.00  0.00     0.097 C 
ATOM     10  C   UNL A   1      30.049  26.000  23.679  1.00  0.00     0.041 C 
ATOM     11  C   UNL A   1      30.365  27.466  23.705  1.00  0.00    -0.030 C 
ATOM     12  C   UNL A   1      32.684  27.123  24.547  1.00  0.00     0.043 C 
ATOM     13  C   UNL A   1      31.534  27.973  24.113  1.00  0.00    -0.030 C 
BRANCH   9  14
ATOM     14  C   UNL A   1      30.845  24.719  25.725  1.00  0.00     0.228 C 
ATOM     15  N   UNL A   1      31.255  23.561  26.318  1.00  0.00    -0.326 N 
ATOM     16  H   UNL A   1      30.874  23.455  27.220  1.00  0.00     0.169 HD
ATOM     17  O   UNL A   1      30.217  25.497  26.452  1.00  0.00    -0.274 OA
BRANCH  15  18
ATOM     18  C   UNL A   1      32.086  22.478  25.969  1.00  0.00     0.043 A 
ATOM     19  C   UNL A   1      34.391  16.992  23.651  1.00  0.00     0.067 C 
ATOM     20  C   UNL A   1      33.442  18.034  24.245  1.00  0.00     0.182 C 
ATOM     21  C   UNL A   1      32.560  17.329  25.292  1.00  0.00     0.067 C 
ATOM     22  O   UNL A   1      34.234  19.049  24.890  1.00  0.00    -0.476 OA
ATOM     23  C   UNL A   1      32.547  18.590  23.116  1.00  0.00     0.268 C 
ATOM     24  C   UNL A   1      33.526  20.185  25.184  1.00  0.00     0.144 A 
ATOM     25  N   UNL A   1      31.958  19.797  23.404  1.00  0.00    -0.319 N 
ATOM     26  O   UNL A   1      32.282  17.995  22.074  1.00  0.00    -0.270 OA
ATOM     27  C   UNL A   1      33.996  21.001  26.201  1.00  0.00     0.051 A 
ATOM     28  C   UNL A   1      32.373  20.556  24.499  1.00  0.00     0.086 A 
ATOM     29  H   UNL A   1      31.233  20.132  22.829  1.00  0.00     0.170 HD
ATOM     30  C   UNL A   1      33.262  22.116  26.622  1.00  0.00     0.030 A 
ATOM     31  C   UNL A   1      31.661  21.695  24.881  1.00  0.00     0.056 A 
ENDBRANCH  15  18
ENDBRANCH   9  14
ENDBRANCH   6   8
ENDBRANCH   5   6
ENDBRANCH   4   5
ENDBRANCH   3   4
ENDBRANCH   2   3
ENDBRANCH   1   2
BRANCH   1  32
ATOM     32  C   UNL A   1      37.064  22.209  24.902  1.00  0.00     0.188 C 
BRANCH  32  33
ATOM     33  O   UNL A   1      37.037  20.808  24.685  1.00  0.00    -0.376 OA
BRANCH  33  34
ATOM     34  C   UNL A   1      38.204  20.037  24.933  1.00  0.00     0.202 C 
BRANCH  34  35
ATOM     35  C   UNL A   1      39.364  20.672  25.711  1.00  0.00     0.261 C 
BRANCH  35  36
ATOM     36  O   UNL A   1      40.266  19.739  26.326  1.00  0.00    -0.460 OA
BRANCH  36  37
ATOM     37  C   UNL A   1      41.578  19.881  25.994  1.00  0.00     0.338 C 
ATOM     38  O   UNL A   1      42.237  19.180  25.262  1.00  0.00    -0.246 OA
BRANCH  37  39
ATOM     39  C   UNL A   1      42.064  21.168  26.542  1.00  0.00     0.060 A 
ATOM     40  C   UNL A   1      42.475  22.192  25.689  1.00  0.00     0.016 A 
ATOM     41  C   UNL A   1      42.089  21.346  27.933  1.00  0.00     0.016 A 
ATOM     42  C   UNL A   1      42.888  23.411  26.231  1.00  0.00     0.010 A 
ATOM     43  C   UNL A   1      42.524  22.557  28.475  1.00  0.00     0.010 A 
ATOM     44  C   UNL A   1      42.903  23.605  27.623  1.00  0.00    -0.014 A 
BRANCH  44  45
ATOM     45  C   UNL A   1      43.155  24.963  28.163  1.00  0.00     0.031 A 
ATOM     46  C   UNL A   1      42.032  25.875  28.549  1.00  0.00     0.074 A 
ATOM     47  C   UNL A   1      44.438  25.327  28.345  1.00  0.00     0.049 A 
ATOM     48  N   UNL A   1      42.073  27.049  29.128  1.00  0.00    -0.248 NA
ATOM     49  C   UNL A   1      40.678  25.400  28.247  1.00  0.00     0.031 C 
ATOM     50  C   UNL A   1      45.591  24.466  28.074  1.00  0.00     0.029 A 
ATOM     51  N   UNL A   1      44.985  26.470  28.866  1.00  0.00    -0.354 N 
ATOM     52  C   UNL A   1      40.757  27.503  29.164  1.00  0.00     0.074 A 
ATOM     53  C   UNL A   1      39.940  26.431  28.641  1.00  0.00     0.031 C 
ATOM     54  C   UNL A   1      46.698  25.064  28.537  1.00  0.00     0.029 A 
ATOM     55  C   UNL A   1      46.341  26.369  29.079  1.00  0.00     0.049 A 
ATOM     56  H   UNL A   1      44.463  27.280  29.066  1.00  0.00     0.167 HD
ATOM     57  C   UNL A   1      40.303  28.729  29.533  1.00  0.00     0.031 A 
ATOM     58  C   UNL A   1      47.188  27.221  29.686  1.00  0.00     0.031 A 
ATOM     59  C   UNL A   1      41.161  29.754  30.086  1.00  0.00     0.049 A 
ATOM     60  C   UNL A   1      46.654  28.529  30.193  1.00  0.00     0.074 A 
ATOM     61  C   UNL A   1      40.815  31.023  30.522  1.00  0.00     0.029 A 
ATOM     62  N   UNL A   1      42.538  29.644  30.242  1.00  0.00    -0.354 N 
ATOM     63  N   UNL A   1      45.417  28.964  30.206  1.00  0.00    -0.248 NA
ATOM     64  C   UNL A   1      47.632  29.465  30.761  1.00  0.00     0.031 C 
ATOM     65  C   UNL A   1      41.991  31.720  30.810  1.00  0.00     0.029 A 
ATOM     66  C   UNL A   1      43.060  30.844  30.697  1.00  0.00     0.049 A 
ATOM     67  H   UNL A   1      43.064  28.833  30.056  1.00  0.00     0.167 HD
ATOM     68  C   UNL A   1      45.463  30.221  30.794  1.00  0.00     0.074 A 
ATOM     69  C   UNL A   1      46.847  30.465  31.148  1.00  0.00     0.031 C 
ATOM     70  C   UNL A   1      44.447  31.092  31.017  1.00  0.00     0.031 A 
BRANCH  57  71
ATOM     71  C   UNL A   1      38.868  29.104  29.201  1.00  0.00    -0.014 A 
ATOM     72  C   UNL A   1      38.580  29.601  27.914  1.00  0.00     0.009 A 
ATOM     73  C   UNL A   1      37.807  29.019  30.112  1.00  0.00     0.009 A 
ATOM     74  C   UNL A   1      37.291  29.982  27.538  1.00  0.00     0.001 A 
ATOM     75  C   UNL A   1      36.504  29.363  29.725  1.00  0.00     0.001 A 
ATOM     76  C   UNL A   1      36.247  29.847  28.443  1.00  0.00     0.000 A 
ENDBRANCH  57  71
BRANCH  58  77
ATOM     77  C   UNL A   1      48.595  26.806  29.936  1.00  0.00    -0.014 A 
ATOM     78  C   UNL A   1      49.602  27.008  28.979  1.00  0.00     0.009 A 
ATOM     79  C   UNL A   1      48.916  26.130  31.122  1.00  0.00     0.009 A 
ATOM     80  C   UNL A   1      50.891  26.513  29.193  1.00  0.00     0.001 A 
ATOM     81  C   UNL A   1      50.214  25.664  31.347  1.00  0.00     0.001 A 
ATOM     82  C   UNL A   1      51.197  25.844  30.376  1.00  0.00     0.000 A 
ENDBRANCH  58  77
BRANCH  70  83
ATOM     83  C   UNL A   1      44.780  32.407  31.676  1.00  0.00    -0.014 A 
ATOM     84  C   UNL A   1      45.242  33.475  30.888  1.00  0.00     0.009 A 
ATOM     85  C   UNL A   1      44.734  32.569  33.070  1.00  0.00     0.009 A 
ATOM     86  C   UNL A   1      45.664  34.667  31.478  1.00  0.00     0.001 A 
ATOM     87  C   UNL A   1      45.118  33.778  33.655  1.00  0.00     0.001 A 
ATOM     88  C   UNL A   1      45.593  34.820  32.861  1.00  0.00     0.000 A 
ENDBRANCH  70  83
ENDBRANCH  44  45
ENDBRANCH  37  39
ENDBRANCH  36  37
ENDBRANCH  35  36
ENDBRANCH  34  35
ENDBRANCH  33  34
ENDBRANCH  32  33
ENDBRANCH   1  32
TORSDOF 19
ENDMDL
MODEL 3
REMARK VINA RESULT:     -11.1      4.371      9.607
REMARK SMILES CC1(C)Oc2ccc(NC(=O)[C@H]3CC=CC[C@@H]3C(=O)OCCOCCOCCOC(=O)c3ccc(-c4c5nc(c(-c6ccccc6)c6ccc([nH]6)c(-c6ccccc6)c6nc(c(-c7ccccc7)c7ccc4[nH]7)C=C6)C=C5)cc3)cc2NC1=O
REMARK SMILES IDX 24 1 23 2 22 3 21 4 20 5 18 6 19 7 17 8 12 9 13 10 14 11
REMARK SMILES IDX 16 12 15 13 10 14 9 15 11 17 8 18 1 19 2 20 3 21 4 22 83 23
REMARK SMILES IDX 5 24 82 25 84 26 6 27 81 28 7 30 80 31 25 32 26 33 27 34
REMARK SMILES IDX 28 35 29 36 30 37 31 38 32 39 33 40 79 41 34 42 78 43 35 44
REMARK SMILES IDX 36 45 37 46 72 47 38 48 77 49 71 50 73 51 39 52 76 53 70 54
REMARK SMILES IDX 69 55 40 57 62 58 47 59 61 60 48 61 51 62 60 63 74 64 49 65
REMARK SMILES IDX 50 66 59 68 75 69 52 70 41 71 42 72 46 73 43 74 45 75 44 76
REMARK SMILES IDX 63 77 64 78 68 79 65 80 67 81 66 82 53 83 54 84 58 85 55 86
REMARK SMILES IDX 57 87 56 88
REMARK H PARENT 9 16 82 29 73 56 51 67
REMARK Flexibility Score: inf
ROOT
ATOM      1  C   UNL A   1      33.589  28.484  26.864  1.00  0.00     0.188 C 
ENDROOT
BRANCH   1   2
ATOM      2  O   UNL A   1      32.493  27.965  27.597  1.00  0.00    -0.376 OA
BRANCH   2   3
ATOM      3  C   UNL A   1      31.448  27.394  26.815  1.00  0.00     0.202 C 
BRANCH   3   4
ATOM      4  C   UNL A   1      31.839  26.109  26.074  1.00  0.00     0.261 C 
BRANCH   4   5
ATOM      5  O   UNL A   1      31.200  24.912  26.556  1.00  0.00    -0.463 OA
BRANCH   5   6
ATOM      6  C   UNL A   1      31.410  23.772  25.846  1.00  0.00     0.310 C 
ATOM      7  O   UNL A   1      30.734  22.760  25.955  1.00  0.00    -0.252 OA
BRANCH   6   8
ATOM      8  C   UNL A   1      32.548  23.970  24.852  1.00  0.00     0.116 C 
ATOM      9  C   UNL A   1      32.032  23.767  23.403  1.00  0.00     0.097 C 
ATOM     10  C   UNL A   1      31.798  22.278  23.083  1.00  0.00     0.041 C 
ATOM     11  C   UNL A   1      32.680  21.310  23.814  1.00  0.00    -0.030 C 
ATOM     12  C   UNL A   1      33.724  23.072  25.232  1.00  0.00     0.043 C 
ATOM     13  C   UNL A   1      33.558  21.664  24.760  1.00  0.00    -0.030 C 
BRANCH   9  14
ATOM     14  C   UNL A   1      32.957  24.429  22.383  1.00  0.00     0.228 C 
ATOM     15  N   UNL A   1      32.889  25.748  22.042  1.00  0.00    -0.326 N 
ATOM     16  H   UNL A   1      33.480  25.963  21.283  1.00  0.00     0.169 HD
ATOM     17  O   UNL A   1      33.838  23.776  21.813  1.00  0.00    -0.274 OA
BRANCH  15  18
ATOM     18  C   UNL A   1      32.190  26.882  22.499  1.00  0.00     0.043 A 
ATOM     19  C   UNL A   1      27.720  31.284  23.693  1.00  0.00     0.067 C 
ATOM     20  C   UNL A   1      28.542  30.201  22.995  1.00  0.00     0.182 C 
ATOM     21  C   UNL A   1      28.635  30.565  21.501  1.00  0.00     0.067 C 
ATOM     22  O   UNL A   1      29.863  30.195  23.569  1.00  0.00    -0.476 OA
ATOM     23  C   UNL A   1      27.810  28.849  23.145  1.00  0.00     0.268 C 
ATOM     24  C   UNL A   1      30.588  29.076  23.253  1.00  0.00     0.144 A 
ATOM     25  N   UNL A   1      28.607  27.749  22.946  1.00  0.00    -0.319 N 
ATOM     26  O   UNL A   1      26.602  28.723  23.332  1.00  0.00    -0.270 OA
ATOM     27  C   UNL A   1      31.971  29.158  23.309  1.00  0.00     0.051 A 
ATOM     28  C   UNL A   1      29.997  27.868  22.897  1.00  0.00     0.086 A 
ATOM     29  H   UNL A   1      28.192  26.863  22.837  1.00  0.00     0.170 HD
ATOM     30  C   UNL A   1      32.769  28.086  22.894  1.00  0.00     0.030 A 
ATOM     31  C   UNL A   1      30.788  26.777  22.529  1.00  0.00     0.056 A 
ENDBRANCH  15  18
ENDBRANCH   9  14
ENDBRANCH   6   8
ENDBRANCH   5   6
ENDBRANCH   4   5
ENDBRANCH   3   4
ENDBRANCH   2   3
ENDBRANCH   1   2
BRANCH   1  32
ATOM     32  C   UNL A   1      33.510  29.991  26.534  1.00  0.00     0.188 C 
BRANCH  32  33
ATOM     33  O   UNL A   1      32.875  30.901  27.416  1.00  0.00    -0.376 OA
BRANCH  33  34
ATOM     34  C   UNL A   1      31.772  31.668  26.957  1.00  0.00     0.202 C 
BRANCH  34  35
ATOM     35  C   UNL A   1      31.883  33.198  26.943  1.00  0.00     0.261 C 
BRANCH  35  36
ATOM     36  O   UNL A   1      33.178  33.717  27.282  1.00  0.00    -0.460 OA
BRANCH  36  37
ATOM     37  C   UNL A   1      33.262  34.357  28.480  1.00  0.00     0.338 C 
ATOM     38  O   UNL A   1      32.464  35.122  28.969  1.00  0.00    -0.246 OA
BRANCH  37  39
ATOM     39  C   UNL A   1      34.437  33.830  29.211  1.00  0.00     0.060 A 
ATOM     40  C   UNL A   1      34.277  32.888  30.228  1.00  0.00     0.016 A 
ATOM     41  C   UNL A   1      35.715  34.284  28.855  1.00  0.00     0.016 A 
ATOM     42  C   UNL A   1      35.405  32.377  30.871  1.00  0.00     0.010 A 
ATOM     43  C   UNL A   1      36.843  33.789  29.516  1.00  0.00     0.010 A 
ATOM     44  C   UNL A   1      36.693  32.813  30.512  1.00  0.00    -0.014 A 
BRANCH  44  45
ATOM     45  C   UNL A   1      37.876  32.115  31.070  1.00  0.00     0.031 A 
ATOM     46  C   UNL A   1      38.281  32.282  32.502  1.00  0.00     0.074 A 
ATOM     47  C   UNL A   1      38.542  31.278  30.253  1.00  0.00     0.049 A 
ATOM     48  N   UNL A   1      39.223  31.672  33.178  1.00  0.00    -0.248 NA
ATOM     49  C   UNL A   1      37.523  33.266  33.280  1.00  0.00     0.031 C 
ATOM     50  C   UNL A   1      38.162  30.994  28.867  1.00  0.00     0.029 A 
ATOM     51  N   UNL A   1      39.620  30.464  30.482  1.00  0.00    -0.354 N 
ATOM     52  C   UNL A   1      39.241  32.274  34.434  1.00  0.00     0.074 A 
ATOM     53  C   UNL A   1      38.150  33.222  34.449  1.00  0.00     0.031 C 
ATOM     54  C   UNL A   1      38.919  29.987  28.408  1.00  0.00     0.029 A 
ATOM     55  C   UNL A   1      39.873  29.601  29.441  1.00  0.00     0.049 A 
ATOM     56  H   UNL A   1      40.158  30.494  31.306  1.00  0.00     0.167 HD
ATOM     57  C   UNL A   1      40.138  32.092  35.437  1.00  0.00     0.031 A 
ATOM     58  C   UNL A   1      40.749  28.582  29.353  1.00  0.00     0.031 A 
ATOM     59  C   UNL A   1      41.192  31.101  35.383  1.00  0.00     0.049 A 
ATOM     60  C   UNL A   1      41.662  28.316  30.514  1.00  0.00     0.074 A 
ATOM     61  C   UNL A   1      42.143  30.802  36.345  1.00  0.00     0.029 A 
ATOM     62  N   UNL A   1      41.457  30.276  34.296  1.00  0.00    -0.354 N 
ATOM     63  N   UNL A   1      41.693  28.899  31.689  1.00  0.00    -0.248 NA
ATOM     64  C   UNL A   1      42.665  27.259  30.336  1.00  0.00     0.031 C 
ATOM     65  C   UNL A   1      43.056  29.903  35.791  1.00  0.00     0.029 A 
ATOM     66  C   UNL A   1      42.597  29.526  34.538  1.00  0.00     0.049 A 
ATOM     67  H   UNL A   1      40.916  30.232  33.475  1.00  0.00     0.167 HD
ATOM     68  C   UNL A   1      42.710  28.273  32.397  1.00  0.00     0.074 A 
ATOM     69  C   UNL A   1      43.251  27.247  31.527  1.00  0.00     0.031 C 
ATOM     70  C   UNL A   1      43.152  28.528  33.653  1.00  0.00     0.031 A 
BRANCH  57  71
ATOM     71  C   UNL A   1      40.145  33.075  36.595  1.00  0.00    -0.014 A 
ATOM     72  C   UNL A   1      39.364  32.787  37.732  1.00  0.00     0.009 A 
ATOM     73  C   UNL A   1      40.860  34.280  36.594  1.00  0.00     0.009 A 
ATOM     74  C   UNL A   1      39.305  33.646  38.829  1.00  0.00     0.001 A 
ATOM     75  C   UNL A   1      40.835  35.128  37.711  1.00  0.00     0.001 A 
ATOM     76  C   UNL A   1      40.056  34.814  38.824  1.00  0.00     0.000 A 
ENDBRANCH  57  71
BRANCH  58  77
ATOM     77  C   UNL A   1      40.719  27.687  28.166  1.00  0.00    -0.014 A 
ATOM     78  C   UNL A   1      39.994  26.486  28.168  1.00  0.00     0.009 A 
ATOM     79  C   UNL A   1      41.491  28.007  27.038  1.00  0.00     0.009 A 
ATOM     80  C   UNL A   1      40.068  25.611  27.081  1.00  0.00     0.001 A 
ATOM     81  C   UNL A   1      41.539  27.146  25.940  1.00  0.00     0.001 A 
ATOM     82  C   UNL A   1      40.838  25.942  25.967  1.00  0.00     0.000 A 
ENDBRANCH  58  77
BRANCH  70  83
ATOM     83  C   UNL A   1      44.289  27.691  34.183  1.00  0.00    -0.014 A 
ATOM     84  C   UNL A   1      44.002  26.528  34.919  1.00  0.00     0.009 A 
ATOM     85  C   UNL A   1      45.628  28.090  34.048  1.00  0.00     0.009 A 
ATOM     86  C   UNL A   1      45.026  25.792  35.517  1.00  0.00     0.001 A 
ATOM     87  C   UNL A   1      46.654  27.329  34.614  1.00  0.00     0.001 A 
ATOM     88  C   UNL A   1      46.352  26.189  35.357  1.00  0.00     0.000 A 
ENDBRANCH  70  83
ENDBRANCH  44  45
ENDBRANCH  37  39
ENDBRANCH  36  37
ENDBRANCH  35  36
ENDBRANCH  34  35
ENDBRANCH  33  34
ENDBRANCH  32  33
ENDBRANCH   1  32
TORSDOF 19
ENDMDL
