MODEL 1
REMARK VINA RESULT:      -9.8      0.000      0.000
REMARK SMILES CC[C@](C)([NH3+])C(=O)Nc1ccc(C(F)(F)F)cc1C(=O)OCCOCCOCCOC(=O)c1ccc(-c2c3nc(c(-c4ccccc4)c4ccc([nH]4)c(-c4ccccc4)c4nc(c(-c5ccccc5)c5ccc2[nH]5)C=C4)C=C3)cc1
REMARK SMILES IDX 25 1 24 2 23 3 22 4 21 5 19 6 20 7 18 8 9 9 10 10 11 11
REMARK SMILES IDX 17 12 12 13 8 14 6 15 7 16 3 18 4 19 2 20 1 21 5 22 13 26
REMARK SMILES IDX 14 27 15 28 16 29 26 30 27 31 28 32 29 33 30 34 31 35 32 36
REMARK SMILES IDX 33 37 34 38 80 39 35 40 79 41 36 42 37 43 38 44 73 45 39 46
REMARK SMILES IDX 78 47 72 48 74 49 40 50 77 51 71 52 70 53 41 55 63 56 48 57
REMARK SMILES IDX 62 58 49 59 52 60 61 61 75 62 50 63 51 64 60 66 76 67 53 68
REMARK SMILES IDX 42 69 43 70 47 71 44 72 46 73 45 74 64 75 65 76 69 77 66 78
REMARK SMILES IDX 68 79 67 80 54 81 55 82 59 83 56 84 58 85 57 86
REMARK H PARENT 8 17 5 23 5 24 5 25 74 54 52 65
REMARK Flexibility Score: inf
ROOT
ATOM      1  C   UNL A   1      34.368  31.585  27.802  1.00  0.00     0.188 C 
ENDROOT
BRANCH   1   2
ATOM      2  O   UNL A   1      33.488  30.494  28.002  1.00  0.00    -0.376 OA
BRANCH   2   3
ATOM      3  C   UNL A   1      33.622  29.442  27.063  1.00  0.00     0.202 C 
BRANCH   3   4
ATOM      4  C   UNL A   1      33.201  29.777  25.638  1.00  0.00     0.261 C 
BRANCH   4   5
ATOM      5  O   UNL A   1      33.590  28.864  24.586  1.00  0.00    -0.460 OA
BRANCH   5   6
ATOM      6  C   UNL A   1      32.914  28.720  23.428  1.00  0.00     0.340 C 
ATOM      7  O   UNL A   1      33.338  28.967  22.312  1.00  0.00    -0.246 OA
BRANCH   6   8
ATOM      8  C   UNL A   1      31.535  28.205  23.698  1.00  0.00     0.084 A 
ATOM      9  C   UNL A   1      31.266  26.966  24.304  1.00  0.00     0.056 A 
ATOM     10  C   UNL A   1      29.957  26.454  24.255  1.00  0.00     0.027 A 
ATOM     11  C   UNL A   1      28.902  27.213  23.747  1.00  0.00     0.015 A 
ATOM     12  C   UNL A   1      30.460  28.973  23.199  1.00  0.00     0.031 A 
ATOM     13  C   UNL A   1      29.136  28.495  23.240  1.00  0.00     0.057 A 
BRANCH   9  14
ATOM     14  N   UNL A   1      32.203  26.101  24.885  1.00  0.00    -0.320 N 
ATOM     15  C   UNL A   1      32.695  24.870  24.571  1.00  0.00     0.285 C 
ATOM     16  O   UNL A   1      33.173  24.253  25.536  1.00  0.00    -0.267 OA
ATOM     17  H   UNL A   1      32.596  26.467  25.710  1.00  0.00     0.170 HD
BRANCH  15  18
ATOM     18  C   UNL A   1      32.912  24.333  23.109  1.00  0.00     0.171 C 
ATOM     19  C   UNL A   1      34.021  23.267  23.194  1.00  0.00     0.090 C 
BRANCH  18  20
ATOM     20  C   UNL A   1      33.286  25.511  22.190  1.00  0.00     0.075 C 
ATOM     21  C   UNL A   1      32.307  25.734  21.037  1.00  0.00     0.011 C 
ENDBRANCH  18  20
BRANCH  18  22
ATOM     22  N   UNL A   1      31.793  23.663  22.450  1.00  0.00    -0.345 N 
ATOM     23  H   UNL A   1      31.555  22.815  22.964  1.00  0.00     0.345 HD
ATOM     24  H   UNL A   1      32.057  23.420  21.496  1.00  0.00     0.345 HD
ATOM     25  H   UNL A   1      30.987  24.287  22.431  1.00  0.00     0.345 HD
ENDBRANCH  18  22
ENDBRANCH  15  18
ENDBRANCH   9  14
BRANCH  13  26
ATOM     26  C   UNL A   1      27.966  29.325  22.764  1.00  0.00     0.416 C 
ATOM     27  F   UNL A   1      28.084  29.691  21.457  1.00  0.00    -0.166 F 
ATOM     28  F   UNL A   1      26.787  28.651  22.859  1.00  0.00    -0.166 F 
ATOM     29  F   UNL A   1      27.800  30.479  23.464  1.00  0.00    -0.166 F 
ENDBRANCH  13  26
ENDBRANCH   6   8
ENDBRANCH   5   6
ENDBRANCH   4   5
ENDBRANCH   3   4
ENDBRANCH   2   3
ENDBRANCH   1   2
BRANCH   1  30
ATOM     30  C   UNL A   1      33.715  32.978  27.965  1.00  0.00     0.188 C 
BRANCH  30  31
ATOM     31  O   UNL A   1      34.060  33.820  29.051  1.00  0.00    -0.376 OA
BRANCH  31  32
ATOM     32  C   UNL A   1      33.985  35.227  28.882  1.00  0.00     0.202 C 
BRANCH  32  33
ATOM     33  C   UNL A   1      32.922  36.044  29.646  1.00  0.00     0.261 C 
BRANCH  33  34
ATOM     34  O   UNL A   1      33.264  36.444  30.988  1.00  0.00    -0.460 OA
BRANCH  34  35
ATOM     35  C   UNL A   1      32.827  35.638  31.988  1.00  0.00     0.338 C 
ATOM     36  O   UNL A   1      31.669  35.345  32.240  1.00  0.00    -0.246 OA
BRANCH  35  37
ATOM     37  C   UNL A   1      33.981  34.929  32.604  1.00  0.00     0.060 A 
ATOM     38  C   UNL A   1      35.231  35.574  32.599  1.00  0.00     0.016 A 
ATOM     39  C   UNL A   1      33.851  33.671  33.198  1.00  0.00     0.016 A 
ATOM     40  C   UNL A   1      36.355  34.957  33.145  1.00  0.00     0.010 A 
ATOM     41  C   UNL A   1      34.990  33.029  33.705  1.00  0.00     0.010 A 
ATOM     42  C   UNL A   1      36.254  33.650  33.633  1.00  0.00    -0.014 A 
BRANCH  42  43
ATOM     43  C   UNL A   1      37.496  32.841  33.733  1.00  0.00     0.031 A 
ATOM     44  C   UNL A   1      38.337  33.023  34.973  1.00  0.00     0.074 A 
ATOM     45  C   UNL A   1      37.849  31.926  32.813  1.00  0.00     0.049 A 
ATOM     46  N   UNL A   1      39.462  32.449  35.312  1.00  0.00    -0.248 NA
ATOM     47  C   UNL A   1      37.829  33.987  35.966  1.00  0.00     0.031 C 
ATOM     48  C   UNL A   1      37.097  31.593  31.606  1.00  0.00     0.029 A 
ATOM     49  N   UNL A   1      38.948  31.102  32.765  1.00  0.00    -0.354 N 
ATOM     50  C   UNL A   1      39.799  32.991  36.547  1.00  0.00     0.074 A 
ATOM     51  C   UNL A   1      38.781  33.959  36.883  1.00  0.00     0.031 C 
ATOM     52  C   UNL A   1      37.763  30.639  30.929  1.00  0.00     0.029 A 
ATOM     53  C   UNL A   1      39.000  30.315  31.640  1.00  0.00     0.049 A 
ATOM     54  H   UNL A   1      39.633  31.077  33.471  1.00  0.00     0.167 HD
ATOM     55  C   UNL A   1      40.857  32.707  37.341  1.00  0.00     0.031 A 
ATOM     56  C   UNL A   1      39.946  29.447  31.229  1.00  0.00     0.031 A 
ATOM     57  C   UNL A   1      41.884  31.760  37.008  1.00  0.00     0.049 A 
ATOM     58  C   UNL A   1      41.165  29.212  32.088  1.00  0.00     0.074 A 
ATOM     59  C   UNL A   1      43.000  31.404  37.744  1.00  0.00     0.029 A 
ATOM     60  N   UNL A   1      41.923  31.022  35.836  1.00  0.00    -0.354 N 
ATOM     61  N   UNL A   1      41.468  29.721  33.258  1.00  0.00    -0.248 NA
ATOM     62  C   UNL A   1      42.166  28.266  31.570  1.00  0.00     0.031 C 
ATOM     63  C   UNL A   1      43.747  30.493  36.991  1.00  0.00     0.029 A 
ATOM     64  C   UNL A   1      43.057  30.228  35.818  1.00  0.00     0.049 A 
ATOM     65  H   UNL A   1      41.246  31.057  35.123  1.00  0.00     0.167 HD
ATOM     66  C   UNL A   1      42.670  29.128  33.632  1.00  0.00     0.074 A 
ATOM     67  C   UNL A   1      43.033  28.214  32.571  1.00  0.00     0.031 C 
ATOM     68  C   UNL A   1      43.405  29.318  34.757  1.00  0.00     0.031 A 
BRANCH  55  69
ATOM     69  C   UNL A   1      40.974  33.474  38.628  1.00  0.00    -0.014 A 
ATOM     70  C   UNL A   1      41.749  34.642  38.719  1.00  0.00     0.009 A 
ATOM     71  C   UNL A   1      40.291  33.023  39.769  1.00  0.00     0.009 A 
ATOM     72  C   UNL A   1      41.867  35.320  39.934  1.00  0.00     0.001 A 
ATOM     73  C   UNL A   1      40.384  33.720  40.973  1.00  0.00     0.001 A 
ATOM     74  C   UNL A   1      41.180  34.861  41.058  1.00  0.00     0.000 A 
ENDBRANCH  55  69
BRANCH  56  75
ATOM     75  C   UNL A   1      39.803  28.739  29.928  1.00  0.00    -0.014 A 
ATOM     76  C   UNL A   1      39.316  27.423  29.874  1.00  0.00     0.009 A 
ATOM     77  C   UNL A   1      40.199  29.360  28.733  1.00  0.00     0.009 A 
ATOM     78  C   UNL A   1      39.258  26.737  28.657  1.00  0.00     0.001 A 
ATOM     79  C   UNL A   1      40.111  28.684  27.514  1.00  0.00     0.001 A 
ATOM     80  C   UNL A   1      39.651  27.369  27.479  1.00  0.00     0.000 A 
ENDBRANCH  56  75
BRANCH  68  81
ATOM     81  C   UNL A   1      44.644  28.481  34.927  1.00  0.00    -0.014 A 
ATOM     82  C   UNL A   1      45.901  28.923  34.486  1.00  0.00     0.009 A 
ATOM     83  C   UNL A   1      44.550  27.237  35.573  1.00  0.00     0.009 A 
ATOM     84  C   UNL A   1      47.030  28.115  34.648  1.00  0.00     0.001 A 
ATOM     85  C   UNL A   1      45.685  26.448  35.765  1.00  0.00     0.001 A 
ATOM     86  C   UNL A   1      46.922  26.882  35.290  1.00  0.00     0.000 A 
ENDBRANCH  68  81
ENDBRANCH  42  43
ENDBRANCH  35  37
ENDBRANCH  34  35
ENDBRANCH  33  34
ENDBRANCH  32  33
ENDBRANCH  31  32
ENDBRANCH  30  31
ENDBRANCH   1  30
TORSDOF 22
ENDMDL
MODEL 2
REMARK VINA RESULT:      -9.7      5.470     10.387
REMARK SMILES CC[C@](C)([NH3+])C(=O)Nc1ccc(C(F)(F)F)cc1C(=O)OCCOCCOCCOC(=O)c1ccc(-c2c3nc(c(-c4ccccc4)c4ccc([nH]4)c(-c4ccccc4)c4nc(c(-c5ccccc5)c5ccc2[nH]5)C=C4)C=C3)cc1
REMARK SMILES IDX 25 1 24 2 23 3 22 4 21 5 19 6 20 7 18 8 9 9 10 10 11 11
REMARK SMILES IDX 17 12 12 13 8 14 6 15 7 16 3 18 4 19 2 20 1 21 5 22 13 26
REMARK SMILES IDX 14 27 15 28 16 29 26 30 27 31 28 32 29 33 30 34 31 35 32 36
REMARK SMILES IDX 33 37 34 38 80 39 35 40 79 41 36 42 37 43 38 44 73 45 39 46
REMARK SMILES IDX 78 47 72 48 74 49 40 50 77 51 71 52 70 53 41 55 63 56 48 57
REMARK SMILES IDX 62 58 49 59 52 60 61 61 75 62 50 63 51 64 60 66 76 67 53 68
REMARK SMILES IDX 42 69 43 70 47 71 44 72 46 73 45 74 64 75 65 76 69 77 66 78
REMARK SMILES IDX 68 79 67 80 54 81 55 82 59 83 56 84 58 85 57 86
REMARK H PARENT 8 17 5 23 5 24 5 25 74 54 52 65
REMARK Flexibility Score: inf
ROOT
ATOM      1  C   UNL A   1      40.487  21.521  26.144  1.00  0.00     0.188 C 
ENDROOT
BRANCH   1   2
ATOM      2  O   UNL A   1      39.297  22.077  26.674  1.00  0.00    -0.376 OA
BRANCH   2   3
ATOM      3  C   UNL A   1      38.210  22.131  25.767  1.00  0.00     0.202 C 
BRANCH   3   4
ATOM      4  C   UNL A   1      37.742  23.530  25.388  1.00  0.00     0.261 C 
BRANCH   4   5
ATOM      5  O   UNL A   1      36.318  23.781  25.357  1.00  0.00    -0.460 OA
BRANCH   5   6
ATOM      6  C   UNL A   1      35.593  23.859  24.222  1.00  0.00     0.340 C 
ATOM      7  O   UNL A   1      35.919  23.425  23.131  1.00  0.00    -0.246 OA
BRANCH   6   8
ATOM      8  C   UNL A   1      34.302  24.568  24.484  1.00  0.00     0.084 A 
ATOM      9  C   UNL A   1      33.448  24.270  25.560  1.00  0.00     0.056 A 
ATOM     10  C   UNL A   1      32.142  24.790  25.556  1.00  0.00     0.027 A 
ATOM     11  C   UNL A   1      31.729  25.703  24.585  1.00  0.00     0.015 A 
ATOM     12  C   UNL A   1      33.883  25.504  23.514  1.00  0.00     0.031 A 
ATOM     13  C   UNL A   1      32.605  26.095  23.569  1.00  0.00     0.057 A 
BRANCH   9  14
ATOM     14  N   UNL A   1      33.722  23.403  26.626  1.00  0.00    -0.320 N 
ATOM     15  C   UNL A   1      33.399  22.112  26.919  1.00  0.00     0.285 C 
ATOM     16  O   UNL A   1      33.452  21.836  28.128  1.00  0.00    -0.267 OA
ATOM     17  H   UNL A   1      34.275  23.823  27.324  1.00  0.00     0.170 HD
BRANCH  15  18
ATOM     18  C   UNL A   1      33.228  20.964  25.858  1.00  0.00     0.171 C 
ATOM     19  C   UNL A   1      34.593  20.804  25.161  1.00  0.00     0.090 C 
BRANCH  18  20
ATOM     20  C   UNL A   1      32.101  21.344  24.880  1.00  0.00     0.075 C 
ATOM     21  C   UNL A   1      32.438  21.082  23.412  1.00  0.00     0.011 C 
ENDBRANCH  18  20
BRANCH  18  22
ATOM     22  N   UNL A   1      32.892  19.626  26.342  1.00  0.00    -0.345 N 
ATOM     23  H   UNL A   1      31.895  19.584  26.556  1.00  0.00     0.345 HD
ATOM     24  H   UNL A   1      33.430  19.424  27.184  1.00  0.00     0.345 HD
ATOM     25  H   UNL A   1      33.114  18.939  25.623  1.00  0.00     0.345 HD
ENDBRANCH  18  22
ENDBRANCH  15  18
ENDBRANCH   9  14
BRANCH  13  26
ATOM     26  C   UNL A   1      32.160  27.142  22.573  1.00  0.00     0.416 C 
ATOM     27  F   UNL A   1      31.887  28.339  23.162  1.00  0.00    -0.166 F 
ATOM     28  F   UNL A   1      33.114  27.394  21.635  1.00  0.00    -0.166 F 
ATOM     29  F   UNL A   1      31.037  26.795  21.889  1.00  0.00    -0.166 F 
ENDBRANCH  13  26
ENDBRANCH   6   8
ENDBRANCH   5   6
ENDBRANCH   4   5
ENDBRANCH   3   4
ENDBRANCH   2   3
ENDBRANCH   1   2
BRANCH   1  30
ATOM     30  C   UNL A   1      40.786  20.076  26.610  1.00  0.00     0.188 C 
BRANCH  30  31
ATOM     31  O   UNL A   1      41.369  19.133  25.727  1.00  0.00    -0.376 OA
BRANCH  31  32
ATOM     32  C   UNL A   1      42.601  18.527  26.083  1.00  0.00     0.202 C 
BRANCH  32  33
ATOM     33  C   UNL A   1      43.891  18.883  25.314  1.00  0.00     0.261 C 
BRANCH  33  34
ATOM     34  O   UNL A   1      43.861  20.099  24.541  1.00  0.00    -0.460 OA
BRANCH  34  35
ATOM     35  C   UNL A   1      44.859  20.987  24.776  1.00  0.00     0.338 C 
ATOM     36  O   UNL A   1      46.001  20.940  24.343  1.00  0.00    -0.246 OA
BRANCH  35  37
ATOM     37  C   UNL A   1      44.309  22.201  25.439  1.00  0.00     0.060 A 
ATOM     38  C   UNL A   1      44.131  23.356  24.657  1.00  0.00     0.016 A 
ATOM     39  C   UNL A   1      43.948  22.213  26.788  1.00  0.00     0.016 A 
ATOM     40  C   UNL A   1      43.635  24.530  25.222  1.00  0.00     0.010 A 
ATOM     41  C   UNL A   1      43.495  23.406  27.368  1.00  0.00     0.010 A 
ATOM     42  C   UNL A   1      43.386  24.581  26.597  1.00  0.00    -0.014 A 
BRANCH  42  43
ATOM     43  C   UNL A   1      43.355  25.912  27.256  1.00  0.00     0.031 A 
ATOM     44  C   UNL A   1      44.684  26.551  27.578  1.00  0.00     0.074 A 
ATOM     45  C   UNL A   1      42.214  26.579  27.505  1.00  0.00     0.049 A 
ATOM     46  N   UNL A   1      44.944  27.697  28.151  1.00  0.00    -0.248 NA
ATOM     47  C   UNL A   1      45.883  25.784  27.194  1.00  0.00     0.031 C 
ATOM     48  C   UNL A   1      40.867  26.117  27.182  1.00  0.00     0.029 A 
ATOM     49  N   UNL A   1      42.020  27.806  28.093  1.00  0.00    -0.354 N 
ATOM     50  C   UNL A   1      46.330  27.780  28.206  1.00  0.00     0.074 A 
ATOM     51  C   UNL A   1      46.856  26.560  27.640  1.00  0.00     0.031 C 
ATOM     52  C   UNL A   1      39.981  27.047  27.586  1.00  0.00     0.029 A 
ATOM     53  C   UNL A   1      40.697  28.154  28.220  1.00  0.00     0.049 A 
ATOM     54  H   UNL A   1      42.759  28.381  28.395  1.00  0.00     0.167 HD
ATOM     55  C   UNL A   1      47.106  28.785  28.678  1.00  0.00     0.031 A 
ATOM     56  C   UNL A   1      40.134  29.236  28.796  1.00  0.00     0.031 A 
ATOM     57  C   UNL A   1      46.593  29.993  29.259  1.00  0.00     0.049 A 
ATOM     58  C   UNL A   1      41.016  30.303  29.398  1.00  0.00     0.074 A 
ATOM     59  C   UNL A   1      47.296  31.070  29.770  1.00  0.00     0.029 A 
ATOM     60  N   UNL A   1      45.247  30.283  29.413  1.00  0.00    -0.354 N 
ATOM     61  N   UNL A   1      42.325  30.377  29.434  1.00  0.00    -0.248 NA
ATOM     62  C   UNL A   1      40.335  31.446  30.026  1.00  0.00     0.031 C 
ATOM     63  C   UNL A   1      46.375  31.986  30.287  1.00  0.00     0.029 A 
ATOM     64  C   UNL A   1      45.097  31.512  30.032  1.00  0.00     0.049 A 
ATOM     65  H   UNL A   1      44.506  29.702  29.124  1.00  0.00     0.167 HD
ATOM     66  C   UNL A   1      42.622  31.588  30.050  1.00  0.00     0.074 A 
ATOM     67  C   UNL A   1      41.358  32.221  30.360  1.00  0.00     0.031 C 
ATOM     68  C   UNL A   1      43.832  32.133  30.330  1.00  0.00     0.031 A 
BRANCH  55  69
ATOM     69  C   UNL A   1      48.594  28.585  28.624  1.00  0.00    -0.014 A 
ATOM     70  C   UNL A   1      49.293  27.988  29.686  1.00  0.00     0.009 A 
ATOM     71  C   UNL A   1      49.308  28.997  27.488  1.00  0.00     0.009 A 
ATOM     72  C   UNL A   1      50.681  27.842  29.625  1.00  0.00     0.001 A 
ATOM     73  C   UNL A   1      50.690  28.820  27.416  1.00  0.00     0.001 A 
ATOM     74  C   UNL A   1      51.377  28.253  28.488  1.00  0.00     0.000 A 
ENDBRANCH  55  69
BRANCH  56  75
ATOM     75  C   UNL A   1      38.653  29.370  28.857  1.00  0.00    -0.014 A 
ATOM     76  C   UNL A   1      37.920  29.775  27.730  1.00  0.00     0.009 A 
ATOM     77  C   UNL A   1      37.968  29.139  30.060  1.00  0.00     0.009 A 
ATOM     78  C   UNL A   1      36.538  29.974  27.817  1.00  0.00     0.001 A 
ATOM     79  C   UNL A   1      36.584  29.309  30.136  1.00  0.00     0.001 A 
ATOM     80  C   UNL A   1      35.871  29.737  29.017  1.00  0.00     0.000 A 
ENDBRANCH  56  75
BRANCH  68  81
ATOM     81  C   UNL A   1      43.852  33.504  30.950  1.00  0.00    -0.014 A 
ATOM     82  C   UNL A   1      43.972  34.665  30.172  1.00  0.00     0.009 A 
ATOM     83  C   UNL A   1      43.713  33.631  32.342  1.00  0.00     0.009 A 
ATOM     84  C   UNL A   1      44.000  35.924  30.781  1.00  0.00     0.001 A 
ATOM     85  C   UNL A   1      43.706  34.890  32.944  1.00  0.00     0.001 A 
ATOM     86  C   UNL A   1      43.863  36.034  32.164  1.00  0.00     0.000 A 
ENDBRANCH  68  81
ENDBRANCH  42  43
ENDBRANCH  35  37
ENDBRANCH  34  35
ENDBRANCH  33  34
ENDBRANCH  32  33
ENDBRANCH  31  32
ENDBRANCH  30  31
ENDBRANCH   1  30
TORSDOF 22
ENDMDL
MODEL 3
REMARK VINA RESULT:      -9.6      5.882     10.911
REMARK SMILES CC[C@](C)([NH3+])C(=O)Nc1ccc(C(F)(F)F)cc1C(=O)OCCOCCOCCOC(=O)c1ccc(-c2c3nc(c(-c4ccccc4)c4ccc([nH]4)c(-c4ccccc4)c4nc(c(-c5ccccc5)c5ccc2[nH]5)C=C4)C=C3)cc1
REMARK SMILES IDX 25 1 24 2 23 3 22 4 21 5 19 6 20 7 18 8 9 9 10 10 11 11
REMARK SMILES IDX 17 12 12 13 8 14 6 15 7 16 3 18 4 19 2 20 1 21 5 22 13 26
REMARK SMILES IDX 14 27 15 28 16 29 26 30 27 31 28 32 29 33 30 34 31 35 32 36
REMARK SMILES IDX 33 37 34 38 80 39 35 40 79 41 36 42 37 43 38 44 73 45 39 46
REMARK SMILES IDX 78 47 72 48 74 49 40 50 77 51 71 52 70 53 41 55 63 56 48 57
REMARK SMILES IDX 62 58 49 59 52 60 61 61 75 62 50 63 51 64 60 66 76 67 53 68
REMARK SMILES IDX 42 69 43 70 47 71 44 72 46 73 45 74 64 75 65 76 69 77 66 78
REMARK SMILES IDX 68 79 67 80 54 81 55 82 59 83 56 84 58 85 57 86
REMARK H PARENT 8 17 5 23 5 24 5 25 74 54 52 65
REMARK Flexibility Score: inf
ROOT
ATOM      1  C   UNL A   1      41.243  20.632  26.104  1.00  0.00     0.188 C 
ENDROOT
BRANCH   1   2
ATOM      2  O   UNL A   1      40.026  21.091  26.665  1.00  0.00    -0.376 OA
BRANCH   2   3
ATOM      3  C   UNL A   1      38.932  21.124  25.765  1.00  0.00     0.202 C 
BRANCH   3   4
ATOM      4  C   UNL A   1      38.103  22.402  25.789  1.00  0.00     0.261 C 
BRANCH   4   5
ATOM      5  O   UNL A   1      36.911  22.448  24.971  1.00  0.00    -0.460 OA
BRANCH   5   6
ATOM      6  C   UNL A   1      35.676  22.692  25.456  1.00  0.00     0.340 C 
ATOM      7  O   UNL A   1      35.404  23.412  26.400  1.00  0.00    -0.246 OA
BRANCH   6   8
ATOM      8  C   UNL A   1      34.654  21.941  24.661  1.00  0.00     0.084 A 
ATOM      9  C   UNL A   1      33.908  22.504  23.612  1.00  0.00     0.056 A 
ATOM     10  C   UNL A   1      32.788  21.808  23.124  1.00  0.00     0.027 A 
ATOM     11  C   UNL A   1      32.492  20.516  23.561  1.00  0.00     0.015 A 
ATOM     12  C   UNL A   1      34.358  20.627  25.088  1.00  0.00     0.031 A 
ATOM     13  C   UNL A   1      33.292  19.897  24.526  1.00  0.00     0.057 A 
BRANCH   9  14
ATOM     14  N   UNL A   1      34.095  23.769  23.041  1.00  0.00    -0.320 N 
ATOM     15  C   UNL A   1      33.371  24.923  23.009  1.00  0.00     0.285 C 
ATOM     16  O   UNL A   1      33.651  25.672  22.059  1.00  0.00    -0.267 OA
ATOM     17  H   UNL A   1      34.946  23.842  22.552  1.00  0.00     0.170 HD
BRANCH  15  18
ATOM     18  C   UNL A   1      32.449  25.440  24.173  1.00  0.00     0.171 C 
ATOM     19  C   UNL A   1      31.017  24.981  23.836  1.00  0.00     0.090 C 
BRANCH  18  20
ATOM     20  C   UNL A   1      32.576  26.972  24.274  1.00  0.00     0.075 C 
ATOM     21  C   UNL A   1      33.742  27.442  25.143  1.00  0.00     0.011 C 
ENDBRANCH  18  20
BRANCH  18  22
ATOM     22  N   UNL A   1      32.700  24.937  25.522  1.00  0.00    -0.345 N 
ATOM     23  H   UNL A   1      33.574  25.329  25.873  1.00  0.00     0.345 HD
ATOM     24  H   UNL A   1      32.769  23.920  25.498  1.00  0.00     0.345 HD
ATOM     25  H   UNL A   1      31.933  25.212  26.135  1.00  0.00     0.345 HD
ENDBRANCH  18  22
ENDBRANCH  15  18
ENDBRANCH   9  14
BRANCH  13  26
ATOM     26  C   UNL A   1      32.995  18.470  24.928  1.00  0.00     0.416 C 
ATOM     27  F   UNL A   1      32.503  18.377  26.195  1.00  0.00    -0.166 F 
ATOM     28  F   UNL A   1      32.061  17.896  24.121  1.00  0.00    -0.166 F 
ATOM     29  F   UNL A   1      34.084  17.658  24.886  1.00  0.00    -0.166 F 
ENDBRANCH  13  26
ENDBRANCH   6   8
ENDBRANCH   5   6
ENDBRANCH   4   5
ENDBRANCH   3   4
ENDBRANCH   2   3
ENDBRANCH   1   2
BRANCH   1  30
ATOM     30  C   UNL A   1      41.816  19.356  26.765  1.00  0.00     0.188 C 
BRANCH  30  31
ATOM     31  O   UNL A   1      42.476  18.370  25.991  1.00  0.00    -0.376 OA
BRANCH  31  32
ATOM     32  C   UNL A   1      43.857  18.529  25.705  1.00  0.00     0.202 C 
BRANCH  32  33
ATOM     33  C   UNL A   1      44.304  19.138  24.360  1.00  0.00     0.261 C 
BRANCH  33  34
ATOM     34  O   UNL A   1      44.302  20.577  24.276  1.00  0.00    -0.460 OA
BRANCH  34  35
ATOM     35  C   UNL A   1      45.241  21.225  25.011  1.00  0.00     0.338 C 
ATOM     36  O   UNL A   1      46.445  21.018  25.010  1.00  0.00    -0.246 OA
BRANCH  35  37
ATOM     37  C   UNL A   1      44.640  22.428  25.649  1.00  0.00     0.060 A 
ATOM     38  C   UNL A   1      44.458  23.575  24.856  1.00  0.00     0.016 A 
ATOM     39  C   UNL A   1      44.236  22.437  26.986  1.00  0.00     0.016 A 
ATOM     40  C   UNL A   1      43.916  24.739  25.398  1.00  0.00     0.010 A 
ATOM     41  C   UNL A   1      43.735  23.622  27.545  1.00  0.00     0.010 A 
ATOM     42  C   UNL A   1      43.622  24.790  26.764  1.00  0.00    -0.014 A 
BRANCH  42  43
ATOM     43  C   UNL A   1      43.537  26.123  27.414  1.00  0.00     0.031 A 
ATOM     44  C   UNL A   1      44.838  26.806  27.755  1.00  0.00     0.074 A 
ATOM     45  C   UNL A   1      42.371  26.754  27.640  1.00  0.00     0.049 A 
ATOM     46  N   UNL A   1      45.052  27.963  28.326  1.00  0.00    -0.248 NA
ATOM     47  C   UNL A   1      46.068  26.076  27.397  1.00  0.00     0.031 C 
ATOM     48  C   UNL A   1      41.045  26.247  27.297  1.00  0.00     0.029 A 
ATOM     49  N   UNL A   1      42.127  27.977  28.217  1.00  0.00    -0.354 N 
ATOM     50  C   UNL A   1      46.434  28.091  28.404  1.00  0.00     0.074 A 
ATOM     51  C   UNL A   1      47.008  26.885  27.854  1.00  0.00     0.031 C 
ATOM     52  C   UNL A   1      40.123  27.151  27.680  1.00  0.00     0.029 A 
ATOM     53  C   UNL A   1      40.792  28.284  28.319  1.00  0.00     0.049 A 
ATOM     54  H   UNL A   1      42.842  28.577  28.528  1.00  0.00     0.167 HD
ATOM     55  C   UNL A   1      47.168  29.122  28.882  1.00  0.00     0.031 A 
ATOM     56  C   UNL A   1      40.185  29.350  28.879  1.00  0.00     0.031 A 
ATOM     57  C   UNL A   1      46.607  30.317  29.447  1.00  0.00     0.049 A 
ATOM     58  C   UNL A   1      41.022  30.448  29.489  1.00  0.00     0.074 A 
ATOM     59  C   UNL A   1      47.266  31.418  29.964  1.00  0.00     0.029 A 
ATOM     60  N   UNL A   1      45.250  30.564  29.576  1.00  0.00    -0.354 N 
ATOM     61  N   UNL A   1      42.327  30.564  29.547  1.00  0.00    -0.248 NA
ATOM     62  C   UNL A   1      40.294  31.572  30.098  1.00  0.00     0.031 C 
ATOM     63  C   UNL A   1      46.308  32.308  30.460  1.00  0.00     0.029 A 
ATOM     64  C   UNL A   1      45.050  31.792  30.186  1.00  0.00     0.049 A 
ATOM     65  H   UNL A   1      44.533  29.958  29.279  1.00  0.00     0.167 HD
ATOM     66  C   UNL A   1      42.574  31.788  30.161  1.00  0.00     0.074 A 
ATOM     67  C   UNL A   1      41.285  32.382  30.445  1.00  0.00     0.031 C 
ATOM     68  C   UNL A   1      43.761  32.373  30.458  1.00  0.00     0.031 A 
BRANCH  55  69
ATOM     69  C   UNL A   1      48.663  28.970  28.855  1.00  0.00    -0.014 A 
ATOM     70  C   UNL A   1      49.363  28.403  29.933  1.00  0.00     0.009 A 
ATOM     71  C   UNL A   1      49.383  29.398  27.728  1.00  0.00     0.009 A 
ATOM     72  C   UNL A   1      50.755  28.301  29.897  1.00  0.00     0.001 A 
ATOM     73  C   UNL A   1      50.770  29.265  27.682  1.00  0.00     0.001 A 
ATOM     74  C   UNL A   1      51.457  28.727  28.769  1.00  0.00     0.000 A 
ENDBRANCH  55  69
BRANCH  56  75
ATOM     75  C   UNL A   1      38.700  29.436  28.914  1.00  0.00    -0.014 A 
ATOM     76  C   UNL A   1      37.974  29.817  27.773  1.00  0.00     0.009 A 
ATOM     77  C   UNL A   1      38.001  29.185  30.105  1.00  0.00     0.009 A 
ATOM     78  C   UNL A   1      36.585  29.972  27.836  1.00  0.00     0.001 A 
ATOM     79  C   UNL A   1      36.611  29.310  30.157  1.00  0.00     0.001 A 
ATOM     80  C   UNL A   1      35.905  29.715  29.025  1.00  0.00     0.000 A 
ENDBRANCH  56  75
BRANCH  68  81
ATOM     81  C   UNL A   1      43.726  33.747  31.069  1.00  0.00    -0.014 A 
ATOM     82  C   UNL A   1      43.733  34.908  30.281  1.00  0.00     0.009 A 
ATOM     83  C   UNL A   1      43.651  33.877  32.467  1.00  0.00     0.009 A 
ATOM     84  C   UNL A   1      43.713  36.170  30.882  1.00  0.00     0.001 A 
ATOM     85  C   UNL A   1      43.595  35.137  33.062  1.00  0.00     0.001 A 
ATOM     86  C   UNL A   1      43.640  36.283  32.270  1.00  0.00     0.000 A 
ENDBRANCH  68  81
ENDBRANCH  42  43
ENDBRANCH  35  37
ENDBRANCH  34  35
ENDBRANCH  33  34
ENDBRANCH  32  33
ENDBRANCH  31  32
ENDBRANCH  30  31
ENDBRANCH   1  30
TORSDOF 22
ENDMDL
