MODEL 1
REMARK VINA RESULT:      -9.9      0.000      0.000
REMARK SMILES COc1ccc(C2=NN=C[C@@H]2C(=O)OCCOCCOCCOC(=O)c2ccc(-c3c4nc(c(-c5ccccc5)c5ccc([nH]5)c(-c5ccccc5)c5nc(c(-c6ccccc6)c6ccc3[nH]6)C=C5)C=C4)cc2)cc1OC
REMARK SMILES IDX 18 1 17 2 16 3 15 4 14 5 12 6 13 7 11 8 7 9 8 10 9 11 10 12
REMARK SMILES IDX 6 13 3 14 4 15 75 16 5 17 74 18 2 19 1 20 76 21 77 22 19 23
REMARK SMILES IDX 20 24 21 25 22 26 23 27 24 28 25 29 26 30 27 31 73 32 28 33
REMARK SMILES IDX 72 34 29 35 30 36 31 37 66 38 32 39 71 40 65 41 67 42 33 43
REMARK SMILES IDX 70 44 64 45 63 46 34 48 56 49 41 50 55 51 42 52 45 53 54 54
REMARK SMILES IDX 68 55 43 56 44 57 53 59 69 60 46 61 35 62 36 63 40 64 37 65
REMARK SMILES IDX 39 66 38 67 57 68 58 69 62 70 59 71 61 72 60 73 47 74 48 75
REMARK SMILES IDX 52 76 49 77 51 78 50 79
REMARK H PARENT 67 47 45 58
REMARK Flexibility Score: inf
ROOT
ATOM      1  C   UNL A   1      34.607  22.925  26.702  1.00  0.00     0.188 C 
ENDROOT
BRANCH   1   2
ATOM      2  O   UNL A   1      35.224  24.053  26.119  1.00  0.00    -0.376 OA
BRANCH   2   3
ATOM      3  C   UNL A   1      34.405  24.885  25.304  1.00  0.00     0.202 C 
BRANCH   3   4
ATOM      4  C   UNL A   1      34.034  24.450  23.865  1.00  0.00     0.261 C 
BRANCH   4   5
ATOM      5  O   UNL A   1      32.868  23.619  23.726  1.00  0.00    -0.462 OA
BRANCH   5   6
ATOM      6  C   UNL A   1      31.689  24.243  23.476  1.00  0.00     0.320 C 
ATOM      7  O   UNL A   1      31.426  24.761  22.397  1.00  0.00    -0.251 OA
BRANCH   6   8
ATOM      8  C   UNL A   1      30.685  24.033  24.575  1.00  0.00     0.194 C 
ATOM      9  C   UNL A   1      30.354  25.240  25.380  1.00  0.00     0.090 C 
ATOM     10  N   UNL A   1      30.462  25.060  26.659  1.00  0.00    -0.154 NA
ATOM     11  N   UNL A   1      30.917  23.728  26.875  1.00  0.00    -0.162 NA
ATOM     12  C   UNL A   1      31.091  23.172  25.720  1.00  0.00     0.130 C 
BRANCH   9  13
ATOM     13  C   UNL A   1      30.050  26.521  24.752  1.00  0.00     0.003 A 
ATOM     14  C   UNL A   1      29.789  28.896  23.347  1.00  0.00     0.160 A 
ATOM     15  C   UNL A   1      28.775  27.924  23.284  1.00  0.00     0.051 A 
ATOM     16  C   UNL A   1      30.931  28.680  24.130  1.00  0.00     0.161 A 
ATOM     17  C   UNL A   1      28.913  26.715  23.971  1.00  0.00     0.014 A 
ATOM     18  C   UNL A   1      31.041  27.496  24.851  1.00  0.00     0.060 A 
BRANCH  14  19
ATOM     19  O   UNL A   1      29.593  30.102  22.729  1.00  0.00    -0.493 OA
ATOM     20  C   UNL A   1      28.523  30.064  21.786  1.00  0.00     0.278 C 
ENDBRANCH  14  19
BRANCH  16  21
ATOM     21  O   UNL A   1      32.000  29.514  24.306  1.00  0.00    -0.493 OA
ATOM     22  C   UNL A   1      32.805  29.285  25.452  1.00  0.00     0.278 C 
ENDBRANCH  16  21
ENDBRANCH   9  13
ENDBRANCH   6   8
ENDBRANCH   5   6
ENDBRANCH   4   5
ENDBRANCH   3   4
ENDBRANCH   2   3
ENDBRANCH   1   2
BRANCH   1  23
ATOM     23  C   UNL A   1      35.095  21.593  26.098  1.00  0.00     0.188 C 
BRANCH  23  24
ATOM     24  O   UNL A   1      35.648  21.512  24.788  1.00  0.00    -0.376 OA
BRANCH  24  25
ATOM     25  C   UNL A   1      37.047  21.365  24.547  1.00  0.00     0.202 C 
BRANCH  25  26
ATOM     26  C   UNL A   1      38.024  21.027  25.675  1.00  0.00     0.261 C 
BRANCH  26  27
ATOM     27  O   UNL A   1      39.368  21.312  25.348  1.00  0.00    -0.460 OA
BRANCH  27  28
ATOM     28  C   UNL A   1      40.232  20.397  25.828  1.00  0.00     0.338 C 
ATOM     29  O   UNL A   1      40.128  19.185  25.792  1.00  0.00    -0.246 OA
BRANCH  28  30
ATOM     30  C   UNL A   1      41.387  21.099  26.404  1.00  0.00     0.060 A 
ATOM     31  C   UNL A   1      41.600  20.889  27.767  1.00  0.00     0.016 A 
ATOM     32  C   UNL A   1      42.031  22.117  25.688  1.00  0.00     0.016 A 
ATOM     33  C   UNL A   1      42.161  21.913  28.483  1.00  0.00     0.010 A 
ATOM     34  C   UNL A   1      42.591  23.144  26.403  1.00  0.00     0.010 A 
ATOM     35  C   UNL A   1      42.495  23.078  27.790  1.00  0.00    -0.014 A 
BRANCH  35  36
ATOM     36  C   UNL A   1      42.482  24.298  28.561  1.00  0.00     0.031 A 
ATOM     37  C   UNL A   1      41.426  25.254  28.216  1.00  0.00     0.074 A 
ATOM     38  C   UNL A   1      43.374  24.487  29.552  1.00  0.00     0.049 A 
ATOM     39  N   UNL A   1      41.562  26.446  27.742  1.00  0.00    -0.248 NA
ATOM     40  C   UNL A   1      40.041  24.778  28.325  1.00  0.00     0.031 C 
ATOM     41  C   UNL A   1      44.271  23.498  30.162  1.00  0.00     0.029 A 
ATOM     42  N   UNL A   1      43.568  25.595  30.312  1.00  0.00    -0.354 N 
ATOM     43  C   UNL A   1      40.272  26.945  27.648  1.00  0.00     0.074 A 
ATOM     44  C   UNL A   1      39.375  25.837  27.871  1.00  0.00     0.031 C 
ATOM     45  C   UNL A   1      44.718  23.981  31.342  1.00  0.00     0.029 A 
ATOM     46  C   UNL A   1      44.244  25.346  31.494  1.00  0.00     0.049 A 
ATOM     47  H   UNL A   1      43.257  26.491  30.048  1.00  0.00     0.167 HD
ATOM     48  C   UNL A   1      40.018  28.278  27.643  1.00  0.00     0.031 A 
ATOM     49  C   UNL A   1      44.312  26.175  32.562  1.00  0.00     0.031 A 
ATOM     50  C   UNL A   1      41.174  29.066  27.318  1.00  0.00     0.049 A 
ATOM     51  C   UNL A   1      43.951  27.538  32.107  1.00  0.00     0.074 A 
ATOM     52  C   UNL A   1      42.015  29.154  26.228  1.00  0.00     0.029 A 
ATOM     53  N   UNL A   1      41.828  29.696  28.351  1.00  0.00    -0.354 N 
ATOM     54  N   UNL A   1      44.693  28.256  31.313  1.00  0.00    -0.248 NA
ATOM     55  C   UNL A   1      42.560  27.956  32.200  1.00  0.00     0.031 C 
ATOM     56  C   UNL A   1      43.305  29.428  26.769  1.00  0.00     0.029 A 
ATOM     57  C   UNL A   1      43.173  29.509  28.157  1.00  0.00     0.049 A 
ATOM     58  H   UNL A   1      41.408  30.189  29.092  1.00  0.00     0.167 HD
ATOM     59  C   UNL A   1      43.796  28.935  30.500  1.00  0.00     0.074 A 
ATOM     60  C   UNL A   1      42.506  28.809  31.172  1.00  0.00     0.031 C 
ATOM     61  C   UNL A   1      44.128  29.288  29.223  1.00  0.00     0.031 A 
BRANCH  48  62
ATOM     62  C   UNL A   1      38.800  28.850  28.309  1.00  0.00    -0.014 A 
ATOM     63  C   UNL A   1      37.976  29.731  27.598  1.00  0.00     0.009 A 
ATOM     64  C   UNL A   1      38.578  28.740  29.698  1.00  0.00     0.009 A 
ATOM     65  C   UNL A   1      36.992  30.481  28.252  1.00  0.00     0.001 A 
ATOM     66  C   UNL A   1      37.566  29.449  30.345  1.00  0.00     0.001 A 
ATOM     67  C   UNL A   1      36.786  30.337  29.622  1.00  0.00     0.000 A 
ENDBRANCH  48  62
BRANCH  49  68
ATOM     68  C   UNL A   1      44.356  25.787  33.986  1.00  0.00    -0.014 A 
ATOM     69  C   UNL A   1      43.250  25.189  34.604  1.00  0.00     0.009 A 
ATOM     70  C   UNL A   1      45.579  25.788  34.687  1.00  0.00     0.009 A 
ATOM     71  C   UNL A   1      43.371  24.591  35.866  1.00  0.00     0.001 A 
ATOM     72  C   UNL A   1      45.699  25.200  35.949  1.00  0.00     0.001 A 
ATOM     73  C   UNL A   1      44.596  24.589  36.532  1.00  0.00     0.000 A 
ENDBRANCH  49  68
BRANCH  61  74
ATOM     74  C   UNL A   1      45.573  29.133  28.810  1.00  0.00    -0.014 A 
ATOM     75  C   UNL A   1      46.065  27.950  28.229  1.00  0.00     0.009 A 
ATOM     76  C   UNL A   1      46.420  30.249  28.864  1.00  0.00     0.009 A 
ATOM     77  C   UNL A   1      47.377  27.875  27.751  1.00  0.00     0.001 A 
ATOM     78  C   UNL A   1      47.726  30.180  28.368  1.00  0.00     0.001 A 
ATOM     79  C   UNL A   1      48.205  28.991  27.817  1.00  0.00     0.000 A 
ENDBRANCH  61  74
ENDBRANCH  35  36
ENDBRANCH  28  30
ENDBRANCH  27  28
ENDBRANCH  26  27
ENDBRANCH  25  26
ENDBRANCH  24  25
ENDBRANCH  23  24
ENDBRANCH   1  23
TORSDOF 20
ENDMDL
MODEL 2
REMARK VINA RESULT:      -9.6      4.382      9.219
REMARK SMILES COc1ccc(C2=NN=C[C@@H]2C(=O)OCCOCCOCCOC(=O)c2ccc(-c3c4nc(c(-c5ccccc5)c5ccc([nH]5)c(-c5ccccc5)c5nc(c(-c6ccccc6)c6ccc3[nH]6)C=C5)C=C4)cc2)cc1OC
REMARK SMILES IDX 18 1 17 2 16 3 15 4 14 5 12 6 13 7 11 8 7 9 8 10 9 11 10 12
REMARK SMILES IDX 6 13 3 14 4 15 75 16 5 17 74 18 2 19 1 20 76 21 77 22 19 23
REMARK SMILES IDX 20 24 21 25 22 26 23 27 24 28 25 29 26 30 27 31 73 32 28 33
REMARK SMILES IDX 72 34 29 35 30 36 31 37 66 38 32 39 71 40 65 41 67 42 33 43
REMARK SMILES IDX 70 44 64 45 63 46 34 48 56 49 41 50 55 51 42 52 45 53 54 54
REMARK SMILES IDX 68 55 43 56 44 57 53 59 69 60 46 61 35 62 36 63 40 64 37 65
REMARK SMILES IDX 39 66 38 67 57 68 58 69 62 70 59 71 61 72 60 73 47 74 48 75
REMARK SMILES IDX 52 76 49 77 51 78 50 79
REMARK H PARENT 67 47 45 58
REMARK Flexibility Score: inf
ROOT
ATOM      1  C   UNL A   1      34.526  30.433  27.345  1.00  0.00     0.188 C 
ENDROOT
BRANCH   1   2
ATOM      2  O   UNL A   1      33.356  29.643  27.340  1.00  0.00    -0.376 OA
BRANCH   2   3
ATOM      3  C   UNL A   1      33.446  28.365  26.720  1.00  0.00     0.202 C 
BRANCH   3   4
ATOM      4  C   UNL A   1      33.637  28.250  25.188  1.00  0.00     0.261 C 
BRANCH   4   5
ATOM      5  O   UNL A   1      33.072  29.305  24.390  1.00  0.00    -0.462 OA
BRANCH   5   6
ATOM      6  C   UNL A   1      32.212  28.943  23.404  1.00  0.00     0.320 C 
ATOM      7  O   UNL A   1      32.583  28.447  22.347  1.00  0.00    -0.251 OA
BRANCH   6   8
ATOM      8  C   UNL A   1      30.776  29.015  23.840  1.00  0.00     0.194 C 
ATOM      9  C   UNL A   1      30.038  27.722  23.835  1.00  0.00     0.090 C 
ATOM     10  N   UNL A   1      28.914  27.766  23.190  1.00  0.00    -0.154 NA
ATOM     11  N   UNL A   1      28.774  29.075  22.647  1.00  0.00    -0.162 NA
ATOM     12  C   UNL A   1      29.828  29.755  22.963  1.00  0.00     0.130 C 
BRANCH   9  13
ATOM     13  C   UNL A   1      30.609  26.512  24.414  1.00  0.00     0.003 A 
ATOM     14  C   UNL A   1      32.035  24.354  25.412  1.00  0.00     0.160 A 
ATOM     15  C   UNL A   1      31.235  25.129  26.270  1.00  0.00     0.051 A 
ATOM     16  C   UNL A   1      32.108  24.656  24.045  1.00  0.00     0.161 A 
ATOM     17  C   UNL A   1      30.533  26.232  25.777  1.00  0.00     0.014 A 
ATOM     18  C   UNL A   1      31.368  25.725  23.550  1.00  0.00     0.060 A 
BRANCH  14  19
ATOM     19  O   UNL A   1      32.647  23.234  25.905  1.00  0.00    -0.493 OA
ATOM     20  C   UNL A   1      31.838  22.066  25.770  1.00  0.00     0.278 C 
ENDBRANCH  14  19
BRANCH  16  21
ATOM     21  O   UNL A   1      32.825  24.009  23.078  1.00  0.00    -0.493 OA
ATOM     22  C   UNL A   1      32.888  24.633  21.805  1.00  0.00     0.278 C 
ENDBRANCH  16  21
ENDBRANCH   9  13
ENDBRANCH   6   8
ENDBRANCH   5   6
ENDBRANCH   4   5
ENDBRANCH   3   4
ENDBRANCH   2   3
ENDBRANCH   1   2
BRANCH   1  23
ATOM     23  C   UNL A   1      34.341  31.779  28.077  1.00  0.00     0.188 C 
BRANCH  23  24
ATOM     24  O   UNL A   1      34.955  32.980  27.622  1.00  0.00    -0.376 OA
BRANCH  24  25
ATOM     25  C   UNL A   1      34.882  34.208  28.344  1.00  0.00     0.202 C 
BRANCH  25  26
ATOM     26  C   UNL A   1      33.725  34.509  29.298  1.00  0.00     0.261 C 
BRANCH  26  27
ATOM     27  O   UNL A   1      34.081  35.391  30.342  1.00  0.00    -0.460 OA
BRANCH  27  28
ATOM     28  C   UNL A   1      33.427  35.138  31.493  1.00  0.00     0.338 C 
ATOM     29  O   UNL A   1      32.262  35.372  31.752  1.00  0.00    -0.246 OA
BRANCH  28  30
ATOM     30  C   UNL A   1      34.355  34.483  32.425  1.00  0.00     0.060 A 
ATOM     31  C   UNL A   1      35.412  35.274  32.877  1.00  0.00     0.016 A 
ATOM     32  C   UNL A   1      34.324  33.093  32.601  1.00  0.00     0.016 A 
ATOM     33  C   UNL A   1      36.592  34.645  33.168  1.00  0.00     0.010 A 
ATOM     34  C   UNL A   1      35.505  32.460  32.891  1.00  0.00     0.010 A 
ATOM     35  C   UNL A   1      36.640  33.258  33.010  1.00  0.00    -0.014 A 
BRANCH  35  36
ATOM     36  C   UNL A   1      37.937  32.700  32.707  1.00  0.00     0.031 A 
ATOM     37  C   UNL A   1      38.892  32.679  33.818  1.00  0.00     0.074 A 
ATOM     38  C   UNL A   1      38.196  32.205  31.482  1.00  0.00     0.049 A 
ATOM     39  N   UNL A   1      40.018  33.302  33.905  1.00  0.00    -0.248 NA
ATOM     40  C   UNL A   1      38.489  31.945  35.023  1.00  0.00     0.031 C 
ATOM     41  C   UNL A   1      37.242  31.918  30.403  1.00  0.00     0.029 A 
ATOM     42  N   UNL A   1      39.371  31.732  30.995  1.00  0.00    -0.354 N 
ATOM     43  C   UNL A   1      40.558  32.903  35.119  1.00  0.00     0.074 A 
ATOM     44  C   UNL A   1      39.518  32.196  35.828  1.00  0.00     0.031 C 
ATOM     45  C   UNL A   1      37.833  31.100  29.504  1.00  0.00     0.029 A 
ATOM     46  C   UNL A   1      39.225  30.923  29.881  1.00  0.00     0.049 A 
ATOM     47  H   UNL A   1      40.245  31.943  31.396  1.00  0.00     0.167 HD
ATOM     48  C   UNL A   1      41.891  32.957  35.362  1.00  0.00     0.031 A 
ATOM     49  C   UNL A   1      40.162  30.087  29.376  1.00  0.00     0.031 A 
ATOM     50  C   UNL A   1      42.591  33.826  34.458  1.00  0.00     0.049 A 
ATOM     51  C   UNL A   1      41.481  30.504  29.907  1.00  0.00     0.074 A 
ATOM     52  C   UNL A   1      42.524  35.171  34.156  1.00  0.00     0.029 A 
ATOM     53  N   UNL A   1      43.301  33.245  33.434  1.00  0.00    -0.354 N 
ATOM     54  N   UNL A   1      42.076  31.613  29.576  1.00  0.00    -0.248 NA
ATOM     55  C   UNL A   1      41.964  29.885  31.133  1.00  0.00     0.031 C 
ATOM     56  C   UNL A   1      42.802  35.257  32.760  1.00  0.00     0.029 A 
ATOM     57  C   UNL A   1      43.039  33.962  32.295  1.00  0.00     0.049 A 
ATOM     58  H   UNL A   1      43.890  32.459  33.507  1.00  0.00     0.167 HD
ATOM     59  C   UNL A   1      42.699  32.048  30.737  1.00  0.00     0.074 A 
ATOM     60  C   UNL A   1      42.701  30.887  31.622  1.00  0.00     0.031 C 
ATOM     61  C   UNL A   1      42.897  33.378  30.978  1.00  0.00     0.031 A 
BRANCH  48  62
ATOM     62  C   UNL A   1      42.582  31.912  36.190  1.00  0.00    -0.014 A 
ATOM     63  C   UNL A   1      43.481  32.309  37.188  1.00  0.00     0.009 A 
ATOM     64  C   UNL A   1      42.561  30.543  35.850  1.00  0.00     0.009 A 
ATOM     65  C   UNL A   1      44.333  31.381  37.799  1.00  0.00     0.001 A 
ATOM     66  C   UNL A   1      43.373  29.608  36.490  1.00  0.00     0.001 A 
ATOM     67  C   UNL A   1      44.276  30.033  37.452  1.00  0.00     0.000 A 
ENDBRANCH  48  62
BRANCH  49  68
ATOM     68  C   UNL A   1      39.930  28.778  28.732  1.00  0.00    -0.014 A 
ATOM     69  C   UNL A   1      40.468  28.491  27.470  1.00  0.00     0.009 A 
ATOM     70  C   UNL A   1      39.372  27.713  29.467  1.00  0.00     0.009 A 
ATOM     71  C   UNL A   1      40.470  27.180  26.975  1.00  0.00     0.001 A 
ATOM     72  C   UNL A   1      39.365  26.407  28.969  1.00  0.00     0.001 A 
ATOM     73  C   UNL A   1      39.927  26.139  27.727  1.00  0.00     0.000 A 
ENDBRANCH  49  68
BRANCH  61  74
ATOM     74  C   UNL A   1      42.637  34.338  29.841  1.00  0.00    -0.014 A 
ATOM     75  C   UNL A   1      41.339  34.744  29.482  1.00  0.00     0.009 A 
ATOM     76  C   UNL A   1      43.725  34.965  29.218  1.00  0.00     0.009 A 
ATOM     77  C   UNL A   1      41.136  35.722  28.503  1.00  0.00     0.001 A 
ATOM     78  C   UNL A   1      43.523  35.957  28.253  1.00  0.00     0.001 A 
ATOM     79  C   UNL A   1      42.228  36.330  27.892  1.00  0.00     0.000 A 
ENDBRANCH  61  74
ENDBRANCH  35  36
ENDBRANCH  28  30
ENDBRANCH  27  28
ENDBRANCH  26  27
ENDBRANCH  25  26
ENDBRANCH  24  25
ENDBRANCH  23  24
ENDBRANCH   1  23
TORSDOF 20
ENDMDL
MODEL 3
REMARK VINA RESULT:      -9.4      2.175      6.604
REMARK SMILES COc1ccc(C2=NN=C[C@@H]2C(=O)OCCOCCOCCOC(=O)c2ccc(-c3c4nc(c(-c5ccccc5)c5ccc([nH]5)c(-c5ccccc5)c5nc(c(-c6ccccc6)c6ccc3[nH]6)C=C5)C=C4)cc2)cc1OC
REMARK SMILES IDX 18 1 17 2 16 3 15 4 14 5 12 6 13 7 11 8 7 9 8 10 9 11 10 12
REMARK SMILES IDX 6 13 3 14 4 15 75 16 5 17 74 18 2 19 1 20 76 21 77 22 19 23
REMARK SMILES IDX 20 24 21 25 22 26 23 27 24 28 25 29 26 30 27 31 73 32 28 33
REMARK SMILES IDX 72 34 29 35 30 36 31 37 66 38 32 39 71 40 65 41 67 42 33 43
REMARK SMILES IDX 70 44 64 45 63 46 34 48 56 49 41 50 55 51 42 52 45 53 54 54
REMARK SMILES IDX 68 55 43 56 44 57 53 59 69 60 46 61 35 62 36 63 40 64 37 65
REMARK SMILES IDX 39 66 38 67 57 68 58 69 62 70 59 71 61 72 60 73 47 74 48 75
REMARK SMILES IDX 52 76 49 77 51 78 50 79
REMARK H PARENT 67 47 45 58
REMARK Flexibility Score: inf
ROOT
ATOM      1  C   UNL A   1      38.134  21.941  25.467  1.00  0.00     0.188 C 
ENDROOT
BRANCH   1   2
ATOM      2  O   UNL A   1      37.680  23.212  25.052  1.00  0.00    -0.376 OA
BRANCH   2   3
ATOM      3  C   UNL A   1      36.794  23.245  23.938  1.00  0.00     0.202 C 
BRANCH   3   4
ATOM      4  C   UNL A   1      35.318  23.673  24.125  1.00  0.00     0.261 C 
BRANCH   4   5
ATOM      5  O   UNL A   1      35.074  24.749  25.049  1.00  0.00    -0.462 OA
BRANCH   5   6
ATOM      6  C   UNL A   1      33.927  25.456  24.888  1.00  0.00     0.320 C 
ATOM      7  O   UNL A   1      33.495  25.782  23.788  1.00  0.00    -0.251 OA
BRANCH   6   8
ATOM      8  C   UNL A   1      33.154  25.595  26.169  1.00  0.00     0.194 C 
ATOM      9  C   UNL A   1      32.129  24.544  26.417  1.00  0.00     0.090 C 
ATOM     10  N   UNL A   1      30.956  25.018  26.701  1.00  0.00    -0.154 NA
ATOM     11  N   UNL A   1      31.032  26.438  26.639  1.00  0.00    -0.162 NA
ATOM     12  C   UNL A   1      32.236  26.760  26.295  1.00  0.00     0.130 C 
BRANCH   9  13
ATOM     13  C   UNL A   1      32.425  23.128  26.239  1.00  0.00     0.003 A 
ATOM     14  C   UNL A   1      33.179  20.541  25.584  1.00  0.00     0.160 A 
ATOM     15  C   UNL A   1      33.574  21.103  26.812  1.00  0.00     0.051 A 
ATOM     16  C   UNL A   1      32.390  21.277  24.689  1.00  0.00     0.161 A 
ATOM     17  C   UNL A   1      33.217  22.414  27.135  1.00  0.00     0.014 A 
ATOM     18  C   UNL A   1      31.995  22.565  25.039  1.00  0.00     0.060 A 
BRANCH  14  19
ATOM     19  O   UNL A   1      33.474  19.230  25.327  1.00  0.00    -0.493 OA
ATOM     20  C   UNL A   1      34.796  19.059  24.816  1.00  0.00     0.278 C 
ENDBRANCH  14  19
BRANCH  16  21
ATOM     21  O   UNL A   1      31.916  20.886  23.468  1.00  0.00    -0.493 OA
ATOM     22  C   UNL A   1      32.159  21.762  22.379  1.00  0.00     0.278 C 
ENDBRANCH  16  21
ENDBRANCH   9  13
ENDBRANCH   6   8
ENDBRANCH   5   6
ENDBRANCH   4   5
ENDBRANCH   3   4
ENDBRANCH   2   3
ENDBRANCH   1   2
BRANCH   1  23
ATOM     23  C   UNL A   1      39.297  22.019  26.479  1.00  0.00     0.188 C 
BRANCH  23  24
ATOM     24  O   UNL A   1      39.982  20.858  26.937  1.00  0.00    -0.376 OA
BRANCH  24  25
ATOM     25  C   UNL A   1      41.399  20.807  27.095  1.00  0.00     0.202 C 
BRANCH  25  26
ATOM     26  C   UNL A   1      42.347  21.166  25.948  1.00  0.00     0.261 C 
BRANCH  26  27
ATOM     27  O   UNL A   1      43.491  20.340  25.895  1.00  0.00    -0.460 OA
BRANCH  27  28
ATOM     28  C   UNL A   1      44.217  20.517  24.774  1.00  0.00     0.338 C 
ATOM     29  O   UNL A   1      44.334  19.751  23.835  1.00  0.00    -0.246 OA
BRANCH  28  30
ATOM     30  C   UNL A   1      44.855  21.839  24.832  1.00  0.00     0.060 A 
ATOM     31  C   UNL A   1      45.858  21.981  25.792  1.00  0.00     0.016 A 
ATOM     32  C   UNL A   1      44.286  22.934  24.169  1.00  0.00     0.016 A 
ATOM     33  C   UNL A   1      46.027  23.220  26.350  1.00  0.00     0.010 A 
ATOM     34  C   UNL A   1      44.453  24.175  24.726  1.00  0.00     0.010 A 
ATOM     35  C   UNL A   1      45.198  24.249  25.900  1.00  0.00    -0.014 A 
BRANCH  35  36
ATOM     36  C   UNL A   1      44.933  25.307  26.846  1.00  0.00     0.031 A 
ATOM     37  C   UNL A   1      46.019  26.273  27.036  1.00  0.00     0.074 A 
ATOM     38  C   UNL A   1      43.738  25.388  27.461  1.00  0.00     0.049 A 
ATOM     39  N   UNL A   1      46.692  26.506  28.111  1.00  0.00    -0.248 NA
ATOM     40  C   UNL A   1      46.474  27.000  25.844  1.00  0.00     0.031 C 
ATOM     41  C   UNL A   1      42.504  24.660  27.138  1.00  0.00     0.029 A 
ATOM     42  N   UNL A   1      43.347  26.248  28.435  1.00  0.00    -0.354 N 
ATOM     43  C   UNL A   1      47.553  27.541  27.780  1.00  0.00     0.074 A 
ATOM     44  C   UNL A   1      47.486  27.700  26.348  1.00  0.00     0.031 C 
ATOM     45  C   UNL A   1      41.461  25.286  27.726  1.00  0.00     0.029 A 
ATOM     46  C   UNL A   1      41.973  26.361  28.558  1.00  0.00     0.049 A 
ATOM     47  H   UNL A   1      43.981  26.746  29.001  1.00  0.00     0.167 HD
ATOM     48  C   UNL A   1      48.075  28.367  28.722  1.00  0.00     0.031 A 
ATOM     49  C   UNL A   1      41.310  27.341  29.215  1.00  0.00     0.031 A 
ATOM     50  C   UNL A   1      48.003  27.821  30.048  1.00  0.00     0.049 A 
ATOM     51  C   UNL A   1      42.263  27.995  30.143  1.00  0.00     0.074 A 
ATOM     52  C   UNL A   1      48.505  26.692  30.663  1.00  0.00     0.029 A 
ATOM     53  N   UNL A   1      47.020  28.300  30.882  1.00  0.00    -0.354 N 
ATOM     54  N   UNL A   1      42.758  27.414  31.199  1.00  0.00    -0.248 NA
ATOM     55  C   UNL A   1      42.998  29.161  29.678  1.00  0.00     0.031 C 
ATOM     56  C   UNL A   1      47.505  26.299  31.601  1.00  0.00     0.029 A 
ATOM     57  C   UNL A   1      46.459  27.220  31.516  1.00  0.00     0.049 A 
ATOM     58  H   UNL A   1      46.767  29.243  31.003  1.00  0.00     0.167 HD
ATOM     59  C   UNL A   1      44.066  27.871  31.280  1.00  0.00     0.074 A 
ATOM     60  C   UNL A   1      44.116  29.032  30.398  1.00  0.00     0.031 C 
ATOM     61  C   UNL A   1      45.051  27.099  31.829  1.00  0.00     0.031 A 
BRANCH  48  62
ATOM     62  C   UNL A   1      48.301  29.826  28.450  1.00  0.00    -0.014 A 
ATOM     63  C   UNL A   1      47.205  30.697  28.416  1.00  0.00     0.009 A 
ATOM     64  C   UNL A   1      49.535  30.325  27.980  1.00  0.00     0.009 A 
ATOM     65  C   UNL A   1      47.336  31.998  27.914  1.00  0.00     0.001 A 
ATOM     66  C   UNL A   1      49.680  31.634  27.526  1.00  0.00     0.001 A 
ATOM     67  C   UNL A   1      48.572  32.465  27.474  1.00  0.00     0.000 A 
ENDBRANCH  48  62
BRANCH  49  68
ATOM     68  C   UNL A   1      40.010  27.935  28.847  1.00  0.00    -0.014 A 
ATOM     69  C   UNL A   1      38.962  28.007  29.776  1.00  0.00     0.009 A 
ATOM     70  C   UNL A   1      39.870  28.653  27.643  1.00  0.00     0.009 A 
ATOM     71  C   UNL A   1      37.830  28.791  29.517  1.00  0.00     0.001 A 
ATOM     72  C   UNL A   1      38.737  29.427  27.380  1.00  0.00     0.001 A 
ATOM     73  C   UNL A   1      37.722  29.507  28.326  1.00  0.00     0.000 A 
ENDBRANCH  49  68
BRANCH  61  74
ATOM     74  C   UNL A   1      44.629  25.844  32.557  1.00  0.00    -0.014 A 
ATOM     75  C   UNL A   1      44.539  24.596  31.912  1.00  0.00     0.009 A 
ATOM     76  C   UNL A   1      44.468  25.886  33.948  1.00  0.00     0.009 A 
ATOM     77  C   UNL A   1      44.259  23.433  32.636  1.00  0.00     0.001 A 
ATOM     78  C   UNL A   1      44.207  24.720  34.674  1.00  0.00     0.001 A 
ATOM     79  C   UNL A   1      44.097  23.495  34.016  1.00  0.00     0.000 A 
ENDBRANCH  61  74
ENDBRANCH  35  36
ENDBRANCH  28  30
ENDBRANCH  27  28
ENDBRANCH  26  27
ENDBRANCH  25  26
ENDBRANCH  24  25
ENDBRANCH  23  24
ENDBRANCH   1  23
TORSDOF 20
ENDMDL
