MODEL 1
REMARK VINA RESULT:     -10.0      0.000      0.000
REMARK SMILES Cc1cc(C)c2c(n1)nn1c(C(=O)OCCOCCOCCOC(=O)c3ccc(-c4c5nc(c(-c6ccccc6)c6ccc([nH]6)c(-c6ccccc6)c6nc(c(-c7ccccc7)c7ccc4[nH]7)C=C6)C=C5)cc3)cc(-c3ccc(Cl)cc3)nc21
REMARK SMILES IDX 19 1 18 2 17 3 16 4 15 5 14 6 12 7 13 8 11 9 1 10 2 11 3 12
REMARK SMILES IDX 8 13 4 14 7 15 5 16 6 17 9 18 84 19 10 20 83 21 75 22 74 23
REMARK SMILES IDX 76 24 77 25 82 26 78 27 81 28 79 29 80 30 20 31 21 32 22 33
REMARK SMILES IDX 23 34 24 35 25 36 26 37 27 38 73 39 28 40 72 41 29 42 30 43
REMARK SMILES IDX 31 44 66 45 32 46 71 47 65 48 67 49 33 50 70 51 64 52 63 53
REMARK SMILES IDX 34 55 56 56 41 57 55 58 42 59 45 60 54 61 68 62 43 63 44 64
REMARK SMILES IDX 53 66 69 67 46 68 35 69 36 70 40 71 37 72 39 73 38 74 57 75
REMARK SMILES IDX 58 76 62 77 59 78 61 79 60 80 47 81 48 82 52 83 49 84 51 85
REMARK SMILES IDX 50 86
REMARK H PARENT 67 54 45 65
REMARK Flexibility Score: inf
ROOT
ATOM      1  C   UNL A   1      35.543  31.669  32.175  1.00  0.00     0.188 C 
ENDROOT
BRANCH   1   2
ATOM      2  C   UNL A   1      35.143  33.111  32.548  1.00  0.00     0.188 C 
BRANCH   2   3
ATOM      3  O   UNL A   1      33.966  33.709  32.011  1.00  0.00    -0.376 OA
BRANCH   3   4
ATOM      4  C   UNL A   1      33.949  35.097  31.704  1.00  0.00     0.202 C 
BRANCH   4   5
ATOM      5  C   UNL A   1      33.024  35.533  30.567  1.00  0.00     0.261 C 
BRANCH   5   6
ATOM      6  O   UNL A   1      32.966  34.565  29.509  1.00  0.00    -0.459 OA
BRANCH   6   7
ATOM      7  C   UNL A   1      33.946  34.636  28.581  1.00  0.00     0.357 C 
ATOM      8  O   UNL A   1      34.359  35.655  28.042  1.00  0.00    -0.244 OA
BRANCH   7   9
ATOM      9  C   UNL A   1      34.622  33.338  28.423  1.00  0.00     0.154 A 
ATOM     10  C   UNL A   1      41.242  32.919  31.066  1.00  0.00     0.067 C 
ATOM     11  C   UNL A   1      39.950  32.535  30.396  1.00  0.00     0.040 A 
ATOM     12  C   UNL A   1      39.734  31.167  30.063  1.00  0.00     0.027 A 
ATOM     13  N   UNL A   1      39.061  33.559  30.212  1.00  0.00    -0.232 NA
ATOM     14  C   UNL A   1      38.549  30.711  29.455  1.00  0.00    -0.034 A 
ATOM     15  C   UNL A   1      37.903  33.152  29.633  1.00  0.00     0.184 A 
ATOM     16  C   UNL A   1      38.309  29.278  29.119  1.00  0.00     0.045 C 
ATOM     17  C   UNL A   1      37.688  31.795  29.265  1.00  0.00     0.069 A 
ATOM     18  N   UNL A   1      36.847  33.916  29.366  1.00  0.00    -0.145 NA
ATOM     19  C   UNL A   1      36.445  31.762  28.680  1.00  0.00     0.166 A 
ATOM     20  N   UNL A   1      35.934  33.072  28.816  1.00  0.00    -0.205 N 
ATOM     21  N   UNL A   1      35.728  30.757  28.085  1.00  0.00    -0.228 NA
ATOM     22  C   UNL A   1      34.528  31.057  27.692  1.00  0.00     0.075 A 
ATOM     23  C   UNL A   1      33.868  32.376  27.861  1.00  0.00     0.065 A 
BRANCH  22  24
ATOM     24  C   UNL A   1      33.705  30.042  27.014  1.00  0.00     0.000 A 
ATOM     25  C   UNL A   1      34.200  28.745  26.864  1.00  0.00     0.012 A 
ATOM     26  C   UNL A   1      32.436  30.390  26.540  1.00  0.00     0.012 A 
ATOM     27  C   UNL A   1      33.404  27.778  26.247  1.00  0.00     0.021 A 
ATOM     28  C   UNL A   1      31.649  29.421  25.916  1.00  0.00     0.021 A 
ATOM     29  C   UNL A   1      32.134  28.119  25.776  1.00  0.00     0.041 A 
ATOM     30  Cl  UNL A   1      31.155  26.924  25.021  1.00  0.00    -0.084 Cl
ENDBRANCH  22  24
ENDBRANCH   7   9
ENDBRANCH   6   7
ENDBRANCH   5   6
ENDBRANCH   4   5
ENDBRANCH   3   4
ENDBRANCH   2   3
ENDBRANCH   1   2
BRANCH   1  31
ATOM     31  O   UNL A   1      36.648  31.159  32.902  1.00  0.00    -0.376 OA
BRANCH  31  32
ATOM     32  C   UNL A   1      37.690  32.079  33.204  1.00  0.00     0.202 C 
BRANCH  32  33
ATOM     33  C   UNL A   1      38.693  31.536  34.222  1.00  0.00     0.261 C 
BRANCH  33  34
ATOM     34  O   UNL A   1      39.570  30.548  33.654  1.00  0.00    -0.460 OA
BRANCH  34  35
ATOM     35  C   UNL A   1      40.224  29.782  34.553  1.00  0.00     0.338 C 
ATOM     36  O   UNL A   1      40.055  29.727  35.756  1.00  0.00    -0.246 OA
BRANCH  35  37
ATOM     37  C   UNL A   1      41.237  29.008  33.836  1.00  0.00     0.060 A 
ATOM     38  C   UNL A   1      42.133  28.180  34.517  1.00  0.00     0.016 A 
ATOM     39  C   UNL A   1      41.336  29.208  32.466  1.00  0.00     0.016 A 
ATOM     40  C   UNL A   1      43.162  27.556  33.806  1.00  0.00     0.010 A 
ATOM     41  C   UNL A   1      42.377  28.604  31.774  1.00  0.00     0.010 A 
ATOM     42  C   UNL A   1      43.317  27.788  32.431  1.00  0.00    -0.014 A 
BRANCH  42  43
ATOM     43  C   UNL A   1      44.471  27.220  31.682  1.00  0.00     0.031 A 
ATOM     44  C   UNL A   1      44.149  26.196  30.648  1.00  0.00     0.074 A 
ATOM     45  C   UNL A   1      45.621  27.909  31.502  1.00  0.00     0.049 A 
ATOM     46  N   UNL A   1      43.640  26.538  29.502  1.00  0.00    -0.248 NA
ATOM     47  C   UNL A   1      44.156  24.753  30.886  1.00  0.00     0.031 C 
ATOM     48  C   UNL A   1      45.802  29.332  31.816  1.00  0.00     0.029 A 
ATOM     49  N   UNL A   1      46.765  27.573  30.809  1.00  0.00    -0.354 N 
ATOM     50  C   UNL A   1      43.132  25.396  28.926  1.00  0.00     0.074 A 
ATOM     51  C   UNL A   1      43.538  24.301  29.780  1.00  0.00     0.031 C 
ATOM     52  C   UNL A   1      46.895  29.786  31.175  1.00  0.00     0.029 A 
ATOM     53  C   UNL A   1      47.567  28.674  30.509  1.00  0.00     0.049 A 
ATOM     54  H   UNL A   1      46.994  26.650  30.554  1.00  0.00     0.167 HD
ATOM     55  C   UNL A   1      42.342  25.435  27.822  1.00  0.00     0.031 A 
ATOM     56  C   UNL A   1      48.287  28.858  29.371  1.00  0.00     0.031 A 
ATOM     57  C   UNL A   1      42.028  26.743  27.328  1.00  0.00     0.049 A 
ATOM     58  C   UNL A   1      47.275  28.719  28.269  1.00  0.00     0.074 A 
ATOM     59  C   UNL A   1      41.032  27.677  27.527  1.00  0.00     0.029 A 
ATOM     60  N   UNL A   1      42.953  27.380  26.539  1.00  0.00    -0.354 N 
ATOM     61  N   UNL A   1      46.445  29.636  27.853  1.00  0.00    -0.248 NA
ATOM     62  C   UNL A   1      47.017  27.378  27.744  1.00  0.00     0.031 C 
ATOM     63  C   UNL A   1      41.622  28.943  27.221  1.00  0.00     0.029 A 
ATOM     64  C   UNL A   1      42.961  28.702  26.912  1.00  0.00     0.049 A 
ATOM     65  H   UNL A   1      43.506  26.968  25.836  1.00  0.00     0.167 HD
ATOM     66  C   UNL A   1      45.399  28.943  27.246  1.00  0.00     0.074 A 
ATOM     67  C   UNL A   1      45.844  27.566  27.155  1.00  0.00     0.031 C 
ATOM     68  C   UNL A   1      44.168  29.490  27.029  1.00  0.00     0.031 A 
BRANCH  55  69
ATOM     69  C   UNL A   1      41.863  24.235  27.120  1.00  0.00    -0.014 A 
ATOM     70  C   UNL A   1      40.613  23.710  27.476  1.00  0.00     0.009 A 
ATOM     71  C   UNL A   1      42.687  23.522  26.242  1.00  0.00     0.009 A 
ATOM     72  C   UNL A   1      40.202  22.473  26.986  1.00  0.00     0.001 A 
ATOM     73  C   UNL A   1      42.269  22.285  25.746  1.00  0.00     0.001 A 
ATOM     74  C   UNL A   1      41.034  21.758  26.125  1.00  0.00     0.000 A 
ENDBRANCH  55  69
BRANCH  56  75
ATOM     75  C   UNL A   1      49.623  28.189  29.280  1.00  0.00    -0.014 A 
ATOM     76  C   UNL A   1      50.099  27.419  30.358  1.00  0.00     0.009 A 
ATOM     77  C   UNL A   1      50.473  28.339  28.172  1.00  0.00     0.009 A 
ATOM     78  C   UNL A   1      51.332  26.761  30.295  1.00  0.00     0.001 A 
ATOM     79  C   UNL A   1      51.695  27.661  28.097  1.00  0.00     0.001 A 
ATOM     80  C   UNL A   1      52.121  26.864  29.155  1.00  0.00     0.000 A 
ENDBRANCH  56  75
BRANCH  68  81
ATOM     81  C   UNL A   1      44.060  30.969  27.223  1.00  0.00    -0.014 A 
ATOM     82  C   UNL A   1      43.841  31.490  28.505  1.00  0.00     0.009 A 
ATOM     83  C   UNL A   1      44.227  31.856  26.149  1.00  0.00     0.009 A 
ATOM     84  C   UNL A   1      43.813  32.870  28.713  1.00  0.00     0.001 A 
ATOM     85  C   UNL A   1      44.212  33.237  26.360  1.00  0.00     0.001 A 
ATOM     86  C   UNL A   1      44.009  33.742  27.643  1.00  0.00     0.000 A 
ENDBRANCH  68  81
ENDBRANCH  42  43
ENDBRANCH  35  37
ENDBRANCH  34  35
ENDBRANCH  33  34
ENDBRANCH  32  33
ENDBRANCH  31  32
ENDBRANCH   1  31
TORSDOF 18
ENDMDL
MODEL 2
REMARK VINA RESULT:      -9.7      4.915     11.474
REMARK SMILES Cc1cc(C)c2c(n1)nn1c(C(=O)OCCOCCOCCOC(=O)c3ccc(-c4c5nc(c(-c6ccccc6)c6ccc([nH]6)c(-c6ccccc6)c6nc(c(-c7ccccc7)c7ccc4[nH]7)C=C6)C=C5)cc3)cc(-c3ccc(Cl)cc3)nc21
REMARK SMILES IDX 19 1 18 2 17 3 16 4 15 5 14 6 12 7 13 8 11 9 1 10 2 11 3 12
REMARK SMILES IDX 8 13 4 14 7 15 5 16 6 17 9 18 84 19 10 20 83 21 75 22 74 23
REMARK SMILES IDX 76 24 77 25 82 26 78 27 81 28 79 29 80 30 20 31 21 32 22 33
REMARK SMILES IDX 23 34 24 35 25 36 26 37 27 38 73 39 28 40 72 41 29 42 30 43
REMARK SMILES IDX 31 44 66 45 32 46 71 47 65 48 67 49 33 50 70 51 64 52 63 53
REMARK SMILES IDX 34 55 56 56 41 57 55 58 42 59 45 60 54 61 68 62 43 63 44 64
REMARK SMILES IDX 53 66 69 67 46 68 35 69 36 70 40 71 37 72 39 73 38 74 57 75
REMARK SMILES IDX 58 76 62 77 59 78 61 79 60 80 47 81 48 82 52 83 49 84 51 85
REMARK SMILES IDX 50 86
REMARK H PARENT 67 54 45 65
REMARK Flexibility Score: inf
ROOT
ATOM      1  C   UNL A   1      45.546  23.660  24.613  1.00  0.00     0.188 C 
ENDROOT
BRANCH   1   2
ATOM      2  C   UNL A   1      44.878  22.347  24.156  1.00  0.00     0.188 C 
BRANCH   2   3
ATOM      3  O   UNL A   1      45.523  21.090  24.345  1.00  0.00    -0.376 OA
BRANCH   3   4
ATOM      4  C   UNL A   1      45.183  20.276  25.459  1.00  0.00     0.202 C 
BRANCH   4   5
ATOM      5  C   UNL A   1      44.205  19.131  25.194  1.00  0.00     0.261 C 
BRANCH   5   6
ATOM      6  O   UNL A   1      42.836  19.547  25.301  1.00  0.00    -0.459 OA
BRANCH   6   7
ATOM      7  C   UNL A   1      42.313  19.563  26.548  1.00  0.00     0.357 C 
ATOM      8  O   UNL A   1      42.418  18.679  27.387  1.00  0.00    -0.244 OA
BRANCH   7   9
ATOM      9  C   UNL A   1      41.749  20.885  26.868  1.00  0.00     0.154 A 
ATOM     10  C   UNL A   1      35.292  22.270  24.150  1.00  0.00     0.067 C 
ATOM     11  C   UNL A   1      36.585  22.435  24.905  1.00  0.00     0.040 A 
ATOM     12  C   UNL A   1      36.740  23.569  25.752  1.00  0.00     0.027 A 
ATOM     13  N   UNL A   1      37.492  21.425  24.737  1.00  0.00    -0.232 NA
ATOM     14  C   UNL A   1      37.903  23.796  26.512  1.00  0.00    -0.034 A 
ATOM     15  C   UNL A   1      38.624  21.608  25.462  1.00  0.00     0.184 A 
ATOM     16  C   UNL A   1      38.067  24.972  27.415  1.00  0.00     0.045 C 
ATOM     17  C   UNL A   1      38.805  22.753  26.287  1.00  0.00     0.069 A 
ATOM     18  N   UNL A   1      39.660  20.776  25.526  1.00  0.00    -0.145 NA
ATOM     19  C   UNL A   1      40.062  22.625  26.827  1.00  0.00     0.166 A 
ATOM     20  N   UNL A   1      40.532  21.369  26.385  1.00  0.00    -0.205 N 
ATOM     21  N   UNL A   1      40.806  23.436  27.644  1.00  0.00    -0.228 NA
ATOM     22  C   UNL A   1      41.952  22.969  28.034  1.00  0.00     0.075 A 
ATOM     23  C   UNL A   1      42.501  21.632  27.696  1.00  0.00     0.065 A 
BRANCH  22  24
ATOM     24  C   UNL A   1      42.826  23.793  28.887  1.00  0.00     0.000 A 
ATOM     25  C   UNL A   1      42.619  25.172  28.952  1.00  0.00     0.012 A 
ATOM     26  C   UNL A   1      43.843  23.179  29.626  1.00  0.00     0.012 A 
ATOM     27  C   UNL A   1      43.431  25.945  29.785  1.00  0.00     0.021 A 
ATOM     28  C   UNL A   1      44.656  23.959  30.449  1.00  0.00     0.021 A 
ATOM     29  C   UNL A   1      44.444  25.337  30.529  1.00  0.00     0.041 A 
ATOM     30  Cl  UNL A   1      45.438  26.292  31.556  1.00  0.00    -0.084 Cl
ENDBRANCH  22  24
ENDBRANCH   7   9
ENDBRANCH   6   7
ENDBRANCH   5   6
ENDBRANCH   4   5
ENDBRANCH   3   4
ENDBRANCH   2   3
ENDBRANCH   1   2
BRANCH   1  31
ATOM     31  O   UNL A   1      44.642  24.720  24.872  1.00  0.00    -0.376 OA
BRANCH  31  32
ATOM     32  C   UNL A   1      43.296  24.355  25.149  1.00  0.00     0.202 C 
BRANCH  32  33
ATOM     33  C   UNL A   1      42.359  25.557  25.262  1.00  0.00     0.261 C 
BRANCH  33  34
ATOM     34  O   UNL A   1      43.036  26.738  25.727  1.00  0.00    -0.460 OA
BRANCH  34  35
ATOM     35  C   UNL A   1      42.363  27.893  25.535  1.00  0.00     0.338 C 
ATOM     36  O   UNL A   1      42.371  28.612  24.555  1.00  0.00    -0.246 OA
BRANCH  35  37
ATOM     37  C   UNL A   1      41.608  28.183  26.754  1.00  0.00     0.060 A 
ATOM     38  C   UNL A   1      40.251  27.868  26.858  1.00  0.00     0.016 A 
ATOM     39  C   UNL A   1      42.268  28.875  27.761  1.00  0.00     0.016 A 
ATOM     40  C   UNL A   1      39.540  28.275  27.991  1.00  0.00     0.010 A 
ATOM     41  C   UNL A   1      41.547  29.295  28.869  1.00  0.00     0.010 A 
ATOM     42  C   UNL A   1      40.172  29.023  28.994  1.00  0.00    -0.014 A 
BRANCH  42  43
ATOM     43  C   UNL A   1      39.403  29.557  30.152  1.00  0.00     0.031 A 
ATOM     44  C   UNL A   1      39.934  29.229  31.506  1.00  0.00     0.074 A 
ATOM     45  C   UNL A   1      38.651  30.677  30.061  1.00  0.00     0.049 A 
ATOM     46  N   UNL A   1      40.977  29.841  31.982  1.00  0.00    -0.248 NA
ATOM     47  C   UNL A   1      39.501  28.086  32.307  1.00  0.00     0.031 C 
ATOM     48  C   UNL A   1      38.662  31.602  28.920  1.00  0.00     0.029 A 
ATOM     49  N   UNL A   1      37.915  31.341  31.020  1.00  0.00    -0.354 N 
ATOM     50  C   UNL A   1      41.429  29.102  33.051  1.00  0.00     0.074 A 
ATOM     51  C   UNL A   1      40.444  28.063  33.265  1.00  0.00     0.031 C 
ATOM     52  C   UNL A   1      38.121  32.774  29.302  1.00  0.00     0.029 A 
ATOM     53  C   UNL A   1      37.608  32.654  30.664  1.00  0.00     0.049 A 
ATOM     54  H   UNL A   1      37.635  30.930  31.869  1.00  0.00     0.167 HD
ATOM     55  C   UNL A   1      42.627  29.345  33.641  1.00  0.00     0.031 A 
ATOM     56  C   UNL A   1      37.558  33.724  31.501  1.00  0.00     0.031 A 
ATOM     57  C   UNL A   1      43.413  30.386  33.048  1.00  0.00     0.049 A 
ATOM     58  C   UNL A   1      38.907  33.737  32.163  1.00  0.00     0.074 A 
ATOM     59  C   UNL A   1      44.381  30.476  32.069  1.00  0.00     0.029 A 
ATOM     60  N   UNL A   1      43.125  31.687  33.376  1.00  0.00    -0.354 N 
ATOM     61  N   UNL A   1      40.013  34.219  31.667  1.00  0.00    -0.248 NA
ATOM     62  C   UNL A   1      39.077  32.945  33.381  1.00  0.00     0.031 C 
ATOM     63  C   UNL A   1      44.294  31.810  31.561  1.00  0.00     0.029 A 
ATOM     64  C   UNL A   1      43.235  32.428  32.225  1.00  0.00     0.049 A 
ATOM     65  H   UNL A   1      42.885  32.026  34.269  1.00  0.00     0.167 HD
ATOM     66  C   UNL A   1      41.041  33.561  32.342  1.00  0.00     0.074 A 
ATOM     67  C   UNL A   1      40.398  32.842  33.425  1.00  0.00     0.031 C 
ATOM     68  C   UNL A   1      42.318  33.488  31.868  1.00  0.00     0.031 A 
BRANCH  55  69
ATOM     69  C   UNL A   1      43.100  28.644  34.845  1.00  0.00    -0.014 A 
ATOM     70  C   UNL A   1      43.545  29.413  35.930  1.00  0.00     0.009 A 
ATOM     71  C   UNL A   1      43.274  27.257  34.865  1.00  0.00     0.009 A 
ATOM     72  C   UNL A   1      44.182  28.807  37.010  1.00  0.00     0.001 A 
ATOM     73  C   UNL A   1      43.906  26.650  35.952  1.00  0.00     0.001 A 
ATOM     74  C   UNL A   1      44.369  27.425  37.017  1.00  0.00     0.000 A 
ENDBRANCH  55  69
BRANCH  56  75
ATOM     75  C   UNL A   1      36.306  33.922  32.298  1.00  0.00    -0.014 A 
ATOM     76  C   UNL A   1      36.091  35.134  32.980  1.00  0.00     0.009 A 
ATOM     77  C   UNL A   1      35.338  32.917  32.453  1.00  0.00     0.009 A 
ATOM     78  C   UNL A   1      34.921  35.361  33.713  1.00  0.00     0.001 A 
ATOM     79  C   UNL A   1      34.155  33.150  33.164  1.00  0.00     0.001 A 
ATOM     80  C   UNL A   1      33.943  34.376  33.787  1.00  0.00     0.000 A 
ENDBRANCH  56  75
BRANCH  68  81
ATOM     81  C   UNL A   1      42.645  34.382  30.715  1.00  0.00    -0.014 A 
ATOM     82  C   UNL A   1      42.349  33.970  29.409  1.00  0.00     0.009 A 
ATOM     83  C   UNL A   1      43.200  35.655  30.917  1.00  0.00     0.009 A 
ATOM     84  C   UNL A   1      42.580  34.825  28.328  1.00  0.00     0.001 A 
ATOM     85  C   UNL A   1      43.418  36.513  29.837  1.00  0.00     0.001 A 
ATOM     86  C   UNL A   1      43.104  36.098  28.544  1.00  0.00     0.000 A 
ENDBRANCH  68  81
ENDBRANCH  42  43
ENDBRANCH  35  37
ENDBRANCH  34  35
ENDBRANCH  33  34
ENDBRANCH  32  33
ENDBRANCH  31  32
ENDBRANCH   1  31
TORSDOF 18
ENDMDL
MODEL 3
REMARK VINA RESULT:      -9.6      4.535     10.499
REMARK SMILES Cc1cc(C)c2c(n1)nn1c(C(=O)OCCOCCOCCOC(=O)c3ccc(-c4c5nc(c(-c6ccccc6)c6ccc([nH]6)c(-c6ccccc6)c6nc(c(-c7ccccc7)c7ccc4[nH]7)C=C6)C=C5)cc3)cc(-c3ccc(Cl)cc3)nc21
REMARK SMILES IDX 19 1 18 2 17 3 16 4 15 5 14 6 12 7 13 8 11 9 1 10 2 11 3 12
REMARK SMILES IDX 8 13 4 14 7 15 5 16 6 17 9 18 84 19 10 20 83 21 75 22 74 23
REMARK SMILES IDX 76 24 77 25 82 26 78 27 81 28 79 29 80 30 20 31 21 32 22 33
REMARK SMILES IDX 23 34 24 35 25 36 26 37 27 38 73 39 28 40 72 41 29 42 30 43
REMARK SMILES IDX 31 44 66 45 32 46 71 47 65 48 67 49 33 50 70 51 64 52 63 53
REMARK SMILES IDX 34 55 56 56 41 57 55 58 42 59 45 60 54 61 68 62 43 63 44 64
REMARK SMILES IDX 53 66 69 67 46 68 35 69 36 70 40 71 37 72 39 73 38 74 57 75
REMARK SMILES IDX 58 76 62 77 59 78 61 79 60 80 47 81 48 82 52 83 49 84 51 85
REMARK SMILES IDX 50 86
REMARK H PARENT 67 54 45 65
REMARK Flexibility Score: inf
ROOT
ATOM      1  C   UNL A   1      46.383  23.571  25.172  1.00  0.00     0.188 C 
ENDROOT
BRANCH   1   2
ATOM      2  C   UNL A   1      45.670  22.290  24.695  1.00  0.00     0.188 C 
BRANCH   2   3
ATOM      3  O   UNL A   1      46.157  20.999  25.056  1.00  0.00    -0.376 OA
BRANCH   3   4
ATOM      4  C   UNL A   1      45.647  19.840  24.410  1.00  0.00     0.202 C 
BRANCH   4   5
ATOM      5  C   UNL A   1      44.552  19.073  25.151  1.00  0.00     0.261 C 
BRANCH   5   6
ATOM      6  O   UNL A   1      43.264  19.691  25.013  1.00  0.00    -0.459 OA
BRANCH   6   7
ATOM      7  C   UNL A   1      42.375  19.443  26.001  1.00  0.00     0.357 C 
ATOM      8  O   UNL A   1      42.283  18.408  26.647  1.00  0.00    -0.244 OA
BRANCH   7   9
ATOM      9  C   UNL A   1      41.631  20.661  26.362  1.00  0.00     0.154 A 
ATOM     10  C   UNL A   1      45.245  25.525  30.140  1.00  0.00     0.067 C 
ATOM     11  C   UNL A   1      44.130  24.845  29.391  1.00  0.00     0.040 A 
ATOM     12  C   UNL A   1      42.943  25.583  29.117  1.00  0.00     0.027 A 
ATOM     13  N   UNL A   1      44.391  23.563  28.991  1.00  0.00    -0.232 NA
ATOM     14  C   UNL A   1      41.856  25.039  28.405  1.00  0.00    -0.034 A 
ATOM     15  C   UNL A   1      43.367  23.010  28.294  1.00  0.00     0.184 A 
ATOM     16  C   UNL A   1      40.618  25.810  28.099  1.00  0.00     0.045 C 
ATOM     17  C   UNL A   1      42.163  23.724  28.043  1.00  0.00     0.069 A 
ATOM     18  N   UNL A   1      43.351  21.795  27.751  1.00  0.00    -0.145 NA
ATOM     19  C   UNL A   1      41.350  22.852  27.360  1.00  0.00     0.166 A 
ATOM     20  N   UNL A   1      42.137  21.699  27.146  1.00  0.00    -0.205 N 
ATOM     21  N   UNL A   1      40.061  22.951  26.902  1.00  0.00    -0.228 NA
ATOM     22  C   UNL A   1      39.612  21.946  26.217  1.00  0.00     0.075 A 
ATOM     23  C   UNL A   1      40.382  20.725  25.866  1.00  0.00     0.065 A 
BRANCH  22  24
ATOM     24  C   UNL A   1      38.227  21.960  25.718  1.00  0.00     0.000 A 
ATOM     25  C   UNL A   1      37.658  20.778  25.240  1.00  0.00     0.012 A 
ATOM     26  C   UNL A   1      37.499  23.154  25.742  1.00  0.00     0.012 A 
ATOM     27  C   UNL A   1      36.334  20.790  24.797  1.00  0.00     0.021 A 
ATOM     28  C   UNL A   1      36.180  23.161  25.289  1.00  0.00     0.021 A 
ATOM     29  C   UNL A   1      35.601  21.978  24.823  1.00  0.00     0.041 A 
ATOM     30  Cl  UNL A   1      33.969  21.986  24.281  1.00  0.00    -0.084 Cl
ENDBRANCH  22  24
ENDBRANCH   7   9
ENDBRANCH   6   7
ENDBRANCH   5   6
ENDBRANCH   4   5
ENDBRANCH   3   4
ENDBRANCH   2   3
ENDBRANCH   1   2
BRANCH   1  31
ATOM     31  O   UNL A   1      45.575  24.437  25.953  1.00  0.00    -0.376 OA
BRANCH  31  32
ATOM     32  C   UNL A   1      44.468  25.039  25.295  1.00  0.00     0.202 C 
BRANCH  32  33
ATOM     33  C   UNL A   1      44.525  26.567  25.302  1.00  0.00     0.261 C 
BRANCH  33  34
ATOM     34  O   UNL A   1      43.693  27.142  26.324  1.00  0.00    -0.460 OA
BRANCH  34  35
ATOM     35  C   UNL A   1      42.869  28.125  25.902  1.00  0.00     0.338 C 
ATOM     36  O   UNL A   1      42.278  28.205  24.842  1.00  0.00    -0.246 OA
BRANCH  35  37
ATOM     37  C   UNL A   1      42.811  29.145  26.947  1.00  0.00     0.060 A 
ATOM     38  C   UNL A   1      43.670  30.247  26.934  1.00  0.00     0.016 A 
ATOM     39  C   UNL A   1      41.939  28.923  28.005  1.00  0.00     0.016 A 
ATOM     40  C   UNL A   1      43.664  31.131  28.017  1.00  0.00     0.010 A 
ATOM     41  C   UNL A   1      41.959  29.793  29.086  1.00  0.00     0.010 A 
ATOM     42  C   UNL A   1      42.833  30.895  29.121  1.00  0.00    -0.014 A 
BRANCH  42  43
ATOM     43  C   UNL A   1      42.895  31.765  30.327  1.00  0.00     0.031 A 
ATOM     44  C   UNL A   1      41.590  32.255  30.858  1.00  0.00     0.074 A 
ATOM     45  C   UNL A   1      43.910  31.690  31.217  1.00  0.00     0.049 A 
ATOM     46  N   UNL A   1      40.803  31.468  31.529  1.00  0.00    -0.248 NA
ATOM     47  C   UNL A   1      40.985  33.537  30.504  1.00  0.00     0.031 C 
ATOM     48  C   UNL A   1      44.932  30.635  31.232  1.00  0.00     0.029 A 
ATOM     49  N   UNL A   1      44.116  32.369  32.399  1.00  0.00    -0.354 N 
ATOM     50  C   UNL A   1      39.566  32.069  31.570  1.00  0.00     0.074 A 
ATOM     51  C   UNL A   1      39.739  33.382  30.988  1.00  0.00     0.031 C 
ATOM     52  C   UNL A   1      45.538  30.631  32.435  1.00  0.00     0.029 A 
ATOM     53  C   UNL A   1      45.048  31.750  33.233  1.00  0.00     0.049 A 
ATOM     54  H   UNL A   1      43.654  33.207  32.631  1.00  0.00     0.167 HD
ATOM     55  C   UNL A   1      38.460  31.415  32.009  1.00  0.00     0.031 A 
ATOM     56  C   UNL A   1      44.996  31.687  34.590  1.00  0.00     0.031 A 
ATOM     57  C   UNL A   1      38.654  30.044  32.378  1.00  0.00     0.049 A 
ATOM     58  C   UNL A   1      43.653  31.078  34.879  1.00  0.00     0.074 A 
ATOM     59  C   UNL A   1      38.583  28.818  31.749  1.00  0.00     0.029 A 
ATOM     60  N   UNL A   1      39.161  29.770  33.624  1.00  0.00    -0.354 N 
ATOM     61  N   UNL A   1      43.348  29.811  34.841  1.00  0.00    -0.248 NA
ATOM     62  C   UNL A   1      42.507  31.980  34.999  1.00  0.00     0.031 C 
ATOM     63  C   UNL A   1      39.456  27.956  32.484  1.00  0.00     0.029 A 
ATOM     64  C   UNL A   1      40.049  28.733  33.479  1.00  0.00     0.049 A 
ATOM     65  H   UNL A   1      38.931  30.230  34.463  1.00  0.00     0.167 HD
ATOM     66  C   UNL A   1      41.968  29.766  34.647  1.00  0.00     0.074 A 
ATOM     67  C   UNL A   1      41.505  31.130  34.818  1.00  0.00     0.031 C 
ATOM     68  C   UNL A   1      41.317  28.665  34.173  1.00  0.00     0.031 A 
BRANCH  55  69
ATOM     69  C   UNL A   1      37.143  32.052  32.161  1.00  0.00    -0.014 A 
ATOM     70  C   UNL A   1      36.833  32.654  33.389  1.00  0.00     0.009 A 
ATOM     71  C   UNL A   1      36.149  31.922  31.186  1.00  0.00     0.009 A 
ATOM     72  C   UNL A   1      35.539  33.094  33.653  1.00  0.00     0.001 A 
ATOM     73  C   UNL A   1      34.853  32.371  31.449  1.00  0.00     0.001 A 
ATOM     74  C   UNL A   1      34.547  32.946  32.684  1.00  0.00     0.000 A 
ENDBRANCH  55  69
BRANCH  56  75
ATOM     75  C   UNL A   1      45.486  32.875  35.358  1.00  0.00    -0.014 A 
ATOM     76  C   UNL A   1      45.544  34.138  34.740  1.00  0.00     0.009 A 
ATOM     77  C   UNL A   1      45.959  32.783  36.677  1.00  0.00     0.009 A 
ATOM     78  C   UNL A   1      45.974  35.272  35.437  1.00  0.00     0.001 A 
ATOM     79  C   UNL A   1      46.366  33.920  37.384  1.00  0.00     0.001 A 
ATOM     80  C   UNL A   1      46.364  35.167  36.767  1.00  0.00     0.000 A 
ENDBRANCH  56  75
BRANCH  68  81
ATOM     81  C   UNL A   1      42.110  27.399  34.125  1.00  0.00    -0.014 A 
ATOM     82  C   UNL A   1      43.107  27.238  33.154  1.00  0.00     0.009 A 
ATOM     83  C   UNL A   1      41.912  26.381  35.071  1.00  0.00     0.009 A 
ATOM     84  C   UNL A   1      43.907  26.093  33.144  1.00  0.00     0.001 A 
ATOM     85  C   UNL A   1      42.722  25.242  35.068  1.00  0.00     0.001 A 
ATOM     86  C   UNL A   1      43.721  25.102  34.107  1.00  0.00     0.000 A 
ENDBRANCH  68  81
ENDBRANCH  42  43
ENDBRANCH  35  37
ENDBRANCH  34  35
ENDBRANCH  33  34
ENDBRANCH  32  33
ENDBRANCH  31  32
ENDBRANCH   1  31
TORSDOF 18
ENDMDL
