MODEL 1
REMARK VINA RESULT:      -9.1      0.000      0.000
REMARK SMILES COc1cccc(-c2ccc(C#N)c(SCC(=O)OCCOCCOCCOC(=O)c3ccc(-c4c5nc(c(-c6ccccc6)c6ccc([nH]6)c(-c6ccccc6)c6nc(c(-c7ccccc7)c7ccc4[nH]7)C=C6)C=C5)cc3)n2)c1
REMARK SMILES IDX 23 1 22 2 21 3 20 4 19 5 17 6 18 7 16 8 15 9 14 10 8 11 9 12
REMARK SMILES IDX 79 13 10 14 11 15 7 16 3 17 4 18 80 19 5 20 6 21 2 22 1 23
REMARK SMILES IDX 12 24 13 25 24 26 25 27 26 28 27 29 28 30 29 31 30 32 31 33
REMARK SMILES IDX 32 34 78 35 33 36 77 37 34 38 35 39 36 40 71 41 37 42 76 43
REMARK SMILES IDX 70 44 72 45 38 46 75 47 69 48 68 49 39 51 61 52 46 53 60 54
REMARK SMILES IDX 47 55 50 56 59 57 73 58 48 59 49 60 58 62 74 63 51 64 40 65
REMARK SMILES IDX 41 66 45 67 42 68 44 69 43 70 62 71 63 72 67 73 64 74 66 75
REMARK SMILES IDX 65 76 52 77 53 78 57 79 54 80 56 81 55 82
REMARK H PARENT 72 50 50 61
REMARK Flexibility Score: inf
ROOT
ATOM      1  C   UNL A   1      42.287  19.724  27.123  1.00  0.00     0.188 C 
ENDROOT
BRANCH   1   2
ATOM      2  O   UNL A   1      41.930  21.057  27.436  1.00  0.00    -0.376 OA
BRANCH   2   3
ATOM      3  C   UNL A   1      40.555  21.416  27.473  1.00  0.00     0.202 C 
BRANCH   3   4
ATOM      4  C   UNL A   1      40.031  22.518  26.531  1.00  0.00     0.261 C 
BRANCH   4   5
ATOM      5  O   UNL A   1      38.790  22.240  25.830  1.00  0.00    -0.463 OA
BRANCH   5   6
ATOM      6  C   UNL A   1      37.827  23.198  25.880  1.00  0.00     0.316 C 
ATOM      7  O   UNL A   1      37.980  24.270  26.464  1.00  0.00    -0.251 OA
BRANCH   6   8
ATOM      8  C   UNL A   1      36.487  22.858  25.236  1.00  0.00     0.199 C 
BRANCH   8   9
ATOM      9  S   UNL A   1      35.130  22.130  26.234  1.00  0.00    -0.093 SA
BRANCH   9  10
ATOM     10  C   UNL A   1      33.517  22.814  25.782  1.00  0.00     0.115 A 
ATOM     11  C   UNL A   1      32.355  24.889  25.736  1.00  0.00     0.072 A 
ATOM     12  C   UNL A   1      31.174  24.269  25.367  1.00  0.00     0.030 A 
ATOM     13  N   UNL A   1      33.505  24.185  25.938  1.00  0.00    -0.240 NA
ATOM     14  C   UNL A   1      31.200  22.912  25.112  1.00  0.00     0.024 A 
ATOM     15  C   UNL A   1      32.365  22.161  25.336  1.00  0.00     0.084 A 
BRANCH  11  16
ATOM     16  C   UNL A   1      32.381  26.359  25.681  1.00  0.00     0.004 A 
ATOM     17  C   UNL A   1      31.526  28.470  24.816  1.00  0.00     0.119 A 
ATOM     18  C   UNL A   1      32.777  29.060  24.994  1.00  0.00     0.046 A 
ATOM     19  C   UNL A   1      31.324  27.122  25.149  1.00  0.00     0.056 A 
ATOM     20  C   UNL A   1      33.820  28.333  25.556  1.00  0.00     0.005 A 
ATOM     21  C   UNL A   1      33.618  26.999  25.907  1.00  0.00     0.010 A 
BRANCH  17  22
ATOM     22  O   UNL A   1      30.600  29.263  24.190  1.00  0.00    -0.497 OA
ATOM     23  C   UNL A   1      29.903  28.623  23.128  1.00  0.00     0.278 C 
ENDBRANCH  17  22
ENDBRANCH  11  16
BRANCH  15  24
ATOM     24  C   UNL A   1      32.208  20.754  25.152  1.00  0.00     0.102 C 
ATOM     25  N   UNL A   1      32.197  19.604  25.054  1.00  0.00    -0.192 NA
ENDBRANCH  15  24
ENDBRANCH   9  10
ENDBRANCH   8   9
ENDBRANCH   6   8
ENDBRANCH   5   6
ENDBRANCH   4   5
ENDBRANCH   3   4
ENDBRANCH   2   3
ENDBRANCH   1   2
BRANCH   1  26
ATOM     26  C   UNL A   1      42.961  19.423  25.777  1.00  0.00     0.188 C 
BRANCH  26  27
ATOM     27  O   UNL A   1      44.266  19.895  25.600  1.00  0.00    -0.376 OA
BRANCH  27  28
ATOM     28  C   UNL A   1      44.515  20.901  24.642  1.00  0.00     0.202 C 
BRANCH  28  29
ATOM     29  C   UNL A   1      43.934  22.329  24.710  1.00  0.00     0.261 C 
BRANCH  29  30
ATOM     30  O   UNL A   1      44.823  23.410  25.042  1.00  0.00    -0.460 OA
BRANCH  30  31
ATOM     31  C   UNL A   1      45.129  23.548  26.355  1.00  0.00     0.338 C 
ATOM     32  O   UNL A   1      46.028  22.986  26.958  1.00  0.00    -0.246 OA
BRANCH  31  33
ATOM     33  C   UNL A   1      44.268  24.552  27.019  1.00  0.00     0.060 A 
ATOM     34  C   UNL A   1      44.523  25.912  26.861  1.00  0.00     0.016 A 
ATOM     35  C   UNL A   1      43.372  24.142  28.003  1.00  0.00     0.016 A 
ATOM     36  C   UNL A   1      43.990  26.847  27.743  1.00  0.00     0.010 A 
ATOM     37  C   UNL A   1      42.765  25.095  28.836  1.00  0.00     0.010 A 
ATOM     38  C   UNL A   1      43.105  26.457  28.748  1.00  0.00    -0.014 A 
BRANCH  38  39
ATOM     39  C   UNL A   1      42.603  27.464  29.726  1.00  0.00     0.031 A 
ATOM     40  C   UNL A   1      43.378  27.745  30.989  1.00  0.00     0.074 A 
ATOM     41  C   UNL A   1      41.484  28.173  29.471  1.00  0.00     0.049 A 
ATOM     42  N   UNL A   1      43.016  28.420  32.051  1.00  0.00    -0.248 NA
ATOM     43  C   UNL A   1      44.743  27.196  31.069  1.00  0.00     0.031 C 
ATOM     44  C   UNL A   1      40.692  28.106  28.241  1.00  0.00     0.029 A 
ATOM     45  N   UNL A   1      40.822  29.104  30.235  1.00  0.00    -0.354 N 
ATOM     46  C   UNL A   1      44.074  28.320  32.948  1.00  0.00     0.074 A 
ATOM     47  C   UNL A   1      45.098  27.527  32.303  1.00  0.00     0.031 C 
ATOM     48  C   UNL A   1      39.681  28.981  28.315  1.00  0.00     0.029 A 
ATOM     49  C   UNL A   1      39.670  29.570  29.646  1.00  0.00     0.049 A 
ATOM     50  H   UNL A   1      41.141  29.408  31.115  1.00  0.00     0.167 HD
ATOM     51  C   UNL A   1      44.171  28.829  34.200  1.00  0.00     0.031 A 
ATOM     52  C   UNL A   1      38.668  30.321  30.140  1.00  0.00     0.031 A 
ATOM     53  C   UNL A   1      43.150  29.633  34.824  1.00  0.00     0.049 A 
ATOM     54  C   UNL A   1      38.740  30.773  31.570  1.00  0.00     0.074 A 
ATOM     55  C   UNL A   1      43.140  30.183  36.095  1.00  0.00     0.029 A 
ATOM     56  N   UNL A   1      41.959  30.007  34.219  1.00  0.00    -0.354 N 
ATOM     57  N   UNL A   1      39.702  30.599  32.442  1.00  0.00    -0.248 NA
ATOM     58  C   UNL A   1      37.577  31.505  32.087  1.00  0.00     0.031 C 
ATOM     59  C   UNL A   1      41.912  30.826  36.284  1.00  0.00     0.029 A 
ATOM     60  C   UNL A   1      41.192  30.750  35.102  1.00  0.00     0.049 A 
ATOM     61  H   UNL A   1      41.696  29.778  33.299  1.00  0.00     0.167 HD
ATOM     62  C   UNL A   1      39.273  31.222  33.606  1.00  0.00     0.074 A 
ATOM     63  C   UNL A   1      37.974  31.796  33.318  1.00  0.00     0.031 C 
ATOM     64  C   UNL A   1      39.899  31.311  34.805  1.00  0.00     0.031 A 
BRANCH  51  65
ATOM     65  C   UNL A   1      45.386  28.463  35.015  1.00  0.00    -0.014 A 
ATOM     66  C   UNL A   1      45.438  27.305  35.805  1.00  0.00     0.009 A 
ATOM     67  C   UNL A   1      46.520  29.291  34.958  1.00  0.00     0.009 A 
ATOM     68  C   UNL A   1      46.583  27.006  36.551  1.00  0.00     0.001 A 
ATOM     69  C   UNL A   1      47.674  28.973  35.677  1.00  0.00     0.001 A 
ATOM     70  C   UNL A   1      47.702  27.838  36.482  1.00  0.00     0.000 A 
ENDBRANCH  51  65
BRANCH  52  71
ATOM     71  C   UNL A   1      37.470  30.608  29.303  1.00  0.00    -0.014 A 
ATOM     72  C   UNL A   1      36.524  29.610  29.030  1.00  0.00     0.009 A 
ATOM     73  C   UNL A   1      37.268  31.893  28.768  1.00  0.00     0.009 A 
ATOM     74  C   UNL A   1      35.414  29.887  28.228  1.00  0.00     0.001 A 
ATOM     75  C   UNL A   1      36.136  32.179  28.004  1.00  0.00     0.001 A 
ATOM     76  C   UNL A   1      35.215  31.173  27.724  1.00  0.00     0.000 A 
ENDBRANCH  52  71
BRANCH  64  77
ATOM     77  C   UNL A   1      39.206  32.103  35.880  1.00  0.00    -0.014 A 
ATOM     78  C   UNL A   1      39.384  33.489  36.002  1.00  0.00     0.009 A 
ATOM     79  C   UNL A   1      38.344  31.446  36.772  1.00  0.00     0.009 A 
ATOM     80  C   UNL A   1      38.743  34.194  37.025  1.00  0.00     0.001 A 
ATOM     81  C   UNL A   1      37.677  32.159  37.769  1.00  0.00     0.001 A 
ATOM     82  C   UNL A   1      37.887  33.530  37.902  1.00  0.00     0.000 A 
ENDBRANCH  64  77
ENDBRANCH  38  39
ENDBRANCH  31  33
ENDBRANCH  30  31
ENDBRANCH  29  30
ENDBRANCH  28  29
ENDBRANCH  27  28
ENDBRANCH  26  27
ENDBRANCH   1  26
TORSDOF 22
ENDMDL
MODEL 2
REMARK VINA RESULT:      -9.1      2.008      8.958
REMARK SMILES COc1cccc(-c2ccc(C#N)c(SCC(=O)OCCOCCOCCOC(=O)c3ccc(-c4c5nc(c(-c6ccccc6)c6ccc([nH]6)c(-c6ccccc6)c6nc(c(-c7ccccc7)c7ccc4[nH]7)C=C6)C=C5)cc3)n2)c1
REMARK SMILES IDX 23 1 22 2 21 3 20 4 19 5 17 6 18 7 16 8 15 9 14 10 8 11 9 12
REMARK SMILES IDX 79 13 10 14 11 15 7 16 3 17 4 18 80 19 5 20 6 21 2 22 1 23
REMARK SMILES IDX 12 24 13 25 24 26 25 27 26 28 27 29 28 30 29 31 30 32 31 33
REMARK SMILES IDX 32 34 78 35 33 36 77 37 34 38 35 39 36 40 71 41 37 42 76 43
REMARK SMILES IDX 70 44 72 45 38 46 75 47 69 48 68 49 39 51 61 52 46 53 60 54
REMARK SMILES IDX 47 55 50 56 59 57 73 58 48 59 49 60 58 62 74 63 51 64 40 65
REMARK SMILES IDX 41 66 45 67 42 68 44 69 43 70 62 71 63 72 67 73 64 74 66 75
REMARK SMILES IDX 65 76 52 77 53 78 57 79 54 80 56 81 55 82
REMARK H PARENT 72 50 50 61
REMARK Flexibility Score: inf
ROOT
ATOM      1  C   UNL A   1      30.360  25.037  25.820  1.00  0.00     0.188 C 
ENDROOT
BRANCH   1   2
ATOM      2  O   UNL A   1      31.274  23.957  25.855  1.00  0.00    -0.376 OA
BRANCH   2   3
ATOM      3  C   UNL A   1      32.057  23.749  27.023  1.00  0.00     0.202 C 
BRANCH   3   4
ATOM      4  C   UNL A   1      33.168  22.681  27.014  1.00  0.00     0.261 C 
BRANCH   4   5
ATOM      5  O   UNL A   1      32.743  21.302  26.849  1.00  0.00    -0.463 OA
BRANCH   5   6
ATOM      6  C   UNL A   1      32.736  20.807  25.583  1.00  0.00     0.316 C 
ATOM      7  O   UNL A   1      32.099  19.804  25.262  1.00  0.00    -0.251 OA
BRANCH   6   8
ATOM      8  C   UNL A   1      33.627  21.510  24.565  1.00  0.00     0.199 C 
BRANCH   8   9
ATOM      9  S   UNL A   1      35.373  20.994  24.339  1.00  0.00    -0.093 SA
BRANCH   9  10
ATOM     10  C   UNL A   1      36.528  22.192  25.049  1.00  0.00     0.115 A 
ATOM     11  C   UNL A   1      38.624  22.273  26.171  1.00  0.00     0.072 A 
ATOM     12  C   UNL A   1      38.505  23.635  26.386  1.00  0.00     0.030 A 
ATOM     13  N   UNL A   1      37.663  21.562  25.515  1.00  0.00    -0.240 NA
ATOM     14  C   UNL A   1      37.421  24.291  25.837  1.00  0.00     0.024 A 
ATOM     15  C   UNL A   1      36.406  23.578  25.179  1.00  0.00     0.084 A 
BRANCH  11  16
ATOM     16  C   UNL A   1      39.928  21.662  26.473  1.00  0.00     0.004 A 
ATOM     17  C   UNL A   1      41.468  19.777  26.370  1.00  0.00     0.119 A 
ATOM     18  C   UNL A   1      42.070  20.193  27.558  1.00  0.00     0.046 A 
ATOM     19  C   UNL A   1      40.394  20.500  25.829  1.00  0.00     0.056 A 
ATOM     20  C   UNL A   1      41.649  21.359  28.185  1.00  0.00     0.005 A 
ATOM     21  C   UNL A   1      40.595  22.092  27.639  1.00  0.00     0.010 A 
BRANCH  17  22
ATOM     22  O   UNL A   1      41.920  18.578  25.885  1.00  0.00    -0.497 OA
ATOM     23  C   UNL A   1      43.042  18.050  26.581  1.00  0.00     0.278 C 
ENDBRANCH  17  22
ENDBRANCH  11  16
BRANCH  15  24
ATOM     24  C   UNL A   1      35.290  24.370  24.777  1.00  0.00     0.102 C 
ATOM     25  N   UNL A   1      34.397  25.072  24.563  1.00  0.00    -0.192 NA
ENDBRANCH  15  24
ENDBRANCH   9  10
ENDBRANCH   8   9
ENDBRANCH   6   8
ENDBRANCH   5   6
ENDBRANCH   4   5
ENDBRANCH   3   4
ENDBRANCH   2   3
ENDBRANCH   1   2
BRANCH   1  26
ATOM     26  C   UNL A   1      30.895  26.475  25.889  1.00  0.00     0.188 C 
BRANCH  26  27
ATOM     27  O   UNL A   1      30.851  27.226  24.710  1.00  0.00    -0.376 OA
BRANCH  27  28
ATOM     28  C   UNL A   1      31.360  28.543  24.707  1.00  0.00     0.202 C 
BRANCH  28  29
ATOM     29  C   UNL A   1      31.831  29.295  25.970  1.00  0.00     0.261 C 
BRANCH  29  30
ATOM     30  O   UNL A   1      32.923  30.222  25.842  1.00  0.00    -0.460 OA
BRANCH  30  31
ATOM     31  C   UNL A   1      33.266  30.897  26.965  1.00  0.00     0.338 C 
ATOM     32  O   UNL A   1      32.531  31.576  27.663  1.00  0.00    -0.246 OA
BRANCH  31  33
ATOM     33  C   UNL A   1      34.682  30.670  27.333  1.00  0.00     0.060 A 
ATOM     34  C   UNL A   1      35.169  29.375  27.492  1.00  0.00     0.016 A 
ATOM     35  C   UNL A   1      35.455  31.741  27.773  1.00  0.00     0.016 A 
ATOM     36  C   UNL A   1      36.351  29.135  28.184  1.00  0.00     0.010 A 
ATOM     37  C   UNL A   1      36.692  31.502  28.393  1.00  0.00     0.010 A 
ATOM     38  C   UNL A   1      37.133  30.192  28.650  1.00  0.00    -0.014 A 
BRANCH  38  39
ATOM     39  C   UNL A   1      38.358  29.912  29.453  1.00  0.00     0.031 A 
ATOM     40  C   UNL A   1      39.484  29.103  28.861  1.00  0.00     0.074 A 
ATOM     41  C   UNL A   1      38.498  30.423  30.694  1.00  0.00     0.049 A 
ATOM     42  N   UNL A   1      40.528  28.579  29.452  1.00  0.00    -0.248 NA
ATOM     43  C   UNL A   1      39.430  28.849  27.411  1.00  0.00     0.031 C 
ATOM     44  C   UNL A   1      37.555  31.324  31.359  1.00  0.00     0.029 A 
ATOM     45  N   UNL A   1      39.502  30.261  31.619  1.00  0.00    -0.354 N 
ATOM     46  C   UNL A   1      41.216  27.880  28.465  1.00  0.00     0.074 A 
ATOM     47  C   UNL A   1      40.476  28.053  27.234  1.00  0.00     0.031 C 
ATOM     48  C   UNL A   1      38.039  31.667  32.560  1.00  0.00     0.029 A 
ATOM     49  C   UNL A   1      39.254  30.904  32.808  1.00  0.00     0.049 A 
ATOM     50  H   UNL A   1      40.317  29.737  31.447  1.00  0.00     0.167 HD
ATOM     51  C   UNL A   1      42.350  27.147  28.584  1.00  0.00     0.031 A 
ATOM     52  C   UNL A   1      39.881  30.833  33.998  1.00  0.00     0.031 A 
ATOM     53  C   UNL A   1      43.087  26.997  29.814  1.00  0.00     0.049 A 
ATOM     54  C   UNL A   1      41.063  29.920  34.139  1.00  0.00     0.074 A 
ATOM     55  C   UNL A   1      44.237  26.262  30.048  1.00  0.00     0.029 A 
ATOM     56  N   UNL A   1      42.748  27.599  31.017  1.00  0.00    -0.354 N 
ATOM     57  N   UNL A   1      41.656  29.192  33.225  1.00  0.00    -0.248 NA
ATOM     58  C   UNL A   1      41.649  29.805  35.480  1.00  0.00     0.031 C 
ATOM     59  C   UNL A   1      44.550  26.361  31.407  1.00  0.00     0.029 A 
ATOM     60  C   UNL A   1      43.646  27.224  32.004  1.00  0.00     0.049 A 
ATOM     61  H   UNL A   1      41.982  28.202  31.151  1.00  0.00     0.167 HD
ATOM     62  C   UNL A   1      42.701  28.549  33.875  1.00  0.00     0.074 A 
ATOM     63  C   UNL A   1      42.672  28.993  35.253  1.00  0.00     0.031 C 
ATOM     64  C   UNL A   1      43.603  27.670  33.373  1.00  0.00     0.031 A 
BRANCH  51  65
ATOM     65  C   UNL A   1      42.820  26.379  27.375  1.00  0.00    -0.014 A 
ATOM     66  C   UNL A   1      42.316  25.111  27.049  1.00  0.00     0.009 A 
ATOM     67  C   UNL A   1      43.772  26.965  26.523  1.00  0.00     0.009 A 
ATOM     68  C   UNL A   1      42.785  24.430  25.920  1.00  0.00     0.001 A 
ATOM     69  C   UNL A   1      44.214  26.298  25.378  1.00  0.00     0.001 A 
ATOM     70  C   UNL A   1      43.729  25.027  25.083  1.00  0.00     0.000 A 
ENDBRANCH  51  65
BRANCH  52  71
ATOM     71  C   UNL A   1      39.340  31.576  35.170  1.00  0.00    -0.014 A 
ATOM     72  C   UNL A   1      38.352  31.011  35.989  1.00  0.00     0.009 A 
ATOM     73  C   UNL A   1      39.813  32.865  35.475  1.00  0.00     0.009 A 
ATOM     74  C   UNL A   1      37.839  31.726  37.075  1.00  0.00     0.001 A 
ATOM     75  C   UNL A   1      39.332  33.559  36.585  1.00  0.00     0.001 A 
ATOM     76  C   UNL A   1      38.336  32.994  37.379  1.00  0.00     0.000 A 
ENDBRANCH  52  71
BRANCH  64  77
ATOM     77  C   UNL A   1      44.666  27.173  34.314  1.00  0.00    -0.014 A 
ATOM     78  C   UNL A   1      45.929  27.781  34.385  1.00  0.00     0.009 A 
ATOM     79  C   UNL A   1      44.386  26.086  35.156  1.00  0.00     0.009 A 
ATOM     80  C   UNL A   1      46.903  27.282  35.254  1.00  0.00     0.001 A 
ATOM     81  C   UNL A   1      45.349  25.613  36.049  1.00  0.00     0.001 A 
ATOM     82  C   UNL A   1      46.610  26.203  36.088  1.00  0.00     0.000 A 
ENDBRANCH  64  77
ENDBRANCH  38  39
ENDBRANCH  31  33
ENDBRANCH  30  31
ENDBRANCH  29  30
ENDBRANCH  28  29
ENDBRANCH  27  28
ENDBRANCH  26  27
ENDBRANCH   1  26
TORSDOF 22
ENDMDL
MODEL 3
REMARK VINA RESULT:      -8.6      6.486     11.879
REMARK SMILES COc1cccc(-c2ccc(C#N)c(SCC(=O)OCCOCCOCCOC(=O)c3ccc(-c4c5nc(c(-c6ccccc6)c6ccc([nH]6)c(-c6ccccc6)c6nc(c(-c7ccccc7)c7ccc4[nH]7)C=C6)C=C5)cc3)n2)c1
REMARK SMILES IDX 23 1 22 2 21 3 20 4 19 5 17 6 18 7 16 8 15 9 14 10 8 11 9 12
REMARK SMILES IDX 79 13 10 14 11 15 7 16 3 17 4 18 80 19 5 20 6 21 2 22 1 23
REMARK SMILES IDX 12 24 13 25 24 26 25 27 26 28 27 29 28 30 29 31 30 32 31 33
REMARK SMILES IDX 32 34 78 35 33 36 77 37 34 38 35 39 36 40 71 41 37 42 76 43
REMARK SMILES IDX 70 44 72 45 38 46 75 47 69 48 68 49 39 51 61 52 46 53 60 54
REMARK SMILES IDX 47 55 50 56 59 57 73 58 48 59 49 60 58 62 74 63 51 64 40 65
REMARK SMILES IDX 41 66 45 67 42 68 44 69 43 70 62 71 63 72 67 73 64 74 66 75
REMARK SMILES IDX 65 76 52 77 53 78 57 79 54 80 56 81 55 82
REMARK H PARENT 72 50 50 61
REMARK Flexibility Score: inf
ROOT
ATOM      1  C   UNL A   1      39.956  27.641  29.814  1.00  0.00     0.188 C 
ENDROOT
BRANCH   1   2
ATOM      2  O   UNL A   1      38.594  27.997  29.958  1.00  0.00    -0.376 OA
BRANCH   2   3
ATOM      3  C   UNL A   1      38.146  29.245  29.445  1.00  0.00     0.202 C 
BRANCH   3   4
ATOM      4  C   UNL A   1      37.075  29.272  28.338  1.00  0.00     0.261 C 
BRANCH   4   5
ATOM      5  O   UNL A   1      36.718  30.576  27.808  1.00  0.00    -0.463 OA
BRANCH   5   6
ATOM      6  C   UNL A   1      35.601  31.162  28.314  1.00  0.00     0.316 C 
ATOM      7  O   UNL A   1      34.479  30.980  27.841  1.00  0.00    -0.251 OA
BRANCH   6   8
ATOM      8  C   UNL A   1      35.799  32.136  29.470  1.00  0.00     0.199 C 
BRANCH   8   9
ATOM      9  S   UNL A   1      34.574  33.464  29.791  1.00  0.00    -0.093 SA
BRANCH   9  10
ATOM     10  C   UNL A   1      34.758  34.166  31.449  1.00  0.00     0.115 A 
ATOM     11  C   UNL A   1      35.795  33.688  33.535  1.00  0.00     0.072 A 
ATOM     12  C   UNL A   1      35.187  34.775  34.137  1.00  0.00     0.030 A 
ATOM     13  N   UNL A   1      35.593  33.386  32.222  1.00  0.00    -0.240 NA
ATOM     14  C   UNL A   1      34.429  35.619  33.348  1.00  0.00     0.024 A 
ATOM     15  C   UNL A   1      34.186  35.316  31.998  1.00  0.00     0.084 A 
BRANCH  11  16
ATOM     16  C   UNL A   1      36.847  33.004  34.305  1.00  0.00     0.004 A 
ATOM     17  C   UNL A   1      38.139  31.006  34.828  1.00  0.00     0.119 A 
ATOM     18  C   UNL A   1      38.322  31.457  36.136  1.00  0.00     0.046 A 
ATOM     19  C   UNL A   1      37.397  31.769  33.914  1.00  0.00     0.056 A 
ATOM     20  C   UNL A   1      37.820  32.692  36.527  1.00  0.00     0.005 A 
ATOM     21  C   UNL A   1      37.100  33.462  35.615  1.00  0.00     0.010 A 
BRANCH  17  22
ATOM     22  O   UNL A   1      38.618  29.746  34.582  1.00  0.00    -0.497 OA
ATOM     23  C   UNL A   1      39.034  29.530  33.239  1.00  0.00     0.278 C 
ENDBRANCH  17  22
ENDBRANCH  11  16
BRANCH  15  24
ATOM     24  C   UNL A   1      33.284  36.207  31.344  1.00  0.00     0.102 C 
ATOM     25  N   UNL A   1      32.511  36.828  30.750  1.00  0.00    -0.192 NA
ENDBRANCH  15  24
ENDBRANCH   9  10
ENDBRANCH   8   9
ENDBRANCH   6   8
ENDBRANCH   5   6
ENDBRANCH   4   5
ENDBRANCH   3   4
ENDBRANCH   2   3
ENDBRANCH   1   2
BRANCH   1  26
ATOM     26  C   UNL A   1      40.381  26.764  28.626  1.00  0.00     0.188 C 
BRANCH  26  27
ATOM     27  O   UNL A   1      39.359  26.203  27.854  1.00  0.00    -0.376 OA
BRANCH  27  28
ATOM     28  C   UNL A   1      39.246  24.798  27.770  1.00  0.00     0.202 C 
BRANCH  28  29
ATOM     29  C   UNL A   1      39.957  23.931  26.709  1.00  0.00     0.261 C 
BRANCH  29  30
ATOM     30  O   UNL A   1      41.218  23.332  27.055  1.00  0.00    -0.460 OA
BRANCH  30  31
ATOM     31  C   UNL A   1      42.225  23.512  26.166  1.00  0.00     0.338 C 
ATOM     32  O   UNL A   1      42.549  22.756  25.266  1.00  0.00    -0.246 OA
BRANCH  31  33
ATOM     33  C   UNL A   1      42.897  24.819  26.352  1.00  0.00     0.060 A 
ATOM     34  C   UNL A   1      43.222  25.605  25.249  1.00  0.00     0.016 A 
ATOM     35  C   UNL A   1      43.434  25.142  27.595  1.00  0.00     0.016 A 
ATOM     36  C   UNL A   1      44.161  26.626  25.352  1.00  0.00     0.010 A 
ATOM     37  C   UNL A   1      44.313  26.230  27.714  1.00  0.00     0.010 A 
ATOM     38  C   UNL A   1      44.726  26.956  26.584  1.00  0.00    -0.014 A 
BRANCH  38  39
ATOM     39  C   UNL A   1      45.784  28.004  26.658  1.00  0.00     0.031 A 
ATOM     40  C   UNL A   1      45.404  29.454  26.823  1.00  0.00     0.074 A 
ATOM     41  C   UNL A   1      47.090  27.666  26.634  1.00  0.00     0.049 A 
ATOM     42  N   UNL A   1      46.149  30.525  26.703  1.00  0.00    -0.248 NA
ATOM     43  C   UNL A   1      44.002  29.740  27.171  1.00  0.00     0.031 C 
ATOM     44  C   UNL A   1      47.619  26.300  26.602  1.00  0.00     0.029 A 
ATOM     45  N   UNL A   1      48.217  28.452  26.643  1.00  0.00    -0.354 N 
ATOM     46  C   UNL A   1      45.296  31.607  26.891  1.00  0.00     0.074 A 
ATOM     47  C   UNL A   1      43.978  31.065  27.143  1.00  0.00     0.031 C 
ATOM     48  C   UNL A   1      48.958  26.342  26.635  1.00  0.00     0.029 A 
ATOM     49  C   UNL A   1      49.384  27.731  26.550  1.00  0.00     0.049 A 
ATOM     50  H   UNL A   1      48.193  29.434  26.709  1.00  0.00     0.167 HD
ATOM     51  C   UNL A   1      45.586  32.930  26.839  1.00  0.00     0.031 A 
ATOM     52  C   UNL A   1      50.653  28.128  26.337  1.00  0.00     0.031 A 
ATOM     53  C   UNL A   1      46.907  33.457  26.605  1.00  0.00     0.049 A 
ATOM     54  C   UNL A   1      50.933  29.591  26.161  1.00  0.00     0.074 A 
ATOM     55  C   UNL A   1      47.307  34.779  26.514  1.00  0.00     0.029 A 
ATOM     56  N   UNL A   1      48.046  32.684  26.429  1.00  0.00    -0.354 N 
ATOM     57  N   UNL A   1      50.108  30.605  26.251  1.00  0.00    -0.248 NA
ATOM     58  C   UNL A   1      52.315  29.962  25.835  1.00  0.00     0.031 C 
ATOM     59  C   UNL A   1      48.672  34.804  26.211  1.00  0.00     0.029 A 
ATOM     60  C   UNL A   1      49.141  33.500  26.195  1.00  0.00     0.049 A 
ATOM     61  H   UNL A   1      48.073  31.701  26.463  1.00  0.00     0.167 HD
ATOM     62  C   UNL A   1      50.875  31.738  26.016  1.00  0.00     0.074 A 
ATOM     63  C   UNL A   1      52.234  31.285  25.803  1.00  0.00     0.031 C 
ATOM     64  C   UNL A   1      50.487  33.036  25.980  1.00  0.00     0.031 A 
BRANCH  51  65
ATOM     65  C   UNL A   1      44.442  33.905  26.954  1.00  0.00    -0.014 A 
ATOM     66  C   UNL A   1      43.997  34.398  28.191  1.00  0.00     0.009 A 
ATOM     67  C   UNL A   1      43.816  34.365  25.782  1.00  0.00     0.009 A 
ATOM     68  C   UNL A   1      42.927  35.296  28.253  1.00  0.00     0.001 A 
ATOM     69  C   UNL A   1      42.770  35.288  25.844  1.00  0.00     0.001 A 
ATOM     70  C   UNL A   1      42.318  35.744  27.080  1.00  0.00     0.000 A 
ENDBRANCH  51  65
BRANCH  52  71
ATOM     71  C   UNL A   1      51.734  27.114  26.182  1.00  0.00    -0.014 A 
ATOM     72  C   UNL A   1      52.454  26.651  27.292  1.00  0.00     0.009 A 
ATOM     73  C   UNL A   1      52.053  26.605  24.910  1.00  0.00     0.009 A 
ATOM     74  C   UNL A   1      53.478  25.714  27.131  1.00  0.00     0.001 A 
ATOM     75  C   UNL A   1      53.046  25.637  24.757  1.00  0.00     0.001 A 
ATOM     76  C   UNL A   1      53.766  25.200  25.866  1.00  0.00     0.000 A 
ENDBRANCH  52  71
BRANCH  64  77
ATOM     77  C   UNL A   1      51.563  34.063  25.752  1.00  0.00    -0.014 A 
ATOM     78  C   UNL A   1      52.270  34.638  26.819  1.00  0.00     0.009 A 
ATOM     79  C   UNL A   1      51.884  34.444  24.440  1.00  0.00     0.009 A 
ATOM     80  C   UNL A   1      53.248  35.605  26.576  1.00  0.00     0.001 A 
ATOM     81  C   UNL A   1      52.888  35.383  24.199  1.00  0.00     0.001 A 
ATOM     82  C   UNL A   1      53.560  35.972  25.268  1.00  0.00     0.000 A 
ENDBRANCH  64  77
ENDBRANCH  38  39
ENDBRANCH  31  33
ENDBRANCH  30  31
ENDBRANCH  29  30
ENDBRANCH  28  29
ENDBRANCH  27  28
ENDBRANCH  26  27
ENDBRANCH   1  26
TORSDOF 22
ENDMDL
