MODEL 1
REMARK VINA RESULT:     -10.4      0.000      0.000
REMARK SMILES CC(=O)N1[C@@H](c2c(F)cccc2Cl)SC[C@H]1C(=O)OCCOCCOCCOC(=O)c1ccc(-c2c3nc(c(-c4ccccc4)c4ccc([nH]4)c(-c4ccccc4)c4nc(c(-c5ccccc5)c5ccc2[nH]5)C=C4)C=C3)cc1
REMARK SMILES IDX 24 1 23 2 22 3 21 4 20 5 19 6 17 7 18 8 16 9 4 10 5 11 14 12
REMARK SMILES IDX 15 13 2 14 1 15 3 16 6 17 7 18 12 19 8 20 9 21 11 22 13 23
REMARK SMILES IDX 10 24 25 25 26 26 27 27 28 28 29 29 30 30 31 31 32 32 78 33
REMARK SMILES IDX 33 34 77 35 34 36 35 37 36 38 71 39 37 40 76 41 70 42 72 43
REMARK SMILES IDX 38 44 75 45 69 46 68 47 39 49 61 50 46 51 60 52 47 53 50 54
REMARK SMILES IDX 59 55 73 56 48 57 49 58 58 60 74 61 51 62 40 63 41 64 45 65
REMARK SMILES IDX 42 66 44 67 43 68 62 69 63 70 67 71 64 72 66 73 65 74 52 75
REMARK SMILES IDX 53 76 57 77 54 78 56 79 55 80
REMARK H PARENT 72 48 50 59
REMARK Flexibility Score: inf
ROOT
ATOM      1  C   UNL A   1      33.594  22.299  27.779  1.00  0.00     0.188 C 
ENDROOT
BRANCH   1   2
ATOM      2  C   UNL A   1      32.398  22.628  26.865  1.00  0.00     0.188 C 
BRANCH   2   3
ATOM      3  O   UNL A   1      31.488  23.646  27.280  1.00  0.00    -0.376 OA
BRANCH   3   4
ATOM      4  C   UNL A   1      31.434  24.856  26.530  1.00  0.00     0.202 C 
BRANCH   4   5
ATOM      5  C   UNL A   1      30.056  25.297  26.029  1.00  0.00     0.261 C 
BRANCH   5   6
ATOM      6  O   UNL A   1      30.107  26.254  24.947  1.00  0.00    -0.462 OA
BRANCH   6   7
ATOM      7  C   UNL A   1      30.380  25.760  23.712  1.00  0.00     0.329 C 
ATOM      8  O   UNL A   1      30.324  24.565  23.433  1.00  0.00    -0.250 OA
BRANCH   7   9
ATOM      9  C   UNL A   1      30.741  26.820  22.640  1.00  0.00     0.206 C 
ATOM     10  N   UNL A   1      30.785  28.287  22.862  1.00  0.00    -0.312 N 
ATOM     11  C   UNL A   1      32.108  28.792  23.248  1.00  0.00     0.179 C 
ATOM     12  S   UNL A   1      33.276  27.745  22.314  1.00  0.00    -0.129 SA
ATOM     13  C   UNL A   1      32.059  26.432  21.965  1.00  0.00     0.109 C 
BRANCH  10  14
ATOM     14  C   UNL A   1      29.759  29.050  22.323  1.00  0.00     0.221 C 
ATOM     15  C   UNL A   1      28.365  28.971  22.893  1.00  0.00     0.114 C 
ATOM     16  O   UNL A   1      29.964  29.839  21.396  1.00  0.00    -0.275 OA
ENDBRANCH  10  14
BRANCH  11  17
ATOM     17  C   UNL A   1      32.363  28.832  24.748  1.00  0.00     0.039 A 
ATOM     18  C   UNL A   1      31.754  29.792  25.575  1.00  0.00     0.130 A 
ATOM     19  C   UNL A   1      33.226  27.931  25.403  1.00  0.00     0.050 A 
ATOM     20  F   UNL A   1      30.845  30.642  25.081  1.00  0.00    -0.207 F 
ATOM     21  C   UNL A   1      32.040  29.921  26.935  1.00  0.00     0.040 A 
ATOM     22  C   UNL A   1      33.524  28.058  26.773  1.00  0.00     0.021 A 
ATOM     23  Cl  UNL A   1      33.924  26.550  24.633  1.00  0.00    -0.084 Cl
ATOM     24  C   UNL A   1      32.945  29.063  27.536  1.00  0.00     0.005 A 
ENDBRANCH  11  17
ENDBRANCH   7   9
ENDBRANCH   6   7
ENDBRANCH   5   6
ENDBRANCH   4   5
ENDBRANCH   3   4
ENDBRANCH   2   3
ENDBRANCH   1   2
BRANCH   1  25
ATOM     25  O   UNL A   1      34.847  22.520  27.165  1.00  0.00    -0.376 OA
BRANCH  25  26
ATOM     26  C   UNL A   1      34.985  22.106  25.822  1.00  0.00     0.202 C 
BRANCH  26  27
ATOM     27  C   UNL A   1      36.106  21.102  25.519  1.00  0.00     0.261 C 
BRANCH  27  28
ATOM     28  O   UNL A   1      37.361  21.648  25.072  1.00  0.00    -0.460 OA
BRANCH  28  29
ATOM     29  C   UNL A   1      38.482  21.254  25.711  1.00  0.00     0.338 C 
ATOM     30  O   UNL A   1      38.972  20.129  25.704  1.00  0.00    -0.246 OA
BRANCH  29  31
ATOM     31  C   UNL A   1      39.137  22.451  26.280  1.00  0.00     0.060 A 
ATOM     32  C   UNL A   1      38.616  23.720  25.997  1.00  0.00     0.016 A 
ATOM     33  C   UNL A   1      40.263  22.325  27.096  1.00  0.00     0.016 A 
ATOM     34  C   UNL A   1      39.229  24.868  26.507  1.00  0.00     0.010 A 
ATOM     35  C   UNL A   1      40.890  23.476  27.587  1.00  0.00     0.010 A 
ATOM     36  C   UNL A   1      40.394  24.757  27.274  1.00  0.00    -0.014 A 
BRANCH  36  37
ATOM     37  C   UNL A   1      41.198  25.965  27.604  1.00  0.00     0.031 A 
ATOM     38  C   UNL A   1      40.589  27.006  28.506  1.00  0.00     0.074 A 
ATOM     39  C   UNL A   1      42.441  26.143  27.121  1.00  0.00     0.049 A 
ATOM     40  N   UNL A   1      41.046  28.185  28.843  1.00  0.00    -0.248 NA
ATOM     41  C   UNL A   1      39.286  26.672  29.105  1.00  0.00     0.031 C 
ATOM     42  C   UNL A   1      43.180  25.190  26.295  1.00  0.00     0.029 A 
ATOM     43  N   UNL A   1      43.303  27.207  27.256  1.00  0.00    -0.354 N 
ATOM     44  C   UNL A   1      40.073  28.745  29.663  1.00  0.00     0.074 A 
ATOM     45  C   UNL A   1      38.998  27.783  29.767  1.00  0.00     0.031 C 
ATOM     46  C   UNL A   1      44.378  25.717  25.987  1.00  0.00     0.029 A 
ATOM     47  C   UNL A   1      44.475  27.060  26.552  1.00  0.00     0.049 A 
ATOM     48  H   UNL A   1      43.099  27.999  27.805  1.00  0.00     0.167 HD
ATOM     49  C   UNL A   1      40.071  29.954  30.273  1.00  0.00     0.031 A 
ATOM     50  C   UNL A   1      45.491  27.927  26.361  1.00  0.00     0.031 A 
ATOM     51  C   UNL A   1      41.144  30.909  30.183  1.00  0.00     0.049 A 
ATOM     52  C   UNL A   1      45.426  29.297  26.987  1.00  0.00     0.074 A 
ATOM     53  C   UNL A   1      41.245  32.147  30.793  1.00  0.00     0.029 A 
ATOM     54  N   UNL A   1      42.295  30.734  29.434  1.00  0.00    -0.354 N 
ATOM     55  N   UNL A   1      44.512  29.806  27.778  1.00  0.00    -0.248 NA
ATOM     56  C   UNL A   1      46.539  30.215  26.692  1.00  0.00     0.031 C 
ATOM     57  C   UNL A   1      42.430  32.750  30.360  1.00  0.00     0.029 A 
ATOM     58  C   UNL A   1      43.097  31.857  29.537  1.00  0.00     0.049 A 
ATOM     59  H   UNL A   1      42.512  29.931  28.907  1.00  0.00     0.167 HD
ATOM     60  C   UNL A   1      44.959  31.083  28.102  1.00  0.00     0.074 A 
ATOM     61  C   UNL A   1      46.230  31.266  27.436  1.00  0.00     0.031 C 
ATOM     62  C   UNL A   1      44.368  32.022  28.882  1.00  0.00     0.031 A 
BRANCH  49  63
ATOM     63  C   UNL A   1      38.849  30.343  31.055  1.00  0.00    -0.014 A 
ATOM     64  C   UNL A   1      37.769  31.007  30.455  1.00  0.00     0.009 A 
ATOM     65  C   UNL A   1      38.758  29.981  32.410  1.00  0.00     0.009 A 
ATOM     66  C   UNL A   1      36.631  31.321  31.202  1.00  0.00     0.001 A 
ATOM     67  C   UNL A   1      37.609  30.271  33.146  1.00  0.00     0.001 A 
ATOM     68  C   UNL A   1      36.549  30.946  32.544  1.00  0.00     0.000 A 
ENDBRANCH  49  63
BRANCH  50  69
ATOM     69  C   UNL A   1      46.649  27.559  25.498  1.00  0.00    -0.014 A 
ATOM     70  C   UNL A   1      46.678  27.920  24.141  1.00  0.00     0.009 A 
ATOM     71  C   UNL A   1      47.700  26.783  26.011  1.00  0.00     0.009 A 
ATOM     72  C   UNL A   1      47.711  27.476  23.311  1.00  0.00     0.001 A 
ATOM     73  C   UNL A   1      48.750  26.372  25.187  1.00  0.00     0.001 A 
ATOM     74  C   UNL A   1      48.747  26.706  23.834  1.00  0.00     0.000 A 
ENDBRANCH  50  69
BRANCH  62  75
ATOM     75  C   UNL A   1      45.112  33.310  29.107  1.00  0.00    -0.014 A 
ATOM     76  C   UNL A   1      44.962  34.406  28.245  1.00  0.00     0.009 A 
ATOM     77  C   UNL A   1      45.944  33.439  30.231  1.00  0.00     0.009 A 
ATOM     78  C   UNL A   1      45.657  35.594  28.485  1.00  0.00     0.001 A 
ATOM     79  C   UNL A   1      46.611  34.637  30.488  1.00  0.00     0.001 A 
ATOM     80  C   UNL A   1      46.476  35.710  29.608  1.00  0.00     0.000 A 
ENDBRANCH  62  75
ENDBRANCH  36  37
ENDBRANCH  29  31
ENDBRANCH  28  29
ENDBRANCH  27  28
ENDBRANCH  26  27
ENDBRANCH  25  26
ENDBRANCH   1  25
TORSDOF 19
ENDMDL
MODEL 2
REMARK VINA RESULT:     -10.4      2.874      6.228
REMARK SMILES CC(=O)N1[C@@H](c2c(F)cccc2Cl)SC[C@H]1C(=O)OCCOCCOCCOC(=O)c1ccc(-c2c3nc(c(-c4ccccc4)c4ccc([nH]4)c(-c4ccccc4)c4nc(c(-c5ccccc5)c5ccc2[nH]5)C=C4)C=C3)cc1
REMARK SMILES IDX 24 1 23 2 22 3 21 4 20 5 19 6 17 7 18 8 16 9 4 10 5 11 14 12
REMARK SMILES IDX 15 13 2 14 1 15 3 16 6 17 7 18 12 19 8 20 9 21 11 22 13 23
REMARK SMILES IDX 10 24 25 25 26 26 27 27 28 28 29 29 30 30 31 31 32 32 78 33
REMARK SMILES IDX 33 34 77 35 34 36 35 37 36 38 71 39 37 40 76 41 70 42 72 43
REMARK SMILES IDX 38 44 75 45 69 46 68 47 39 49 61 50 46 51 60 52 47 53 50 54
REMARK SMILES IDX 59 55 73 56 48 57 49 58 58 60 74 61 51 62 40 63 41 64 45 65
REMARK SMILES IDX 42 66 44 67 43 68 62 69 63 70 67 71 64 72 66 73 65 74 52 75
REMARK SMILES IDX 53 76 57 77 54 78 56 79 55 80
REMARK H PARENT 72 48 50 59
REMARK Flexibility Score: inf
ROOT
ATOM      1  C   UNL A   1      33.852  21.221  24.480  1.00  0.00     0.188 C 
ENDROOT
BRANCH   1   2
ATOM      2  C   UNL A   1      32.328  21.023  24.373  1.00  0.00     0.188 C 
BRANCH   2   3
ATOM      3  O   UNL A   1      31.546  21.138  25.561  1.00  0.00    -0.376 OA
BRANCH   3   4
ATOM      4  C   UNL A   1      30.949  22.396  25.863  1.00  0.00     0.202 C 
BRANCH   4   5
ATOM      5  C   UNL A   1      31.709  23.305  26.834  1.00  0.00     0.261 C 
BRANCH   5   6
ATOM      6  O   UNL A   1      32.135  24.556  26.249  1.00  0.00    -0.462 OA
BRANCH   6   7
ATOM      7  C   UNL A   1      31.157  25.446  25.940  1.00  0.00     0.329 C 
ATOM      8  O   UNL A   1      30.370  25.902  26.767  1.00  0.00    -0.250 OA
BRANCH   7   9
ATOM      9  C   UNL A   1      31.111  25.892  24.456  1.00  0.00     0.206 C 
ATOM     10  N   UNL A   1      30.796  27.261  23.979  1.00  0.00    -0.312 N 
ATOM     11  C   UNL A   1      31.976  28.114  23.794  1.00  0.00     0.179 C 
ATOM     12  S   UNL A   1      33.267  26.969  23.200  1.00  0.00    -0.129 SA
ATOM     13  C   UNL A   1      32.403  25.462  23.756  1.00  0.00     0.109 C 
BRANCH  10  14
ATOM     14  C   UNL A   1      29.555  27.470  23.395  1.00  0.00     0.221 C 
ATOM     15  C   UNL A   1      28.371  26.622  23.788  1.00  0.00     0.114 C 
ATOM     16  O   UNL A   1      29.375  28.373  22.572  1.00  0.00    -0.275 OA
ENDBRANCH  10  14
BRANCH  11  17
ATOM     17  C   UNL A   1      32.375  28.926  25.019  1.00  0.00     0.039 A 
ATOM     18  C   UNL A   1      33.474  28.566  25.817  1.00  0.00     0.130 A 
ATOM     19  C   UNL A   1      31.673  30.073  25.440  1.00  0.00     0.050 A 
ATOM     20  F   UNL A   1      34.271  27.548  25.465  1.00  0.00    -0.207 F 
ATOM     21  C   UNL A   1      33.810  29.227  27.000  1.00  0.00     0.040 A 
ATOM     22  C   UNL A   1      32.001  30.742  26.634  1.00  0.00     0.021 A 
ATOM     23  Cl  UNL A   1      30.420  30.818  24.511  1.00  0.00    -0.084 Cl
ATOM     24  C   UNL A   1      33.058  30.309  27.424  1.00  0.00     0.005 A 
ENDBRANCH  11  17
ENDBRANCH   7   9
ENDBRANCH   6   7
ENDBRANCH   5   6
ENDBRANCH   4   5
ENDBRANCH   3   4
ENDBRANCH   2   3
ENDBRANCH   1   2
BRANCH   1  25
ATOM     25  O   UNL A   1      34.234  22.574  24.622  1.00  0.00    -0.376 OA
BRANCH  25  26
ATOM     26  C   UNL A   1      35.504  22.938  24.123  1.00  0.00     0.202 C 
BRANCH  26  27
ATOM     27  C   UNL A   1      36.725  22.425  24.899  1.00  0.00     0.261 C 
BRANCH  27  28
ATOM     28  O   UNL A   1      37.719  23.401  25.261  1.00  0.00    -0.460 OA
BRANCH  28  29
ATOM     29  C   UNL A   1      38.732  23.003  26.057  1.00  0.00     0.338 C 
ATOM     30  O   UNL A   1      39.229  21.881  26.106  1.00  0.00    -0.246 OA
BRANCH  29  31
ATOM     31  C   UNL A   1      39.280  24.193  26.742  1.00  0.00     0.060 A 
ATOM     32  C   UNL A   1      38.913  24.453  28.068  1.00  0.00     0.016 A 
ATOM     33  C   UNL A   1      40.158  25.053  26.080  1.00  0.00     0.016 A 
ATOM     34  C   UNL A   1      39.402  25.582  28.732  1.00  0.00     0.010 A 
ATOM     35  C   UNL A   1      40.629  26.197  26.737  1.00  0.00     0.010 A 
ATOM     36  C   UNL A   1      40.233  26.484  28.057  1.00  0.00    -0.014 A 
BRANCH  36  37
ATOM     37  C   UNL A   1      40.549  27.809  28.655  1.00  0.00     0.031 A 
ATOM     38  C   UNL A   1      41.927  28.029  29.222  1.00  0.00     0.074 A 
ATOM     39  C   UNL A   1      39.643  28.803  28.696  1.00  0.00     0.049 A 
ATOM     40  N   UNL A   1      42.400  29.051  29.890  1.00  0.00    -0.248 NA
ATOM     41  C   UNL A   1      42.902  26.946  29.011  1.00  0.00     0.031 C 
ATOM     42  C   UNL A   1      38.297  28.755  28.127  1.00  0.00     0.029 A 
ATOM     43  N   UNL A   1      39.724  30.056  29.258  1.00  0.00    -0.354 N 
ATOM     44  C   UNL A   1      43.712  28.719  30.207  1.00  0.00     0.074 A 
ATOM     45  C   UNL A   1      43.960  27.401  29.667  1.00  0.00     0.031 C 
ATOM     46  C   UNL A   1      37.675  29.920  28.378  1.00  0.00     0.029 A 
ATOM     47  C   UNL A   1      38.557  30.778  29.166  1.00  0.00     0.049 A 
ATOM     48  H   UNL A   1      40.539  30.403  29.687  1.00  0.00     0.167 HD
ATOM     49  C   UNL A   1      44.629  29.446  30.889  1.00  0.00     0.031 A 
ATOM     50  C   UNL A   1      38.231  31.979  29.687  1.00  0.00     0.031 A 
ATOM     51  C   UNL A   1      44.391  30.763  31.415  1.00  0.00     0.049 A 
ATOM     52  C   UNL A   1      39.246  32.731  30.511  1.00  0.00     0.074 A 
ATOM     53  C   UNL A   1      45.270  31.590  32.092  1.00  0.00     0.029 A 
ATOM     54  N   UNL A   1      43.187  31.442  31.328  1.00  0.00    -0.354 N 
ATOM     55  N   UNL A   1      40.490  32.418  30.784  1.00  0.00    -0.248 NA
ATOM     56  C   UNL A   1      38.809  34.007  31.099  1.00  0.00     0.031 C 
ATOM     57  C   UNL A   1      44.578  32.743  32.474  1.00  0.00     0.029 A 
ATOM     58  C   UNL A   1      43.289  32.663  31.971  1.00  0.00     0.049 A 
ATOM     59  H   UNL A   1      42.379  31.107  30.876  1.00  0.00     0.167 HD
ATOM     60  C   UNL A   1      40.990  33.472  31.541  1.00  0.00     0.074 A 
ATOM     61  C   UNL A   1      39.923  34.440  31.671  1.00  0.00     0.031 C 
ATOM     62  C   UNL A   1      42.224  33.625  32.081  1.00  0.00     0.031 A 
BRANCH  49  63
ATOM     63  C   UNL A   1      45.966  28.815  31.154  1.00  0.00    -0.014 A 
ATOM     64  C   UNL A   1      46.179  27.972  32.255  1.00  0.00     0.009 A 
ATOM     65  C   UNL A   1      47.016  29.025  30.245  1.00  0.00     0.009 A 
ATOM     66  C   UNL A   1      47.425  27.372  32.453  1.00  0.00     0.001 A 
ATOM     67  C   UNL A   1      48.250  28.401  30.429  1.00  0.00     0.001 A 
ATOM     68  C   UNL A   1      48.456  27.580  31.536  1.00  0.00     0.000 A 
ENDBRANCH  49  63
BRANCH  50  69
ATOM     69  C   UNL A   1      36.865  32.543  29.498  1.00  0.00    -0.014 A 
ATOM     70  C   UNL A   1      35.846  32.286  30.429  1.00  0.00     0.009 A 
ATOM     71  C   UNL A   1      36.554  33.283  28.346  1.00  0.00     0.009 A 
ATOM     72  C   UNL A   1      34.539  32.722  30.189  1.00  0.00     0.001 A 
ATOM     73  C   UNL A   1      35.257  33.749  28.127  1.00  0.00     0.001 A 
ATOM     74  C   UNL A   1      34.246  33.456  29.042  1.00  0.00     0.000 A 
ENDBRANCH  50  69
BRANCH  62  75
ATOM     75  C   UNL A   1      42.510  34.908  32.813  1.00  0.00    -0.014 A 
ATOM     76  C   UNL A   1      43.214  35.959  32.207  1.00  0.00     0.009 A 
ATOM     77  C   UNL A   1      42.023  35.081  34.119  1.00  0.00     0.009 A 
ATOM     78  C   UNL A   1      43.456  37.144  32.907  1.00  0.00     0.001 A 
ATOM     79  C   UNL A   1      42.236  36.278  34.804  1.00  0.00     0.001 A 
ATOM     80  C   UNL A   1      42.961  37.304  34.202  1.00  0.00     0.000 A 
ENDBRANCH  62  75
ENDBRANCH  36  37
ENDBRANCH  29  31
ENDBRANCH  28  29
ENDBRANCH  27  28
ENDBRANCH  26  27
ENDBRANCH  25  26
ENDBRANCH   1  25
TORSDOF 19
ENDMDL
MODEL 3
REMARK VINA RESULT:     -10.3      3.629      7.396
REMARK SMILES CC(=O)N1[C@@H](c2c(F)cccc2Cl)SC[C@H]1C(=O)OCCOCCOCCOC(=O)c1ccc(-c2c3nc(c(-c4ccccc4)c4ccc([nH]4)c(-c4ccccc4)c4nc(c(-c5ccccc5)c5ccc2[nH]5)C=C4)C=C3)cc1
REMARK SMILES IDX 24 1 23 2 22 3 21 4 20 5 19 6 17 7 18 8 16 9 4 10 5 11 14 12
REMARK SMILES IDX 15 13 2 14 1 15 3 16 6 17 7 18 12 19 8 20 9 21 11 22 13 23
REMARK SMILES IDX 10 24 25 25 26 26 27 27 28 28 29 29 30 30 31 31 32 32 78 33
REMARK SMILES IDX 33 34 77 35 34 36 35 37 36 38 71 39 37 40 76 41 70 42 72 43
REMARK SMILES IDX 38 44 75 45 69 46 68 47 39 49 61 50 46 51 60 52 47 53 50 54
REMARK SMILES IDX 59 55 73 56 48 57 49 58 58 60 74 61 51 62 40 63 41 64 45 65
REMARK SMILES IDX 42 66 44 67 43 68 62 69 63 70 67 71 64 72 66 73 65 74 52 75
REMARK SMILES IDX 53 76 57 77 54 78 56 79 55 80
REMARK H PARENT 72 48 50 59
REMARK Flexibility Score: inf
ROOT
ATOM      1  C   UNL A   1      40.703  20.356  26.717  1.00  0.00     0.188 C 
ENDROOT
BRANCH   1   2
ATOM      2  C   UNL A   1      39.683  21.477  26.444  1.00  0.00     0.188 C 
BRANCH   2   3
ATOM      3  O   UNL A   1      38.933  21.429  25.231  1.00  0.00    -0.376 OA
BRANCH   3   4
ATOM      4  C   UNL A   1      37.514  21.335  25.312  1.00  0.00     0.202 C 
BRANCH   4   5
ATOM      5  C   UNL A   1      36.749  22.638  25.566  1.00  0.00     0.261 C 
BRANCH   5   6
ATOM      6  O   UNL A   1      35.659  22.863  24.644  1.00  0.00    -0.462 OA
BRANCH   6   7
ATOM      7  C   UNL A   1      34.797  23.864  24.957  1.00  0.00     0.329 C 
ATOM      8  O   UNL A   1      35.153  25.012  25.209  1.00  0.00    -0.250 OA
BRANCH   7   9
ATOM      9  C   UNL A   1      33.296  23.473  24.942  1.00  0.00     0.206 C 
ATOM     10  N   UNL A   1      32.212  24.198  25.651  1.00  0.00    -0.312 N 
ATOM     11  C   UNL A   1      31.552  25.226  24.838  1.00  0.00     0.179 C 
ATOM     12  S   UNL A   1      31.542  24.525  23.152  1.00  0.00    -0.129 SA
ATOM     13  C   UNL A   1      32.833  23.283  23.495  1.00  0.00     0.109 C 
BRANCH  10  14
ATOM     14  C   UNL A   1      31.678  23.606  26.787  1.00  0.00     0.221 C 
ATOM     15  C   UNL A   1      32.496  22.637  27.603  1.00  0.00     0.114 C 
ATOM     16  O   UNL A   1      30.541  23.883  27.181  1.00  0.00    -0.275 OA
ENDBRANCH  10  14
BRANCH  11  17
ATOM     17  C   UNL A   1      32.172  26.612  24.936  1.00  0.00     0.039 A 
ATOM     18  C   UNL A   1      32.010  27.414  26.079  1.00  0.00     0.130 A 
ATOM     19  C   UNL A   1      32.931  27.188  23.898  1.00  0.00     0.050 A 
ATOM     20  F   UNL A   1      31.385  26.939  27.165  1.00  0.00    -0.207 F 
ATOM     21  C   UNL A   1      32.479  28.726  26.166  1.00  0.00     0.040 A 
ATOM     22  C   UNL A   1      33.403  28.512  23.975  1.00  0.00     0.021 A 
ATOM     23  Cl  UNL A   1      33.431  26.320  22.489  1.00  0.00    -0.084 Cl
ATOM     24  C   UNL A   1      33.162  29.288  25.101  1.00  0.00     0.005 A 
ENDBRANCH  11  17
ENDBRANCH   7   9
ENDBRANCH   6   7
ENDBRANCH   5   6
ENDBRANCH   4   5
ENDBRANCH   3   4
ENDBRANCH   2   3
ENDBRANCH   1   2
BRANCH   1  25
ATOM     25  O   UNL A   1      41.441  19.976  25.573  1.00  0.00    -0.376 OA
BRANCH  25  26
ATOM     26  C   UNL A   1      42.843  19.894  25.713  1.00  0.00     0.202 C 
BRANCH  26  27
ATOM     27  C   UNL A   1      43.618  21.219  25.704  1.00  0.00     0.261 C 
BRANCH  27  28
ATOM     28  O   UNL A   1      42.971  22.343  25.079  1.00  0.00    -0.460 OA
BRANCH  28  29
ATOM     29  C   UNL A   1      43.676  23.486  24.955  1.00  0.00     0.338 C 
ATOM     30  O   UNL A   1      44.553  23.720  24.128  1.00  0.00    -0.246 OA
BRANCH  29  31
ATOM     31  C   UNL A   1      43.092  24.493  25.866  1.00  0.00     0.060 A 
ATOM     32  C   UNL A   1      43.659  25.772  25.932  1.00  0.00     0.016 A 
ATOM     33  C   UNL A   1      41.982  24.181  26.654  1.00  0.00     0.016 A 
ATOM     34  C   UNL A   1      43.138  26.735  26.800  1.00  0.00     0.010 A 
ATOM     35  C   UNL A   1      41.475  25.139  27.540  1.00  0.00     0.010 A 
ATOM     36  C   UNL A   1      42.066  26.413  27.640  1.00  0.00    -0.014 A 
BRANCH  36  37
ATOM     37  C   UNL A   1      41.669  27.331  28.741  1.00  0.00     0.031 A 
ATOM     38  C   UNL A   1      42.441  27.275  30.033  1.00  0.00     0.074 A 
ATOM     39  C   UNL A   1      40.650  28.200  28.609  1.00  0.00     0.049 A 
ATOM     40  N   UNL A   1      42.215  27.891  31.166  1.00  0.00    -0.248 NA
ATOM     41  C   UNL A   1      43.627  26.403  30.050  1.00  0.00     0.031 C 
ATOM     42  C   UNL A   1      39.861  28.410  27.396  1.00  0.00     0.029 A 
ATOM     43  N   UNL A   1      40.099  29.069  29.522  1.00  0.00    -0.354 N 
ATOM     44  C   UNL A   1      43.207  27.454  32.037  1.00  0.00     0.074 A 
ATOM     45  C   UNL A   1      44.031  26.517  31.307  1.00  0.00     0.031 C 
ATOM     46  C   UNL A   1      38.920  29.338  27.643  1.00  0.00     0.029 A 
ATOM     47  C   UNL A   1      39.008  29.755  29.042  1.00  0.00     0.049 A 
ATOM     48  H   UNL A   1      40.452  29.188  30.433  1.00  0.00     0.167 HD
ATOM     49  C   UNL A   1      43.412  27.799  33.330  1.00  0.00     0.031 A 
ATOM     50  C   UNL A   1      38.160  30.594  29.670  1.00  0.00     0.031 A 
ATOM     51  C   UNL A   1      42.603  28.742  34.056  1.00  0.00     0.049 A 
ATOM     52  C   UNL A   1      38.365  30.899  31.133  1.00  0.00     0.074 A 
ATOM     53  C   UNL A   1      42.754  29.178  35.360  1.00  0.00     0.029 A 
ATOM     54  N   UNL A   1      41.490  29.386  33.542  1.00  0.00    -0.354 N 
ATOM     55  N   UNL A   1      39.319  30.498  31.939  1.00  0.00    -0.248 NA
ATOM     56  C   UNL A   1      37.372  31.777  31.774  1.00  0.00     0.031 C 
ATOM     57  C   UNL A   1      41.692  30.038  35.657  1.00  0.00     0.029 A 
ATOM     58  C   UNL A   1      40.922  30.190  34.515  1.00  0.00     0.049 A 
ATOM     59  H   UNL A   1      41.152  29.287  32.622  1.00  0.00     0.167 HD
ATOM     60  C   UNL A   1      39.061  31.103  33.164  1.00  0.00     0.074 A 
ATOM     61  C   UNL A   1      37.872  31.909  32.994  1.00  0.00     0.031 C 
ATOM     62  C   UNL A   1      39.747  31.000  34.329  1.00  0.00     0.031 A 
BRANCH  49  63
ATOM     63  C   UNL A   1      44.529  27.118  34.068  1.00  0.00    -0.014 A 
ATOM     64  C   UNL A   1      45.797  27.704  34.195  1.00  0.00     0.009 A 
ATOM     65  C   UNL A   1      44.282  25.887  34.700  1.00  0.00     0.009 A 
ATOM     66  C   UNL A   1      46.802  27.061  34.920  1.00  0.00     0.001 A 
ATOM     67  C   UNL A   1      45.280  25.261  35.447  1.00  0.00     0.001 A 
ATOM     68  C   UNL A   1      46.541  25.844  35.552  1.00  0.00     0.000 A 
ENDBRANCH  49  63
BRANCH  50  69
ATOM     69  C   UNL A   1      36.998  31.182  28.946  1.00  0.00    -0.014 A 
ATOM     70  C   UNL A   1      37.010  32.526  28.538  1.00  0.00     0.009 A 
ATOM     71  C   UNL A   1      35.840  30.421  28.723  1.00  0.00     0.009 A 
ATOM     72  C   UNL A   1      35.875  33.103  27.960  1.00  0.00     0.001 A 
ATOM     73  C   UNL A   1      34.720  30.990  28.112  1.00  0.00     0.001 A 
ATOM     74  C   UNL A   1      34.733  32.334  27.745  1.00  0.00     0.000 A 
ENDBRANCH  50  69
BRANCH  62  75
ATOM     75  C   UNL A   1      39.267  31.819  35.495  1.00  0.00    -0.014 A 
ATOM     76  C   UNL A   1      38.359  31.304  36.432  1.00  0.00     0.009 A 
ATOM     77  C   UNL A   1      39.772  33.117  35.682  1.00  0.00     0.009 A 
ATOM     78  C   UNL A   1      37.940  32.084  37.512  1.00  0.00     0.001 A 
ATOM     79  C   UNL A   1      39.377  33.881  36.780  1.00  0.00     0.001 A 
ATOM     80  C   UNL A   1      38.453  33.368  37.688  1.00  0.00     0.000 A 
ENDBRANCH  62  75
ENDBRANCH  36  37
ENDBRANCH  29  31
ENDBRANCH  28  29
ENDBRANCH  27  28
ENDBRANCH  26  27
ENDBRANCH  25  26
ENDBRANCH   1  25
TORSDOF 19
ENDMDL
