MODEL 1
REMARK VINA RESULT:     -10.4      0.000      0.000
REMARK SMILES Cc1c(Cl)cc2c(c1C)O[C@H](C(F)(F)F)C(C(=O)OCCOCCOCCOC(=O)c1ccc(-c3c4nc(c(-c5ccccc5)c5ccc([nH]5)c(-c5ccccc5)c5nc(c(-c6ccccc6)c6ccc3[nH]6)C=C5)C=C4)cc1)=C2
REMARK SMILES IDX 24 1 23 2 22 3 21 4 20 5 19 6 17 7 18 8 16 9 1 10 2 11 3 12
REMARK SMILES IDX 8 13 4 14 5 15 7 16 9 17 6 18 10 19 79 20 11 21 12 22 13 23
REMARK SMILES IDX 14 24 15 25 25 26 26 27 27 28 28 29 29 30 30 31 31 32 32 33
REMARK SMILES IDX 78 34 33 35 77 36 34 37 35 38 36 39 71 40 37 41 76 42 70 43
REMARK SMILES IDX 72 44 38 45 75 46 69 47 68 48 39 50 61 51 46 52 60 53 47 54
REMARK SMILES IDX 50 55 59 56 73 57 48 58 49 59 58 61 74 62 51 63 40 64 41 65
REMARK SMILES IDX 45 66 42 67 44 68 43 69 62 70 63 71 67 72 64 73 66 74 65 75
REMARK SMILES IDX 52 76 53 77 57 78 54 79 56 80 55 81
REMARK H PARENT 72 49 50 60
REMARK Flexibility Score: inf
ROOT
ATOM      1  C   UNL A   1      41.265  21.075  26.529  1.00  0.00     0.188 C 
ENDROOT
BRANCH   1   2
ATOM      2  C   UNL A   1      39.814  20.726  26.137  1.00  0.00     0.188 C 
BRANCH   2   3
ATOM      3  O   UNL A   1      38.907  21.745  25.769  1.00  0.00    -0.376 OA
BRANCH   3   4
ATOM      4  C   UNL A   1      37.690  21.433  25.111  1.00  0.00     0.202 C 
BRANCH   4   5
ATOM      5  C   UNL A   1      36.311  21.668  25.746  1.00  0.00     0.261 C 
BRANCH   5   6
ATOM      6  O   UNL A   1      35.982  23.032  26.039  1.00  0.00    -0.460 OA
BRANCH   6   7
ATOM      7  C   UNL A   1      34.693  23.254  26.388  1.00  0.00     0.338 C 
ATOM      8  O   UNL A   1      34.117  22.826  27.375  1.00  0.00    -0.246 OA
BRANCH   7   9
ATOM      9  C   UNL A   1      34.095  24.244  25.469  1.00  0.00     0.087 C 
ATOM     10  C   UNL A   1      30.737  29.196  22.868  1.00  0.00     0.046 C 
ATOM     11  C   UNL A   1      31.643  28.230  23.593  1.00  0.00    -0.026 A 
ATOM     12  C   UNL A   1      32.118  28.581  24.877  1.00  0.00     0.045 A 
ATOM     13  C   UNL A   1      31.985  26.957  23.071  1.00  0.00    -0.004 A 
ATOM     14  Cl  UNL A   1      31.741  30.105  25.608  1.00  0.00    -0.084 Cl
ATOM     15  C   UNL A   1      32.885  27.696  25.635  1.00  0.00     0.032 A 
ATOM     16  C   UNL A   1      32.789  26.084  23.844  1.00  0.00     0.131 A 
ATOM     17  C   UNL A   1      31.533  26.467  21.716  1.00  0.00     0.049 C 
ATOM     18  C   UNL A   1      33.198  26.435  25.132  1.00  0.00     0.019 A 
ATOM     19  O   UNL A   1      33.132  24.891  23.265  1.00  0.00    -0.475 OA
ATOM     20  C   UNL A   1      33.870  25.463  25.974  1.00  0.00     0.027 C 
ATOM     21  C   UNL A   1      33.777  23.855  24.054  1.00  0.00     0.316 C 
BRANCH  21  22
ATOM     22  C   UNL A   1      32.915  22.588  23.973  1.00  0.00     0.430 C 
ATOM     23  F   UNL A   1      32.109  22.472  25.056  1.00  0.00    -0.167 F 
ATOM     24  F   UNL A   1      32.106  22.599  22.888  1.00  0.00    -0.167 F 
ATOM     25  F   UNL A   1      33.669  21.468  23.905  1.00  0.00    -0.167 F 
ENDBRANCH  21  22
ENDBRANCH   7   9
ENDBRANCH   6   7
ENDBRANCH   5   6
ENDBRANCH   4   5
ENDBRANCH   3   4
ENDBRANCH   2   3
ENDBRANCH   1   2
BRANCH   1  26
ATOM     26  O   UNL A   1      42.222  21.209  25.508  1.00  0.00    -0.376 OA
BRANCH  26  27
ATOM     27  C   UNL A   1      43.536  20.704  25.687  1.00  0.00     0.202 C 
BRANCH  27  28
ATOM     28  C   UNL A   1      44.848  21.491  25.476  1.00  0.00     0.261 C 
BRANCH  28  29
ATOM     29  O   UNL A   1      45.021  22.724  26.181  1.00  0.00    -0.460 OA
BRANCH  29  30
ATOM     30  C   UNL A   1      44.724  23.847  25.479  1.00  0.00     0.338 C 
ATOM     31  O   UNL A   1      44.923  24.058  24.298  1.00  0.00    -0.246 OA
BRANCH  30  32
ATOM     32  C   UNL A   1      43.915  24.737  26.336  1.00  0.00     0.060 A 
ATOM     33  C   UNL A   1      44.158  26.118  26.292  1.00  0.00     0.016 A 
ATOM     34  C   UNL A   1      42.944  24.213  27.188  1.00  0.00     0.016 A 
ATOM     35  C   UNL A   1      43.434  26.981  27.112  1.00  0.00     0.010 A 
ATOM     36  C   UNL A   1      42.242  25.077  28.035  1.00  0.00     0.010 A 
ATOM     37  C   UNL A   1      42.503  26.460  28.019  1.00  0.00    -0.014 A 
BRANCH  37  38
ATOM     38  C   UNL A   1      41.955  27.331  29.085  1.00  0.00     0.031 A 
ATOM     39  C   UNL A   1      42.702  27.418  30.388  1.00  0.00     0.074 A 
ATOM     40  C   UNL A   1      40.835  28.052  28.900  1.00  0.00     0.049 A 
ATOM     41  N   UNL A   1      42.395  28.070  31.479  1.00  0.00    -0.248 NA
ATOM     42  C   UNL A   1      43.970  26.670  30.468  1.00  0.00     0.031 C 
ATOM     43  C   UNL A   1      40.055  28.107  27.666  1.00  0.00     0.029 A 
ATOM     44  N   UNL A   1      40.162  28.880  29.764  1.00  0.00    -0.354 N 
ATOM     45  C   UNL A   1      43.426  27.810  32.373  1.00  0.00     0.074 A 
ATOM     46  C   UNL A   1      44.351  26.918  31.711  1.00  0.00     0.031 C 
ATOM     47  C   UNL A   1      39.003  28.925  27.855  1.00  0.00     0.029 A 
ATOM     48  C   UNL A   1      39.015  29.418  29.231  1.00  0.00     0.049 A 
ATOM     49  H   UNL A   1      40.470  29.069  30.680  1.00  0.00     0.167 HD
ATOM     50  C   UNL A   1      43.591  28.278  33.631  1.00  0.00     0.031 A 
ATOM     51  C   UNL A   1      38.075  30.199  29.798  1.00  0.00     0.031 A 
ATOM     52  C   UNL A   1      42.664  29.152  34.298  1.00  0.00     0.049 A 
ATOM     53  C   UNL A   1      38.227  30.620  31.238  1.00  0.00     0.074 A 
ATOM     54  C   UNL A   1      42.748  29.678  35.575  1.00  0.00     0.029 A 
ATOM     55  N   UNL A   1      41.485  29.623  33.744  1.00  0.00    -0.354 N 
ATOM     56  N   UNL A   1      39.208  30.375  32.073  1.00  0.00    -0.248 NA
ATOM     57  C   UNL A   1      37.141  31.428  31.813  1.00  0.00     0.031 C 
ATOM     58  C   UNL A   1      41.587  30.415  35.817  1.00  0.00     0.029 A 
ATOM     59  C   UNL A   1      40.814  30.407  34.667  1.00  0.00     0.049 A 
ATOM     60  H   UNL A   1      41.170  29.429  32.832  1.00  0.00     0.167 HD
ATOM     61  C   UNL A   1      38.872  31.020  33.258  1.00  0.00     0.074 A 
ATOM     62  C   UNL A   1      37.603  31.680  33.031  1.00  0.00     0.031 C 
ATOM     63  C   UNL A   1      39.552  31.059  34.429  1.00  0.00     0.031 A 
BRANCH  50  64
ATOM     64  C   UNL A   1      44.811  27.834  34.387  1.00  0.00    -0.014 A 
ATOM     65  C   UNL A   1      46.015  28.551  34.307  1.00  0.00     0.009 A 
ATOM     66  C   UNL A   1      44.734  26.724  35.242  1.00  0.00     0.009 A 
ATOM     67  C   UNL A   1      47.124  28.153  35.057  1.00  0.00     0.001 A 
ATOM     68  C   UNL A   1      45.835  26.346  36.012  1.00  0.00     0.001 A 
ATOM     69  C   UNL A   1      47.029  27.057  35.916  1.00  0.00     0.000 A 
ENDBRANCH  50  64
BRANCH  51  70
ATOM     70  C   UNL A   1      36.888  30.629  29.009  1.00  0.00    -0.014 A 
ATOM     71  C   UNL A   1      36.744  31.964  28.603  1.00  0.00     0.009 A 
ATOM     72  C   UNL A   1      35.886  29.706  28.668  1.00  0.00     0.009 A 
ATOM     73  C   UNL A   1      35.614  32.370  27.889  1.00  0.00     0.001 A 
ATOM     74  C   UNL A   1      34.772  30.108  27.927  1.00  0.00     0.001 A 
ATOM     75  C   UNL A   1      34.633  31.441  27.545  1.00  0.00     0.000 A 
ENDBRANCH  51  70
BRANCH  63  76
ATOM     76  C   UNL A   1      38.963  31.861  35.559  1.00  0.00    -0.014 A 
ATOM     77  C   UNL A   1      38.147  31.260  36.530  1.00  0.00     0.009 A 
ATOM     78  C   UNL A   1      39.298  33.217  35.698  1.00  0.00     0.009 A 
ATOM     79  C   UNL A   1      37.660  32.009  37.604  1.00  0.00     0.001 A 
ATOM     80  C   UNL A   1      38.837  33.955  36.790  1.00  0.00     0.001 A 
ATOM     81  C   UNL A   1      38.012  33.351  37.738  1.00  0.00     0.000 A 
ENDBRANCH  63  76
ENDBRANCH  37  38
ENDBRANCH  30  32
ENDBRANCH  29  30
ENDBRANCH  28  29
ENDBRANCH  27  28
ENDBRANCH  26  27
ENDBRANCH   1  26
TORSDOF 18
ENDMDL
MODEL 2
REMARK VINA RESULT:     -10.2      4.465      9.972
REMARK SMILES Cc1c(Cl)cc2c(c1C)O[C@H](C(F)(F)F)C(C(=O)OCCOCCOCCOC(=O)c1ccc(-c3c4nc(c(-c5ccccc5)c5ccc([nH]5)c(-c5ccccc5)c5nc(c(-c6ccccc6)c6ccc3[nH]6)C=C5)C=C4)cc1)=C2
REMARK SMILES IDX 24 1 23 2 22 3 21 4 20 5 19 6 17 7 18 8 16 9 1 10 2 11 3 12
REMARK SMILES IDX 8 13 4 14 5 15 7 16 9 17 6 18 10 19 79 20 11 21 12 22 13 23
REMARK SMILES IDX 14 24 15 25 25 26 26 27 27 28 28 29 29 30 30 31 31 32 32 33
REMARK SMILES IDX 78 34 33 35 77 36 34 37 35 38 36 39 71 40 37 41 76 42 70 43
REMARK SMILES IDX 72 44 38 45 75 46 69 47 68 48 39 50 61 51 46 52 60 53 47 54
REMARK SMILES IDX 50 55 59 56 73 57 48 58 49 59 58 61 74 62 51 63 40 64 41 65
REMARK SMILES IDX 45 66 42 67 44 68 43 69 62 70 63 71 67 72 64 73 66 74 65 75
REMARK SMILES IDX 52 76 53 77 57 78 54 79 56 80 55 81
REMARK H PARENT 72 49 50 60
REMARK Flexibility Score: inf
ROOT
ATOM      1  C   UNL A   1      34.498  33.108  29.181  1.00  0.00     0.188 C 
ENDROOT
BRANCH   1   2
ATOM      2  C   UNL A   1      33.582  32.695  28.010  1.00  0.00     0.188 C 
BRANCH   2   3
ATOM      3  O   UNL A   1      33.575  31.362  27.541  1.00  0.00    -0.376 OA
BRANCH   3   4
ATOM      4  C   UNL A   1      34.739  30.555  27.625  1.00  0.00     0.202 C 
BRANCH   4   5
ATOM      5  C   UNL A   1      34.741  29.053  27.300  1.00  0.00     0.261 C 
BRANCH   5   6
ATOM      6  O   UNL A   1      33.502  28.516  26.820  1.00  0.00    -0.460 OA
BRANCH   6   7
ATOM      7  C   UNL A   1      33.544  27.997  25.570  1.00  0.00     0.338 C 
ATOM      8  O   UNL A   1      33.805  28.593  24.538  1.00  0.00    -0.246 OA
BRANCH   7   9
ATOM      9  C   UNL A   1      33.379  26.531  25.638  1.00  0.00     0.087 C 
ATOM     10  C   UNL A   1      33.908  20.088  24.758  1.00  0.00     0.046 C 
ATOM     11  C   UNL A   1      34.022  21.564  25.050  1.00  0.00    -0.026 A 
ATOM     12  C   UNL A   1      35.290  22.178  24.951  1.00  0.00     0.045 A 
ATOM     13  C   UNL A   1      32.901  22.377  25.357  1.00  0.00    -0.004 A 
ATOM     14  Cl  UNL A   1      36.717  21.275  24.565  1.00  0.00    -0.084 Cl
ATOM     15  C   UNL A   1      35.448  23.554  25.122  1.00  0.00     0.032 A 
ATOM     16  C   UNL A   1      33.085  23.766  25.556  1.00  0.00     0.131 A 
ATOM     17  C   UNL A   1      31.496  21.838  25.484  1.00  0.00     0.049 C 
ATOM     18  C   UNL A   1      34.342  24.355  25.397  1.00  0.00     0.019 A 
ATOM     19  O   UNL A   1      31.975  24.490  25.904  1.00  0.00    -0.475 OA
ATOM     20  C   UNL A   1      34.481  25.799  25.432  1.00  0.00     0.027 C 
ATOM     21  C   UNL A   1      32.028  25.942  25.927  1.00  0.00     0.316 C 
BRANCH  21  22
ATOM     22  C   UNL A   1      30.941  26.474  24.983  1.00  0.00     0.430 C 
ATOM     23  F   UNL A   1      30.738  27.801  25.167  1.00  0.00    -0.167 F 
ATOM     24  F   UNL A   1      31.282  26.311  23.683  1.00  0.00    -0.167 F 
ATOM     25  F   UNL A   1      29.758  25.851  25.174  1.00  0.00    -0.167 F 
ENDBRANCH  21  22
ENDBRANCH   7   9
ENDBRANCH   6   7
ENDBRANCH   5   6
ENDBRANCH   4   5
ENDBRANCH   3   4
ENDBRANCH   2   3
ENDBRANCH   1   2
BRANCH   1  26
ATOM     26  O   UNL A   1      33.912  33.692  30.317  1.00  0.00    -0.376 OA
BRANCH  26  27
ATOM     27  C   UNL A   1      34.675  33.886  31.497  1.00  0.00     0.202 C 
BRANCH  27  28
ATOM     28  C   UNL A   1      34.569  33.055  32.794  1.00  0.00     0.261 C 
BRANCH  28  29
ATOM     29  O   UNL A   1      35.466  31.955  32.972  1.00  0.00    -0.460 OA
BRANCH  29  30
ATOM     30  C   UNL A   1      36.726  32.283  33.355  1.00  0.00     0.338 C 
ATOM     31  O   UNL A   1      37.067  32.863  34.368  1.00  0.00    -0.246 OA
BRANCH  30  32
ATOM     32  C   UNL A   1      37.682  31.639  32.430  1.00  0.00     0.060 A 
ATOM     33  C   UNL A   1      38.728  30.876  32.967  1.00  0.00     0.016 A 
ATOM     34  C   UNL A   1      37.558  31.805  31.052  1.00  0.00     0.016 A 
ATOM     35  C   UNL A   1      39.665  30.282  32.123  1.00  0.00     0.010 A 
ATOM     36  C   UNL A   1      38.518  31.238  30.208  1.00  0.00     0.010 A 
ATOM     37  C   UNL A   1      39.589  30.497  30.742  1.00  0.00    -0.014 A 
BRANCH  37  38
ATOM     38  C   UNL A   1      40.734  30.122  29.879  1.00  0.00     0.031 A 
ATOM     39  C   UNL A   1      40.717  28.770  29.221  1.00  0.00     0.074 A 
ATOM     40  C   UNL A   1      41.756  30.968  29.658  1.00  0.00     0.049 A 
ATOM     41  N   UNL A   1      41.623  28.203  28.467  1.00  0.00    -0.248 NA
ATOM     42  C   UNL A   1      39.514  27.949  29.441  1.00  0.00     0.031 C 
ATOM     43  C   UNL A   1      41.861  32.328  30.182  1.00  0.00     0.029 A 
ATOM     44  N   UNL A   1      42.906  30.796  28.927  1.00  0.00    -0.354 N 
ATOM     45  C   UNL A   1      41.102  26.961  28.127  1.00  0.00     0.074 A 
ATOM     46  C   UNL A   1      39.817  26.843  28.778  1.00  0.00     0.031 C 
ATOM     47  C   UNL A   1      43.019  32.867  29.758  1.00  0.00     0.029 A 
ATOM     48  C   UNL A   1      43.751  31.878  28.967  1.00  0.00     0.049 A 
ATOM     49  H   UNL A   1      43.106  29.974  28.424  1.00  0.00     0.167 HD
ATOM     50  C   UNL A   1      41.642  26.006  27.335  1.00  0.00     0.031 A 
ATOM     51  C   UNL A   1      44.982  32.041  28.444  1.00  0.00     0.031 A 
ATOM     52  C   UNL A   1      42.927  26.114  26.699  1.00  0.00     0.049 A 
ATOM     53  C   UNL A   1      45.610  30.920  27.655  1.00  0.00     0.074 A 
ATOM     54  C   UNL A   1      43.557  25.195  25.879  1.00  0.00     0.029 A 
ATOM     55  N   UNL A   1      43.777  27.201  26.816  1.00  0.00    -0.354 N 
ATOM     56  N   UNL A   1      45.106  29.753  27.332  1.00  0.00    -0.248 NA
ATOM     57  C   UNL A   1      46.975  31.140  27.157  1.00  0.00     0.031 C 
ATOM     58  C   UNL A   1      44.819  25.700  25.552  1.00  0.00     0.029 A 
ATOM     59  C   UNL A   1      44.944  26.962  26.110  1.00  0.00     0.049 A 
ATOM     60  H   UNL A   1      43.582  28.020  27.326  1.00  0.00     0.167 HD
ATOM     61  C   UNL A   1      46.080  29.113  26.572  1.00  0.00     0.074 A 
ATOM     62  C   UNL A   1      47.197  30.028  26.469  1.00  0.00     0.031 C 
ATOM     63  C   UNL A   1      46.049  27.879  26.013  1.00  0.00     0.031 A 
BRANCH  50  64
ATOM     64  C   UNL A   1      40.856  24.743  27.130  1.00  0.00    -0.014 A 
ATOM     65  C   UNL A   1      41.266  23.530  27.708  1.00  0.00     0.009 A 
ATOM     66  C   UNL A   1      39.655  24.780  26.406  1.00  0.00     0.009 A 
ATOM     67  C   UNL A   1      40.495  22.377  27.549  1.00  0.00     0.001 A 
ATOM     68  C   UNL A   1      38.872  23.632  26.273  1.00  0.00     0.001 A 
ATOM     69  C   UNL A   1      39.294  22.432  26.840  1.00  0.00     0.000 A 
ENDBRANCH  50  64
BRANCH  51  70
ATOM     70  C   UNL A   1      45.721  33.316  28.659  1.00  0.00    -0.014 A 
ATOM     71  C   UNL A   1      46.542  33.486  29.784  1.00  0.00     0.009 A 
ATOM     72  C   UNL A   1      45.597  34.375  27.746  1.00  0.00     0.009 A 
ATOM     73  C   UNL A   1      47.209  34.695  29.999  1.00  0.00     0.001 A 
ATOM     74  C   UNL A   1      46.290  35.572  27.947  1.00  0.00     0.001 A 
ATOM     75  C   UNL A   1      47.089  35.733  29.077  1.00  0.00     0.000 A 
ENDBRANCH  51  70
BRANCH  63  76
ATOM     76  C   UNL A   1      47.246  27.441  25.212  1.00  0.00    -0.014 A 
ATOM     77  C   UNL A   1      48.219  26.591  25.761  1.00  0.00     0.009 A 
ATOM     78  C   UNL A   1      47.355  27.816  23.863  1.00  0.00     0.009 A 
ATOM     79  C   UNL A   1      49.290  26.147  24.981  1.00  0.00     0.001 A 
ATOM     80  C   UNL A   1      48.409  27.344  23.077  1.00  0.00     0.001 A 
ATOM     81  C   UNL A   1      49.379  26.516  23.639  1.00  0.00     0.000 A 
ENDBRANCH  63  76
ENDBRANCH  37  38
ENDBRANCH  30  32
ENDBRANCH  29  30
ENDBRANCH  28  29
ENDBRANCH  27  28
ENDBRANCH  26  27
ENDBRANCH   1  26
TORSDOF 18
ENDMDL
MODEL 3
REMARK VINA RESULT:     -10.1      4.154      6.256
REMARK SMILES Cc1c(Cl)cc2c(c1C)O[C@H](C(F)(F)F)C(C(=O)OCCOCCOCCOC(=O)c1ccc(-c3c4nc(c(-c5ccccc5)c5ccc([nH]5)c(-c5ccccc5)c5nc(c(-c6ccccc6)c6ccc3[nH]6)C=C5)C=C4)cc1)=C2
REMARK SMILES IDX 24 1 23 2 22 3 21 4 20 5 19 6 17 7 18 8 16 9 1 10 2 11 3 12
REMARK SMILES IDX 8 13 4 14 5 15 7 16 9 17 6 18 10 19 79 20 11 21 12 22 13 23
REMARK SMILES IDX 14 24 15 25 25 26 26 27 27 28 28 29 29 30 30 31 31 32 32 33
REMARK SMILES IDX 78 34 33 35 77 36 34 37 35 38 36 39 71 40 37 41 76 42 70 43
REMARK SMILES IDX 72 44 38 45 75 46 69 47 68 48 39 50 61 51 46 52 60 53 47 54
REMARK SMILES IDX 50 55 59 56 73 57 48 58 49 59 58 61 74 62 51 63 40 64 41 65
REMARK SMILES IDX 45 66 42 67 44 68 43 69 62 70 63 71 67 72 64 73 66 74 65 75
REMARK SMILES IDX 52 76 53 77 57 78 54 79 56 80 55 81
REMARK H PARENT 72 49 50 60
REMARK Flexibility Score: inf
ROOT
ATOM      1  C   UNL A   1      40.562  21.555  27.211  1.00  0.00     0.188 C 
ENDROOT
BRANCH   1   2
ATOM      2  C   UNL A   1      39.825  21.742  25.869  1.00  0.00     0.188 C 
BRANCH   2   3
ATOM      3  O   UNL A   1      38.413  21.777  25.826  1.00  0.00    -0.376 OA
BRANCH   3   4
ATOM      4  C   UNL A   1      37.690  20.919  24.958  1.00  0.00     0.202 C 
BRANCH   4   5
ATOM      5  C   UNL A   1      36.174  20.695  25.075  1.00  0.00     0.261 C 
BRANCH   5   6
ATOM      6  O   UNL A   1      35.534  21.320  26.196  1.00  0.00    -0.460 OA
BRANCH   6   7
ATOM      7  C   UNL A   1      34.223  21.611  26.024  1.00  0.00     0.338 C 
ATOM      8  O   UNL A   1      33.275  21.072  26.571  1.00  0.00    -0.246 OA
BRANCH   7   9
ATOM      9  C   UNL A   1      34.091  22.812  25.175  1.00  0.00     0.087 C 
ATOM     10  C   UNL A   1      32.830  28.784  22.868  1.00  0.00     0.046 C 
ATOM     11  C   UNL A   1      33.284  27.519  23.557  1.00  0.00    -0.026 A 
ATOM     12  C   UNL A   1      33.676  27.591  24.912  1.00  0.00     0.045 A 
ATOM     13  C   UNL A   1      33.271  26.250  22.923  1.00  0.00    -0.004 A 
ATOM     14  Cl  UNL A   1      33.709  29.090  25.778  1.00  0.00    -0.084 Cl
ATOM     15  C   UNL A   1      34.021  26.445  25.630  1.00  0.00     0.032 A 
ATOM     16  C   UNL A   1      33.652  25.104  23.661  1.00  0.00     0.131 A 
ATOM     17  C   UNL A   1      32.864  26.046  21.483  1.00  0.00     0.049 C 
ATOM     18  C   UNL A   1      33.982  25.196  25.014  1.00  0.00     0.019 A 
ATOM     19  O   UNL A   1      33.673  23.914  22.980  1.00  0.00    -0.475 OA
ATOM     20  C   UNL A   1      34.199  23.993  25.797  1.00  0.00     0.027 C 
ATOM     21  C   UNL A   1      33.850  22.665  23.700  1.00  0.00     0.316 C 
BRANCH  21  22
ATOM     22  C   UNL A   1      32.651  21.760  23.389  1.00  0.00     0.430 C 
ATOM     23  F   UNL A   1      32.265  21.884  22.096  1.00  0.00    -0.167 F 
ATOM     24  F   UNL A   1      32.944  20.453  23.581  1.00  0.00    -0.167 F 
ATOM     25  F   UNL A   1      31.583  22.054  24.162  1.00  0.00    -0.167 F 
ENDBRANCH  21  22
ENDBRANCH   7   9
ENDBRANCH   6   7
ENDBRANCH   5   6
ENDBRANCH   4   5
ENDBRANCH   3   4
ENDBRANCH   2   3
ENDBRANCH   1   2
BRANCH   1  26
ATOM     26  O   UNL A   1      40.875  20.250  27.629  1.00  0.00    -0.376 OA
BRANCH  26  27
ATOM     27  C   UNL A   1      42.109  19.656  27.260  1.00  0.00     0.202 C 
BRANCH  27  28
ATOM     28  C   UNL A   1      42.555  19.304  25.824  1.00  0.00     0.261 C 
BRANCH  28  29
ATOM     29  O   UNL A   1      43.953  19.142  25.568  1.00  0.00    -0.460 OA
BRANCH  29  30
ATOM     30  C   UNL A   1      44.422  19.764  24.456  1.00  0.00     0.338 C 
ATOM     31  O   UNL A   1      44.420  19.346  23.315  1.00  0.00    -0.246 OA
BRANCH  30  32
ATOM     32  C   UNL A   1      44.768  21.156  24.808  1.00  0.00     0.060 A 
ATOM     33  C   UNL A   1      45.338  21.413  26.063  1.00  0.00     0.016 A 
ATOM     34  C   UNL A   1      44.512  22.198  23.917  1.00  0.00     0.016 A 
ATOM     35  C   UNL A   1      45.646  22.719  26.437  1.00  0.00     0.010 A 
ATOM     36  C   UNL A   1      44.791  23.512  24.307  1.00  0.00     0.010 A 
ATOM     37  C   UNL A   1      45.334  23.780  25.578  1.00  0.00    -0.014 A 
BRANCH  37  38
ATOM     38  C   UNL A   1      45.383  25.171  26.085  1.00  0.00     0.031 A 
ATOM     39  C   UNL A   1      46.706  25.887  26.072  1.00  0.00     0.074 A 
ATOM     40  C   UNL A   1      44.279  25.801  26.524  1.00  0.00     0.049 A 
ATOM     41  N   UNL A   1      47.006  27.083  26.506  1.00  0.00    -0.248 NA
ATOM     42  C   UNL A   1      47.842  25.155  25.484  1.00  0.00     0.031 C 
ATOM     43  C   UNL A   1      42.929  25.243  26.529  1.00  0.00     0.029 A 
ATOM     44  N   UNL A   1      44.128  27.059  27.054  1.00  0.00    -0.354 N 
ATOM     45  C   UNL A   1      48.362  27.245  26.249  1.00  0.00     0.074 A 
ATOM     46  C   UNL A   1      48.833  26.018  25.649  1.00  0.00     0.031 C 
ATOM     47  C   UNL A   1      42.085  26.157  27.043  1.00  0.00     0.029 A 
ATOM     48  C   UNL A   1      42.841  27.344  27.438  1.00  0.00     0.049 A 
ATOM     49  H   UNL A   1      44.873  27.695  27.151  1.00  0.00     0.167 HD
ATOM     50  C   UNL A   1      49.143  28.324  26.485  1.00  0.00     0.031 A 
ATOM     51  C   UNL A   1      42.337  28.431  28.056  1.00  0.00     0.031 A 
ATOM     52  C   UNL A   1      48.681  29.540  27.096  1.00  0.00     0.049 A 
ATOM     53  C   UNL A   1      43.251  29.577  28.407  1.00  0.00     0.074 A 
ATOM     54  C   UNL A   1      49.402  30.687  27.376  1.00  0.00     0.029 A 
ATOM     55  N   UNL A   1      47.383  29.764  27.526  1.00  0.00    -0.354 N 
ATOM     56  N   UNL A   1      44.529  29.724  28.152  1.00  0.00    -0.248 NA
ATOM     57  C   UNL A   1      42.651  30.710  29.128  1.00  0.00     0.031 C 
ATOM     58  C   UNL A   1      48.556  31.582  28.035  1.00  0.00     0.029 A 
ATOM     59  C   UNL A   1      47.291  31.020  28.101  1.00  0.00     0.049 A 
ATOM     60  H   UNL A   1      46.639  29.126  27.437  1.00  0.00     0.167 HD
ATOM     61  C   UNL A   1      44.878  30.973  28.657  1.00  0.00     0.074 A 
ATOM     62  C   UNL A   1      43.674  31.549  29.218  1.00  0.00     0.031 C 
ATOM     63  C   UNL A   1      46.087  31.584  28.655  1.00  0.00     0.031 A 
BRANCH  50  64
ATOM     64  C   UNL A   1      50.593  28.232  26.103  1.00  0.00    -0.014 A 
ATOM     65  C   UNL A   1      51.036  28.624  24.829  1.00  0.00     0.009 A 
ATOM     66  C   UNL A   1      51.537  27.813  27.053  1.00  0.00     0.009 A 
ATOM     67  C   UNL A   1      52.394  28.580  24.511  1.00  0.00     0.001 A 
ATOM     68  C   UNL A   1      52.898  27.798  26.741  1.00  0.00     0.001 A 
ATOM     69  C   UNL A   1      53.324  28.176  25.470  1.00  0.00     0.000 A 
ENDBRANCH  50  64
BRANCH  51  70
ATOM     70  C   UNL A   1      40.891  28.487  28.403  1.00  0.00    -0.014 A 
ATOM     71  C   UNL A   1      39.971  29.100  27.539  1.00  0.00     0.009 A 
ATOM     72  C   UNL A   1      40.424  27.938  29.609  1.00  0.00     0.009 A 
ATOM     73  C   UNL A   1      38.619  29.179  27.883  1.00  0.00     0.001 A 
ATOM     74  C   UNL A   1      39.066  27.990  29.935  1.00  0.00     0.001 A 
ATOM     75  C   UNL A   1      38.167  28.617  29.076  1.00  0.00     0.000 A 
ENDBRANCH  51  70
BRANCH  63  76
ATOM     76  C   UNL A   1      46.179  32.962  29.255  1.00  0.00    -0.014 A 
ATOM     77  C   UNL A   1      45.911  34.109  28.491  1.00  0.00     0.009 A 
ATOM     78  C   UNL A   1      46.455  33.107  30.624  1.00  0.00     0.009 A 
ATOM     79  C   UNL A   1      45.942  35.374  29.082  1.00  0.00     0.001 A 
ATOM     80  C   UNL A   1      46.453  34.371  31.219  1.00  0.00     0.001 A 
ATOM     81  C   UNL A   1      46.204  35.503  30.446  1.00  0.00     0.000 A 
ENDBRANCH  63  76
ENDBRANCH  37  38
ENDBRANCH  30  32
ENDBRANCH  29  30
ENDBRANCH  28  29
ENDBRANCH  27  28
ENDBRANCH  26  27
ENDBRANCH   1  26
TORSDOF 18
ENDMDL
