MODEL 1
REMARK VINA RESULT:      -9.5      0.000      0.000
REMARK SMILES C[C@@H](CC(=O)OCCOCCOCCOC(=O)c1ccc(-c2c3nc(c(-c4ccccc4)c4ccc([nH]4)c(-c4ccccc4)c4nc(c(-c5ccccc5)c5ccc2[nH]5)C=C4)C=C3)cc1)NC(=O)/C=C/c1cccnc1
REMARK SMILES IDX 10 1 9 2 8 3 7 4 6 5 4 6 5 7 3 8 2 9 1 10 66 11 67 12 68 14
REMARK SMILES IDX 69 15 70 16 71 17 72 18 76 19 73 20 75 21 74 22 11 23 12 24
REMARK SMILES IDX 13 25 14 26 15 27 16 28 17 29 18 30 19 31 65 32 20 33 64 34
REMARK SMILES IDX 21 35 22 36 23 37 58 38 24 39 63 40 57 41 59 42 25 43 62 44
REMARK SMILES IDX 56 45 55 46 26 48 48 49 33 50 47 51 34 52 37 53 46 54 60 55
REMARK SMILES IDX 35 56 36 57 45 59 61 60 38 61 27 62 28 63 32 64 29 65 31 66
REMARK SMILES IDX 30 67 49 68 50 69 54 70 51 71 53 72 52 73 39 74 40 75 44 76
REMARK SMILES IDX 41 77 43 78 42 79
REMARK H PARENT 66 13 59 47 37 58
REMARK Flexibility Score: inf
ROOT
ATOM      1  C   UNL A   1      34.592  31.362  27.704  1.00  0.00     0.188 C 
ENDROOT
BRANCH   1   2
ATOM      2  O   UNL A   1      33.320  30.856  27.301  1.00  0.00    -0.376 OA
BRANCH   2   3
ATOM      3  C   UNL A   1      33.265  29.466  26.951  1.00  0.00     0.202 C 
BRANCH   3   4
ATOM      4  C   UNL A   1      31.968  28.741  27.342  1.00  0.00     0.261 C 
BRANCH   4   5
ATOM      5  O   UNL A   1      31.364  28.079  26.204  1.00  0.00    -0.463 OA
BRANCH   5   6
ATOM      6  C   UNL A   1      31.689  26.779  26.017  1.00  0.00     0.307 C 
ATOM      7  O   UNL A   1      32.695  26.246  26.474  1.00  0.00    -0.252 OA
BRANCH   6   8
ATOM      8  C   UNL A   1      30.605  25.972  25.329  1.00  0.00     0.147 C 
BRANCH   8   9
ATOM      9  C   UNL A   1      30.674  25.678  23.823  1.00  0.00     0.090 C 
ATOM     10  C   UNL A   1      30.480  24.225  23.401  1.00  0.00     0.031 C 
BRANCH   9  11
ATOM     11  N   UNL A   1      31.918  26.190  23.250  1.00  0.00    -0.350 N 
ATOM     12  C   UNL A   1      32.263  27.361  22.667  1.00  0.00     0.244 C 
ATOM     13  H   UNL A   1      32.662  25.546  23.298  1.00  0.00     0.164 HD
ATOM     14  O   UNL A   1      33.345  27.425  22.085  1.00  0.00    -0.270 OA
BRANCH  12  15
ATOM     15  C   UNL A   1      31.410  28.569  22.617  1.00  0.00     0.072 C 
ATOM     16  C   UNL A   1      30.082  28.713  22.731  1.00  0.00     0.015 C 
BRANCH  16  17
ATOM     17  C   UNL A   1      29.384  30.007  22.592  1.00  0.00    -0.007 A 
ATOM     18  C   UNL A   1      29.164  30.890  23.657  1.00  0.00     0.011 A 
ATOM     19  C   UNL A   1      28.987  30.453  21.331  1.00  0.00     0.119 A 
ATOM     20  C   UNL A   1      28.580  32.137  23.432  1.00  0.00     0.021 A 
ATOM     21  N   UNL A   1      28.421  31.660  21.079  1.00  0.00    -0.264 NA
ATOM     22  C   UNL A   1      28.236  32.475  22.137  1.00  0.00     0.111 A 
ENDBRANCH  16  17
ENDBRANCH  12  15
ENDBRANCH   9  11
ENDBRANCH   8   9
ENDBRANCH   6   8
ENDBRANCH   5   6
ENDBRANCH   4   5
ENDBRANCH   3   4
ENDBRANCH   2   3
ENDBRANCH   1   2
BRANCH   1  23
ATOM     23  C   UNL A   1      34.551  32.368  28.861  1.00  0.00     0.188 C 
BRANCH  23  24
ATOM     24  O   UNL A   1      34.596  33.718  28.419  1.00  0.00    -0.376 OA
BRANCH  24  25
ATOM     25  C   UNL A   1      33.377  34.461  28.356  1.00  0.00     0.202 C 
BRANCH  25  26
ATOM     26  C   UNL A   1      33.152  35.515  29.457  1.00  0.00     0.261 C 
BRANCH  26  27
ATOM     27  O   UNL A   1      32.494  34.992  30.630  1.00  0.00    -0.460 OA
BRANCH  27  28
ATOM     28  C   UNL A   1      32.763  35.629  31.790  1.00  0.00     0.338 C 
ATOM     29  O   UNL A   1      32.077  36.478  32.330  1.00  0.00    -0.246 OA
BRANCH  28  30
ATOM     30  C   UNL A   1      33.912  34.945  32.421  1.00  0.00     0.060 A 
ATOM     31  C   UNL A   1      35.142  35.610  32.464  1.00  0.00     0.016 A 
ATOM     32  C   UNL A   1      33.789  33.671  32.978  1.00  0.00     0.016 A 
ATOM     33  C   UNL A   1      36.271  34.986  32.984  1.00  0.00     0.010 A 
ATOM     34  C   UNL A   1      34.922  33.035  33.494  1.00  0.00     0.010 A 
ATOM     35  C   UNL A   1      36.178  33.670  33.447  1.00  0.00    -0.014 A 
BRANCH  35  36
ATOM     36  C   UNL A   1      37.423  32.884  33.618  1.00  0.00     0.031 A 
ATOM     37  C   UNL A   1      38.202  33.075  34.893  1.00  0.00     0.074 A 
ATOM     38  C   UNL A   1      37.825  31.976  32.711  1.00  0.00     0.049 A 
ATOM     39  N   UNL A   1      39.330  32.530  35.269  1.00  0.00    -0.248 NA
ATOM     40  C   UNL A   1      37.628  34.011  35.877  1.00  0.00     0.031 C 
ATOM     41  C   UNL A   1      37.129  31.645  31.470  1.00  0.00     0.029 A 
ATOM     42  N   UNL A   1      38.928  31.159  32.709  1.00  0.00    -0.354 N 
ATOM     43  C   UNL A   1      39.608  33.071  36.518  1.00  0.00     0.074 A 
ATOM     44  C   UNL A   1      38.550  34.007  36.825  1.00  0.00     0.031 C 
ATOM     45  C   UNL A   1      37.824  30.691  30.823  1.00  0.00     0.029 A 
ATOM     46  C   UNL A   1      39.026  30.370  31.591  1.00  0.00     0.049 A 
ATOM     47  H   UNL A   1      39.586  31.142  33.441  1.00  0.00     0.167 HD
ATOM     48  C   UNL A   1      40.647  32.810  37.345  1.00  0.00     0.031 A 
ATOM     49  C   UNL A   1      39.986  29.497  31.226  1.00  0.00     0.031 A 
ATOM     50  C   UNL A   1      41.698  31.876  37.052  1.00  0.00     0.049 A 
ATOM     51  C   UNL A   1      41.164  29.266  32.139  1.00  0.00     0.074 A 
ATOM     52  C   UNL A   1      42.796  31.544  37.824  1.00  0.00     0.029 A 
ATOM     53  N   UNL A   1      41.775  31.119  35.895  1.00  0.00    -0.354 N 
ATOM     54  N   UNL A   1      41.418  29.788  33.314  1.00  0.00    -0.248 NA
ATOM     55  C   UNL A   1      42.180  28.310  31.674  1.00  0.00     0.031 C 
ATOM     56  C   UNL A   1      43.562  30.615  37.114  1.00  0.00     0.029 A 
ATOM     57  C   UNL A   1      42.910  30.328  35.926  1.00  0.00     0.049 A 
ATOM     58  H   UNL A   1      41.119  31.140  35.161  1.00  0.00     0.167 HD
ATOM     59  C   UNL A   1      42.601  29.197  33.745  1.00  0.00     0.074 A 
ATOM     60  C   UNL A   1      43.006  28.269  32.710  1.00  0.00     0.031 C 
ATOM     61  C   UNL A   1      43.291  29.401  34.893  1.00  0.00     0.031 A 
BRANCH  48  62
ATOM     62  C   UNL A   1      40.708  33.581  38.632  1.00  0.00    -0.014 A 
ATOM     63  C   UNL A   1      41.371  34.816  38.715  1.00  0.00     0.009 A 
ATOM     64  C   UNL A   1      40.083  33.064  39.778  1.00  0.00     0.009 A 
ATOM     65  C   UNL A   1      41.436  35.501  39.930  1.00  0.00     0.001 A 
ATOM     66  C   UNL A   1      40.125  33.765  40.983  1.00  0.00     0.001 A 
ATOM     67  C   UNL A   1      40.807  34.978  41.061  1.00  0.00     0.000 A 
ENDBRANCH  48  62
BRANCH  49  68
ATOM     68  C   UNL A   1      39.897  28.781  29.927  1.00  0.00    -0.014 A 
ATOM     69  C   UNL A   1      39.394  27.472  29.861  1.00  0.00     0.009 A 
ATOM     70  C   UNL A   1      40.365  29.386  28.750  1.00  0.00     0.009 A 
ATOM     71  C   UNL A   1      39.393  26.773  28.651  1.00  0.00     0.001 A 
ATOM     72  C   UNL A   1      40.336  28.695  27.537  1.00  0.00     0.001 A 
ATOM     73  C   UNL A   1      39.862  27.386  27.491  1.00  0.00     0.000 A 
ENDBRANCH  49  68
BRANCH  61  74
ATOM     74  C   UNL A   1      44.518  28.563  35.120  1.00  0.00    -0.014 A 
ATOM     75  C   UNL A   1      45.791  29.001  34.722  1.00  0.00     0.009 A 
ATOM     76  C   UNL A   1      44.399  27.326  35.773  1.00  0.00     0.009 A 
ATOM     77  C   UNL A   1      46.912  28.196  34.934  1.00  0.00     0.001 A 
ATOM     78  C   UNL A   1      45.524  26.538  36.011  1.00  0.00     0.001 A 
ATOM     79  C   UNL A   1      46.778  26.967  35.581  1.00  0.00     0.000 A 
ENDBRANCH  61  74
ENDBRANCH  35  36
ENDBRANCH  28  30
ENDBRANCH  27  28
ENDBRANCH  26  27
ENDBRANCH  25  26
ENDBRANCH  24  25
ENDBRANCH  23  24
ENDBRANCH   1  23
TORSDOF 21
ENDMDL
MODEL 2
REMARK VINA RESULT:      -9.4      6.091     11.307
REMARK SMILES C[C@@H](CC(=O)OCCOCCOCCOC(=O)c1ccc(-c2c3nc(c(-c4ccccc4)c4ccc([nH]4)c(-c4ccccc4)c4nc(c(-c5ccccc5)c5ccc2[nH]5)C=C4)C=C3)cc1)NC(=O)/C=C/c1cccnc1
REMARK SMILES IDX 10 1 9 2 8 3 7 4 6 5 4 6 5 7 3 8 2 9 1 10 66 11 67 12 68 14
REMARK SMILES IDX 69 15 70 16 71 17 72 18 76 19 73 20 75 21 74 22 11 23 12 24
REMARK SMILES IDX 13 25 14 26 15 27 16 28 17 29 18 30 19 31 65 32 20 33 64 34
REMARK SMILES IDX 21 35 22 36 23 37 58 38 24 39 63 40 57 41 59 42 25 43 62 44
REMARK SMILES IDX 56 45 55 46 26 48 48 49 33 50 47 51 34 52 37 53 46 54 60 55
REMARK SMILES IDX 35 56 36 57 45 59 61 60 38 61 27 62 28 63 32 64 29 65 31 66
REMARK SMILES IDX 30 67 49 68 50 69 54 70 51 71 53 72 52 73 39 74 40 75 44 76
REMARK SMILES IDX 41 77 43 78 42 79
REMARK H PARENT 66 13 59 47 37 58
REMARK Flexibility Score: inf
ROOT
ATOM      1  C   UNL A   1      40.677  21.471  27.032  1.00  0.00     0.188 C 
ENDROOT
BRANCH   1   2
ATOM      2  O   UNL A   1      39.786  22.119  26.124  1.00  0.00    -0.376 OA
BRANCH   2   3
ATOM      3  C   UNL A   1      38.615  21.383  25.742  1.00  0.00     0.202 C 
BRANCH   3   4
ATOM      4  C   UNL A   1      37.327  22.213  25.626  1.00  0.00     0.261 C 
BRANCH   4   5
ATOM      5  O   UNL A   1      36.739  22.102  24.307  1.00  0.00    -0.463 OA
BRANCH   5   6
ATOM      6  C   UNL A   1      35.975  23.141  23.894  1.00  0.00     0.307 C 
ATOM      7  O   UNL A   1      35.549  23.271  22.752  1.00  0.00    -0.252 OA
BRANCH   6   8
ATOM      8  C   UNL A   1      35.535  24.059  25.018  1.00  0.00     0.147 C 
BRANCH   8   9
ATOM      9  C   UNL A   1      34.087  24.565  25.102  1.00  0.00     0.090 C 
ATOM     10  C   UNL A   1      33.882  26.071  24.984  1.00  0.00     0.031 C 
BRANCH   9  11
ATOM     11  N   UNL A   1      33.437  24.079  26.319  1.00  0.00    -0.350 N 
ATOM     12  C   UNL A   1      32.957  22.873  26.701  1.00  0.00     0.244 C 
ATOM     13  H   UNL A   1      33.324  24.777  27.004  1.00  0.00     0.164 HD
ATOM     14  O   UNL A   1      32.265  22.817  27.717  1.00  0.00    -0.270 OA
BRANCH  12  15
ATOM     15  C   UNL A   1      33.147  21.608  25.956  1.00  0.00     0.072 C 
ATOM     16  C   UNL A   1      32.592  21.166  24.819  1.00  0.00     0.015 C 
BRANCH  16  17
ATOM     17  C   UNL A   1      32.855  19.831  24.244  1.00  0.00    -0.007 A 
ATOM     18  C   UNL A   1      32.158  19.305  23.150  1.00  0.00     0.011 A 
ATOM     19  C   UNL A   1      33.910  19.059  24.731  1.00  0.00     0.119 A 
ATOM     20  C   UNL A   1      32.526  18.076  22.602  1.00  0.00     0.021 A 
ATOM     21  N   UNL A   1      34.296  17.863  24.219  1.00  0.00    -0.264 NA
ATOM     22  C   UNL A   1      33.596  17.402  23.162  1.00  0.00     0.111 A 
ENDBRANCH  16  17
ENDBRANCH  12  15
ENDBRANCH   9  11
ENDBRANCH   8   9
ENDBRANCH   6   8
ENDBRANCH   5   6
ENDBRANCH   4   5
ENDBRANCH   3   4
ENDBRANCH   2   3
ENDBRANCH   1   2
BRANCH   1  23
ATOM     23  C   UNL A   1      40.932  19.988  26.739  1.00  0.00     0.188 C 
BRANCH  23  24
ATOM     24  O   UNL A   1      42.299  19.626  26.877  1.00  0.00    -0.376 OA
BRANCH  24  25
ATOM     25  C   UNL A   1      42.828  18.605  26.030  1.00  0.00     0.202 C 
BRANCH  25  26
ATOM     26  C   UNL A   1      44.050  18.982  25.171  1.00  0.00     0.261 C 
BRANCH  26  27
ATOM     27  O   UNL A   1      44.655  20.236  25.548  1.00  0.00    -0.460 OA
BRANCH  27  28
ATOM     28  C   UNL A   1      44.510  21.250  24.668  1.00  0.00     0.338 C 
ATOM     29  O   UNL A   1      44.527  21.167  23.453  1.00  0.00    -0.246 OA
BRANCH  28  30
ATOM     30  C   UNL A   1      44.083  22.445  25.427  1.00  0.00     0.060 A 
ATOM     31  C   UNL A   1      43.532  23.520  24.722  1.00  0.00     0.016 A 
ATOM     32  C   UNL A   1      44.207  22.511  26.815  1.00  0.00     0.016 A 
ATOM     33  C   UNL A   1      43.178  24.695  25.378  1.00  0.00     0.010 A 
ATOM     34  C   UNL A   1      43.860  23.692  27.479  1.00  0.00     0.010 A 
ATOM     35  C   UNL A   1      43.397  24.807  26.755  1.00  0.00    -0.014 A 
BRANCH  35  36
ATOM     36  C   UNL A   1      43.402  26.155  27.369  1.00  0.00     0.031 A 
ATOM     37  C   UNL A   1      44.736  26.817  27.595  1.00  0.00     0.074 A 
ATOM     38  C   UNL A   1      42.265  26.813  27.658  1.00  0.00     0.049 A 
ATOM     39  N   UNL A   1      45.010  27.975  28.138  1.00  0.00    -0.248 NA
ATOM     40  C   UNL A   1      45.923  26.066  27.146  1.00  0.00     0.031 C 
ATOM     41  C   UNL A   1      40.911  26.318  27.427  1.00  0.00     0.029 A 
ATOM     42  N   UNL A   1      42.081  28.056  28.211  1.00  0.00    -0.354 N 
ATOM     43  C   UNL A   1      46.396  28.080  28.114  1.00  0.00     0.074 A 
ATOM     44  C   UNL A   1      46.908  26.860  27.532  1.00  0.00     0.031 C 
ATOM     45  C   UNL A   1      40.031  27.250  27.836  1.00  0.00     0.029 A 
ATOM     46  C   UNL A   1      40.762  28.391  28.385  1.00  0.00     0.049 A 
ATOM     47  H   UNL A   1      42.826  28.651  28.458  1.00  0.00     0.167 HD
ATOM     48  C   UNL A   1      47.178  29.102  28.532  1.00  0.00     0.031 A 
ATOM     49  C   UNL A   1      40.211  29.491  28.936  1.00  0.00     0.031 A 
ATOM     50  C   UNL A   1      46.677  30.321  29.103  1.00  0.00     0.049 A 
ATOM     51  C   UNL A   1      41.105  30.592  29.447  1.00  0.00     0.074 A 
ATOM     52  C   UNL A   1      47.389  31.415  29.561  1.00  0.00     0.029 A 
ATOM     53  N   UNL A   1      45.335  30.607  29.289  1.00  0.00    -0.354 N 
ATOM     54  N   UNL A   1      42.414  30.676  29.424  1.00  0.00    -0.248 NA
ATOM     55  C   UNL A   1      40.439  31.757  30.046  1.00  0.00     0.031 C 
ATOM     56  C   UNL A   1      46.478  32.348  30.063  1.00  0.00     0.029 A 
ATOM     57  C   UNL A   1      45.197  31.857  29.866  1.00  0.00     0.049 A 
ATOM     58  H   UNL A   1      44.591  30.010  29.046  1.00  0.00     0.167 HD
ATOM     59  C   UNL A   1      42.723  31.917  29.972  1.00  0.00     0.074 A 
ATOM     60  C   UNL A   1      41.467  32.554  30.304  1.00  0.00     0.031 C 
ATOM     61  C   UNL A   1      43.938  32.481  30.178  1.00  0.00     0.031 A 
BRANCH  48  62
ATOM     62  C   UNL A   1      48.663  28.920  28.415  1.00  0.00    -0.014 A 
ATOM     63  C   UNL A   1      49.402  28.268  29.416  1.00  0.00     0.009 A 
ATOM     64  C   UNL A   1      49.332  29.403  27.280  1.00  0.00     0.009 A 
ATOM     65  C   UNL A   1      50.786  28.133  29.295  1.00  0.00     0.001 A 
ATOM     66  C   UNL A   1      50.711  29.241  27.149  1.00  0.00     0.001 A 
ATOM     67  C   UNL A   1      51.439  28.615  28.159  1.00  0.00     0.000 A 
ENDBRANCH  48  62
BRANCH  49  68
ATOM     68  C   UNL A   1      38.734  29.611  29.058  1.00  0.00    -0.014 A 
ATOM     69  C   UNL A   1      38.074  29.194  30.225  1.00  0.00     0.009 A 
ATOM     70  C   UNL A   1      37.970  30.096  27.985  1.00  0.00     0.009 A 
ATOM     71  C   UNL A   1      36.679  29.229  30.301  1.00  0.00     0.001 A 
ATOM     72  C   UNL A   1      36.579  30.157  28.075  1.00  0.00     0.001 A 
ATOM     73  C   UNL A   1      35.934  29.713  29.227  1.00  0.00     0.000 A 
ENDBRANCH  49  68
BRANCH  61  74
ATOM     74  C   UNL A   1      43.965  33.877  30.735  1.00  0.00    -0.014 A 
ATOM     75  C   UNL A   1      43.896  35.003  29.901  1.00  0.00     0.009 A 
ATOM     76  C   UNL A   1      44.030  34.064  32.126  1.00  0.00     0.009 A 
ATOM     77  C   UNL A   1      43.937  36.288  30.446  1.00  0.00     0.001 A 
ATOM     78  C   UNL A   1      44.039  35.348  32.669  1.00  0.00     0.001 A 
ATOM     79  C   UNL A   1      44.004  36.459  31.830  1.00  0.00     0.000 A 
ENDBRANCH  61  74
ENDBRANCH  35  36
ENDBRANCH  28  30
ENDBRANCH  27  28
ENDBRANCH  26  27
ENDBRANCH  25  26
ENDBRANCH  24  25
ENDBRANCH  23  24
ENDBRANCH   1  23
TORSDOF 21
ENDMDL
MODEL 3
REMARK VINA RESULT:      -9.4      2.883      8.022
REMARK SMILES C[C@@H](CC(=O)OCCOCCOCCOC(=O)c1ccc(-c2c3nc(c(-c4ccccc4)c4ccc([nH]4)c(-c4ccccc4)c4nc(c(-c5ccccc5)c5ccc2[nH]5)C=C4)C=C3)cc1)NC(=O)/C=C/c1cccnc1
REMARK SMILES IDX 10 1 9 2 8 3 7 4 6 5 4 6 5 7 3 8 2 9 1 10 66 11 67 12 68 14
REMARK SMILES IDX 69 15 70 16 71 17 72 18 76 19 73 20 75 21 74 22 11 23 12 24
REMARK SMILES IDX 13 25 14 26 15 27 16 28 17 29 18 30 19 31 65 32 20 33 64 34
REMARK SMILES IDX 21 35 22 36 23 37 58 38 24 39 63 40 57 41 59 42 25 43 62 44
REMARK SMILES IDX 56 45 55 46 26 48 48 49 33 50 47 51 34 52 37 53 46 54 60 55
REMARK SMILES IDX 35 56 36 57 45 59 61 60 38 61 27 62 28 63 32 64 29 65 31 66
REMARK SMILES IDX 30 67 49 68 50 69 54 70 51 71 53 72 52 73 39 74 40 75 44 76
REMARK SMILES IDX 41 77 43 78 42 79
REMARK H PARENT 66 13 59 47 37 58
REMARK Flexibility Score: inf
ROOT
ATOM      1  C   UNL A   1      33.127  28.548  24.949  1.00  0.00     0.188 C 
ENDROOT
BRANCH   1   2
ATOM      2  O   UNL A   1      33.931  28.010  23.900  1.00  0.00    -0.376 OA
BRANCH   2   3
ATOM      3  C   UNL A   1      33.489  28.269  22.559  1.00  0.00     0.202 C 
BRANCH   3   4
ATOM      4  C   UNL A   1      33.143  27.022  21.730  1.00  0.00     0.261 C 
BRANCH   4   5
ATOM      5  O   UNL A   1      33.969  25.891  22.099  1.00  0.00    -0.463 OA
BRANCH   5   6
ATOM      6  C   UNL A   1      33.342  24.699  22.232  1.00  0.00     0.307 C 
ATOM      7  O   UNL A   1      33.355  23.815  21.383  1.00  0.00    -0.252 OA
BRANCH   6   8
ATOM      8  C   UNL A   1      32.754  24.469  23.611  1.00  0.00     0.147 C 
BRANCH   8   9
ATOM      9  C   UNL A   1      33.599  24.686  24.876  1.00  0.00     0.090 C 
ATOM     10  C   UNL A   1      35.057  24.243  24.807  1.00  0.00     0.031 C 
BRANCH   9  11
ATOM     11  N   UNL A   1      32.960  24.074  26.040  1.00  0.00    -0.350 N 
ATOM     12  C   UNL A   1      32.639  22.800  26.365  1.00  0.00     0.244 C 
ATOM     13  H   UNL A   1      32.708  24.726  26.733  1.00  0.00     0.164 HD
ATOM     14  O   UNL A   1      31.907  22.614  27.336  1.00  0.00    -0.270 OA
BRANCH  12  15
ATOM     15  C   UNL A   1      33.051  21.599  25.604  1.00  0.00     0.072 C 
ATOM     16  C   UNL A   1      32.324  20.654  24.991  1.00  0.00     0.015 C 
BRANCH  16  17
ATOM     17  C   UNL A   1      32.910  19.476  24.323  1.00  0.00    -0.007 A 
ATOM     18  C   UNL A   1      34.060  18.816  24.775  1.00  0.00     0.011 A 
ATOM     19  C   UNL A   1      32.261  18.900  23.230  1.00  0.00     0.119 A 
ATOM     20  C   UNL A   1      34.501  17.652  24.146  1.00  0.00     0.021 A 
ATOM     21  N   UNL A   1      32.662  17.768  22.599  1.00  0.00    -0.264 NA
ATOM     22  C   UNL A   1      33.770  17.168  23.077  1.00  0.00     0.111 A 
ENDBRANCH  16  17
ENDBRANCH  12  15
ENDBRANCH   9  11
ENDBRANCH   8   9
ENDBRANCH   6   8
ENDBRANCH   5   6
ENDBRANCH   4   5
ENDBRANCH   3   4
ENDBRANCH   2   3
ENDBRANCH   1   2
BRANCH   1  23
ATOM     23  C   UNL A   1      31.677  28.857  24.559  1.00  0.00     0.188 C 
BRANCH  23  24
ATOM     24  O   UNL A   1      31.212  30.087  25.095  1.00  0.00    -0.376 OA
BRANCH  24  25
ATOM     25  C   UNL A   1      31.770  30.556  26.324  1.00  0.00     0.202 C 
BRANCH  25  26
ATOM     26  C   UNL A   1      31.540  32.040  26.667  1.00  0.00     0.261 C 
BRANCH  26  27
ATOM     27  O   UNL A   1      32.730  32.848  26.562  1.00  0.00    -0.460 OA
BRANCH  27  28
ATOM     28  C   UNL A   1      33.135  33.454  27.699  1.00  0.00     0.338 C 
ATOM     29  O   UNL A   1      32.493  34.240  28.373  1.00  0.00    -0.246 OA
BRANCH  28  30
ATOM     30  C   UNL A   1      34.400  32.815  28.123  1.00  0.00     0.060 A 
ATOM     31  C   UNL A   1      34.368  31.475  28.522  1.00  0.00     0.016 A 
ATOM     32  C   UNL A   1      35.608  33.513  28.118  1.00  0.00     0.016 A 
ATOM     33  C   UNL A   1      35.516  30.846  28.994  1.00  0.00     0.010 A 
ATOM     34  C   UNL A   1      36.763  32.889  28.600  1.00  0.00     0.010 A 
ATOM     35  C   UNL A   1      36.707  31.570  29.091  1.00  0.00    -0.014 A 
BRANCH  35  36
ATOM     36  C   UNL A   1      37.796  31.043  29.948  1.00  0.00     0.031 A 
ATOM     37  C   UNL A   1      38.778  30.087  29.323  1.00  0.00     0.074 A 
ATOM     38  C   UNL A   1      37.961  31.444  31.221  1.00  0.00     0.049 A 
ATOM     39  N   UNL A   1      39.795  29.468  29.863  1.00  0.00    -0.248 NA
ATOM     40  C   UNL A   1      38.581  29.789  27.892  1.00  0.00     0.031 C 
ATOM     41  C   UNL A   1      37.126  32.414  31.925  1.00  0.00     0.029 A 
ATOM     42  N   UNL A   1      38.906  31.077  32.146  1.00  0.00    -0.354 N 
ATOM     43  C   UNL A   1      40.344  28.695  28.846  1.00  0.00     0.074 A 
ATOM     44  C   UNL A   1      39.533  28.899  27.667  1.00  0.00     0.031 C 
ATOM     45  C   UNL A   1      37.597  32.565  33.177  1.00  0.00     0.029 A 
ATOM     46  C   UNL A   1      38.745  31.681  33.367  1.00  0.00     0.049 A 
ATOM     47  H   UNL A   1      39.632  30.440  31.951  1.00  0.00     0.167 HD
ATOM     48  C   UNL A   1      41.432  27.891  28.883  1.00  0.00     0.031 A 
ATOM     49  C   UNL A   1      39.441  31.527  34.511  1.00  0.00     0.031 A 
ATOM     50  C   UNL A   1      42.248  27.689  30.047  1.00  0.00     0.049 A 
ATOM     51  C   UNL A   1      40.615  30.581  34.542  1.00  0.00     0.074 A 
ATOM     52  C   UNL A   1      43.370  26.891  30.186  1.00  0.00     0.029 A 
ATOM     53  N   UNL A   1      42.032  28.298  31.272  1.00  0.00    -0.354 N 
ATOM     54  N   UNL A   1      41.120  29.852  33.577  1.00  0.00    -0.248 NA
ATOM     55  C   UNL A   1      41.323  30.451  35.825  1.00  0.00     0.031 C 
ATOM     56  C   UNL A   1      43.809  26.985  31.510  1.00  0.00     0.029 A 
ATOM     57  C   UNL A   1      42.993  27.885  32.178  1.00  0.00     0.049 A 
ATOM     58  H   UNL A   1      41.304  28.931  31.469  1.00  0.00     0.167 HD
ATOM     59  C   UNL A   1      42.224  29.207  34.125  1.00  0.00     0.074 A 
ATOM     60  C   UNL A   1      42.322  29.641  35.502  1.00  0.00     0.031 C 
ATOM     61  C   UNL A   1      43.083  28.336  33.541  1.00  0.00     0.031 A 
BRANCH  48  62
ATOM     62  C   UNL A   1      41.773  27.142  27.627  1.00  0.00    -0.014 A 
ATOM     63  C   UNL A   1      41.262  25.858  27.379  1.00  0.00     0.009 A 
ATOM     64  C   UNL A   1      42.614  27.738  26.674  1.00  0.00     0.009 A 
ATOM     65  C   UNL A   1      41.614  25.173  26.214  1.00  0.00     0.001 A 
ATOM     66  C   UNL A   1      42.940  27.062  25.498  1.00  0.00     0.001 A 
ATOM     67  C   UNL A   1      42.448  25.778  25.273  1.00  0.00     0.000 A 
ENDBRANCH  48  62
BRANCH  49  68
ATOM     68  C   UNL A   1      39.046  32.266  35.738  1.00  0.00    -0.014 A 
ATOM     69  C   UNL A   1      39.583  33.533  36.018  1.00  0.00     0.009 A 
ATOM     70  C   UNL A   1      38.166  31.685  36.664  1.00  0.00     0.009 A 
ATOM     71  C   UNL A   1      39.275  34.186  37.214  1.00  0.00     0.001 A 
ATOM     72  C   UNL A   1      37.836  32.353  37.845  1.00  0.00     0.001 A 
ATOM     73  C   UNL A   1      38.400  33.595  38.125  1.00  0.00     0.000 A 
ENDBRANCH  49  68
BRANCH  61  74
ATOM     74  C   UNL A   1      44.235  27.843  34.370  1.00  0.00    -0.014 A 
ATOM     75  C   UNL A   1      44.145  26.665  35.128  1.00  0.00     0.009 A 
ATOM     76  C   UNL A   1      45.445  28.557  34.365  1.00  0.00     0.009 A 
ATOM     77  C   UNL A   1      45.228  26.238  35.899  1.00  0.00     0.001 A 
ATOM     78  C   UNL A   1      46.535  28.111  35.112  1.00  0.00     0.001 A 
ATOM     79  C   UNL A   1      46.423  26.959  35.888  1.00  0.00     0.000 A 
ENDBRANCH  61  74
ENDBRANCH  35  36
ENDBRANCH  28  30
ENDBRANCH  27  28
ENDBRANCH  26  27
ENDBRANCH  25  26
ENDBRANCH  24  25
ENDBRANCH  23  24
ENDBRANCH   1  23
TORSDOF 21
ENDMDL
