MODEL 1
REMARK VINA RESULT:      -9.7      0.000      0.000
REMARK SMILES CC(=O)Nc1nc(C[N@@H+]2CCO[C@@H](CC(=O)OCCOCCOCCOC(=O)c3ccc(-c4c5nc(c(-c6ccccc6)c6ccc([nH]6)c(-c6ccccc6)c6nc(c(-c7ccccc7)c7ccc4[nH]7)C=C6)C=C5)cc3)C2)cs1
REMARK SMILES IDX 21 1 20 2 19 3 18 4 17 5 15 6 16 7 14 8 13 9 9 10 10 11
REMARK SMILES IDX 77 12 11 14 12 15 8 16 7 17 5 18 6 19 79 20 78 21 4 22 1 23
REMARK SMILES IDX 2 24 3 25 22 27 23 28 24 29 25 30 26 31 27 32 28 33 29 34
REMARK SMILES IDX 30 35 76 36 31 37 75 38 32 39 33 40 34 41 69 42 35 43 74 44
REMARK SMILES IDX 68 45 70 46 36 47 73 48 67 49 66 50 37 52 59 53 44 54 58 55
REMARK SMILES IDX 45 56 48 57 57 58 71 59 46 60 47 61 56 63 72 64 49 65 38 66
REMARK SMILES IDX 39 67 43 68 40 69 42 70 41 71 60 72 61 73 65 74 62 75 64 76
REMARK SMILES IDX 63 77 50 78 51 79 55 80 52 81 54 82 53 83
REMARK H PARENT 9 13 4 26 70 51 48 62
REMARK Flexibility Score: inf
ROOT
ATOM      1  C   UNL A   1      41.103  21.522  26.075  1.00  0.00     0.188 C 
ENDROOT
BRANCH   1   2
ATOM      2  O   UNL A   1      40.134  21.783  27.075  1.00  0.00    -0.376 OA
BRANCH   2   3
ATOM      3  C   UNL A   1      39.203  22.810  26.791  1.00  0.00     0.202 C 
BRANCH   3   4
ATOM      4  C   UNL A   1      38.196  22.432  25.707  1.00  0.00     0.261 C 
BRANCH   4   5
ATOM      5  O   UNL A   1      36.830  22.474  26.172  1.00  0.00    -0.463 OA
BRANCH   5   6
ATOM      6  C   UNL A   1      35.951  21.637  25.552  1.00  0.00     0.308 C 
ATOM      7  O   UNL A   1      36.195  20.958  24.565  1.00  0.00    -0.252 OA
BRANCH   6   8
ATOM      8  C   UNL A   1      34.582  21.728  26.173  1.00  0.00     0.160 C 
BRANCH   8   9
ATOM      9  C   UNL A   1      33.527  22.486  25.376  1.00  0.00     0.184 C 
ATOM     10  N   UNL A   1      33.101  24.402  23.770  1.00  0.00    -0.326 N 
ATOM     11  C   UNL A   1      32.480  23.419  22.876  1.00  0.00     0.291 C 
ATOM     12  C   UNL A   1      34.063  23.750  24.671  1.00  0.00     0.295 C 
ATOM     13  H   UNL A   1      33.649  25.026  23.178  1.00  0.00     0.348 HD
ATOM     14  C   UNL A   1      32.031  22.115  23.552  1.00  0.00     0.222 C 
ATOM     15  O   UNL A   1      33.048  21.550  24.383  1.00  0.00    -0.366 OA
BRANCH  10  16
ATOM     16  C   UNL A   1      32.214  25.418  24.357  1.00  0.00     0.320 C 
BRANCH  16  17
ATOM     17  C   UNL A   1      32.375  26.813  23.809  1.00  0.00     0.108 A 
ATOM     18  C   UNL A   1      31.680  28.631  22.743  1.00  0.00     0.189 A 
ATOM     19  N   UNL A   1      31.272  27.513  23.291  1.00  0.00    -0.219 NA
ATOM     20  S   UNL A   1      33.354  28.956  22.850  1.00  0.00    -0.105 S 
ATOM     21  C   UNL A   1      33.555  27.538  23.786  1.00  0.00     0.098 A 
BRANCH  18  22
ATOM     22  N   UNL A   1      31.006  29.559  22.006  1.00  0.00    -0.302 N 
ATOM     23  C   UNL A   1      28.789  29.601  23.144  1.00  0.00     0.114 C 
ATOM     24  C   UNL A   1      29.675  29.819  21.950  1.00  0.00     0.223 C 
ATOM     25  O   UNL A   1      29.243  30.453  20.982  1.00  0.00    -0.275 OA
ATOM     26  H   UNL A   1      31.568  30.123  21.428  1.00  0.00     0.172 HD
ENDBRANCH  18  22
ENDBRANCH  16  17
ENDBRANCH  10  16
ENDBRANCH   8   9
ENDBRANCH   6   8
ENDBRANCH   5   6
ENDBRANCH   4   5
ENDBRANCH   3   4
ENDBRANCH   2   3
ENDBRANCH   1   2
BRANCH   1  27
ATOM     27  C   UNL A   1      42.306  20.680  26.484  1.00  0.00     0.188 C 
BRANCH  27  28
ATOM     28  O   UNL A   1      43.154  20.344  25.388  1.00  0.00    -0.376 OA
BRANCH  28  29
ATOM     29  C   UNL A   1      44.341  21.146  25.416  1.00  0.00     0.202 C 
BRANCH  29  30
ATOM     30  C   UNL A   1      44.390  22.098  24.222  1.00  0.00     0.261 C 
BRANCH  30  31
ATOM     31  O   UNL A   1      43.854  23.409  24.494  1.00  0.00    -0.460 OA
BRANCH  31  32
ATOM     32  C   UNL A   1      44.699  24.361  24.951  1.00  0.00     0.338 C 
ATOM     33  O   UNL A   1      45.808  24.621  24.508  1.00  0.00    -0.246 OA
BRANCH  32  34
ATOM     34  C   UNL A   1      44.034  25.112  26.057  1.00  0.00     0.060 A 
ATOM     35  C   UNL A   1      44.471  26.405  26.360  1.00  0.00     0.016 A 
ATOM     36  C   UNL A   1      42.954  24.576  26.775  1.00  0.00     0.016 A 
ATOM     37  C   UNL A   1      43.785  27.189  27.300  1.00  0.00     0.010 A 
ATOM     38  C   UNL A   1      42.285  25.350  27.737  1.00  0.00     0.010 A 
ATOM     39  C   UNL A   1      42.676  26.674  27.988  1.00  0.00    -0.014 A 
BRANCH  39  40
ATOM     40  C   UNL A   1      42.066  27.446  29.105  1.00  0.00     0.031 A 
ATOM     41  C   UNL A   1      42.706  27.335  30.452  1.00  0.00     0.074 A 
ATOM     42  C   UNL A   1      40.982  28.234  28.965  1.00  0.00     0.049 A 
ATOM     43  N   UNL A   1      42.395  27.938  31.568  1.00  0.00    -0.248 NA
ATOM     44  C   UNL A   1      43.859  26.426  30.545  1.00  0.00     0.031 C 
ATOM     45  C   UNL A   1      40.264  28.458  27.724  1.00  0.00     0.029 A 
ATOM     46  N   UNL A   1      40.285  28.992  29.878  1.00  0.00    -0.354 N 
ATOM     47  C   UNL A   1      43.328  27.502  32.492  1.00  0.00     0.074 A 
ATOM     48  C   UNL A   1      44.194  26.558  31.817  1.00  0.00     0.031 C 
ATOM     49  C   UNL A   1      39.226  29.283  27.934  1.00  0.00     0.029 A 
ATOM     50  C   UNL A   1      39.186  29.632  29.348  1.00  0.00     0.049 A 
ATOM     51  H   UNL A   1      40.548  29.071  30.824  1.00  0.00     0.167 HD
ATOM     52  C   UNL A   1      43.459  27.850  33.792  1.00  0.00     0.031 A 
ATOM     53  C   UNL A   1      38.240  30.394  29.933  1.00  0.00     0.031 A 
ATOM     54  C   UNL A   1      42.552  28.706  34.501  1.00  0.00     0.049 A 
ATOM     55  C   UNL A   1      38.333  30.668  31.408  1.00  0.00     0.074 A 
ATOM     56  C   UNL A   1      42.581  29.078  35.832  1.00  0.00     0.029 A 
ATOM     57  N   UNL A   1      41.427  29.294  33.942  1.00  0.00    -0.354 N 
ATOM     58  N   UNL A   1      39.258  30.296  32.259  1.00  0.00    -0.248 NA
ATOM     59  C   UNL A   1      37.254  31.470  32.006  1.00  0.00     0.031 C 
ATOM     60  C   UNL A   1      41.441  29.847  36.092  1.00  0.00     0.029 A 
ATOM     61  C   UNL A   1      40.735  30.000  34.910  1.00  0.00     0.049 A 
ATOM     62  H   UNL A   1      41.161  29.220  32.997  1.00  0.00     0.167 HD
ATOM     63  C   UNL A   1      38.887  30.835  33.484  1.00  0.00     0.074 A 
ATOM     64  C   UNL A   1      37.660  31.572  33.264  1.00  0.00     0.031 C 
ATOM     65  C   UNL A   1      39.512  30.728  34.682  1.00  0.00     0.031 A 
BRANCH  52  66
ATOM     66  C   UNL A   1      44.608  27.219  34.516  1.00  0.00    -0.014 A 
ATOM     67  C   UNL A   1      45.871  27.834  34.533  1.00  0.00     0.009 A 
ATOM     68  C   UNL A   1      44.452  25.953  35.095  1.00  0.00     0.009 A 
ATOM     69  C   UNL A   1      46.971  27.162  35.068  1.00  0.00     0.001 A 
ATOM     70  C   UNL A   1      45.548  25.296  35.652  1.00  0.00     0.001 A 
ATOM     71  C   UNL A   1      46.809  25.894  35.623  1.00  0.00     0.000 A 
ENDBRANCH  52  66
BRANCH  53  72
ATOM     72  C   UNL A   1      37.101  30.933  29.139  1.00  0.00    -0.014 A 
ATOM     73  C   UNL A   1      37.095  32.265  28.696  1.00  0.00     0.009 A 
ATOM     74  C   UNL A   1      35.991  30.122  28.851  1.00  0.00     0.009 A 
ATOM     75  C   UNL A   1      35.993  32.779  28.006  1.00  0.00     0.001 A 
ATOM     76  C   UNL A   1      34.901  30.632  28.140  1.00  0.00     0.001 A 
ATOM     77  C   UNL A   1      34.899  31.962  27.727  1.00  0.00     0.000 A 
ENDBRANCH  53  72
BRANCH  65  78
ATOM     78  C   UNL A   1      38.899  31.447  35.849  1.00  0.00    -0.014 A 
ATOM     79  C   UNL A   1      37.930  30.834  36.658  1.00  0.00     0.009 A 
ATOM     80  C   UNL A   1      39.344  32.737  36.177  1.00  0.00     0.009 A 
ATOM     81  C   UNL A   1      37.406  31.509  37.763  1.00  0.00     0.001 A 
ATOM     82  C   UNL A   1      38.838  33.398  37.296  1.00  0.00     0.001 A 
ATOM     83  C   UNL A   1      37.865  32.785  38.085  1.00  0.00     0.000 A 
ENDBRANCH  65  78
ENDBRANCH  39  40
ENDBRANCH  32  34
ENDBRANCH  31  32
ENDBRANCH  30  31
ENDBRANCH  29  30
ENDBRANCH  28  29
ENDBRANCH  27  28
ENDBRANCH   1  27
TORSDOF 21
ENDMDL
MODEL 2
REMARK VINA RESULT:      -9.6      4.072     10.018
REMARK SMILES CC(=O)Nc1nc(C[N@@H+]2CCO[C@@H](CC(=O)OCCOCCOCCOC(=O)c3ccc(-c4c5nc(c(-c6ccccc6)c6ccc([nH]6)c(-c6ccccc6)c6nc(c(-c7ccccc7)c7ccc4[nH]7)C=C6)C=C5)cc3)C2)cs1
REMARK SMILES IDX 21 1 20 2 19 3 18 4 17 5 15 6 16 7 14 8 13 9 9 10 10 11
REMARK SMILES IDX 77 12 11 14 12 15 8 16 7 17 5 18 6 19 79 20 78 21 4 22 1 23
REMARK SMILES IDX 2 24 3 25 22 27 23 28 24 29 25 30 26 31 27 32 28 33 29 34
REMARK SMILES IDX 30 35 76 36 31 37 75 38 32 39 33 40 34 41 69 42 35 43 74 44
REMARK SMILES IDX 68 45 70 46 36 47 73 48 67 49 66 50 37 52 59 53 44 54 58 55
REMARK SMILES IDX 45 56 48 57 57 58 71 59 46 60 47 61 56 63 72 64 49 65 38 66
REMARK SMILES IDX 39 67 43 68 40 69 42 70 41 71 60 72 61 73 65 74 62 75 64 76
REMARK SMILES IDX 63 77 50 78 51 79 55 80 52 81 54 82 53 83
REMARK H PARENT 9 13 4 26 70 51 48 62
REMARK Flexibility Score: inf
ROOT
ATOM      1  C   UNL A   1      35.157  31.823  28.466  1.00  0.00     0.188 C 
ENDROOT
BRANCH   1   2
ATOM      2  O   UNL A   1      34.388  30.798  27.859  1.00  0.00    -0.376 OA
BRANCH   2   3
ATOM      3  C   UNL A   1      33.108  31.173  27.388  1.00  0.00     0.202 C 
BRANCH   3   4
ATOM      4  C   UNL A   1      32.649  30.364  26.176  1.00  0.00     0.261 C 
BRANCH   4   5
ATOM      5  O   UNL A   1      31.756  29.285  26.529  1.00  0.00    -0.463 OA
BRANCH   5   6
ATOM      6  C   UNL A   1      32.231  28.020  26.348  1.00  0.00     0.308 C 
ATOM      7  O   UNL A   1      33.225  27.552  26.886  1.00  0.00    -0.252 OA
BRANCH   6   8
ATOM      8  C   UNL A   1      31.434  27.283  25.304  1.00  0.00     0.160 C 
BRANCH   8   9
ATOM      9  C   UNL A   1      32.235  26.547  24.237  1.00  0.00     0.184 C 
ATOM     10  N   UNL A   1      32.838  24.280  23.272  1.00  0.00    -0.326 N 
ATOM     11  C   UNL A   1      32.355  24.781  21.982  1.00  0.00     0.291 C 
ATOM     12  C   UNL A   1      32.207  25.011  24.382  1.00  0.00     0.295 C 
ATOM     13  H   UNL A   1      32.511  23.317  23.348  1.00  0.00     0.348 HD
ATOM     14  C   UNL A   1      32.287  26.312  21.861  1.00  0.00     0.222 C 
ATOM     15  O   UNL A   1      31.632  26.920  22.976  1.00  0.00    -0.366 OA
BRANCH  10  16
ATOM     16  C   UNL A   1      34.279  24.007  23.382  1.00  0.00     0.320 C 
BRANCH  16  17
ATOM     17  C   UNL A   1      34.641  22.662  23.958  1.00  0.00     0.108 A 
ATOM     18  C   UNL A   1      34.182  20.698  24.884  1.00  0.00     0.189 A 
ATOM     19  N   UNL A   1      33.644  21.719  24.262  1.00  0.00    -0.219 NA
ATOM     20  S   UNL A   1      35.876  20.752  25.097  1.00  0.00    -0.105 S 
ATOM     21  C   UNL A   1      35.928  22.213  24.207  1.00  0.00     0.098 A 
BRANCH  18  22
ATOM     22  N   UNL A   1      33.606  19.619  25.486  1.00  0.00    -0.302 N 
ATOM     23  C   UNL A   1      33.088  18.162  23.532  1.00  0.00     0.114 C 
ATOM     24  C   UNL A   1      32.863  18.620  24.945  1.00  0.00     0.223 C 
ATOM     25  O   UNL A   1      32.160  17.940  25.699  1.00  0.00    -0.275 OA
ATOM     26  H   UNL A   1      33.750  19.555  26.457  1.00  0.00     0.172 HD
ENDBRANCH  18  22
ENDBRANCH  16  17
ENDBRANCH  10  16
ENDBRANCH   8   9
ENDBRANCH   6   8
ENDBRANCH   5   6
ENDBRANCH   4   5
ENDBRANCH   3   4
ENDBRANCH   2   3
ENDBRANCH   1   2
BRANCH   1  27
ATOM     27  C   UNL A   1      34.446  32.708  29.483  1.00  0.00     0.188 C 
BRANCH  27  28
ATOM     28  O   UNL A   1      34.556  34.099  29.189  1.00  0.00    -0.376 OA
BRANCH  28  29
ATOM     29  C   UNL A   1      33.262  34.649  28.908  1.00  0.00     0.202 C 
BRANCH  29  30
ATOM     30  C   UNL A   1      32.900  35.743  29.911  1.00  0.00     0.261 C 
BRANCH  30  31
ATOM     31  O   UNL A   1      32.324  35.249  31.137  1.00  0.00    -0.460 OA
BRANCH  31  32
ATOM     32  C   UNL A   1      32.781  35.754  32.306  1.00  0.00     0.338 C 
ATOM     33  O   UNL A   1      32.223  36.589  33.003  1.00  0.00    -0.246 OA
BRANCH  32  34
ATOM     34  C   UNL A   1      34.062  35.075  32.662  1.00  0.00     0.060 A 
ATOM     35  C   UNL A   1      34.018  33.809  33.254  1.00  0.00     0.016 A 
ATOM     36  C   UNL A   1      35.310  35.649  32.382  1.00  0.00     0.016 A 
ATOM     37  C   UNL A   1      35.198  33.085  33.480  1.00  0.00     0.010 A 
ATOM     38  C   UNL A   1      36.494  34.937  32.635  1.00  0.00     0.010 A 
ATOM     39  C   UNL A   1      36.448  33.636  33.159  1.00  0.00    -0.014 A 
BRANCH  39  40
ATOM     40  C   UNL A   1      37.699  32.936  33.564  1.00  0.00     0.031 A 
ATOM     41  C   UNL A   1      38.222  31.875  32.650  1.00  0.00     0.074 A 
ATOM     42  C   UNL A   1      38.377  33.211  34.695  1.00  0.00     0.049 A 
ATOM     43  N   UNL A   1      39.309  31.156  32.754  1.00  0.00    -0.248 NA
ATOM     44  C   UNL A   1      37.411  31.594  31.455  1.00  0.00     0.031 C 
ATOM     45  C   UNL A   1      38.008  34.222  35.669  1.00  0.00     0.029 A 
ATOM     46  N   UNL A   1      39.520  32.660  35.226  1.00  0.00    -0.354 N 
ATOM     47  C   UNL A   1      39.327  30.356  31.625  1.00  0.00     0.074 A 
ATOM     48  C   UNL A   1      38.128  30.651  30.869  1.00  0.00     0.031 C 
ATOM     49  C   UNL A   1      38.886  34.228  36.684  1.00  0.00     0.029 A 
ATOM     50  C   UNL A   1      39.880  33.190  36.445  1.00  0.00     0.049 A 
ATOM     51  H   UNL A   1      40.035  31.951  34.776  1.00  0.00     0.167 HD
ATOM     52  C   UNL A   1      40.256  29.451  31.243  1.00  0.00     0.031 A 
ATOM     53  C   UNL A   1      40.882  32.867  37.288  1.00  0.00     0.031 A 
ATOM     54  C   UNL A   1      41.398  29.077  32.028  1.00  0.00     0.049 A 
ATOM     55  C   UNL A   1      41.834  31.769  36.904  1.00  0.00     0.074 A 
ATOM     56  C   UNL A   1      42.368  28.135  31.741  1.00  0.00     0.029 A 
ATOM     57  N   UNL A   1      41.700  29.601  33.276  1.00  0.00    -0.354 N 
ATOM     58  N   UNL A   1      41.873  31.061  35.801  1.00  0.00    -0.248 NA
ATOM     59  C   UNL A   1      42.883  31.427  37.876  1.00  0.00     0.031 C 
ATOM     60  C   UNL A   1      43.228  28.050  32.842  1.00  0.00     0.029 A 
ATOM     61  C   UNL A   1      42.824  28.978  33.788  1.00  0.00     0.049 A 
ATOM     62  H   UNL A   1      41.189  30.310  33.730  1.00  0.00     0.167 HD
ATOM     63  C   UNL A   1      42.960  30.206  35.937  1.00  0.00     0.074 A 
ATOM     64  C   UNL A   1      43.563  30.494  37.222  1.00  0.00     0.031 C 
ATOM     65  C   UNL A   1      43.415  29.270  35.070  1.00  0.00     0.031 A 
BRANCH  52  66
ATOM     66  C   UNL A   1      39.995  28.771  29.935  1.00  0.00    -0.014 A 
ATOM     67  C   UNL A   1      39.372  27.512  29.892  1.00  0.00     0.009 A 
ATOM     68  C   UNL A   1      40.469  29.344  28.748  1.00  0.00     0.009 A 
ATOM     69  C   UNL A   1      39.282  26.816  28.687  1.00  0.00     0.001 A 
ATOM     70  C   UNL A   1      40.353  28.656  27.541  1.00  0.00     0.001 A 
ATOM     71  C   UNL A   1      39.775  27.387  27.514  1.00  0.00     0.000 A 
ENDBRANCH  52  66
BRANCH  53  72
ATOM     72  C   UNL A   1      41.028  33.564  38.597  1.00  0.00    -0.014 A 
ATOM     73  C   UNL A   1      40.364  33.095  39.741  1.00  0.00     0.009 A 
ATOM     74  C   UNL A   1      41.804  34.729  38.698  1.00  0.00     0.009 A 
ATOM     75  C   UNL A   1      40.455  33.792  40.951  1.00  0.00     0.001 A 
ATOM     76  C   UNL A   1      41.913  35.410  39.913  1.00  0.00     0.001 A 
ATOM     77  C   UNL A   1      41.232  34.946  41.036  1.00  0.00     0.000 A 
ENDBRANCH  53  72
BRANCH  65  78
ATOM     78  C   UNL A   1      44.644  28.502  35.463  1.00  0.00    -0.014 A 
ATOM     79  C   UNL A   1      45.930  28.981  35.170  1.00  0.00     0.009 A 
ATOM     80  C   UNL A   1      44.511  27.311  36.194  1.00  0.00     0.009 A 
ATOM     81  C   UNL A   1      47.059  28.271  35.584  1.00  0.00     0.001 A 
ATOM     82  C   UNL A   1      45.641  26.617  36.629  1.00  0.00     0.001 A 
ATOM     83  C   UNL A   1      46.913  27.095  36.319  1.00  0.00     0.000 A 
ENDBRANCH  65  78
ENDBRANCH  39  40
ENDBRANCH  32  34
ENDBRANCH  31  32
ENDBRANCH  30  31
ENDBRANCH  29  30
ENDBRANCH  28  29
ENDBRANCH  27  28
ENDBRANCH   1  27
TORSDOF 21
ENDMDL
MODEL 3
REMARK VINA RESULT:      -9.5      3.664      9.018
REMARK SMILES CC(=O)Nc1nc(C[N@@H+]2CCO[C@@H](CC(=O)OCCOCCOCCOC(=O)c3ccc(-c4c5nc(c(-c6ccccc6)c6ccc([nH]6)c(-c6ccccc6)c6nc(c(-c7ccccc7)c7ccc4[nH]7)C=C6)C=C5)cc3)C2)cs1
REMARK SMILES IDX 21 1 20 2 19 3 18 4 17 5 15 6 16 7 14 8 13 9 9 10 10 11
REMARK SMILES IDX 77 12 11 14 12 15 8 16 7 17 5 18 6 19 79 20 78 21 4 22 1 23
REMARK SMILES IDX 2 24 3 25 22 27 23 28 24 29 25 30 26 31 27 32 28 33 29 34
REMARK SMILES IDX 30 35 76 36 31 37 75 38 32 39 33 40 34 41 69 42 35 43 74 44
REMARK SMILES IDX 68 45 70 46 36 47 73 48 67 49 66 50 37 52 59 53 44 54 58 55
REMARK SMILES IDX 45 56 48 57 57 58 71 59 46 60 47 61 56 63 72 64 49 65 38 66
REMARK SMILES IDX 39 67 43 68 40 69 42 70 41 71 60 72 61 73 65 74 62 75 64 76
REMARK SMILES IDX 63 77 50 78 51 79 55 80 52 81 54 82 53 83
REMARK H PARENT 9 13 4 26 70 51 48 62
REMARK Flexibility Score: inf
ROOT
ATOM      1  C   UNL A   1      34.663  32.251  28.797  1.00  0.00     0.188 C 
ENDROOT
BRANCH   1   2
ATOM      2  O   UNL A   1      35.284  31.785  27.612  1.00  0.00    -0.376 OA
BRANCH   2   3
ATOM      3  C   UNL A   1      35.863  30.496  27.675  1.00  0.00     0.202 C 
BRANCH   3   4
ATOM      4  C   UNL A   1      34.873  29.372  27.376  1.00  0.00     0.261 C 
BRANCH   4   5
ATOM      5  O   UNL A   1      33.656  29.846  26.761  1.00  0.00    -0.463 OA
BRANCH   5   6
ATOM      6  C   UNL A   1      33.068  29.014  25.857  1.00  0.00     0.308 C 
ATOM      7  O   UNL A   1      32.122  29.302  25.138  1.00  0.00    -0.252 OA
BRANCH   6   8
ATOM      8  C   UNL A   1      33.661  27.632  25.923  1.00  0.00     0.160 C 
BRANCH   8   9
ATOM      9  C   UNL A   1      33.193  26.643  24.862  1.00  0.00     0.184 C 
ATOM     10  N   UNL A   1      33.565  25.775  22.508  1.00  0.00    -0.326 N 
ATOM     11  C   UNL A   1      33.711  24.441  23.100  1.00  0.00     0.291 C 
ATOM     12  C   UNL A   1      33.885  26.819  23.494  1.00  0.00     0.295 C 
ATOM     13  H   UNL A   1      34.278  25.847  21.781  1.00  0.00     0.348 HD
ATOM     14  C   UNL A   1      33.110  24.283  24.505  1.00  0.00     0.222 C 
ATOM     15  O   UNL A   1      33.504  25.333  25.392  1.00  0.00    -0.366 OA
BRANCH  10  16
ATOM     16  C   UNL A   1      32.390  25.997  21.653  1.00  0.00     0.320 C 
BRANCH  16  17
ATOM     17  C   UNL A   1      31.200  26.620  22.337  1.00  0.00     0.108 A 
ATOM     18  C   UNL A   1      29.968  28.330  23.035  1.00  0.00     0.189 A 
ATOM     19  N   UNL A   1      30.962  28.003  22.246  1.00  0.00    -0.219 NA
ATOM     20  S   UNL A   1      29.222  27.044  23.879  1.00  0.00    -0.105 S 
ATOM     21  C   UNL A   1      30.239  25.936  23.063  1.00  0.00     0.098 A 
BRANCH  18  22
ATOM     22  N   UNL A   1      29.471  29.550  23.382  1.00  0.00    -0.302 N 
ATOM     23  C   UNL A   1      28.029  30.088  21.422  1.00  0.00     0.114 C 
ATOM     24  C   UNL A   1      28.855  30.484  22.613  1.00  0.00     0.223 C 
ATOM     25  O   UNL A   1      28.792  31.642  23.037  1.00  0.00    -0.275 OA
ATOM     26  H   UNL A   1      29.575  29.791  24.331  1.00  0.00     0.172 HD
ENDBRANCH  18  22
ENDBRANCH  16  17
ENDBRANCH  10  16
ENDBRANCH   8   9
ENDBRANCH   6   8
ENDBRANCH   5   6
ENDBRANCH   4   5
ENDBRANCH   3   4
ENDBRANCH   2   3
ENDBRANCH   1   2
BRANCH   1  27
ATOM     27  C   UNL A   1      34.698  33.754  29.050  1.00  0.00     0.188 C 
BRANCH  27  28
ATOM     28  O   UNL A   1      33.438  34.285  29.455  1.00  0.00    -0.376 OA
BRANCH  28  29
ATOM     29  C   UNL A   1      33.345  35.669  29.096  1.00  0.00     0.202 C 
BRANCH  29  30
ATOM     30  C   UNL A   1      32.530  36.451  30.124  1.00  0.00     0.261 C 
BRANCH  30  31
ATOM     31  O   UNL A   1      32.143  35.678  31.278  1.00  0.00    -0.460 OA
BRANCH  31  32
ATOM     32  C   UNL A   1      32.667  36.017  32.478  1.00  0.00     0.338 C 
ATOM     33  O   UNL A   1      32.189  36.806  33.281  1.00  0.00    -0.246 OA
BRANCH  32  34
ATOM     34  C   UNL A   1      33.903  35.216  32.714  1.00  0.00     0.060 A 
ATOM     35  C   UNL A   1      33.785  33.910  33.200  1.00  0.00     0.016 A 
ATOM     36  C   UNL A   1      35.180  35.717  32.423  1.00  0.00     0.016 A 
ATOM     37  C   UNL A   1      34.912  33.082  33.307  1.00  0.00     0.010 A 
ATOM     38  C   UNL A   1      36.314  34.899  32.558  1.00  0.00     0.010 A 
ATOM     39  C   UNL A   1      36.187  33.564  32.974  1.00  0.00    -0.014 A 
BRANCH  39  40
ATOM     40  C   UNL A   1      37.395  32.740  33.257  1.00  0.00     0.031 A 
ATOM     41  C   UNL A   1      38.162  33.045  34.504  1.00  0.00     0.074 A 
ATOM     42  C   UNL A   1      37.824  31.743  32.459  1.00  0.00     0.049 A 
ATOM     43  N   UNL A   1      39.214  32.447  34.995  1.00  0.00    -0.248 NA
ATOM     44  C   UNL A   1      37.665  34.173  35.308  1.00  0.00     0.031 C 
ATOM     45  C   UNL A   1      37.179  31.317  31.231  1.00  0.00     0.029 A 
ATOM     46  N   UNL A   1      38.912  30.906  32.556  1.00  0.00    -0.354 N 
ATOM     47  C   UNL A   1      39.492  33.109  36.178  1.00  0.00     0.074 A 
ATOM     48  C   UNL A   1      38.521  34.174  36.315  1.00  0.00     0.031 C 
ATOM     49  C   UNL A   1      37.870  30.311  30.672  1.00  0.00     0.029 A 
ATOM     50  C   UNL A   1      39.037  30.032  31.499  1.00  0.00     0.049 A 
ATOM     51  H   UNL A   1      39.543  30.929  33.311  1.00  0.00     0.167 HD
ATOM     52  C   UNL A   1      40.470  32.859  37.078  1.00  0.00     0.031 A 
ATOM     53  C   UNL A   1      39.991  29.123  31.212  1.00  0.00     0.031 A 
ATOM     54  C   UNL A   1      41.498  31.873  36.911  1.00  0.00     0.049 A 
ATOM     55  C   UNL A   1      41.141  28.946  32.165  1.00  0.00     0.074 A 
ATOM     56  C   UNL A   1      42.557  31.581  37.750  1.00  0.00     0.029 A 
ATOM     57  N   UNL A   1      41.618  31.042  35.806  1.00  0.00    -0.354 N 
ATOM     58  N   UNL A   1      41.358  29.540  33.314  1.00  0.00    -0.248 NA
ATOM     59  C   UNL A   1      42.176  27.973  31.786  1.00  0.00     0.031 C 
ATOM     60  C   UNL A   1      43.349  30.610  37.128  1.00  0.00     0.029 A 
ATOM     61  C   UNL A   1      42.753  30.260  35.927  1.00  0.00     0.049 A 
ATOM     62  H   UNL A   1      40.990  31.014  35.049  1.00  0.00     0.167 HD
ATOM     63  C   UNL A   1      42.539  28.998  33.804  1.00  0.00     0.074 A 
ATOM     64  C   UNL A   1      42.985  28.017  32.836  1.00  0.00     0.031 C 
ATOM     65  C   UNL A   1      43.190  29.289  34.956  1.00  0.00     0.031 A 
BRANCH  52  66
ATOM     66  C   UNL A   1      40.477  33.745  38.286  1.00  0.00    -0.014 A 
ATOM     67  C   UNL A   1      39.721  33.414  39.423  1.00  0.00     0.009 A 
ATOM     68  C   UNL A   1      41.159  34.968  38.245  1.00  0.00     0.009 A 
ATOM     69  C   UNL A   1      39.604  34.322  40.476  1.00  0.00     0.001 A 
ATOM     70  C   UNL A   1      41.060  35.862  39.311  1.00  0.00     0.001 A 
ATOM     71  C   UNL A   1      40.271  35.545  40.417  1.00  0.00     0.000 A 
ENDBRANCH  52  66
BRANCH  53  72
ATOM     72  C   UNL A   1      39.928  28.326  29.955  1.00  0.00    -0.014 A 
ATOM     73  C   UNL A   1      39.280  27.082  29.921  1.00  0.00     0.009 A 
ATOM     74  C   UNL A   1      40.552  28.793  28.787  1.00  0.00     0.009 A 
ATOM     75  C   UNL A   1      39.281  26.312  28.753  1.00  0.00     0.001 A 
ATOM     76  C   UNL A   1      40.530  28.033  27.615  1.00  0.00     0.001 A 
ATOM     77  C   UNL A   1      39.903  26.790  27.601  1.00  0.00     0.000 A 
ENDBRANCH  53  72
BRANCH  65  78
ATOM     78  C   UNL A   1      44.444  28.518  35.255  1.00  0.00    -0.014 A 
ATOM     79  C   UNL A   1      45.706  29.000  34.875  1.00  0.00     0.009 A 
ATOM     80  C   UNL A   1      44.363  27.320  35.981  1.00  0.00     0.009 A 
ATOM     81  C   UNL A   1      46.861  28.286  35.201  1.00  0.00     0.001 A 
ATOM     82  C   UNL A   1      45.520  26.622  36.329  1.00  0.00     0.001 A 
ATOM     83  C   UNL A   1      46.767  27.103  35.934  1.00  0.00     0.000 A 
ENDBRANCH  65  78
ENDBRANCH  39  40
ENDBRANCH  32  34
ENDBRANCH  31  32
ENDBRANCH  30  31
ENDBRANCH  29  30
ENDBRANCH  28  29
ENDBRANCH  27  28
ENDBRANCH   1  27
TORSDOF 21
ENDMDL
