MODEL 1
REMARK VINA RESULT:      -8.9      0.000      0.000
REMARK SMILES COc1cnc(F)c(C(=O)OCCOCCOCCOC(=O)c2ccc(-c3c4nc(c(-c5ccccc5)c5ccc([nH]5)c(-c5ccccc5)c5nc(c(-c6ccccc6)c6ccc3[nH]6)C=C5)C=C4)cc2)c1
REMARK SMILES IDX 16 1 15 2 14 3 13 4 12 5 11 6 9 7 10 8 8 9 3 10 4 11 71 12
REMARK SMILES IDX 5 13 6 14 7 15 2 16 1 17 17 18 18 19 19 20 20 21 21 22 22 23
REMARK SMILES IDX 23 24 24 25 70 26 25 27 69 28 26 29 27 30 28 31 63 32 29 33
REMARK SMILES IDX 68 34 62 35 64 36 30 37 67 38 61 39 60 40 31 42 53 43 38 44
REMARK SMILES IDX 52 45 39 46 42 47 51 48 65 49 40 50 41 51 50 53 66 54 43 55
REMARK SMILES IDX 32 56 33 57 37 58 34 59 36 60 35 61 54 62 55 63 59 64 56 65
REMARK SMILES IDX 58 66 57 67 44 68 45 69 49 70 46 71 48 72 47 73
REMARK H PARENT 64 41 42 52
REMARK Flexibility Score: inf
ROOT
ATOM      1  C   UNL A   1      36.224  20.184  25.002  1.00  0.00     0.188 C 
ENDROOT
BRANCH   1   2
ATOM      2  C   UNL A   1      36.028  21.550  25.694  1.00  0.00     0.188 C 
BRANCH   2   3
ATOM      3  O   UNL A   1      36.087  22.748  24.925  1.00  0.00    -0.376 OA
BRANCH   3   4
ATOM      4  C   UNL A   1      35.555  22.764  23.602  1.00  0.00     0.202 C 
BRANCH   4   5
ATOM      5  C   UNL A   1      34.233  23.504  23.360  1.00  0.00     0.261 C 
BRANCH   5   6
ATOM      6  O   UNL A   1      33.290  22.756  22.574  1.00  0.00    -0.460 OA
BRANCH   6   7
ATOM      7  C   UNL A   1      32.163  22.362  23.214  1.00  0.00     0.343 C 
ATOM      8  O   UNL A   1      31.077  22.922  23.200  1.00  0.00    -0.246 OA
BRANCH   7   9
ATOM      9  C   UNL A   1      32.332  21.016  23.769  1.00  0.00     0.118 A 
ATOM     10  C   UNL A   1      32.664  18.661  23.407  1.00  0.00     0.138 A 
ATOM     11  C   UNL A   1      32.651  18.509  24.788  1.00  0.00     0.160 A 
ATOM     12  C   UNL A   1      32.478  19.936  22.888  1.00  0.00     0.068 A 
ATOM     13  N   UNL A   1      32.520  19.537  25.662  1.00  0.00    -0.224 NA
ATOM     14  C   UNL A   1      32.361  20.773  25.131  1.00  0.00     0.227 A 
ATOM     15  F   UNL A   1      32.208  21.785  25.999  1.00  0.00    -0.184 F 
BRANCH  10  16
ATOM     16  O   UNL A   1      32.754  17.546  22.627  1.00  0.00    -0.495 OA
ATOM     17  C   UNL A   1      33.891  16.739  22.934  1.00  0.00     0.278 C 
ENDBRANCH  10  16
ENDBRANCH   7   9
ENDBRANCH   6   7
ENDBRANCH   5   6
ENDBRANCH   4   5
ENDBRANCH   3   4
ENDBRANCH   2   3
ENDBRANCH   1   2
BRANCH   1  18
ATOM     18  O   UNL A   1      37.525  19.999  24.497  1.00  0.00    -0.376 OA
BRANCH  18  19
ATOM     19  C   UNL A   1      38.635  20.323  25.312  1.00  0.00     0.202 C 
BRANCH  19  20
ATOM     20  C   UNL A   1      39.625  19.244  25.792  1.00  0.00     0.261 C 
BRANCH  20  21
ATOM     21  O   UNL A   1      40.964  19.306  25.288  1.00  0.00    -0.460 OA
BRANCH  21  22
ATOM     22  C   UNL A   1      41.959  19.432  26.195  1.00  0.00     0.338 C 
ATOM     23  O   UNL A   1      42.778  18.593  26.514  1.00  0.00    -0.246 OA
BRANCH  22  24
ATOM     24  C   UNL A   1      41.996  20.843  26.631  1.00  0.00     0.060 A 
ATOM     25  C   UNL A   1      42.272  21.836  25.682  1.00  0.00     0.016 A 
ATOM     26  C   UNL A   1      41.776  21.184  27.968  1.00  0.00     0.016 A 
ATOM     27  C   UNL A   1      42.354  23.172  26.076  1.00  0.00     0.010 A 
ATOM     28  C   UNL A   1      41.874  22.521  28.363  1.00  0.00     0.010 A 
ATOM     29  C   UNL A   1      42.190  23.519  27.424  1.00  0.00    -0.014 A 
BRANCH  29  30
ATOM     30  C   UNL A   1      42.512  24.894  27.876  1.00  0.00     0.031 A 
ATOM     31  C   UNL A   1      43.953  25.258  28.108  1.00  0.00     0.074 A 
ATOM     32  C   UNL A   1      41.547  25.813  28.061  1.00  0.00     0.049 A 
ATOM     33  N   UNL A   1      44.467  26.390  28.520  1.00  0.00    -0.248 NA
ATOM     34  C   UNL A   1      44.946  24.206  27.836  1.00  0.00     0.031 C 
ATOM     35  C   UNL A   1      40.119  25.603  27.836  1.00  0.00     0.029 A 
ATOM     36  N   UNL A   1      41.634  27.115  28.489  1.00  0.00    -0.354 N 
ATOM     37  C   UNL A   1      45.840  26.185  28.559  1.00  0.00     0.074 A 
ATOM     38  C   UNL A   1      46.079  24.816  28.155  1.00  0.00     0.031 C 
ATOM     39  C   UNL A   1      39.460  26.736  28.137  1.00  0.00     0.029 A 
ATOM     40  C   UNL A   1      40.416  27.738  28.605  1.00  0.00     0.049 A 
ATOM     41  H   UNL A   1      42.489  27.560  28.694  1.00  0.00     0.167 HD
ATOM     42  C   UNL A   1      46.820  27.058  28.895  1.00  0.00     0.031 A 
ATOM     43  C   UNL A   1      40.108  28.970  29.058  1.00  0.00     0.031 A 
ATOM     44  C   UNL A   1      46.590  28.411  29.322  1.00  0.00     0.049 A 
ATOM     45  C   UNL A   1      41.209  29.893  29.512  1.00  0.00     0.074 A 
ATOM     46  C   UNL A   1      47.520  29.373  29.677  1.00  0.00     0.029 A 
ATOM     47  N   UNL A   1      45.339  28.990  29.463  1.00  0.00    -0.354 N 
ATOM     48  N   UNL A   1      42.506  29.698  29.512  1.00  0.00    -0.248 NA
ATOM     49  C   UNL A   1      40.800  31.211  30.022  1.00  0.00     0.031 C 
ATOM     50  C   UNL A   1      46.828  30.518  30.085  1.00  0.00     0.029 A 
ATOM     51  C   UNL A   1      45.471  30.289  29.927  1.00  0.00     0.049 A 
ATOM     52  H   UNL A   1      44.484  28.545  29.265  1.00  0.00     0.167 HD
ATOM     53  C   UNL A   1      43.067  30.878  29.989  1.00  0.00     0.074 A 
ATOM     54  C   UNL A   1      41.971  31.785  30.257  1.00  0.00     0.031 C 
ATOM     55  C   UNL A   1      44.373  31.183  30.185  1.00  0.00     0.031 A 
BRANCH  42  56
ATOM     56  C   UNL A   1      48.235  26.556  28.847  1.00  0.00    -0.014 A 
ATOM     57  C   UNL A   1      48.768  25.780  29.888  1.00  0.00     0.009 A 
ATOM     58  C   UNL A   1      49.036  26.838  27.729  1.00  0.00     0.009 A 
ATOM     59  C   UNL A   1      50.085  25.323  29.825  1.00  0.00     0.001 A 
ATOM     60  C   UNL A   1      50.345  26.357  27.658  1.00  0.00     0.001 A 
ATOM     61  C   UNL A   1      50.871  25.608  28.709  1.00  0.00     0.000 A 
ENDBRANCH  42  56
BRANCH  43  62
ATOM     62  C   UNL A   1      38.688  29.407  29.131  1.00  0.00    -0.014 A 
ATOM     63  C   UNL A   1      37.925  29.174  30.285  1.00  0.00     0.009 A 
ATOM     64  C   UNL A   1      38.079  30.024  28.028  1.00  0.00     0.009 A 
ATOM     65  C   UNL A   1      36.573  29.526  30.323  1.00  0.00     0.001 A 
ATOM     66  C   UNL A   1      36.734  30.401  28.079  1.00  0.00     0.001 A 
ATOM     67  C   UNL A   1      35.981  30.143  29.222  1.00  0.00     0.000 A 
ENDBRANCH  43  62
BRANCH  55  68
ATOM     68  C   UNL A   1      44.696  32.570  30.668  1.00  0.00    -0.014 A 
ATOM     69  C   UNL A   1      44.834  32.855  32.035  1.00  0.00     0.009 A 
ATOM     70  C   UNL A   1      44.910  33.596  29.735  1.00  0.00     0.009 A 
ATOM     71  C   UNL A   1      45.147  34.149  32.457  1.00  0.00     0.001 A 
ATOM     72  C   UNL A   1      45.251  34.882  30.158  1.00  0.00     0.001 A 
ATOM     73  C   UNL A   1      45.361  35.159  31.519  1.00  0.00     0.000 A 
ENDBRANCH  55  68
ENDBRANCH  29  30
ENDBRANCH  22  24
ENDBRANCH  21  22
ENDBRANCH  20  21
ENDBRANCH  19  20
ENDBRANCH  18  19
ENDBRANCH   1  18
TORSDOF 18
ENDMDL
MODEL 2
REMARK VINA RESULT:      -8.8      2.124      3.283
REMARK SMILES COc1cnc(F)c(C(=O)OCCOCCOCCOC(=O)c2ccc(-c3c4nc(c(-c5ccccc5)c5ccc([nH]5)c(-c5ccccc5)c5nc(c(-c6ccccc6)c6ccc3[nH]6)C=C5)C=C4)cc2)c1
REMARK SMILES IDX 16 1 15 2 14 3 13 4 12 5 11 6 9 7 10 8 8 9 3 10 4 11 71 12
REMARK SMILES IDX 5 13 6 14 7 15 2 16 1 17 17 18 18 19 19 20 20 21 21 22 22 23
REMARK SMILES IDX 23 24 24 25 70 26 25 27 69 28 26 29 27 30 28 31 63 32 29 33
REMARK SMILES IDX 68 34 62 35 64 36 30 37 67 38 61 39 60 40 31 42 53 43 38 44
REMARK SMILES IDX 52 45 39 46 42 47 51 48 65 49 40 50 41 51 50 53 66 54 43 55
REMARK SMILES IDX 32 56 33 57 37 58 34 59 36 60 35 61 54 62 55 63 59 64 56 65
REMARK SMILES IDX 58 66 57 67 44 68 45 69 49 70 46 71 48 72 47 73
REMARK H PARENT 64 41 42 52
REMARK Flexibility Score: inf
ROOT
ATOM      1  C   UNL A   1      35.317  21.142  24.987  1.00  0.00     0.188 C 
ENDROOT
BRANCH   1   2
ATOM      2  C   UNL A   1      35.821  22.566  25.306  1.00  0.00     0.188 C 
BRANCH   2   3
ATOM      3  O   UNL A   1      35.013  23.445  26.083  1.00  0.00    -0.376 OA
BRANCH   3   4
ATOM      4  C   UNL A   1      34.223  22.921  27.147  1.00  0.00     0.202 C 
BRANCH   4   5
ATOM      5  C   UNL A   1      32.721  22.720  26.906  1.00  0.00     0.261 C 
BRANCH   5   6
ATOM      6  O   UNL A   1      31.902  23.753  27.480  1.00  0.00    -0.460 OA
BRANCH   6   7
ATOM      7  C   UNL A   1      30.718  23.983  26.864  1.00  0.00     0.343 C 
ATOM      8  O   UNL A   1      29.627  23.527  27.174  1.00  0.00    -0.246 OA
BRANCH   7   9
ATOM      9  C   UNL A   1      30.854  25.060  25.878  1.00  0.00     0.118 A 
ATOM     10  C   UNL A   1      31.294  27.375  25.399  1.00  0.00     0.138 A 
ATOM     11  C   UNL A   1      31.112  27.069  24.056  1.00  0.00     0.160 A 
ATOM     12  C   UNL A   1      31.139  26.355  26.329  1.00  0.00     0.068 A 
ATOM     13  N   UNL A   1      30.845  25.824  23.593  1.00  0.00    -0.224 NA
ATOM     14  C   UNL A   1      30.719  24.842  24.518  1.00  0.00     0.227 A 
ATOM     15  F   UNL A   1      30.431  23.616  24.058  1.00  0.00    -0.184 F 
BRANCH  10  16
ATOM     16  O   UNL A   1      31.512  28.675  25.749  1.00  0.00    -0.495 OA
ATOM     17  C   UNL A   1      31.828  28.835  27.133  1.00  0.00     0.278 C 
ENDBRANCH  10  16
ENDBRANCH   7   9
ENDBRANCH   6   7
ENDBRANCH   5   6
ENDBRANCH   4   5
ENDBRANCH   3   4
ENDBRANCH   2   3
ENDBRANCH   1   2
BRANCH   1  18
ATOM     18  O   UNL A   1      36.350  20.187  24.937  1.00  0.00    -0.376 OA
BRANCH  18  19
ATOM     19  C   UNL A   1      37.696  20.622  24.975  1.00  0.00     0.202 C 
BRANCH  19  20
ATOM     20  C   UNL A   1      38.863  19.625  25.104  1.00  0.00     0.261 C 
BRANCH  20  21
ATOM     21  O   UNL A   1      39.683  19.716  26.275  1.00  0.00    -0.460 OA
BRANCH  21  22
ATOM     22  C   UNL A   1      41.022  19.727  26.090  1.00  0.00     0.338 C 
ATOM     23  O   UNL A   1      41.692  18.911  25.486  1.00  0.00    -0.246 OA
BRANCH  22  24
ATOM     24  C   UNL A   1      41.540  21.008  26.614  1.00  0.00     0.060 A 
ATOM     25  C   UNL A   1      41.399  21.285  27.979  1.00  0.00     0.016 A 
ATOM     26  C   UNL A   1      42.147  21.934  25.762  1.00  0.00     0.016 A 
ATOM     27  C   UNL A   1      41.842  22.505  28.490  1.00  0.00     0.010 A 
ATOM     28  C   UNL A   1      42.575  23.162  26.273  1.00  0.00     0.010 A 
ATOM     29  C   UNL A   1      42.401  23.465  27.635  1.00  0.00    -0.014 A 
BRANCH  29  30
ATOM     30  C   UNL A   1      42.649  24.840  28.131  1.00  0.00     0.031 A 
ATOM     31  C   UNL A   1      44.050  25.223  28.525  1.00  0.00     0.074 A 
ATOM     32  C   UNL A   1      41.656  25.744  28.214  1.00  0.00     0.049 A 
ATOM     33  N   UNL A   1      44.498  26.358  29.001  1.00  0.00    -0.248 NA
ATOM     34  C   UNL A   1      45.083  24.188  28.358  1.00  0.00     0.031 C 
ATOM     35  C   UNL A   1      40.266  25.515  27.829  1.00  0.00     0.029 A 
ATOM     36  N   UNL A   1      41.675  27.042  28.659  1.00  0.00    -0.354 N 
ATOM     37  C   UNL A   1      45.861  26.172  29.191  1.00  0.00     0.074 A 
ATOM     38  C   UNL A   1      46.164  24.811  28.805  1.00  0.00     0.031 C 
ATOM     39  C   UNL A   1      39.560  26.635  28.064  1.00  0.00     0.029 A 
ATOM     40  C   UNL A   1      40.442  27.647  28.644  1.00  0.00     0.049 A 
ATOM     41  H   UNL A   1      42.494  27.498  28.962  1.00  0.00     0.167 HD
ATOM     42  C   UNL A   1      46.783  27.056  29.641  1.00  0.00     0.031 A 
ATOM     43  C   UNL A   1      40.067  28.870  29.069  1.00  0.00     0.031 A 
ATOM     44  C   UNL A   1      46.487  28.401  30.051  1.00  0.00     0.049 A 
ATOM     45  C   UNL A   1      41.096  29.804  29.650  1.00  0.00     0.074 A 
ATOM     46  C   UNL A   1      47.356  29.373  30.515  1.00  0.00     0.029 A 
ATOM     47  N   UNL A   1      45.219  28.961  30.056  1.00  0.00    -0.354 N 
ATOM     48  N   UNL A   1      42.387  29.628  29.794  1.00  0.00    -0.248 NA
ATOM     49  C   UNL A   1      40.613  31.111  30.122  1.00  0.00     0.031 C 
ATOM     50  C   UNL A   1      46.606  30.504  30.852  1.00  0.00     0.029 A 
ATOM     51  C   UNL A   1      45.278  30.257  30.542  1.00  0.00     0.049 A 
ATOM     52  H   UNL A   1      44.398  28.506  29.761  1.00  0.00     0.167 HD
ATOM     53  C   UNL A   1      42.874  30.811  30.340  1.00  0.00     0.074 A 
ATOM     54  C   UNL A   1      41.741  31.700  30.491  1.00  0.00     0.031 C 
ATOM     55  C   UNL A   1      44.145  31.133  30.683  1.00  0.00     0.031 A 
BRANCH  42  56
ATOM     56  C   UNL A   1      48.202  26.575  29.747  1.00  0.00    -0.014 A 
ATOM     57  C   UNL A   1      48.649  25.870  30.876  1.00  0.00     0.009 A 
ATOM     58  C   UNL A   1      49.096  26.803  28.689  1.00  0.00     0.009 A 
ATOM     59  C   UNL A   1      49.972  25.431  30.956  1.00  0.00     0.001 A 
ATOM     60  C   UNL A   1      50.411  26.340  28.762  1.00  0.00     0.001 A 
ATOM     61  C   UNL A   1      50.850  25.663  29.898  1.00  0.00     0.000 A 
ENDBRANCH  42  56
BRANCH  43  62
ATOM     62  C   UNL A   1      38.641  29.286  28.987  1.00  0.00    -0.014 A 
ATOM     63  C   UNL A   1      37.796  29.175  30.102  1.00  0.00     0.009 A 
ATOM     64  C   UNL A   1      38.109  29.759  27.777  1.00  0.00     0.009 A 
ATOM     65  C   UNL A   1      36.442  29.503  29.999  1.00  0.00     0.001 A 
ATOM     66  C   UNL A   1      36.761  30.114  27.686  1.00  0.00     0.001 A 
ATOM     67  C   UNL A   1      35.927  29.977  28.793  1.00  0.00     0.000 A 
ENDBRANCH  43  62
BRANCH  55  68
ATOM     68  C   UNL A   1      44.391  32.519  31.210  1.00  0.00    -0.014 A 
ATOM     69  C   UNL A   1      44.380  32.792  32.586  1.00  0.00     0.009 A 
ATOM     70  C   UNL A   1      44.683  33.559  30.314  1.00  0.00     0.009 A 
ATOM     71  C   UNL A   1      44.624  34.086  33.051  1.00  0.00     0.001 A 
ATOM     72  C   UNL A   1      44.955  34.846  30.783  1.00  0.00     0.001 A 
ATOM     73  C   UNL A   1      44.916  35.110  32.151  1.00  0.00     0.000 A 
ENDBRANCH  55  68
ENDBRANCH  29  30
ENDBRANCH  22  24
ENDBRANCH  21  22
ENDBRANCH  20  21
ENDBRANCH  19  20
ENDBRANCH  18  19
ENDBRANCH   1  18
TORSDOF 18
ENDMDL
MODEL 3
REMARK VINA RESULT:      -8.8      2.310      3.118
REMARK SMILES COc1cnc(F)c(C(=O)OCCOCCOCCOC(=O)c2ccc(-c3c4nc(c(-c5ccccc5)c5ccc([nH]5)c(-c5ccccc5)c5nc(c(-c6ccccc6)c6ccc3[nH]6)C=C5)C=C4)cc2)c1
REMARK SMILES IDX 16 1 15 2 14 3 13 4 12 5 11 6 9 7 10 8 8 9 3 10 4 11 71 12
REMARK SMILES IDX 5 13 6 14 7 15 2 16 1 17 17 18 18 19 19 20 20 21 21 22 22 23
REMARK SMILES IDX 23 24 24 25 70 26 25 27 69 28 26 29 27 30 28 31 63 32 29 33
REMARK SMILES IDX 68 34 62 35 64 36 30 37 67 38 61 39 60 40 31 42 53 43 38 44
REMARK SMILES IDX 52 45 39 46 42 47 51 48 65 49 40 50 41 51 50 53 66 54 43 55
REMARK SMILES IDX 32 56 33 57 37 58 34 59 36 60 35 61 54 62 55 63 59 64 56 65
REMARK SMILES IDX 58 66 57 67 44 68 45 69 49 70 46 71 48 72 47 73
REMARK H PARENT 64 41 42 52
REMARK Flexibility Score: inf
ROOT
ATOM      1  C   UNL A   1      35.741  24.154  25.025  1.00  0.00     0.188 C 
ENDROOT
BRANCH   1   2
ATOM      2  C   UNL A   1      34.431  24.964  25.125  1.00  0.00     0.188 C 
BRANCH   2   3
ATOM      3  O   UNL A   1      33.847  25.513  23.947  1.00  0.00    -0.376 OA
BRANCH   3   4
ATOM      4  C   UNL A   1      32.448  25.781  23.912  1.00  0.00     0.202 C 
BRANCH   4   5
ATOM      5  C   UNL A   1      31.623  25.504  25.176  1.00  0.00     0.261 C 
BRANCH   5   6
ATOM      6  O   UNL A   1      30.918  24.252  25.141  1.00  0.00    -0.460 OA
BRANCH   6   7
ATOM      7  C   UNL A   1      30.985  23.501  26.266  1.00  0.00     0.343 C 
ATOM      8  O   UNL A   1      30.271  23.590  27.254  1.00  0.00    -0.246 OA
BRANCH   7   9
ATOM      9  C   UNL A   1      31.903  22.373  26.076  1.00  0.00     0.118 A 
ATOM     10  C   UNL A   1      32.550  20.429  24.816  1.00  0.00     0.138 A 
ATOM     11  C   UNL A   1      33.602  20.276  25.709  1.00  0.00     0.160 A 
ATOM     12  C   UNL A   1      31.670  21.485  25.018  1.00  0.00     0.068 A 
ATOM     13  N   UNL A   1      33.855  21.124  26.735  1.00  0.00    -0.224 NA
ATOM     14  C   UNL A   1      32.995  22.158  26.898  1.00  0.00     0.227 A 
ATOM     15  F   UNL A   1      33.234  22.983  27.929  1.00  0.00    -0.184 F 
BRANCH  10  16
ATOM     16  O   UNL A   1      32.367  19.484  23.851  1.00  0.00    -0.495 OA
ATOM     17  C   UNL A   1      33.266  18.381  23.971  1.00  0.00     0.278 C 
ENDBRANCH  10  16
ENDBRANCH   7   9
ENDBRANCH   6   7
ENDBRANCH   5   6
ENDBRANCH   4   5
ENDBRANCH   3   4
ENDBRANCH   2   3
ENDBRANCH   1   2
BRANCH   1  18
ATOM     18  O   UNL A   1      35.565  22.886  24.438  1.00  0.00    -0.376 OA
BRANCH  18  19
ATOM     19  C   UNL A   1      36.676  22.236  23.852  1.00  0.00     0.202 C 
BRANCH  19  20
ATOM     20  C   UNL A   1      37.461  21.144  24.604  1.00  0.00     0.261 C 
BRANCH  20  21
ATOM     21  O   UNL A   1      37.879  21.436  25.943  1.00  0.00    -0.460 OA
BRANCH  21  22
ATOM     22  C   UNL A   1      39.198  21.319  26.216  1.00  0.00     0.338 C 
ATOM     23  O   UNL A   1      39.922  20.373  25.975  1.00  0.00    -0.246 OA
BRANCH  22  24
ATOM     24  C   UNL A   1      39.672  22.624  26.721  1.00  0.00     0.060 A 
ATOM     25  C   UNL A   1      39.073  23.794  26.235  1.00  0.00     0.016 A 
ATOM     26  C   UNL A   1      40.708  22.696  27.656  1.00  0.00     0.016 A 
ATOM     27  C   UNL A   1      39.530  25.040  26.665  1.00  0.00     0.010 A 
ATOM     28  C   UNL A   1      41.176  23.945  28.072  1.00  0.00     0.010 A 
ATOM     29  C   UNL A   1      40.607  25.124  27.559  1.00  0.00    -0.014 A 
BRANCH  29  30
ATOM     30  C   UNL A   1      41.242  26.437  27.827  1.00  0.00     0.031 A 
ATOM     31  C   UNL A   1      42.585  26.726  27.214  1.00  0.00     0.074 A 
ATOM     32  C   UNL A   1      40.633  27.367  28.584  1.00  0.00     0.049 A 
ATOM     33  N   UNL A   1      43.335  27.794  27.324  1.00  0.00    -0.248 NA
ATOM     34  C   UNL A   1      43.157  25.672  26.361  1.00  0.00     0.031 C 
ATOM     35  C   UNL A   1      39.318  27.229  29.204  1.00  0.00     0.029 A 
ATOM     36  N   UNL A   1      41.056  28.617  28.962  1.00  0.00    -0.354 N 
ATOM     37  C   UNL A   1      44.465  27.539  26.558  1.00  0.00     0.074 A 
ATOM     38  C   UNL A   1      44.317  26.208  26.010  1.00  0.00     0.031 C 
ATOM     39  C   UNL A   1      39.043  28.350  29.895  1.00  0.00     0.029 A 
ATOM     40  C   UNL A   1      40.176  29.269  29.791  1.00  0.00     0.049 A 
ATOM     41  H   UNL A   1      41.910  29.011  28.667  1.00  0.00     0.167 HD
ATOM     42  C   UNL A   1      45.531  28.341  26.326  1.00  0.00     0.031 A 
ATOM     43  C   UNL A   1      40.283  30.461  30.411  1.00  0.00     0.031 A 
ATOM     44  C   UNL A   1      45.699  29.653  26.887  1.00  0.00     0.049 A 
ATOM     45  C   UNL A   1      41.520  31.297  30.208  1.00  0.00     0.074 A 
ATOM     46  C   UNL A   1      46.743  30.543  26.703  1.00  0.00     0.029 A 
ATOM     47  N   UNL A   1      44.802  30.259  27.752  1.00  0.00    -0.354 N 
ATOM     48  N   UNL A   1      42.567  31.058  29.454  1.00  0.00    -0.248 NA
ATOM     49  C   UNL A   1      41.585  32.572  30.937  1.00  0.00     0.031 C 
ATOM     50  C   UNL A   1      46.503  31.667  27.501  1.00  0.00     0.029 A 
ATOM     51  C   UNL A   1      45.282  31.501  28.133  1.00  0.00     0.049 A 
ATOM     52  H   UNL A   1      43.952  29.865  28.053  1.00  0.00     0.167 HD
ATOM     53  C   UNL A   1      43.396  32.165  29.594  1.00  0.00     0.074 A 
ATOM     54  C   UNL A   1      42.726  33.080  30.494  1.00  0.00     0.031 C 
ATOM     55  C   UNL A   1      44.603  32.404  29.025  1.00  0.00     0.031 A 
BRANCH  42  56
ATOM     56  C   UNL A   1      46.622  27.796  25.447  1.00  0.00    -0.014 A 
ATOM     57  C   UNL A   1      46.651  28.069  24.070  1.00  0.00     0.009 A 
ATOM     58  C   UNL A   1      47.650  27.025  26.010  1.00  0.00     0.009 A 
ATOM     59  C   UNL A   1      47.673  27.554  23.270  1.00  0.00     0.001 A 
ATOM     60  C   UNL A   1      48.684  26.533  25.211  1.00  0.00     0.001 A 
ATOM     61  C   UNL A   1      48.690  26.791  23.842  1.00  0.00     0.000 A 
ENDBRANCH  42  56
BRANCH  43  62
ATOM     62  C   UNL A   1      39.198  30.938  31.308  1.00  0.00    -0.014 A 
ATOM     63  C   UNL A   1      39.108  30.479  32.631  1.00  0.00     0.009 A 
ATOM     64  C   UNL A   1      38.222  31.826  30.831  1.00  0.00     0.009 A 
ATOM     65  C   UNL A   1      38.047  30.879  33.449  1.00  0.00     0.001 A 
ATOM     66  C   UNL A   1      37.178  32.246  31.660  1.00  0.00     0.001 A 
ATOM     67  C   UNL A   1      37.087  31.765  32.964  1.00  0.00     0.000 A 
ENDBRANCH  43  62
BRANCH  55  68
ATOM     68  C   UNL A   1      45.258  33.726  29.319  1.00  0.00    -0.014 A 
ATOM     69  C   UNL A   1      44.995  34.862  28.539  1.00  0.00     0.009 A 
ATOM     70  C   UNL A   1      46.116  33.843  30.423  1.00  0.00     0.009 A 
ATOM     71  C   UNL A   1      45.606  36.081  28.841  1.00  0.00     0.001 A 
ATOM     72  C   UNL A   1      46.703  35.070  30.741  1.00  0.00     0.001 A 
ATOM     73  C   UNL A   1      46.454  36.185  29.943  1.00  0.00     0.000 A 
ENDBRANCH  55  68
ENDBRANCH  29  30
ENDBRANCH  22  24
ENDBRANCH  21  22
ENDBRANCH  20  21
ENDBRANCH  19  20
ENDBRANCH  18  19
ENDBRANCH   1  18
TORSDOF 18
ENDMDL
