MODEL 1
REMARK VINA RESULT:      -9.7      0.000      0.000
REMARK SMILES Cc1cc(NC(=O)[C@@H]2[C@@H](C(=O)OCCOCCOCCOC(=O)c3ccc(-c4c5nc(c(-c6ccccc6)c6ccc([nH]6)c(-c6ccccc6)c6nc(c(-c7ccccc7)c7ccc4[nH]7)C=C6)C=C5)cc3)C2(C)C)on1
REMARK SMILES IDX 16 1 15 2 14 3 13 4 12 5 10 6 11 7 9 8 8 9 72 10 73 11 74 12
REMARK SMILES IDX 6 13 5 14 7 16 4 17 1 18 2 19 3 20 76 21 75 22 17 23 18 24
REMARK SMILES IDX 19 25 20 26 21 27 22 28 23 29 24 30 25 31 71 32 26 33 70 34
REMARK SMILES IDX 27 35 28 36 29 37 64 38 30 39 69 40 63 41 65 42 31 43 68 44
REMARK SMILES IDX 62 45 61 46 32 48 54 49 39 50 53 51 40 52 43 53 52 54 66 55
REMARK SMILES IDX 41 56 42 57 51 59 67 60 44 61 33 62 34 63 38 64 35 65 37 66
REMARK SMILES IDX 36 67 55 68 56 69 60 70 57 71 59 72 58 73 45 74 46 75 50 76
REMARK SMILES IDX 47 77 49 78 48 79
REMARK H PARENT 5 15 65 47 43 58
REMARK Flexibility Score: inf
ROOT
ATOM      1  C   UNL A   1      30.925  27.749  23.993  1.00  0.00     0.188 C 
ENDROOT
BRANCH   1   2
ATOM      2  O   UNL A   1      30.829  26.922  22.833  1.00  0.00    -0.376 OA
BRANCH   2   3
ATOM      3  C   UNL A   1      31.971  26.166  22.429  1.00  0.00     0.202 C 
BRANCH   3   4
ATOM      4  C   UNL A   1      33.172  26.203  23.376  1.00  0.00     0.261 C 
BRANCH   4   5
ATOM      5  O   UNL A   1      33.136  25.090  24.282  1.00  0.00    -0.463 OA
BRANCH   5   6
ATOM      6  C   UNL A   1      34.337  24.672  24.740  1.00  0.00     0.310 C 
ATOM      7  O   UNL A   1      35.110  25.324  25.428  1.00  0.00    -0.252 OA
BRANCH   6   8
ATOM      8  C   UNL A   1      34.590  23.234  24.460  1.00  0.00     0.118 C 
ATOM      9  C   UNL A   1      33.393  22.331  24.542  1.00  0.00     0.100 C 
ATOM     10  C   UNL A   1      34.570  22.064  25.460  1.00  0.00    -0.009 C 
ATOM     11  C   UNL A   1      34.329  22.319  26.936  1.00  0.00     0.013 C 
ATOM     12  C   UNL A   1      35.517  20.907  25.250  1.00  0.00     0.013 C 
BRANCH   9  13
ATOM     13  C   UNL A   1      32.799  21.650  23.364  1.00  0.00     0.231 C 
ATOM     14  N   UNL A   1      32.257  20.400  23.268  1.00  0.00    -0.294 N 
ATOM     15  H   UNL A   1      31.598  20.316  22.541  1.00  0.00     0.173 HD
ATOM     16  O   UNL A   1      32.654  22.354  22.359  1.00  0.00    -0.274 OA
BRANCH  14  17
ATOM     17  C   UNL A   1      32.439  19.247  23.968  1.00  0.00     0.231 A 
ATOM     18  C   UNL A   1      33.260  15.780  24.751  1.00  0.00     0.070 C 
ATOM     19  C   UNL A   1      32.908  17.215  24.672  1.00  0.00     0.083 A 
ATOM     20  C   UNL A   1      33.024  18.075  23.558  1.00  0.00     0.096 A 
ATOM     21  N   UNL A   1      32.374  17.852  25.721  1.00  0.00    -0.083 NA
ATOM     22  O   UNL A   1      32.107  19.139  25.275  1.00  0.00    -0.338 OA
ENDBRANCH  14  17
ENDBRANCH   9  13
ENDBRANCH   6   8
ENDBRANCH   5   6
ENDBRANCH   4   5
ENDBRANCH   3   4
ENDBRANCH   2   3
ENDBRANCH   1   2
BRANCH   1  23
ATOM     23  C   UNL A   1      31.042  29.272  23.811  1.00  0.00     0.188 C 
BRANCH  23  24
ATOM     24  O   UNL A   1      31.314  29.966  25.016  1.00  0.00    -0.376 OA
BRANCH  24  25
ATOM     25  C   UNL A   1      32.345  29.426  25.826  1.00  0.00     0.202 C 
BRANCH  25  26
ATOM     26  C   UNL A   1      33.009  30.456  26.746  1.00  0.00     0.261 C 
BRANCH  26  27
ATOM     27  O   UNL A   1      34.073  29.944  27.565  1.00  0.00    -0.460 OA
BRANCH  27  28
ATOM     28  C   UNL A   1      34.770  30.830  28.314  1.00  0.00     0.338 C 
ATOM     29  O   UNL A   1      34.350  31.840  28.847  1.00  0.00    -0.246 OA
BRANCH  28  30
ATOM     30  C   UNL A   1      36.111  30.249  28.530  1.00  0.00     0.060 A 
ATOM     31  C   UNL A   1      36.423  29.674  29.770  1.00  0.00     0.016 A 
ATOM     32  C   UNL A   1      37.039  30.231  27.487  1.00  0.00     0.016 A 
ATOM     33  C   UNL A   1      37.669  29.073  29.964  1.00  0.00     0.010 A 
ATOM     34  C   UNL A   1      38.291  29.650  27.691  1.00  0.00     0.010 A 
ATOM     35  C   UNL A   1      38.617  29.076  28.931  1.00  0.00    -0.014 A 
BRANCH  35  36
ATOM     36  C   UNL A   1      39.995  28.583  29.152  1.00  0.00     0.031 A 
ATOM     37  C   UNL A   1      41.031  29.531  29.682  1.00  0.00     0.074 A 
ATOM     38  C   UNL A   1      40.339  27.324  28.826  1.00  0.00     0.049 A 
ATOM     39  N   UNL A   1      42.318  29.351  29.839  1.00  0.00    -0.248 NA
ATOM     40  C   UNL A   1      40.551  30.861  30.085  1.00  0.00     0.031 C 
ATOM     41  C   UNL A   1      39.423  26.291  28.346  1.00  0.00     0.029 A 
ATOM     42  N   UNL A   1      41.567  26.710  28.834  1.00  0.00    -0.354 N 
ATOM     43  C   UNL A   1      42.804  30.547  30.349  1.00  0.00     0.074 A 
ATOM     44  C   UNL A   1      41.678  31.450  30.462  1.00  0.00     0.031 C 
ATOM     45  C   UNL A   1      40.125  25.173  28.092  1.00  0.00     0.029 A 
ATOM     46  C   UNL A   1      41.541  25.426  28.349  1.00  0.00     0.049 A 
ATOM     47  H   UNL A   1      42.388  27.149  29.155  1.00  0.00     0.167 HD
ATOM     48  C   UNL A   1      44.074  30.868  30.688  1.00  0.00     0.031 A 
ATOM     49  C   UNL A   1      42.550  24.565  28.111  1.00  0.00     0.031 A 
ATOM     50  C   UNL A   1      45.199  29.983  30.551  1.00  0.00     0.049 A 
ATOM     51  C   UNL A   1      43.969  24.989  28.378  1.00  0.00     0.074 A 
ATOM     52  C   UNL A   1      46.518  30.202  30.908  1.00  0.00     0.029 A 
ATOM     53  N   UNL A   1      45.141  28.718  29.988  1.00  0.00    -0.354 N 
ATOM     54  N   UNL A   1      44.414  26.106  28.901  1.00  0.00    -0.248 NA
ATOM     55  C   UNL A   1      45.027  24.037  28.008  1.00  0.00     0.031 C 
ATOM     56  C   UNL A   1      47.269  29.093  30.504  1.00  0.00     0.029 A 
ATOM     57  C   UNL A   1      46.409  28.164  29.943  1.00  0.00     0.049 A 
ATOM     58  H   UNL A   1      44.321  28.278  29.670  1.00  0.00     0.167 HD
ATOM     59  C   UNL A   1      45.797  25.984  28.938  1.00  0.00     0.074 A 
ATOM     60  C   UNL A   1      46.119  24.680  28.396  1.00  0.00     0.031 C 
ATOM     61  C   UNL A   1      46.718  26.872  29.385  1.00  0.00     0.031 A 
BRANCH  48  62
ATOM     62  C   UNL A   1      44.316  32.260  31.194  1.00  0.00    -0.014 A 
ATOM     63  C   UNL A   1      44.629  33.311  30.319  1.00  0.00     0.009 A 
ATOM     64  C   UNL A   1      44.217  32.523  32.569  1.00  0.00     0.009 A 
ATOM     65  C   UNL A   1      44.872  34.593  30.816  1.00  0.00     0.001 A 
ATOM     66  C   UNL A   1      44.437  33.811  33.060  1.00  0.00     0.001 A 
ATOM     67  C   UNL A   1      44.774  34.842  32.184  1.00  0.00     0.000 A 
ENDBRANCH  48  62
BRANCH  49  68
ATOM     68  C   UNL A   1      42.263  23.220  27.552  1.00  0.00    -0.014 A 
ATOM     69  C   UNL A   1      42.287  23.007  26.166  1.00  0.00     0.009 A 
ATOM     70  C   UNL A   1      41.949  22.145  28.400  1.00  0.00     0.009 A 
ATOM     71  C   UNL A   1      41.991  21.748  25.639  1.00  0.00     0.001 A 
ATOM     72  C   UNL A   1      41.676  20.882  27.871  1.00  0.00     0.001 A 
ATOM     73  C   UNL A   1      41.692  20.686  26.491  1.00  0.00     0.000 A 
ENDBRANCH  49  68
BRANCH  61  74
ATOM     74  C   UNL A   1      48.162  26.464  29.318  1.00  0.00    -0.014 A 
ATOM     75  C   UNL A   1      48.776  25.802  30.393  1.00  0.00     0.009 A 
ATOM     76  C   UNL A   1      48.902  26.696  28.149  1.00  0.00     0.009 A 
ATOM     77  C   UNL A   1      50.111  25.401  30.303  1.00  0.00     0.001 A 
ATOM     78  C   UNL A   1      50.228  26.273  28.053  1.00  0.00     0.001 A 
ATOM     79  C   UNL A   1      50.833  25.631  29.132  1.00  0.00     0.000 A 
ENDBRANCH  61  74
ENDBRANCH  35  36
ENDBRANCH  28  30
ENDBRANCH  27  28
ENDBRANCH  26  27
ENDBRANCH  25  26
ENDBRANCH  24  25
ENDBRANCH  23  24
ENDBRANCH   1  23
TORSDOF 19
ENDMDL
MODEL 2
REMARK VINA RESULT:      -9.7      2.288      7.866
REMARK SMILES Cc1cc(NC(=O)[C@@H]2[C@@H](C(=O)OCCOCCOCCOC(=O)c3ccc(-c4c5nc(c(-c6ccccc6)c6ccc([nH]6)c(-c6ccccc6)c6nc(c(-c7ccccc7)c7ccc4[nH]7)C=C6)C=C5)cc3)C2(C)C)on1
REMARK SMILES IDX 16 1 15 2 14 3 13 4 12 5 10 6 11 7 9 8 8 9 72 10 73 11 74 12
REMARK SMILES IDX 6 13 5 14 7 16 4 17 1 18 2 19 3 20 76 21 75 22 17 23 18 24
REMARK SMILES IDX 19 25 20 26 21 27 22 28 23 29 24 30 25 31 71 32 26 33 70 34
REMARK SMILES IDX 27 35 28 36 29 37 64 38 30 39 69 40 63 41 65 42 31 43 68 44
REMARK SMILES IDX 62 45 61 46 32 48 54 49 39 50 53 51 40 52 43 53 52 54 66 55
REMARK SMILES IDX 41 56 42 57 51 59 67 60 44 61 33 62 34 63 38 64 35 65 37 66
REMARK SMILES IDX 36 67 55 68 56 69 60 70 57 71 59 72 58 73 45 74 46 75 50 76
REMARK SMILES IDX 47 77 49 78 48 79
REMARK H PARENT 5 15 65 47 43 58
REMARK Flexibility Score: inf
ROOT
ATOM      1  C   UNL A   1      33.662  19.085  24.913  1.00  0.00     0.188 C 
ENDROOT
BRANCH   1   2
ATOM      2  O   UNL A   1      32.387  19.675  24.663  1.00  0.00    -0.376 OA
BRANCH   2   3
ATOM      3  C   UNL A   1      32.156  21.021  25.080  1.00  0.00     0.202 C 
BRANCH   3   4
ATOM      4  C   UNL A   1      31.957  22.046  23.963  1.00  0.00     0.261 C 
BRANCH   4   5
ATOM      5  O   UNL A   1      33.055  22.008  23.039  1.00  0.00    -0.463 OA
BRANCH   5   6
ATOM      6  C   UNL A   1      33.750  23.160  22.909  1.00  0.00     0.310 C 
ATOM      7  O   UNL A   1      34.872  23.272  22.438  1.00  0.00    -0.252 OA
BRANCH   6   8
ATOM      8  C   UNL A   1      32.943  24.360  23.258  1.00  0.00     0.118 C 
ATOM      9  C   UNL A   1      33.654  25.678  23.157  1.00  0.00     0.100 C 
ATOM     10  C   UNL A   1      33.084  25.259  24.499  1.00  0.00    -0.009 C 
ATOM     11  C   UNL A   1      34.100  24.928  25.575  1.00  0.00     0.013 C 
ATOM     12  C   UNL A   1      31.846  25.891  25.088  1.00  0.00     0.013 C 
BRANCH   9  13
ATOM     13  C   UNL A   1      33.320  26.714  22.147  1.00  0.00     0.231 C 
ATOM     14  N   UNL A   1      33.005  28.030  22.327  1.00  0.00    -0.294 N 
ATOM     15  H   UNL A   1      33.206  28.590  21.544  1.00  0.00     0.173 HD
ATOM     16  O   UNL A   1      33.473  26.377  20.968  1.00  0.00    -0.274 OA
BRANCH  14  17
ATOM     17  C   UNL A   1      32.469  28.728  23.366  1.00  0.00     0.231 A 
ATOM     18  C   UNL A   1      32.105  30.322  26.628  1.00  0.00     0.070 C 
ATOM     19  C   UNL A   1      32.047  29.788  25.249  1.00  0.00     0.083 A 
ATOM     20  C   UNL A   1      33.076  29.148  24.524  1.00  0.00     0.096 A 
ATOM     21  N   UNL A   1      30.913  29.837  24.539  1.00  0.00    -0.083 NA
ATOM     22  O   UNL A   1      31.198  29.191  23.344  1.00  0.00    -0.338 OA
ENDBRANCH  14  17
ENDBRANCH   9  13
ENDBRANCH   6   8
ENDBRANCH   5   6
ENDBRANCH   4   5
ENDBRANCH   3   4
ENDBRANCH   2   3
ENDBRANCH   1   2
BRANCH   1  23
ATOM     23  C   UNL A   1      34.898  19.998  25.004  1.00  0.00     0.188 C 
BRANCH  23  24
ATOM     24  O   UNL A   1      36.122  19.314  24.797  1.00  0.00    -0.376 OA
BRANCH  24  25
ATOM     25  C   UNL A   1      37.292  20.116  24.806  1.00  0.00     0.202 C 
BRANCH  25  26
ATOM     26  C   UNL A   1      38.577  19.327  25.077  1.00  0.00     0.261 C 
BRANCH  26  27
ATOM     27  O   UNL A   1      39.314  19.745  26.238  1.00  0.00    -0.460 OA
BRANCH  27  28
ATOM     28  C   UNL A   1      40.664  19.773  26.146  1.00  0.00     0.338 C 
ATOM     29  O   UNL A   1      41.386  18.961  25.599  1.00  0.00    -0.246 OA
BRANCH  28  30
ATOM     30  C   UNL A   1      41.103  21.081  26.674  1.00  0.00     0.060 A 
ATOM     31  C   UNL A   1      41.446  22.107  25.781  1.00  0.00     0.016 A 
ATOM     32  C   UNL A   1      41.125  21.304  28.052  1.00  0.00     0.016 A 
ATOM     33  C   UNL A   1      41.808  23.364  26.273  1.00  0.00     0.010 A 
ATOM     34  C   UNL A   1      41.508  22.554  28.540  1.00  0.00     0.010 A 
ATOM     35  C   UNL A   1      41.861  23.587  27.655  1.00  0.00    -0.014 A 
BRANCH  35  36
ATOM     36  C   UNL A   1      42.383  24.857  28.209  1.00  0.00     0.031 A 
ATOM     37  C   UNL A   1      41.424  25.979  28.485  1.00  0.00     0.074 A 
ATOM     38  C   UNL A   1      43.701  25.034  28.408  1.00  0.00     0.049 A 
ATOM     39  N   UNL A   1      41.672  27.209  28.855  1.00  0.00    -0.248 NA
ATOM     40  C   UNL A   1      39.996  25.672  28.315  1.00  0.00     0.031 C 
ATOM     41  C   UNL A   1      44.731  24.014  28.225  1.00  0.00     0.029 A 
ATOM     42  N   UNL A   1      44.397  26.154  28.791  1.00  0.00    -0.354 N 
ATOM     43  C   UNL A   1      40.433  27.828  28.953  1.00  0.00     0.074 A 
ATOM     44  C   UNL A   1      39.436  26.842  28.590  1.00  0.00     0.031 C 
ATOM     45  C   UNL A   1      45.933  24.560  28.483  1.00  0.00     0.029 A 
ATOM     46  C   UNL A   1      45.759  25.975  28.806  1.00  0.00     0.049 A 
ATOM     47  H   UNL A   1      43.963  27.004  29.031  1.00  0.00     0.167 HD
ATOM     48  C   UNL A   1      40.149  29.102  29.309  1.00  0.00     0.031 A 
ATOM     49  C   UNL A   1      46.750  26.860  29.023  1.00  0.00     0.031 A 
ATOM     50  C   UNL A   1      41.138  30.091  29.643  1.00  0.00     0.049 A 
ATOM     51  C   UNL A   1      46.415  28.302  29.293  1.00  0.00     0.074 A 
ATOM     52  C   UNL A   1      40.946  31.397  30.058  1.00  0.00     0.029 A 
ATOM     53  N   UNL A   1      42.507  29.889  29.575  1.00  0.00    -0.354 N 
ATOM     54  N   UNL A   1      45.239  28.867  29.427  1.00  0.00    -0.248 NA
ATOM     55  C   UNL A   1      47.547  29.232  29.428  1.00  0.00     0.031 C 
ATOM     56  C   UNL A   1      42.201  32.004  30.180  1.00  0.00     0.029 A 
ATOM     57  C   UNL A   1      43.173  31.060  29.892  1.00  0.00     0.049 A 
ATOM     58  H   UNL A   1      42.942  29.039  29.338  1.00  0.00     0.167 HD
ATOM     59  C   UNL A   1      45.490  30.210  29.678  1.00  0.00     0.074 A 
ATOM     60  C   UNL A   1      46.928  30.375  29.690  1.00  0.00     0.031 C 
ATOM     61  C   UNL A   1      44.605  31.216  29.883  1.00  0.00     0.031 A 
BRANCH  48  62
ATOM     62  C   UNL A   1      38.705  29.509  29.302  1.00  0.00    -0.014 A 
ATOM     63  C   UNL A   1      37.909  29.398  30.453  1.00  0.00     0.009 A 
ATOM     64  C   UNL A   1      38.137  30.025  28.127  1.00  0.00     0.009 A 
ATOM     65  C   UNL A   1      36.562  29.763  30.416  1.00  0.00     0.001 A 
ATOM     66  C   UNL A   1      36.796  30.410  28.100  1.00  0.00     0.001 A 
ATOM     67  C   UNL A   1      36.007  30.270  29.241  1.00  0.00     0.000 A 
ENDBRANCH  48  62
BRANCH  49  68
ATOM     68  C   UNL A   1      48.167  26.419  28.959  1.00  0.00    -0.014 A 
ATOM     69  C   UNL A   1      48.821  25.963  30.114  1.00  0.00     0.009 A 
ATOM     70  C   UNL A   1      48.877  26.465  27.749  1.00  0.00     0.009 A 
ATOM     71  C   UNL A   1      50.161  25.573  30.060  1.00  0.00     0.001 A 
ATOM     72  C   UNL A   1      50.211  26.053  27.694  1.00  0.00     0.001 A 
ATOM     73  C   UNL A   1      50.853  25.614  28.850  1.00  0.00     0.000 A 
ENDBRANCH  49  68
BRANCH  61  74
ATOM     74  C   UNL A   1      45.164  32.585  30.150  1.00  0.00    -0.014 A 
ATOM     75  C   UNL A   1      45.584  32.956  31.437  1.00  0.00     0.009 A 
ATOM     76  C   UNL A   1      45.321  33.494  29.094  1.00  0.00     0.009 A 
ATOM     77  C   UNL A   1      46.130  34.221  31.662  1.00  0.00     0.001 A 
ATOM     78  C   UNL A   1      45.890  34.749  29.317  1.00  0.00     0.001 A 
ATOM     79  C   UNL A   1      46.288  35.114  30.602  1.00  0.00     0.000 A 
ENDBRANCH  61  74
ENDBRANCH  35  36
ENDBRANCH  28  30
ENDBRANCH  27  28
ENDBRANCH  26  27
ENDBRANCH  25  26
ENDBRANCH  24  25
ENDBRANCH  23  24
ENDBRANCH   1  23
TORSDOF 19
ENDMDL
MODEL 3
REMARK VINA RESULT:      -9.6      3.327      7.393
REMARK SMILES Cc1cc(NC(=O)[C@@H]2[C@@H](C(=O)OCCOCCOCCOC(=O)c3ccc(-c4c5nc(c(-c6ccccc6)c6ccc([nH]6)c(-c6ccccc6)c6nc(c(-c7ccccc7)c7ccc4[nH]7)C=C6)C=C5)cc3)C2(C)C)on1
REMARK SMILES IDX 16 1 15 2 14 3 13 4 12 5 10 6 11 7 9 8 8 9 72 10 73 11 74 12
REMARK SMILES IDX 6 13 5 14 7 16 4 17 1 18 2 19 3 20 76 21 75 22 17 23 18 24
REMARK SMILES IDX 19 25 20 26 21 27 22 28 23 29 24 30 25 31 71 32 26 33 70 34
REMARK SMILES IDX 27 35 28 36 29 37 64 38 30 39 69 40 63 41 65 42 31 43 68 44
REMARK SMILES IDX 62 45 61 46 32 48 54 49 39 50 53 51 40 52 43 53 52 54 66 55
REMARK SMILES IDX 41 56 42 57 51 59 67 60 44 61 33 62 34 63 38 64 35 65 37 66
REMARK SMILES IDX 36 67 55 68 56 69 60 70 57 71 59 72 58 73 45 74 46 75 50 76
REMARK SMILES IDX 47 77 49 78 48 79
REMARK H PARENT 5 15 65 47 43 58
REMARK Flexibility Score: inf
ROOT
ATOM      1  C   UNL A   1      32.991  29.118  24.647  1.00  0.00     0.188 C 
ENDROOT
BRANCH   1   2
ATOM      2  O   UNL A   1      32.814  28.948  23.241  1.00  0.00    -0.376 OA
BRANCH   2   3
ATOM      3  C   UNL A   1      33.472  27.861  22.589  1.00  0.00     0.202 C 
BRANCH   3   4
ATOM      4  C   UNL A   1      33.114  26.461  23.090  1.00  0.00     0.261 C 
BRANCH   4   5
ATOM      5  O   UNL A   1      34.287  25.771  23.545  1.00  0.00    -0.463 OA
BRANCH   5   6
ATOM      6  C   UNL A   1      34.228  25.287  24.805  1.00  0.00     0.310 C 
ATOM      7  O   UNL A   1      33.977  25.934  25.812  1.00  0.00    -0.252 OA
BRANCH   6   8
ATOM      8  C   UNL A   1      34.345  23.805  24.858  1.00  0.00     0.118 C 
ATOM      9  C   UNL A   1      34.349  23.198  26.231  1.00  0.00     0.100 C 
ATOM     10  C   UNL A   1      35.550  22.974  25.333  1.00  0.00    -0.009 C 
ATOM     11  C   UNL A   1      36.834  23.659  25.762  1.00  0.00     0.013 C 
ATOM     12  C   UNL A   1      35.831  21.648  24.667  1.00  0.00     0.013 C 
BRANCH   9  13
ATOM     13  C   UNL A   1      33.250  22.346  26.752  1.00  0.00     0.231 C 
ATOM     14  N   UNL A   1      31.901  22.467  26.576  1.00  0.00    -0.294 N 
ATOM     15  H   UNL A   1      31.418  21.615  26.666  1.00  0.00     0.173 HD
ATOM     16  O   UNL A   1      33.604  21.306  27.317  1.00  0.00    -0.274 OA
BRANCH  14  17
ATOM     17  C   UNL A   1      31.087  23.523  26.302  1.00  0.00     0.231 A 
ATOM     18  C   UNL A   1      29.499  26.283  24.521  1.00  0.00     0.070 C 
ATOM     19  C   UNL A   1      29.973  25.199  25.410  1.00  0.00     0.083 A 
ATOM     20  C   UNL A   1      30.886  24.166  25.106  1.00  0.00     0.096 A 
ATOM     21  N   UNL A   1      29.573  25.131  26.686  1.00  0.00    -0.083 NA
ATOM     22  O   UNL A   1      30.260  24.055  27.231  1.00  0.00    -0.338 OA
ENDBRANCH  14  17
ENDBRANCH   9  13
ENDBRANCH   6   8
ENDBRANCH   5   6
ENDBRANCH   4   5
ENDBRANCH   3   4
ENDBRANCH   2   3
ENDBRANCH   1   2
BRANCH   1  23
ATOM     23  C   UNL A   1      31.766  29.456  25.514  1.00  0.00     0.188 C 
BRANCH  23  24
ATOM     24  O   UNL A   1      31.794  30.771  26.044  1.00  0.00    -0.376 OA
BRANCH  24  25
ATOM     25  C   UNL A   1      32.515  30.939  27.254  1.00  0.00     0.202 C 
BRANCH  25  26
ATOM     26  C   UNL A   1      33.296  32.255  27.326  1.00  0.00     0.261 C 
BRANCH  26  27
ATOM     27  O   UNL A   1      32.509  33.412  27.653  1.00  0.00    -0.460 OA
BRANCH  27  28
ATOM     28  C   UNL A   1      33.076  34.352  28.445  1.00  0.00     0.338 C 
ATOM     29  O   UNL A   1      32.579  35.393  28.830  1.00  0.00    -0.246 OA
BRANCH  28  30
ATOM     30  C   UNL A   1      34.359  33.796  28.920  1.00  0.00     0.060 A 
ATOM     31  C   UNL A   1      34.372  32.939  30.030  1.00  0.00     0.016 A 
ATOM     32  C   UNL A   1      35.541  34.084  28.234  1.00  0.00     0.016 A 
ATOM     33  C   UNL A   1      35.575  32.364  30.451  1.00  0.00     0.010 A 
ATOM     34  C   UNL A   1      36.743  33.527  28.670  1.00  0.00     0.010 A 
ATOM     35  C   UNL A   1      36.769  32.672  29.785  1.00  0.00    -0.014 A 
BRANCH  35  36
ATOM     36  C   UNL A   1      38.077  32.201  30.296  1.00  0.00     0.031 A 
ATOM     37  C   UNL A   1      38.659  30.933  29.742  1.00  0.00     0.074 A 
ATOM     38  C   UNL A   1      38.710  32.858  31.284  1.00  0.00     0.049 A 
ATOM     39  N   UNL A   1      39.725  30.275  30.122  1.00  0.00    -0.248 NA
ATOM     40  C   UNL A   1      37.941  30.325  28.612  1.00  0.00     0.031 C 
ATOM     41  C   UNL A   1      38.277  34.122  31.876  1.00  0.00     0.029 A 
ATOM     42  N   UNL A   1      39.850  32.533  31.975  1.00  0.00    -0.354 N 
ATOM     43  C   UNL A   1      39.800  29.170  29.286  1.00  0.00     0.074 A 
ATOM     44  C   UNL A   1      38.666  29.238  28.388  1.00  0.00     0.031 C 
ATOM     45  C   UNL A   1      39.136  34.459  32.854  1.00  0.00     0.029 A 
ATOM     46  C   UNL A   1      40.151  33.414  32.984  1.00  0.00     0.049 A 
ATOM     47  H   UNL A   1      40.400  31.742  31.769  1.00  0.00     0.167 HD
ATOM     48  C   UNL A   1      40.727  28.184  29.268  1.00  0.00     0.031 A 
ATOM     49  C   UNL A   1      41.114  33.366  33.924  1.00  0.00     0.031 A 
ATOM     50  C   UNL A   1      41.839  28.099  30.175  1.00  0.00     0.049 A 
ATOM     51  C   UNL A   1      42.057  32.194  33.964  1.00  0.00     0.074 A 
ATOM     52  C   UNL A   1      42.855  27.160  30.209  1.00  0.00     0.029 A 
ATOM     53  N   UNL A   1      42.064  28.972  31.228  1.00  0.00    -0.354 N 
ATOM     54  N   UNL A   1      42.147  31.177  33.142  1.00  0.00    -0.248 NA
ATOM     55  C   UNL A   1      43.024  32.158  35.072  1.00  0.00     0.031 C 
ATOM     56  C   UNL A   1      43.661  27.430  31.321  1.00  0.00     0.029 A 
ATOM     57  C   UNL A   1      43.175  28.566  31.947  1.00  0.00     0.049 A 
ATOM     58  H   UNL A   1      41.517  29.763  31.433  1.00  0.00     0.167 HD
ATOM     59  C   UNL A   1      43.187  30.391  33.622  1.00  0.00     0.074 A 
ATOM     60  C   UNL A   1      43.706  31.054  34.800  1.00  0.00     0.031 C 
ATOM     61  C   UNL A   1      43.671  29.225  33.128  1.00  0.00     0.031 A 
BRANCH  48  62
ATOM     62  C   UNL A   1      40.541  27.088  28.260  1.00  0.00    -0.014 A 
ATOM     63  C   UNL A   1      41.127  27.159  26.987  1.00  0.00     0.009 A 
ATOM     64  C   UNL A   1      39.777  25.960  28.598  1.00  0.00     0.009 A 
ATOM     65  C   UNL A   1      40.921  26.136  26.058  1.00  0.00     0.001 A 
ATOM     66  C   UNL A   1      39.593  24.928  27.675  1.00  0.00     0.001 A 
ATOM     67  C   UNL A   1      40.157  25.022  26.404  1.00  0.00     0.000 A 
ENDBRANCH  48  62
BRANCH  49  68
ATOM     68  C   UNL A   1      41.219  34.447  34.938  1.00  0.00    -0.014 A 
ATOM     69  C   UNL A   1      42.049  35.555  34.710  1.00  0.00     0.009 A 
ATOM     70  C   UNL A   1      40.501  34.371  36.142  1.00  0.00     0.009 A 
ATOM     71  C   UNL A   1      42.168  36.558  35.674  1.00  0.00     0.001 A 
ATOM     72  C   UNL A   1      40.605  35.387  37.094  1.00  0.00     0.001 A 
ATOM     73  C   UNL A   1      41.443  36.476  36.862  1.00  0.00     0.000 A 
ENDBRANCH  49  68
BRANCH  61  74
ATOM     74  C   UNL A   1      44.827  28.595  33.851  1.00  0.00    -0.014 A 
ATOM     75  C   UNL A   1      46.151  28.951  33.548  1.00  0.00     0.009 A 
ATOM     76  C   UNL A   1      44.589  27.673  34.881  1.00  0.00     0.009 A 
ATOM     77  C   UNL A   1      47.213  28.379  34.251  1.00  0.00     0.001 A 
ATOM     78  C   UNL A   1      45.651  27.121  35.599  1.00  0.00     0.001 A 
ATOM     79  C   UNL A   1      46.962  27.469  35.278  1.00  0.00     0.000 A 
ENDBRANCH  61  74
ENDBRANCH  35  36
ENDBRANCH  28  30
ENDBRANCH  27  28
ENDBRANCH  26  27
ENDBRANCH  25  26
ENDBRANCH  24  25
ENDBRANCH  23  24
ENDBRANCH   1  23
TORSDOF 19
ENDMDL
