MODEL 1
REMARK VINA RESULT:     -10.4      0.000      0.000
REMARK SMILES Cc1ccc(C(=O)Nc2cccc(F)c2C(=O)OCCOCCOCCOC(=O)c2ccc(-c3c4nc(c(-c5ccccc5)c5ccc([nH]5)c(-c5ccccc5)c5nc(c(-c6ccccc6)c6ccc3[nH]6)C=C5)C=C4)cc2)c(F)c1
REMARK SMILES IDX 22 1 21 2 20 3 19 4 18 5 16 6 17 7 15 8 9 9 10 10 11 11
REMARK SMILES IDX 13 12 12 13 14 14 8 15 6 16 7 17 5 19 1 20 2 21 3 22 80 23
REMARK SMILES IDX 4 24 78 25 79 26 23 27 24 28 25 29 26 30 27 31 28 32 29 33
REMARK SMILES IDX 30 34 31 35 77 36 32 37 76 38 33 39 34 40 35 41 70 42 36 43
REMARK SMILES IDX 75 44 69 45 71 46 37 47 74 48 68 49 67 50 38 52 60 53 45 54
REMARK SMILES IDX 59 55 46 56 49 57 58 58 72 59 47 60 48 61 57 63 73 64 50 65
REMARK SMILES IDX 39 66 40 67 44 68 41 69 43 70 42 71 61 72 62 73 66 74 63 75
REMARK SMILES IDX 65 76 64 77 51 78 52 79 56 80 53 81 55 82 54 83
REMARK H PARENT 8 18 71 51 49 62
REMARK Flexibility Score: inf
ROOT
ATOM      1  C   UNL A   1      34.844  31.872  28.184  1.00  0.00     0.188 C 
ENDROOT
BRANCH   1   2
ATOM      2  O   UNL A   1      33.648  31.223  27.798  1.00  0.00    -0.376 OA
BRANCH   2   3
ATOM      3  C   UNL A   1      33.687  30.134  26.885  1.00  0.00     0.202 C 
BRANCH   3   4
ATOM      4  C   UNL A   1      33.909  28.708  27.390  1.00  0.00     0.261 C 
BRANCH   4   5
ATOM      5  O   UNL A   1      33.227  27.730  26.591  1.00  0.00    -0.460 OA
BRANCH   5   6
ATOM      6  C   UNL A   1      31.928  27.531  26.903  1.00  0.00     0.343 C 
ATOM      7  O   UNL A   1      31.358  27.876  27.932  1.00  0.00    -0.246 OA
BRANCH   6   8
ATOM      8  C   UNL A   1      31.203  27.060  25.717  1.00  0.00     0.119 A 
ATOM      9  C   UNL A   1      30.771  25.722  25.633  1.00  0.00     0.059 A 
ATOM     10  C   UNL A   1      30.089  25.296  24.484  1.00  0.00     0.027 A 
ATOM     11  C   UNL A   1      29.888  26.176  23.416  1.00  0.00     0.005 A 
ATOM     12  C   UNL A   1      31.017  27.922  24.639  1.00  0.00     0.139 A 
ATOM     13  C   UNL A   1      30.366  27.485  23.489  1.00  0.00     0.040 A 
ATOM     14  F   UNL A   1      31.489  29.176  24.673  1.00  0.00    -0.206 F 
BRANCH   9  15
ATOM     15  N   UNL A   1      31.018  24.830  26.694  1.00  0.00    -0.321 N 
ATOM     16  C   UNL A   1      31.836  23.721  26.764  1.00  0.00     0.258 C 
ATOM     17  O   UNL A   1      31.668  22.943  27.701  1.00  0.00    -0.269 OA
ATOM     18  H   UNL A   1      30.524  25.030  27.522  1.00  0.00     0.170 HD
BRANCH  16  19
ATOM     19  C   UNL A   1      32.998  23.555  25.844  1.00  0.00     0.075 A 
ATOM     20  C   UNL A   1      36.335  22.989  23.153  1.00  0.00     0.044 C 
ATOM     21  C   UNL A   1      35.177  23.180  24.084  1.00  0.00    -0.048 A 
ATOM     22  C   UNL A   1      35.309  23.999  25.204  1.00  0.00     0.004 A 
ATOM     23  C   UNL A   1      33.976  22.488  23.892  1.00  0.00     0.043 A 
ATOM     24  C   UNL A   1      34.244  24.151  26.093  1.00  0.00     0.017 A 
ATOM     25  C   UNL A   1      32.896  22.689  24.755  1.00  0.00     0.136 A 
ATOM     26  F   UNL A   1      31.765  22.013  24.502  1.00  0.00    -0.206 F 
ENDBRANCH  16  19
ENDBRANCH   9  15
ENDBRANCH   6   8
ENDBRANCH   5   6
ENDBRANCH   4   5
ENDBRANCH   3   4
ENDBRANCH   2   3
ENDBRANCH   1   2
BRANCH   1  27
ATOM     27  C   UNL A   1      34.869  32.840  29.386  1.00  0.00     0.188 C 
BRANCH  27  28
ATOM     28  O   UNL A   1      34.984  34.234  29.214  1.00  0.00    -0.376 OA
BRANCH  28  29
ATOM     29  C   UNL A   1      33.921  34.977  28.646  1.00  0.00     0.202 C 
BRANCH  29  30
ATOM     30  C   UNL A   1      32.917  35.759  29.500  1.00  0.00     0.261 C 
BRANCH  30  31
ATOM     31  O   UNL A   1      33.398  36.222  30.767  1.00  0.00    -0.460 OA
BRANCH  31  32
ATOM     32  C   UNL A   1      32.919  35.547  31.836  1.00  0.00     0.338 C 
ATOM     33  O   UNL A   1      31.746  35.328  32.114  1.00  0.00    -0.246 OA
BRANCH  32  34
ATOM     34  C   UNL A   1      34.029  34.926  32.576  1.00  0.00     0.060 A 
ATOM     35  C   UNL A   1      35.282  35.551  32.523  1.00  0.00     0.016 A 
ATOM     36  C   UNL A   1      33.867  33.710  33.242  1.00  0.00     0.016 A 
ATOM     37  C   UNL A   1      36.390  34.935  33.098  1.00  0.00     0.010 A 
ATOM     38  C   UNL A   1      34.985  33.087  33.807  1.00  0.00     0.010 A 
ATOM     39  C   UNL A   1      36.257  33.678  33.701  1.00  0.00    -0.014 A 
BRANCH  39  40
ATOM     40  C   UNL A   1      37.484  32.926  34.060  1.00  0.00     0.031 A 
ATOM     41  C   UNL A   1      38.012  31.890  33.104  1.00  0.00     0.074 A 
ATOM     42  C   UNL A   1      38.162  33.206  35.185  1.00  0.00     0.049 A 
ATOM     43  N   UNL A   1      39.111  31.183  33.171  1.00  0.00    -0.248 NA
ATOM     44  C   UNL A   1      37.191  31.622  31.912  1.00  0.00     0.031 C 
ATOM     45  C   UNL A   1      37.779  34.206  36.179  1.00  0.00     0.029 A 
ATOM     46  N   UNL A   1      39.327  32.670  35.672  1.00  0.00    -0.354 N 
ATOM     47  C   UNL A   1      39.118  30.392  32.029  1.00  0.00     0.074 A 
ATOM     48  C   UNL A   1      37.894  30.675  31.311  1.00  0.00     0.031 C 
ATOM     49  C   UNL A   1      38.694  34.211  37.163  1.00  0.00     0.029 A 
ATOM     50  C   UNL A   1      39.713  33.203  36.876  1.00  0.00     0.049 A 
ATOM     51  H   UNL A   1      39.837  31.970  35.203  1.00  0.00     0.167 HD
ATOM     52  C   UNL A   1      40.062  29.517  31.606  1.00  0.00     0.031 A 
ATOM     53  C   UNL A   1      40.767  32.908  37.661  1.00  0.00     0.031 A 
ATOM     54  C   UNL A   1      41.265  29.207  32.332  1.00  0.00     0.049 A 
ATOM     55  C   UNL A   1      41.771  31.883  37.207  1.00  0.00     0.074 A 
ATOM     56  C   UNL A   1      42.288  28.343  31.979  1.00  0.00     0.029 A 
ATOM     57  N   UNL A   1      41.598  29.737  33.570  1.00  0.00    -0.354 N 
ATOM     58  N   UNL A   1      41.796  31.179  36.101  1.00  0.00    -0.248 NA
ATOM     59  C   UNL A   1      42.909  31.632  38.104  1.00  0.00     0.031 C 
ATOM     60  C   UNL A   1      43.213  28.308  33.030  1.00  0.00     0.029 A 
ATOM     61  C   UNL A   1      42.798  29.200  34.007  1.00  0.00     0.049 A 
ATOM     62  H   UNL A   1      41.062  30.398  34.063  1.00  0.00     0.167 HD
ATOM     63  C   UNL A   1      42.962  30.426  36.155  1.00  0.00     0.074 A 
ATOM     64  C   UNL A   1      43.624  30.767  37.396  1.00  0.00     0.031 C 
ATOM     65  C   UNL A   1      43.445  29.538  35.250  1.00  0.00     0.031 A 
BRANCH  52  66
ATOM     66  C   UNL A   1      39.799  28.807  30.306  1.00  0.00    -0.014 A 
ATOM     67  C   UNL A   1      39.237  27.520  30.278  1.00  0.00     0.009 A 
ATOM     68  C   UNL A   1      40.121  29.433  29.093  1.00  0.00     0.009 A 
ATOM     69  C   UNL A   1      39.049  26.857  29.064  1.00  0.00     0.001 A 
ATOM     70  C   UNL A   1      39.904  28.780  27.879  1.00  0.00     0.001 A 
ATOM     71  C   UNL A   1      39.380  27.488  27.865  1.00  0.00     0.000 A 
ENDBRANCH  52  66
BRANCH  53  72
ATOM     72  C   UNL A   1      40.922  33.601  38.966  1.00  0.00    -0.014 A 
ATOM     73  C   UNL A   1      40.342  33.081  40.131  1.00  0.00     0.009 A 
ATOM     74  C   UNL A   1      41.669  34.786  39.048  1.00  0.00     0.009 A 
ATOM     75  C   UNL A   1      40.496  33.742  41.353  1.00  0.00     0.001 A 
ATOM     76  C   UNL A   1      41.843  35.431  40.274  1.00  0.00     0.001 A 
ATOM     77  C   UNL A   1      41.253  34.911  41.424  1.00  0.00     0.000 A 
ENDBRANCH  53  72
BRANCH  65  78
ATOM     78  C   UNL A   1      44.773  28.896  35.552  1.00  0.00    -0.014 A 
ATOM     79  C   UNL A   1      44.864  27.705  36.287  1.00  0.00     0.009 A 
ATOM     80  C   UNL A   1      45.952  29.481  35.060  1.00  0.00     0.009 A 
ATOM     81  C   UNL A   1      46.110  27.133  36.556  1.00  0.00     0.001 A 
ATOM     82  C   UNL A   1      47.193  28.891  35.304  1.00  0.00     0.001 A 
ATOM     83  C   UNL A   1      47.272  27.724  36.061  1.00  0.00     0.000 A 
ENDBRANCH  65  78
ENDBRANCH  39  40
ENDBRANCH  32  34
ENDBRANCH  31  32
ENDBRANCH  30  31
ENDBRANCH  29  30
ENDBRANCH  28  29
ENDBRANCH  27  28
ENDBRANCH   1  27
TORSDOF 19
ENDMDL
MODEL 2
REMARK VINA RESULT:     -10.4      3.589      9.401
REMARK SMILES Cc1ccc(C(=O)Nc2cccc(F)c2C(=O)OCCOCCOCCOC(=O)c2ccc(-c3c4nc(c(-c5ccccc5)c5ccc([nH]5)c(-c5ccccc5)c5nc(c(-c6ccccc6)c6ccc3[nH]6)C=C5)C=C4)cc2)c(F)c1
REMARK SMILES IDX 22 1 21 2 20 3 19 4 18 5 16 6 17 7 15 8 9 9 10 10 11 11
REMARK SMILES IDX 13 12 12 13 14 14 8 15 6 16 7 17 5 19 1 20 2 21 3 22 80 23
REMARK SMILES IDX 4 24 78 25 79 26 23 27 24 28 25 29 26 30 27 31 28 32 29 33
REMARK SMILES IDX 30 34 31 35 77 36 32 37 76 38 33 39 34 40 35 41 70 42 36 43
REMARK SMILES IDX 75 44 69 45 71 46 37 47 74 48 68 49 67 50 38 52 60 53 45 54
REMARK SMILES IDX 59 55 46 56 49 57 58 58 72 59 47 60 48 61 57 63 73 64 50 65
REMARK SMILES IDX 39 66 40 67 44 68 41 69 43 70 42 71 61 72 62 73 66 74 63 75
REMARK SMILES IDX 65 76 64 77 51 78 52 79 56 80 53 81 55 82 54 83
REMARK H PARENT 8 18 71 51 49 62
REMARK Flexibility Score: inf
ROOT
ATOM      1  C   UNL A   1      39.854  21.645  26.496  1.00  0.00     0.188 C 
ENDROOT
BRANCH   1   2
ATOM      2  O   UNL A   1      38.637  22.201  26.038  1.00  0.00    -0.376 OA
BRANCH   2   3
ATOM      3  C   UNL A   1      37.681  21.383  25.374  1.00  0.00     0.202 C 
BRANCH   3   4
ATOM      4  C   UNL A   1      36.373  21.984  24.856  1.00  0.00     0.261 C 
BRANCH   4   5
ATOM      5  O   UNL A   1      35.463  22.315  25.915  1.00  0.00    -0.460 OA
BRANCH   5   6
ATOM      6  C   UNL A   1      34.908  23.543  25.838  1.00  0.00     0.343 C 
ATOM      7  O   UNL A   1      35.489  24.600  25.616  1.00  0.00    -0.246 OA
BRANCH   6   8
ATOM      8  C   UNL A   1      33.446  23.423  25.806  1.00  0.00     0.119 A 
ATOM      9  C   UNL A   1      32.726  23.807  24.658  1.00  0.00     0.059 A 
ATOM     10  C   UNL A   1      31.329  23.691  24.658  1.00  0.00     0.027 A 
ATOM     11  C   UNL A   1      30.657  23.249  25.802  1.00  0.00     0.005 A 
ATOM     12  C   UNL A   1      32.766  23.004  26.948  1.00  0.00     0.139 A 
ATOM     13  C   UNL A   1      31.377  22.920  26.951  1.00  0.00     0.040 A 
ATOM     14  F   UNL A   1      33.432  22.708  28.072  1.00  0.00    -0.206 F 
BRANCH   9  15
ATOM     15  N   UNL A   1      33.406  24.296  23.525  1.00  0.00    -0.321 N 
ATOM     16  C   UNL A   1      33.396  25.545  22.940  1.00  0.00     0.258 C 
ATOM     17  O   UNL A   1      33.847  25.648  21.801  1.00  0.00    -0.269 OA
ATOM     18  H   UNL A   1      33.983  23.636  23.077  1.00  0.00     0.170 HD
BRANCH  16  19
ATOM     19  C   UNL A   1      33.017  26.762  23.715  1.00  0.00     0.075 A 
ATOM     20  C   UNL A   1      31.857  30.311  25.895  1.00  0.00     0.044 C 
ATOM     21  C   UNL A   1      32.256  29.083  25.136  1.00  0.00    -0.048 A 
ATOM     22  C   UNL A   1      33.540  28.559  25.278  1.00  0.00     0.004 A 
ATOM     23  C   UNL A   1      31.381  28.486  24.221  1.00  0.00     0.043 A 
ATOM     24  C   UNL A   1      33.926  27.436  24.545  1.00  0.00     0.017 A 
ATOM     25  C   UNL A   1      31.755  27.329  23.533  1.00  0.00     0.136 A 
ATOM     26  F   UNL A   1      30.862  26.793  22.689  1.00  0.00    -0.206 F 
ENDBRANCH  16  19
ENDBRANCH   9  15
ENDBRANCH   6   8
ENDBRANCH   5   6
ENDBRANCH   4   5
ENDBRANCH   3   4
ENDBRANCH   2   3
ENDBRANCH   1   2
BRANCH   1  27
ATOM     27  C   UNL A   1      40.337  20.269  25.992  1.00  0.00     0.188 C 
BRANCH  27  28
ATOM     28  O   UNL A   1      41.707  19.967  25.860  1.00  0.00    -0.376 OA
BRANCH  28  29
ATOM     29  C   UNL A   1      42.690  20.927  26.203  1.00  0.00     0.202 C 
BRANCH  29  30
ATOM     30  C   UNL A   1      43.511  21.675  25.146  1.00  0.00     0.261 C 
BRANCH  30  31
ATOM     31  O   UNL A   1      42.985  22.938  24.722  1.00  0.00    -0.460 OA
BRANCH  31  32
ATOM     32  C   UNL A   1      43.782  23.999  24.981  1.00  0.00     0.338 C 
ATOM     33  O   UNL A   1      44.871  24.254  24.479  1.00  0.00    -0.246 OA
BRANCH  32  34
ATOM     34  C   UNL A   1      43.081  24.952  25.856  1.00  0.00     0.060 A 
ATOM     35  C   UNL A   1      43.724  26.159  26.157  1.00  0.00     0.016 A 
ATOM     36  C   UNL A   1      41.852  24.635  26.438  1.00  0.00     0.016 A 
ATOM     37  C   UNL A   1      43.161  27.035  27.080  1.00  0.00     0.010 A 
ATOM     38  C   UNL A   1      41.295  25.510  27.376  1.00  0.00     0.010 A 
ATOM     39  C   UNL A   1      41.968  26.695  27.730  1.00  0.00    -0.014 A 
BRANCH  39  40
ATOM     40  C   UNL A   1      41.534  27.503  28.895  1.00  0.00     0.031 A 
ATOM     41  C   UNL A   1      42.318  27.418  30.176  1.00  0.00     0.074 A 
ATOM     42  C   UNL A   1      40.500  28.356  28.798  1.00  0.00     0.049 A 
ATOM     43  N   UNL A   1      42.174  28.100  31.284  1.00  0.00    -0.248 NA
ATOM     44  C   UNL A   1      43.413  26.436  30.209  1.00  0.00     0.031 C 
ATOM     45  C   UNL A   1      39.679  28.559  27.607  1.00  0.00     0.029 A 
ATOM     46  N   UNL A   1      39.975  29.218  29.726  1.00  0.00    -0.354 N 
ATOM     47  C   UNL A   1      43.163  27.635  32.142  1.00  0.00     0.074 A 
ATOM     48  C   UNL A   1      43.871  26.585  31.442  1.00  0.00     0.031 C 
ATOM     49  C   UNL A   1      38.746  29.488  27.879  1.00  0.00     0.029 A 
ATOM     50  C   UNL A   1      38.896  29.928  29.264  1.00  0.00     0.049 A 
ATOM     51  H   UNL A   1      40.337  29.317  30.637  1.00  0.00     0.167 HD
ATOM     52  C   UNL A   1      43.466  28.051  33.396  1.00  0.00     0.031 A 
ATOM     53  C   UNL A   1      38.114  30.828  29.889  1.00  0.00     0.031 A 
ATOM     54  C   UNL A   1      42.746  29.071  34.109  1.00  0.00     0.049 A 
ATOM     55  C   UNL A   1      38.424  31.229  31.306  1.00  0.00     0.074 A 
ATOM     56  C   UNL A   1      42.985  29.571  35.378  1.00  0.00     0.029 A 
ATOM     57  N   UNL A   1      41.631  29.738  33.621  1.00  0.00    -0.354 N 
ATOM     58  N   UNL A   1      39.393  30.823  32.090  1.00  0.00    -0.248 NA
ATOM     59  C   UNL A   1      37.543  32.237  31.916  1.00  0.00     0.031 C 
ATOM     60  C   UNL A   1      41.981  30.499  35.680  1.00  0.00     0.029 A 
ATOM     61  C   UNL A   1      41.155  30.625  34.573  1.00  0.00     0.049 A 
ATOM     62  H   UNL A   1      41.237  29.601  32.730  1.00  0.00     0.167 HD
ATOM     63  C   UNL A   1      39.257  31.543  33.270  1.00  0.00     0.074 A 
ATOM     64  C   UNL A   1      38.119  32.421  33.096  1.00  0.00     0.031 C 
ATOM     65  C   UNL A   1      40.015  31.487  34.395  1.00  0.00     0.031 A 
BRANCH  52  66
ATOM     66  C   UNL A   1      44.614  27.363  34.082  1.00  0.00    -0.014 A 
ATOM     67  C   UNL A   1      44.404  26.265  34.933  1.00  0.00     0.009 A 
ATOM     68  C   UNL A   1      45.924  27.822  33.878  1.00  0.00     0.009 A 
ATOM     69  C   UNL A   1      45.477  25.673  35.602  1.00  0.00     0.001 A 
ATOM     70  C   UNL A   1      46.999  27.209  34.524  1.00  0.00     0.001 A 
ATOM     71  C   UNL A   1      46.774  26.143  35.396  1.00  0.00     0.000 A 
ENDBRANCH  52  66
BRANCH  53  72
ATOM     72  C   UNL A   1      36.954  31.413  29.168  1.00  0.00    -0.014 A 
ATOM     73  C   UNL A   1      37.029  32.693  28.600  1.00  0.00     0.009 A 
ATOM     74  C   UNL A   1      35.766  30.678  29.034  1.00  0.00     0.009 A 
ATOM     75  C   UNL A   1      35.931  33.231  27.924  1.00  0.00     0.001 A 
ATOM     76  C   UNL A   1      34.679  31.208  28.335  1.00  0.00     0.001 A 
ATOM     77  C   UNL A   1      34.761  32.485  27.785  1.00  0.00     0.000 A 
ENDBRANCH  53  72
BRANCH  65  78
ATOM     78  C   UNL A   1      39.659  32.429  35.514  1.00  0.00    -0.014 A 
ATOM     79  C   UNL A   1      40.235  33.705  35.613  1.00  0.00     0.009 A 
ATOM     80  C   UNL A   1      38.704  32.041  36.468  1.00  0.00     0.009 A 
ATOM     81  C   UNL A   1      39.889  34.557  36.664  1.00  0.00     0.001 A 
ATOM     82  C   UNL A   1      38.338  32.905  37.501  1.00  0.00     0.001 A 
ATOM     83  C   UNL A   1      38.939  34.159  37.605  1.00  0.00     0.000 A 
ENDBRANCH  65  78
ENDBRANCH  39  40
ENDBRANCH  32  34
ENDBRANCH  31  32
ENDBRANCH  30  31
ENDBRANCH  29  30
ENDBRANCH  28  29
ENDBRANCH  27  28
ENDBRANCH   1  27
TORSDOF 19
ENDMDL
MODEL 3
REMARK VINA RESULT:     -10.4      3.532      8.670
REMARK SMILES Cc1ccc(C(=O)Nc2cccc(F)c2C(=O)OCCOCCOCCOC(=O)c2ccc(-c3c4nc(c(-c5ccccc5)c5ccc([nH]5)c(-c5ccccc5)c5nc(c(-c6ccccc6)c6ccc3[nH]6)C=C5)C=C4)cc2)c(F)c1
REMARK SMILES IDX 22 1 21 2 20 3 19 4 18 5 16 6 17 7 15 8 9 9 10 10 11 11
REMARK SMILES IDX 13 12 12 13 14 14 8 15 6 16 7 17 5 19 1 20 2 21 3 22 80 23
REMARK SMILES IDX 4 24 78 25 79 26 23 27 24 28 25 29 26 30 27 31 28 32 29 33
REMARK SMILES IDX 30 34 31 35 77 36 32 37 76 38 33 39 34 40 35 41 70 42 36 43
REMARK SMILES IDX 75 44 69 45 71 46 37 47 74 48 68 49 67 50 38 52 60 53 45 54
REMARK SMILES IDX 59 55 46 56 49 57 58 58 72 59 47 60 48 61 57 63 73 64 50 65
REMARK SMILES IDX 39 66 40 67 44 68 41 69 43 70 42 71 61 72 62 73 66 74 63 75
REMARK SMILES IDX 65 76 64 77 51 78 52 79 56 80 53 81 55 82 54 83
REMARK H PARENT 8 18 71 51 49 62
REMARK Flexibility Score: inf
ROOT
ATOM      1  C   UNL A   1      39.986  21.831  26.527  1.00  0.00     0.188 C 
ENDROOT
BRANCH   1   2
ATOM      2  O   UNL A   1      38.744  22.361  26.107  1.00  0.00    -0.376 OA
BRANCH   2   3
ATOM      3  C   UNL A   1      37.769  21.514  25.510  1.00  0.00     0.202 C 
BRANCH   3   4
ATOM      4  C   UNL A   1      36.484  22.104  24.927  1.00  0.00     0.261 C 
BRANCH   4   5
ATOM      5  O   UNL A   1      35.610  22.625  25.938  1.00  0.00    -0.460 OA
BRANCH   5   6
ATOM      6  C   UNL A   1      35.039  23.815  25.652  1.00  0.00     0.343 C 
ATOM      7  O   UNL A   1      35.604  24.820  25.233  1.00  0.00    -0.246 OA
BRANCH   6   8
ATOM      8  C   UNL A   1      33.578  23.678  25.669  1.00  0.00     0.119 A 
ATOM      9  C   UNL A   1      32.811  24.099  24.565  1.00  0.00     0.059 A 
ATOM     10  C   UNL A   1      31.417  23.965  24.611  1.00  0.00     0.027 A 
ATOM     11  C   UNL A   1      30.793  23.470  25.761  1.00  0.00     0.005 A 
ATOM     12  C   UNL A   1      32.946  23.206  26.817  1.00  0.00     0.139 A 
ATOM     13  C   UNL A   1      31.559  23.104  26.869  1.00  0.00     0.040 A 
ATOM     14  F   UNL A   1      33.656  22.873  27.904  1.00  0.00    -0.206 F 
BRANCH   9  15
ATOM     15  N   UNL A   1      33.443  24.640  23.429  1.00  0.00    -0.321 N 
ATOM     16  C   UNL A   1      33.350  25.894  22.860  1.00  0.00     0.258 C 
ATOM     17  O   UNL A   1      33.777  26.037  21.715  1.00  0.00    -0.269 OA
ATOM     18  H   UNL A   1      34.051  24.021  22.963  1.00  0.00     0.170 HD
BRANCH  16  19
ATOM     19  C   UNL A   1      32.914  27.076  23.657  1.00  0.00     0.075 A 
ATOM     20  C   UNL A   1      31.583  30.525  25.900  1.00  0.00     0.044 C 
ATOM     21  C   UNL A   1      32.040  29.332  25.119  1.00  0.00    -0.048 A 
ATOM     22  C   UNL A   1      33.349  28.870  25.251  1.00  0.00     0.004 A 
ATOM     23  C   UNL A   1      31.194  28.708  24.194  1.00  0.00     0.043 A 
ATOM     24  C   UNL A   1      33.789  27.780  24.498  1.00  0.00     0.017 A 
ATOM     25  C   UNL A   1      31.625  27.584  23.485  1.00  0.00     0.136 A 
ATOM     26  F   UNL A   1      30.758  27.019  22.632  1.00  0.00    -0.206 F 
ENDBRANCH  16  19
ENDBRANCH   9  15
ENDBRANCH   6   8
ENDBRANCH   5   6
ENDBRANCH   4   5
ENDBRANCH   3   4
ENDBRANCH   2   3
ENDBRANCH   1   2
BRANCH   1  27
ATOM     27  C   UNL A   1      40.491  20.474  25.994  1.00  0.00     0.188 C 
BRANCH  27  28
ATOM     28  O   UNL A   1      41.865  20.209  25.824  1.00  0.00    -0.376 OA
BRANCH  28  29
ATOM     29  C   UNL A   1      42.833  21.169  26.206  1.00  0.00     0.202 C 
BRANCH  29  30
ATOM     30  C   UNL A   1      43.584  22.030  25.183  1.00  0.00     0.261 C 
BRANCH  30  31
ATOM     31  O   UNL A   1      42.992  23.296  24.874  1.00  0.00    -0.460 OA
BRANCH  31  32
ATOM     32  C   UNL A   1      43.775  24.367  25.136  1.00  0.00     0.338 C 
ATOM     33  O   UNL A   1      44.835  24.663  24.597  1.00  0.00    -0.246 OA
BRANCH  32  34
ATOM     34  C   UNL A   1      43.090  25.274  26.070  1.00  0.00     0.060 A 
ATOM     35  C   UNL A   1      43.634  26.552  26.258  1.00  0.00     0.016 A 
ATOM     36  C   UNL A   1      41.984  24.855  26.811  1.00  0.00     0.016 A 
ATOM     37  C   UNL A   1      43.100  27.399  27.225  1.00  0.00     0.010 A 
ATOM     38  C   UNL A   1      41.458  25.702  27.791  1.00  0.00     0.010 A 
ATOM     39  C   UNL A   1      42.040  26.962  28.029  1.00  0.00    -0.014 A 
BRANCH  39  40
ATOM     40  C   UNL A   1      41.671  27.764  29.220  1.00  0.00     0.031 A 
ATOM     41  C   UNL A   1      40.454  28.647  29.158  1.00  0.00     0.074 A 
ATOM     42  C   UNL A   1      42.364  27.659  30.366  1.00  0.00     0.049 A 
ATOM     43  N   UNL A   1      39.898  29.360  30.103  1.00  0.00    -0.248 NA
ATOM     44  C   UNL A   1      39.772  28.730  27.857  1.00  0.00     0.031 C 
ATOM     45  C   UNL A   1      43.541  26.817  30.571  1.00  0.00     0.029 A 
ATOM     46  N   UNL A   1      42.164  28.266  31.579  1.00  0.00    -0.354 N 
ATOM     47  C   UNL A   1      38.798  29.972  29.514  1.00  0.00     0.074 A 
ATOM     48  C   UNL A   1      38.792  29.579  28.121  1.00  0.00     0.031 C 
ATOM     49  C   UNL A   1      43.962  26.964  31.838  1.00  0.00     0.029 A 
ATOM     50  C   UNL A   1      43.097  27.922  32.524  1.00  0.00     0.049 A 
ATOM     51  H   UNL A   1      41.422  28.890  31.755  1.00  0.00     0.167 HD
ATOM     52  C   UNL A   1      37.867  30.777  30.080  1.00  0.00     0.031 A 
ATOM     53  C   UNL A   1      43.241  28.335  33.797  1.00  0.00     0.031 A 
ATOM     54  C   UNL A   1      37.887  31.198  31.456  1.00  0.00     0.049 A 
ATOM     55  C   UNL A   1      42.235  29.285  34.391  1.00  0.00     0.074 A 
ATOM     56  C   UNL A   1      36.981  32.003  32.126  1.00  0.00     0.029 A 
ATOM     57  N   UNL A   1      38.874  30.860  32.370  1.00  0.00    -0.354 N 
ATOM     58  N   UNL A   1      41.170  29.815  33.841  1.00  0.00    -0.248 NA
ATOM     59  C   UNL A   1      42.441  29.673  35.795  1.00  0.00     0.031 C 
ATOM     60  C   UNL A   1      37.451  32.199  33.430  1.00  0.00     0.029 A 
ATOM     61  C   UNL A   1      38.614  31.462  33.591  1.00  0.00     0.049 A 
ATOM     62  H   UNL A   1      39.644  30.278  32.180  1.00  0.00     0.167 HD
ATOM     63  C   UNL A   1      40.564  30.573  34.836  1.00  0.00     0.074 A 
ATOM     64  C   UNL A   1      41.374  30.424  36.027  1.00  0.00     0.031 C 
ATOM     65  C   UNL A   1      39.431  31.317  34.769  1.00  0.00     0.031 A 
BRANCH  52  66
ATOM     66  C   UNL A   1      36.769  31.283  29.185  1.00  0.00    -0.014 A 
ATOM     67  C   UNL A   1      36.758  32.609  28.721  1.00  0.00     0.009 A 
ATOM     68  C   UNL A   1      35.729  30.422  28.804  1.00  0.00     0.009 A 
ATOM     69  C   UNL A   1      35.703  33.074  27.934  1.00  0.00     0.001 A 
ATOM     70  C   UNL A   1      34.691  30.881  27.992  1.00  0.00     0.001 A 
ATOM     71  C   UNL A   1      34.671  32.210  27.568  1.00  0.00     0.000 A 
ENDBRANCH  52  66
BRANCH  53  72
ATOM     72  C   UNL A   1      44.392  27.846  34.599  1.00  0.00    -0.014 A 
ATOM     73  C   UNL A   1      44.282  26.696  35.392  1.00  0.00     0.009 A 
ATOM     74  C   UNL A   1      45.618  28.528  34.557  1.00  0.00     0.009 A 
ATOM     75  C   UNL A   1      45.373  26.245  36.140  1.00  0.00     0.001 A 
ATOM     76  C   UNL A   1      46.715  28.062  35.285  1.00  0.00     0.001 A 
ATOM     77  C   UNL A   1      46.590  26.924  36.079  1.00  0.00     0.000 A 
ENDBRANCH  53  72
BRANCH  65  78
ATOM     78  C   UNL A   1      38.979  32.002  36.031  1.00  0.00    -0.014 A 
ATOM     79  C   UNL A   1      38.095  31.383  36.927  1.00  0.00     0.009 A 
ATOM     80  C   UNL A   1      39.477  33.278  36.343  1.00  0.00     0.009 A 
ATOM     81  C   UNL A   1      37.690  32.043  38.090  1.00  0.00     0.001 A 
ATOM     82  C   UNL A   1      39.094  33.923  37.519  1.00  0.00     0.001 A 
ATOM     83  C   UNL A   1      38.192  33.309  38.387  1.00  0.00     0.000 A 
ENDBRANCH  65  78
ENDBRANCH  39  40
ENDBRANCH  32  34
ENDBRANCH  31  32
ENDBRANCH  30  31
ENDBRANCH  29  30
ENDBRANCH  28  29
ENDBRANCH  27  28
ENDBRANCH   1  27
TORSDOF 19
ENDMDL
