MODEL 1
REMARK VINA RESULT:     -11.3      0.000      0.000
REMARK SMILES O=C(CNC(=O)[C@@H](CC1=c2ccccc2=NC1)N1C(=O)N=C2C=CC=C[C@H]2C1=O)OCCOCCOCCOC(=O)c1ccc(-c2c3nc(c(-c4ccccc4)c4ccc([nH]4)c(-c4ccccc4)c4nc(c(-c5ccccc5)c5ccc2[nH]5)C=C4)C=C3)cc1
REMARK SMILES IDX 34 1 33 2 32 3 31 4 30 5 2 6 1 7 3 8 4 9 5 10 6 12 7 13 8 14
REMARK SMILES IDX 9 15 10 16 17 17 11 18 15 19 16 20 12 21 14 22 13 23 18 24
REMARK SMILES IDX 19 25 28 26 21 27 20 28 27 29 29 30 22 31 26 32 23 33 25 34
REMARK SMILES IDX 24 35 35 36 36 37 37 38 38 39 39 40 40 41 41 42 42 43 43 44
REMARK SMILES IDX 89 45 44 46 88 47 45 48 46 49 47 50 82 51 48 52 87 53 81 54
REMARK SMILES IDX 83 55 49 56 86 57 80 58 79 59 50 61 72 62 57 63 71 64 58 65
REMARK SMILES IDX 61 66 70 67 84 68 59 69 60 70 69 72 85 73 62 74 51 75 52 76
REMARK SMILES IDX 56 77 53 78 55 79 54 80 73 81 74 82 78 83 75 84 77 85 76 86
REMARK SMILES IDX 63 87 64 88 68 89 65 90 67 91 66 92
REMARK H PARENT 4 11 83 60 61 71
REMARK Flexibility Score: inf
ROOT
ATOM      1  C   UNL A   1      43.564  18.772  25.764  1.00  0.00     0.188 C 
ENDROOT
BRANCH   1   2
ATOM      2  O   UNL A   1      42.874  19.991  26.141  1.00  0.00    -0.376 OA
BRANCH   2   3
ATOM      3  C   UNL A   1      41.748  19.955  27.040  1.00  0.00     0.202 C 
BRANCH   3   4
ATOM      4  C   UNL A   1      40.952  21.333  27.409  1.00  0.00     0.261 C 
BRANCH   4   5
ATOM      5  O   UNL A   1      40.066  21.962  26.416  1.00  0.00    -0.462 OA
BRANCH   5   6
ATOM      6  C   UNL A   1      38.817  21.672  25.950  1.00  0.00     0.325 C 
ATOM      7  O   UNL A   1      38.668  20.615  25.323  1.00  0.00    -0.250 OA
BRANCH   6   8
ATOM      8  C   UNL A   1      37.690  22.785  25.722  1.00  0.00     0.238 C 
BRANCH   8   9
ATOM      9  N   UNL A   1      36.537  23.380  26.464  1.00  0.00    -0.343 N 
ATOM     10  C   UNL A   1      35.180  23.080  26.457  1.00  0.00     0.244 C 
ATOM     11  H   UNL A   1      36.783  24.120  27.066  1.00  0.00     0.164 HD
ATOM     12  O   UNL A   1      34.553  23.128  27.517  1.00  0.00    -0.273 OA
BRANCH  10  13
ATOM     13  C   UNL A   1      34.462  22.993  25.108  1.00  0.00     0.188 C 
BRANCH  13  14
ATOM     14  C   UNL A   1      34.514  21.620  24.404  1.00  0.00     0.069 C 
BRANCH  14  15
ATOM     15  C   UNL A   1      33.694  20.375  24.101  1.00  0.00    -0.037 C 
ATOM     16  C   UNL A   1      33.949  19.054  24.303  1.00  0.00     0.001 A 
ATOM     17  C   UNL A   1      32.345  20.529  23.499  1.00  0.00     0.174 C 
ATOM     18  C   UNL A   1      34.971  18.184  24.860  1.00  0.00     0.010 A 
ATOM     19  C   UNL A   1      32.823  18.398  23.612  1.00  0.00     0.065 A 
ATOM     20  N   UNL A   1      31.874  19.167  23.172  1.00  0.00    -0.280 NA
ATOM     21  C   UNL A   1      35.051  16.881  24.545  1.00  0.00     0.001 A 
ATOM     22  C   UNL A   1      32.912  16.926  23.401  1.00  0.00     0.028 A 
ATOM     23  C   UNL A   1      34.009  16.251  23.781  1.00  0.00     0.002 A 
ENDBRANCH  14  15
ENDBRANCH  13  14
BRANCH  13  24
ATOM     24  N   UNL A   1      33.492  24.053  24.648  1.00  0.00    -0.249 N 
ATOM     25  C   UNL A   1      33.840  24.808  23.523  1.00  0.00     0.351 C 
ATOM     26  C   UNL A   1      32.240  24.195  25.208  1.00  0.00     0.244 C 
ATOM     27  N   UNL A   1      33.027  25.792  23.050  1.00  0.00    -0.197 NA
ATOM     28  O   UNL A   1      34.852  24.556  22.874  1.00  0.00    -0.246 OA
ATOM     29  C   UNL A   1      31.562  25.574  25.004  1.00  0.00     0.151 C 
ATOM     30  O   UNL A   1      31.743  23.288  25.868  1.00  0.00    -0.273 OA
ATOM     31  C   UNL A   1      31.963  26.158  23.673  1.00  0.00     0.062 C 
ATOM     32  C   UNL A   1      30.058  25.655  25.143  1.00  0.00    -0.007 C 
ATOM     33  C   UNL A   1      31.124  27.199  23.026  1.00  0.00     0.025 C 
ATOM     34  C   UNL A   1      29.265  26.402  24.356  1.00  0.00    -0.003 C 
ATOM     35  C   UNL A   1      29.828  27.258  23.346  1.00  0.00     0.002 C 
ENDBRANCH  13  24
ENDBRANCH  10  13
ENDBRANCH   8   9
ENDBRANCH   6   8
ENDBRANCH   5   6
ENDBRANCH   4   5
ENDBRANCH   3   4
ENDBRANCH   2   3
ENDBRANCH   1   2
BRANCH   1  36
ATOM     36  C   UNL A   1      44.699  19.056  24.742  1.00  0.00     0.188 C 
BRANCH  36  37
ATOM     37  O   UNL A   1      44.513  20.180  23.894  1.00  0.00    -0.376 OA
BRANCH  37  38
ATOM     38  C   UNL A   1      45.203  21.349  24.294  1.00  0.00     0.202 C 
BRANCH  38  39
ATOM     39  C   UNL A   1      44.721  22.670  23.679  1.00  0.00     0.261 C 
BRANCH  39  40
ATOM     40  O   UNL A   1      44.078  23.583  24.589  1.00  0.00    -0.460 OA
BRANCH  40  41
ATOM     41  C   UNL A   1      44.863  24.607  25.051  1.00  0.00     0.338 C 
ATOM     42  O   UNL A   1      45.961  24.917  24.669  1.00  0.00    -0.246 OA
BRANCH  41  43
ATOM     43  C   UNL A   1      44.124  25.343  26.113  1.00  0.00     0.060 A 
ATOM     44  C   UNL A   1      43.235  24.651  26.925  1.00  0.00     0.016 A 
ATOM     45  C   UNL A   1      44.380  26.699  26.366  1.00  0.00     0.016 A 
ATOM     46  C   UNL A   1      42.600  25.323  27.971  1.00  0.00     0.010 A 
ATOM     47  C   UNL A   1      43.715  27.378  27.413  1.00  0.00     0.010 A 
ATOM     48  C   UNL A   1      42.796  26.702  28.221  1.00  0.00    -0.014 A 
BRANCH  48  49
ATOM     49  C   UNL A   1      42.179  27.272  29.461  1.00  0.00     0.031 A 
ATOM     50  C   UNL A   1      42.857  27.359  30.807  1.00  0.00     0.074 A 
ATOM     51  C   UNL A   1      40.993  27.886  29.294  1.00  0.00     0.049 A 
ATOM     52  N   UNL A   1      42.569  28.153  31.815  1.00  0.00    -0.248 NA
ATOM     53  C   UNL A   1      43.988  26.466  31.070  1.00  0.00     0.031 C 
ATOM     54  C   UNL A   1      40.238  27.880  28.040  1.00  0.00     0.029 A 
ATOM     55  N   UNL A   1      40.256  28.689  30.129  1.00  0.00    -0.354 N 
ATOM     56  C   UNL A   1      43.503  27.880  32.811  1.00  0.00     0.074 A 
ATOM     57  C   UNL A   1      44.367  26.841  32.290  1.00  0.00     0.031 C 
ATOM     58  C   UNL A   1      39.207  28.721  28.149  1.00  0.00     0.029 A 
ATOM     59  C   UNL A   1      39.168  29.253  29.508  1.00  0.00     0.049 A 
ATOM     60  H   UNL A   1      40.484  28.844  31.074  1.00  0.00     0.167 HD
ATOM     61  C   UNL A   1      43.613  28.430  34.048  1.00  0.00     0.031 A 
ATOM     62  C   UNL A   1      38.226  30.103  29.960  1.00  0.00     0.031 A 
ATOM     63  C   UNL A   1      42.687  29.395  34.598  1.00  0.00     0.049 A 
ATOM     64  C   UNL A   1      38.318  30.628  31.357  1.00  0.00     0.074 A 
ATOM     65  C   UNL A   1      42.739  30.028  35.831  1.00  0.00     0.029 A 
ATOM     66  N   UNL A   1      41.519  29.824  33.985  1.00  0.00    -0.354 N 
ATOM     67  N   UNL A   1      39.272  30.448  32.236  1.00  0.00    -0.248 NA
ATOM     68  C   UNL A   1      37.211  31.469  31.829  1.00  0.00     0.031 C 
ATOM     69  C   UNL A   1      41.552  30.740  36.010  1.00  0.00     0.029 A 
ATOM     70  C   UNL A   1      40.807  30.647  34.845  1.00  0.00     0.049 A 
ATOM     71  H   UNL A   1      41.236  29.580  33.074  1.00  0.00     0.167 HD
ATOM     72  C   UNL A   1      38.885  31.152  33.367  1.00  0.00     0.074 A 
ATOM     73  C   UNL A   1      37.619  31.784  33.054  1.00  0.00     0.031 C 
ATOM     74  C   UNL A   1      39.533  31.259  34.552  1.00  0.00     0.031 A 
BRANCH  61  75
ATOM     75  C   UNL A   1      44.742  27.982  34.951  1.00  0.00    -0.014 A 
ATOM     76  C   UNL A   1      44.504  27.000  35.931  1.00  0.00     0.009 A 
ATOM     77  C   UNL A   1      45.987  28.630  34.945  1.00  0.00     0.009 A 
ATOM     78  C   UNL A   1      45.472  26.692  36.890  1.00  0.00     0.001 A 
ATOM     79  C   UNL A   1      46.966  28.298  35.888  1.00  0.00     0.001 A 
ATOM     80  C   UNL A   1      46.705  27.338  36.865  1.00  0.00     0.000 A 
ENDBRANCH  61  75
BRANCH  62  81
ATOM     81  C   UNL A   1      37.132  30.482  29.028  1.00  0.00    -0.014 A 
ATOM     82  C   UNL A   1      36.998  31.823  28.621  1.00  0.00     0.009 A 
ATOM     83  C   UNL A   1      36.130  29.566  28.685  1.00  0.00     0.009 A 
ATOM     84  C   UNL A   1      35.848  32.254  27.959  1.00  0.00     0.001 A 
ATOM     85  C   UNL A   1      34.999  29.993  27.984  1.00  0.00     0.001 A 
ATOM     86  C   UNL A   1      34.848  31.338  27.643  1.00  0.00     0.000 A 
ENDBRANCH  62  81
BRANCH  74  87
ATOM     87  C   UNL A   1      38.894  32.078  35.642  1.00  0.00    -0.014 A 
ATOM     88  C   UNL A   1      39.175  33.452  35.740  1.00  0.00     0.009 A 
ATOM     89  C   UNL A   1      38.127  31.472  36.649  1.00  0.00     0.009 A 
ATOM     90  C   UNL A   1      38.736  34.192  36.839  1.00  0.00     0.001 A 
ATOM     91  C   UNL A   1      37.660  32.222  37.731  1.00  0.00     0.001 A 
ATOM     92  C   UNL A   1      37.979  33.577  37.834  1.00  0.00     0.000 A 
ENDBRANCH  74  87
ENDBRANCH  48  49
ENDBRANCH  41  43
ENDBRANCH  40  41
ENDBRANCH  39  40
ENDBRANCH  38  39
ENDBRANCH  37  38
ENDBRANCH  36  37
ENDBRANCH   1  36
TORSDOF 22
ENDMDL
MODEL 2
REMARK VINA RESULT:     -11.1      1.440      4.250
REMARK SMILES O=C(CNC(=O)[C@@H](CC1=c2ccccc2=NC1)N1C(=O)N=C2C=CC=C[C@H]2C1=O)OCCOCCOCCOC(=O)c1ccc(-c2c3nc(c(-c4ccccc4)c4ccc([nH]4)c(-c4ccccc4)c4nc(c(-c5ccccc5)c5ccc2[nH]5)C=C4)C=C3)cc1
REMARK SMILES IDX 34 1 33 2 32 3 31 4 30 5 2 6 1 7 3 8 4 9 5 10 6 12 7 13 8 14
REMARK SMILES IDX 9 15 10 16 17 17 11 18 15 19 16 20 12 21 14 22 13 23 18 24
REMARK SMILES IDX 19 25 28 26 21 27 20 28 27 29 29 30 22 31 26 32 23 33 25 34
REMARK SMILES IDX 24 35 35 36 36 37 37 38 38 39 39 40 40 41 41 42 42 43 43 44
REMARK SMILES IDX 89 45 44 46 88 47 45 48 46 49 47 50 82 51 48 52 87 53 81 54
REMARK SMILES IDX 83 55 49 56 86 57 80 58 79 59 50 61 72 62 57 63 71 64 58 65
REMARK SMILES IDX 61 66 70 67 84 68 59 69 60 70 69 72 85 73 62 74 51 75 52 76
REMARK SMILES IDX 56 77 53 78 55 79 54 80 73 81 74 82 78 83 75 84 77 85 76 86
REMARK SMILES IDX 63 87 64 88 68 89 65 90 67 91 66 92
REMARK H PARENT 4 11 83 60 61 71
REMARK Flexibility Score: inf
ROOT
ATOM      1  C   UNL A   1      42.890  19.475  25.796  1.00  0.00     0.188 C 
ENDROOT
BRANCH   1   2
ATOM      2  O   UNL A   1      41.498  19.511  25.387  1.00  0.00    -0.376 OA
BRANCH   2   3
ATOM      3  C   UNL A   1      40.471  19.944  26.301  1.00  0.00     0.202 C 
BRANCH   3   4
ATOM      4  C   UNL A   1      40.314  21.528  26.664  1.00  0.00     0.261 C 
BRANCH   4   5
ATOM      5  O   UNL A   1      39.000  22.183  26.562  1.00  0.00    -0.462 OA
BRANCH   5   6
ATOM      6  C   UNL A   1      38.592  23.420  26.157  1.00  0.00     0.325 C 
ATOM      7  O   UNL A   1      39.244  24.397  26.549  1.00  0.00    -0.250 OA
BRANCH   6   8
ATOM      8  C   UNL A   1      37.104  23.728  25.655  1.00  0.00     0.238 C 
BRANCH   8   9
ATOM      9  N   UNL A   1      36.337  23.749  24.373  1.00  0.00    -0.343 N 
ATOM     10  C   UNL A   1      34.980  23.899  24.109  1.00  0.00     0.244 C 
ATOM     11  H   UNL A   1      36.893  23.636  23.568  1.00  0.00     0.164 HD
ATOM     12  O   UNL A   1      34.632  24.560  23.130  1.00  0.00    -0.273 OA
BRANCH  10  13
ATOM     13  C   UNL A   1      33.993  23.002  24.861  1.00  0.00     0.188 C 
BRANCH  13  14
ATOM     14  C   UNL A   1      33.077  23.714  25.880  1.00  0.00     0.069 C 
BRANCH  14  15
ATOM     15  C   UNL A   1      32.248  24.970  26.102  1.00  0.00    -0.037 C 
ATOM     16  C   UNL A   1      32.592  26.287  26.119  1.00  0.00     0.001 A 
ATOM     17  C   UNL A   1      30.786  24.840  26.322  1.00  0.00     0.174 C 
ATOM     18  C   UNL A   1      33.752  27.143  25.939  1.00  0.00     0.010 A 
ATOM     19  C   UNL A   1      31.349  26.939  26.572  1.00  0.00     0.065 A 
ATOM     20  N   UNL A   1      30.293  26.190  26.669  1.00  0.00    -0.280 NA
ATOM     21  C   UNL A   1      33.791  28.402  26.407  1.00  0.00     0.001 A 
ATOM     22  C   UNL A   1      31.429  28.375  26.960  1.00  0.00     0.028 A 
ATOM     23  C   UNL A   1      32.610  29.016  26.948  1.00  0.00     0.002 A 
ENDBRANCH  14  15
ENDBRANCH  13  14
BRANCH  13  24
ATOM     24  N   UNL A   1      33.690  21.594  24.412  1.00  0.00    -0.249 N 
ATOM     25  C   UNL A   1      32.642  21.413  23.502  1.00  0.00     0.351 C 
ATOM     26  C   UNL A   1      34.491  20.526  24.755  1.00  0.00     0.244 C 
ATOM     27  N   UNL A   1      32.296  20.175  23.056  1.00  0.00    -0.197 NA
ATOM     28  O   UNL A   1      32.051  22.371  23.011  1.00  0.00    -0.246 OA
ATOM     29  C   UNL A   1      33.829  19.127  24.658  1.00  0.00     0.151 C 
ATOM     30  O   UNL A   1      35.634  20.705  25.163  1.00  0.00    -0.273 OA
ATOM     31  C   UNL A   1      32.828  19.104  23.531  1.00  0.00     0.062 C 
ATOM     32  C   UNL A   1      34.732  17.919  24.539  1.00  0.00    -0.007 C 
ATOM     33  C   UNL A   1      32.413  17.814  22.920  1.00  0.00     0.025 C 
ATOM     34  C   UNL A   1      34.476  16.859  23.753  1.00  0.00    -0.003 C 
ATOM     35  C   UNL A   1      33.247  16.773  23.010  1.00  0.00     0.002 C 
ENDBRANCH  13  24
ENDBRANCH  10  13
ENDBRANCH   8   9
ENDBRANCH   6   8
ENDBRANCH   5   6
ENDBRANCH   4   5
ENDBRANCH   3   4
ENDBRANCH   2   3
ENDBRANCH   1   2
BRANCH   1  36
ATOM     36  C   UNL A   1      43.545  20.880  25.699  1.00  0.00     0.188 C 
BRANCH  36  37
ATOM     37  O   UNL A   1      44.906  20.911  25.296  1.00  0.00    -0.376 OA
BRANCH  37  38
ATOM     38  C   UNL A   1      45.146  21.533  24.049  1.00  0.00     0.202 C 
BRANCH  38  39
ATOM     39  C   UNL A   1      45.583  23.004  24.091  1.00  0.00     0.261 C 
BRANCH  39  40
ATOM     40  O   UNL A   1      44.989  23.800  25.133  1.00  0.00    -0.460 OA
BRANCH  40  41
ATOM     41  C   UNL A   1      45.810  24.097  26.190  1.00  0.00     0.338 C 
ATOM     42  O   UNL A   1      46.970  23.805  26.319  1.00  0.00    -0.246 OA
BRANCH  41  43
ATOM     43  C   UNL A   1      45.048  24.899  27.185  1.00  0.00     0.060 A 
ATOM     44  C   UNL A   1      44.102  24.270  27.984  1.00  0.00     0.016 A 
ATOM     45  C   UNL A   1      45.335  26.257  27.393  1.00  0.00     0.016 A 
ATOM     46  C   UNL A   1      43.443  25.005  28.971  1.00  0.00     0.010 A 
ATOM     47  C   UNL A   1      44.645  26.999  28.379  1.00  0.00     0.010 A 
ATOM     48  C   UNL A   1      43.670  26.386  29.172  1.00  0.00    -0.014 A 
BRANCH  48  49
ATOM     49  C   UNL A   1      43.017  27.027  30.358  1.00  0.00     0.031 A 
ATOM     50  C   UNL A   1      43.652  27.188  31.717  1.00  0.00     0.074 A 
ATOM     51  C   UNL A   1      41.840  27.634  30.119  1.00  0.00     0.049 A 
ATOM     52  N   UNL A   1      43.336  28.038  32.669  1.00  0.00    -0.248 NA
ATOM     53  C   UNL A   1      44.770  26.308  32.067  1.00  0.00     0.031 C 
ATOM     54  C   UNL A   1      41.125  27.559  28.843  1.00  0.00     0.029 A 
ATOM     55  N   UNL A   1      41.080  28.484  30.882  1.00  0.00    -0.354 N 
ATOM     56  C   UNL A   1      44.237  27.820  33.708  1.00  0.00     0.074 A 
ATOM     57  C   UNL A   1      45.112  26.751  33.274  1.00  0.00     0.031 C 
ATOM     58  C   UNL A   1      40.095  28.408  28.872  1.00  0.00     0.029 A 
ATOM     59  C   UNL A   1      40.015  29.015  30.197  1.00  0.00     0.049 A 
ATOM     60  H   UNL A   1      41.279  28.692  31.824  1.00  0.00     0.167 HD
ATOM     61  C   UNL A   1      44.310  28.438  34.916  1.00  0.00     0.031 A 
ATOM     62  C   UNL A   1      39.063  29.892  30.569  1.00  0.00     0.031 A 
ATOM     63  C   UNL A   1      43.371  29.435  35.380  1.00  0.00     0.049 A 
ATOM     64  C   UNL A   1      39.112  30.495  31.937  1.00  0.00     0.074 A 
ATOM     65  C   UNL A   1      43.387  30.136  36.577  1.00  0.00     0.029 A 
ATOM     66  N   UNL A   1      42.225  29.832  34.707  1.00  0.00    -0.354 N 
ATOM     67  N   UNL A   1      40.038  30.362  32.855  1.00  0.00    -0.248 NA
ATOM     68  C   UNL A   1      37.995  31.364  32.325  1.00  0.00     0.031 C 
ATOM     69  C   UNL A   1      42.198  30.860  36.678  1.00  0.00     0.029 A 
ATOM     70  C   UNL A   1      41.490  30.705  35.496  1.00  0.00     0.049 A 
ATOM     71  H   UNL A   1      41.970  29.538  33.803  1.00  0.00     0.167 HD
ATOM     72  C   UNL A   1      39.618  31.130  33.931  1.00  0.00     0.074 A 
ATOM     73  C   UNL A   1      38.366  31.747  33.543  1.00  0.00     0.031 C 
ATOM     74  C   UNL A   1      40.228  31.302  35.128  1.00  0.00     0.031 A 
BRANCH  61  75
ATOM     75  C   UNL A   1      45.407  28.039  35.878  1.00  0.00    -0.014 A 
ATOM     76  C   UNL A   1      46.551  28.850  36.007  1.00  0.00     0.009 A 
ATOM     77  C   UNL A   1      45.390  26.801  36.537  1.00  0.00     0.009 A 
ATOM     78  C   UNL A   1      47.654  28.424  36.752  1.00  0.00     0.001 A 
ATOM     79  C   UNL A   1      46.484  26.389  37.308  1.00  0.00     0.001 A 
ATOM     80  C   UNL A   1      47.618  27.195  37.406  1.00  0.00     0.000 A 
ENDBRANCH  61  75
BRANCH  62  81
ATOM     81  C   UNL A   1      38.001  30.221  29.583  1.00  0.00    -0.014 A 
ATOM     82  C   UNL A   1      38.036  31.456  28.908  1.00  0.00     0.009 A 
ATOM     83  C   UNL A   1      36.874  29.401  29.440  1.00  0.00     0.009 A 
ATOM     84  C   UNL A   1      36.934  31.898  28.176  1.00  0.00     0.001 A 
ATOM     85  C   UNL A   1      35.790  29.829  28.670  1.00  0.00     0.001 A 
ATOM     86  C   UNL A   1      35.810  31.084  28.059  1.00  0.00     0.000 A 
ENDBRANCH  62  81
BRANCH  74  87
ATOM     87  C   UNL A   1      39.559  32.183  36.150  1.00  0.00    -0.014 A 
ATOM     88  C   UNL A   1      38.604  31.637  37.025  1.00  0.00     0.009 A 
ATOM     89  C   UNL A   1      39.767  33.570  36.158  1.00  0.00     0.009 A 
ATOM     90  C   UNL A   1      37.846  32.464  37.857  1.00  0.00     0.001 A 
ATOM     91  C   UNL A   1      39.033  34.392  37.016  1.00  0.00     0.001 A 
ATOM     92  C   UNL A   1      38.061  33.840  37.853  1.00  0.00     0.000 A 
ENDBRANCH  74  87
ENDBRANCH  48  49
ENDBRANCH  41  43
ENDBRANCH  40  41
ENDBRANCH  39  40
ENDBRANCH  38  39
ENDBRANCH  37  38
ENDBRANCH  36  37
ENDBRANCH   1  36
TORSDOF 22
ENDMDL
MODEL 3
REMARK VINA RESULT:     -10.8      1.454      6.889
REMARK SMILES O=C(CNC(=O)[C@@H](CC1=c2ccccc2=NC1)N1C(=O)N=C2C=CC=C[C@H]2C1=O)OCCOCCOCCOC(=O)c1ccc(-c2c3nc(c(-c4ccccc4)c4ccc([nH]4)c(-c4ccccc4)c4nc(c(-c5ccccc5)c5ccc2[nH]5)C=C4)C=C3)cc1
REMARK SMILES IDX 34 1 33 2 32 3 31 4 30 5 2 6 1 7 3 8 4 9 5 10 6 12 7 13 8 14
REMARK SMILES IDX 9 15 10 16 17 17 11 18 15 19 16 20 12 21 14 22 13 23 18 24
REMARK SMILES IDX 19 25 28 26 21 27 20 28 27 29 29 30 22 31 26 32 23 33 25 34
REMARK SMILES IDX 24 35 35 36 36 37 37 38 38 39 39 40 40 41 41 42 42 43 43 44
REMARK SMILES IDX 89 45 44 46 88 47 45 48 46 49 47 50 82 51 48 52 87 53 81 54
REMARK SMILES IDX 83 55 49 56 86 57 80 58 79 59 50 61 72 62 57 63 71 64 58 65
REMARK SMILES IDX 61 66 70 67 84 68 59 69 60 70 69 72 85 73 62 74 51 75 52 76
REMARK SMILES IDX 56 77 53 78 55 79 54 80 73 81 74 82 78 83 75 84 77 85 76 86
REMARK SMILES IDX 63 87 64 88 68 89 65 90 67 91 66 92
REMARK H PARENT 4 11 83 60 61 71
REMARK Flexibility Score: inf
ROOT
ATOM      1  C   UNL A   1      42.677  19.505  25.858  1.00  0.00     0.188 C 
ENDROOT
BRANCH   1   2
ATOM      2  O   UNL A   1      41.301  19.449  25.402  1.00  0.00    -0.376 OA
BRANCH   2   3
ATOM      3  C   UNL A   1      40.233  19.989  26.205  1.00  0.00     0.202 C 
BRANCH   3   4
ATOM      4  C   UNL A   1      40.002  21.604  26.279  1.00  0.00     0.261 C 
BRANCH   4   5
ATOM      5  O   UNL A   1      38.655  22.167  26.087  1.00  0.00    -0.462 OA
BRANCH   5   6
ATOM      6  C   UNL A   1      38.149  23.433  26.124  1.00  0.00     0.325 C 
ATOM      7  O   UNL A   1      38.554  24.189  27.017  1.00  0.00    -0.250 OA
BRANCH   6   8
ATOM      8  C   UNL A   1      36.758  23.837  25.442  1.00  0.00     0.238 C 
BRANCH   8   9
ATOM      9  N   UNL A   1      36.096  23.739  24.107  1.00  0.00    -0.343 N 
ATOM     10  C   UNL A   1      34.763  23.849  23.725  1.00  0.00     0.244 C 
ATOM     11  H   UNL A   1      36.715  23.564  23.361  1.00  0.00     0.164 HD
ATOM     12  O   UNL A   1      34.490  24.419  22.669  1.00  0.00    -0.273 OA
BRANCH  10  13
ATOM     13  C   UNL A   1      33.724  23.009  24.471  1.00  0.00     0.188 C 
BRANCH  13  14
ATOM     14  C   UNL A   1      32.669  23.799  25.275  1.00  0.00     0.069 C 
BRANCH  14  15
ATOM     15  C   UNL A   1      32.207  25.206  25.624  1.00  0.00    -0.037 C 
ATOM     16  C   UNL A   1      32.583  26.423  25.147  1.00  0.00     0.001 A 
ATOM     17  C   UNL A   1      31.136  25.383  26.637  1.00  0.00     0.174 C 
ATOM     18  C   UNL A   1      33.479  27.014  24.167  1.00  0.00     0.010 A 
ATOM     19  C   UNL A   1      31.877  27.354  26.048  1.00  0.00     0.065 A 
ATOM     20  N   UNL A   1      31.025  26.837  26.879  1.00  0.00    -0.280 NA
ATOM     21  C   UNL A   1      33.865  28.298  24.233  1.00  0.00     0.001 A 
ATOM     22  C   UNL A   1      32.262  28.792  25.987  1.00  0.00     0.028 A 
ATOM     23  C   UNL A   1      33.257  29.195  25.179  1.00  0.00     0.002 A 
ENDBRANCH  14  15
ENDBRANCH  13  14
BRANCH  13  24
ATOM     24  N   UNL A   1      33.525  21.541  24.182  1.00  0.00    -0.249 N 
ATOM     25  C   UNL A   1      32.487  21.186  23.313  1.00  0.00     0.351 C 
ATOM     26  C   UNL A   1      34.406  20.579  24.626  1.00  0.00     0.244 C 
ATOM     27  N   UNL A   1      32.232  19.884  23.008  1.00  0.00    -0.197 NA
ATOM     28  O   UNL A   1      31.822  22.038  22.730  1.00  0.00    -0.246 OA
ATOM     29  C   UNL A   1      33.851  19.133  24.691  1.00  0.00     0.151 C 
ATOM     30  O   UNL A   1      35.535  20.886  24.995  1.00  0.00    -0.273 OA
ATOM     31  C   UNL A   1      32.846  18.913  23.588  1.00  0.00     0.062 C 
ATOM     32  C   UNL A   1      34.840  17.990  24.689  1.00  0.00    -0.007 C 
ATOM     33  C   UNL A   1      32.525  17.538  23.126  1.00  0.00     0.025 C 
ATOM     34  C   UNL A   1      34.660  16.834  24.026  1.00  0.00    -0.003 C 
ATOM     35  C   UNL A   1      33.436  16.577  23.315  1.00  0.00     0.002 C 
ENDBRANCH  13  24
ENDBRANCH  10  13
ENDBRANCH   8   9
ENDBRANCH   6   8
ENDBRANCH   5   6
ENDBRANCH   4   5
ENDBRANCH   3   4
ENDBRANCH   2   3
ENDBRANCH   1   2
BRANCH   1  36
ATOM     36  C   UNL A   1      43.260  20.938  25.721  1.00  0.00     0.188 C 
BRANCH  36  37
ATOM     37  O   UNL A   1      44.635  21.025  25.374  1.00  0.00    -0.376 OA
BRANCH  37  38
ATOM     38  C   UNL A   1      44.903  21.710  24.165  1.00  0.00     0.202 C 
BRANCH  38  39
ATOM     39  C   UNL A   1      45.055  23.234  24.262  1.00  0.00     0.261 C 
BRANCH  39  40
ATOM     40  O   UNL A   1      44.570  23.832  25.478  1.00  0.00    -0.460 OA
BRANCH  40  41
ATOM     41  C   UNL A   1      45.521  24.078  26.435  1.00  0.00     0.338 C 
ATOM     42  O   UNL A   1      46.660  23.690  26.451  1.00  0.00    -0.246 OA
BRANCH  41  43
ATOM     43  C   UNL A   1      44.938  24.962  27.481  1.00  0.00     0.060 A 
ATOM     44  C   UNL A   1      45.291  26.305  27.509  1.00  0.00     0.016 A 
ATOM     45  C   UNL A   1      43.970  24.482  28.376  1.00  0.00     0.016 A 
ATOM     46  C   UNL A   1      44.686  27.151  28.441  1.00  0.00     0.010 A 
ATOM     47  C   UNL A   1      43.380  25.341  29.332  1.00  0.00     0.010 A 
ATOM     48  C   UNL A   1      43.746  26.689  29.391  1.00  0.00    -0.014 A 
BRANCH  48  49
ATOM     49  C   UNL A   1      43.055  27.717  30.233  1.00  0.00     0.031 A 
ATOM     50  C   UNL A   1      41.729  28.358  29.907  1.00  0.00     0.074 A 
ATOM     51  C   UNL A   1      43.606  27.950  31.440  1.00  0.00     0.049 A 
ATOM     52  N   UNL A   1      40.887  28.953  30.725  1.00  0.00    -0.248 NA
ATOM     53  C   UNL A   1      41.276  28.339  28.515  1.00  0.00     0.031 C 
ATOM     54  C   UNL A   1      44.884  27.386  31.877  1.00  0.00     0.029 A 
ATOM     55  N   UNL A   1      43.147  28.639  32.534  1.00  0.00    -0.354 N 
ATOM     56  C   UNL A   1      39.795  29.341  29.953  1.00  0.00     0.074 A 
ATOM     57  C   UNL A   1      40.081  28.921  28.597  1.00  0.00     0.031 C 
ATOM     58  C   UNL A   1      45.057  27.658  33.173  1.00  0.00     0.029 A 
ATOM     59  C   UNL A   1      43.956  28.497  33.635  1.00  0.00     0.049 A 
ATOM     60  H   UNL A   1      42.323  29.178  32.530  1.00  0.00     0.167 HD
ATOM     61  C   UNL A   1      38.674  30.004  30.338  1.00  0.00     0.031 A 
ATOM     62  C   UNL A   1      43.849  28.980  34.888  1.00  0.00     0.031 A 
ATOM     63  C   UNL A   1      38.441  30.508  31.673  1.00  0.00     0.049 A 
ATOM     64  C   UNL A   1      42.646  29.784  35.266  1.00  0.00     0.074 A 
ATOM     65  C   UNL A   1      37.320  31.163  32.159  1.00  0.00     0.029 A 
ATOM     66  N   UNL A   1      39.355  30.466  32.715  1.00  0.00    -0.354 N 
ATOM     67  N   UNL A   1      41.575  30.036  34.554  1.00  0.00    -0.248 NA
ATOM     68  C   UNL A   1      42.630  30.371  36.612  1.00  0.00     0.031 C 
ATOM     69  C   UNL A   1      37.602  31.621  33.447  1.00  0.00     0.029 A 
ATOM     70  C   UNL A   1      38.854  31.153  33.812  1.00  0.00     0.049 A 
ATOM     71  H   UNL A   1      40.231  30.017  32.682  1.00  0.00     0.167 HD
ATOM     72  C   UNL A   1      40.755  30.810  35.362  1.00  0.00     0.074 A 
ATOM     73  C   UNL A   1      41.442  30.966  36.629  1.00  0.00     0.031 C 
ATOM     74  C   UNL A   1      39.542  31.336  35.068  1.00  0.00     0.031 A 
BRANCH  61  75
ATOM     75  C   UNL A   1      37.604  30.293  29.308  1.00  0.00    -0.014 A 
ATOM     76  C   UNL A   1      37.444  31.603  28.816  1.00  0.00     0.009 A 
ATOM     77  C   UNL A   1      36.659  29.323  28.939  1.00  0.00     0.009 A 
ATOM     78  C   UNL A   1      36.359  31.936  28.000  1.00  0.00     0.001 A 
ATOM     79  C   UNL A   1      35.591  29.653  28.098  1.00  0.00     0.001 A 
ATOM     80  C   UNL A   1      35.435  30.960  27.638  1.00  0.00     0.000 A 
ENDBRANCH  61  75
BRANCH  62  81
ATOM     81  C   UNL A   1      44.948  28.679  35.842  1.00  0.00    -0.014 A 
ATOM     82  C   UNL A   1      44.834  27.576  36.709  1.00  0.00     0.009 A 
ATOM     83  C   UNL A   1      46.015  29.571  36.015  1.00  0.00     0.009 A 
ATOM     84  C   UNL A   1      45.719  27.416  37.776  1.00  0.00     0.001 A 
ATOM     85  C   UNL A   1      46.923  29.382  37.059  1.00  0.00     0.001 A 
ATOM     86  C   UNL A   1      46.762  28.322  37.952  1.00  0.00     0.000 A 
ENDBRANCH  62  81
BRANCH  74  87
ATOM     87  C   UNL A   1      38.850  32.162  36.120  1.00  0.00    -0.014 A 
ATOM     88  C   UNL A   1      39.160  33.526  36.253  1.00  0.00     0.009 A 
ATOM     89  C   UNL A   1      37.997  31.568  37.062  1.00  0.00     0.009 A 
ATOM     90  C   UNL A   1      38.664  34.268  37.328  1.00  0.00     0.001 A 
ATOM     91  C   UNL A   1      37.475  32.319  38.117  1.00  0.00     0.001 A 
ATOM     92  C   UNL A   1      37.822  33.664  38.259  1.00  0.00     0.000 A 
ENDBRANCH  74  87
ENDBRANCH  48  49
ENDBRANCH  41  43
ENDBRANCH  40  41
ENDBRANCH  39  40
ENDBRANCH  38  39
ENDBRANCH  37  38
ENDBRANCH  36  37
ENDBRANCH   1  36
TORSDOF 22
ENDMDL
