MODEL 1
REMARK VINA RESULT:     -11.2      0.000      0.000
REMARK SMILES C[C@@H]1CCc2nc(NC(=O)[C@H]3CC=CC[C@@H]3C(=O)OCCOCCOCCOC(=O)c3ccc(-c4c5nc(c(-c6ccccc6)c6ccc([nH]6)c(-c6ccccc6)c6nc(c(-c7ccccc7)c7ccc4[nH]7)C=C6)C=C5)cc3)sc2C1
REMARK SMILES IDX 23 1 22 2 21 3 20 4 19 5 17 6 18 7 16 8 11 9 12 10 13 11
REMARK SMILES IDX 15 12 14 13 9 14 8 15 10 17 7 18 1 19 2 20 3 21 81 22 4 23
REMARK SMILES IDX 80 24 5 25 79 26 6 27 24 28 25 29 26 30 27 31 28 32 29 33
REMARK SMILES IDX 30 34 31 35 32 36 78 37 33 38 77 39 34 40 35 41 36 42 71 43
REMARK SMILES IDX 37 44 76 45 70 46 72 47 38 48 75 49 69 50 68 51 39 53 61 54
REMARK SMILES IDX 46 55 60 56 47 57 50 58 59 59 73 60 48 61 49 62 58 64 74 65
REMARK SMILES IDX 51 66 40 67 41 68 45 69 42 70 44 71 43 72 62 73 63 74 67 75
REMARK SMILES IDX 64 76 66 77 65 78 52 79 53 80 57 81 54 82 56 83 55 84
REMARK H PARENT 8 16 72 52 50 63
REMARK Flexibility Score: inf
ROOT
ATOM      1  C   UNL A   1      38.194  21.879  25.699  1.00  0.00     0.188 C 
ENDROOT
BRANCH   1   2
ATOM      2  O   UNL A   1      37.659  23.054  25.111  1.00  0.00    -0.376 OA
BRANCH   2   3
ATOM      3  C   UNL A   1      36.831  23.832  25.980  1.00  0.00     0.202 C 
BRANCH   3   4
ATOM      4  C   UNL A   1      35.389  23.315  26.139  1.00  0.00     0.261 C 
BRANCH   4   5
ATOM      5  O   UNL A   1      34.389  24.173  25.562  1.00  0.00    -0.463 OA
BRANCH   5   6
ATOM      6  C   UNL A   1      33.922  23.797  24.345  1.00  0.00     0.310 C 
ATOM      7  O   UNL A   1      34.638  23.592  23.373  1.00  0.00    -0.252 OA
BRANCH   6   8
ATOM      8  C   UNL A   1      32.416  23.563  24.396  1.00  0.00     0.116 C 
ATOM      9  C   UNL A   1      32.075  22.764  25.673  1.00  0.00     0.097 C 
ATOM     10  C   UNL A   1      32.471  21.276  25.542  1.00  0.00     0.041 C 
ATOM     11  C   UNL A   1      32.448  20.721  24.149  1.00  0.00    -0.030 C 
ATOM     12  C   UNL A   1      31.933  22.919  23.100  1.00  0.00     0.043 C 
ATOM     13  C   UNL A   1      32.187  21.447  23.056  1.00  0.00    -0.030 C 
BRANCH   9  14
ATOM     14  C   UNL A   1      30.612  22.937  26.111  1.00  0.00     0.230 C 
ATOM     15  N   UNL A   1      30.061  24.168  26.337  1.00  0.00    -0.302 N 
ATOM     16  H   UNL A   1      29.169  24.148  26.752  1.00  0.00     0.172 HD
ATOM     17  O   UNL A   1      29.897  21.951  26.316  1.00  0.00    -0.274 OA
BRANCH  15  18
ATOM     18  C   UNL A   1      30.545  25.422  26.082  1.00  0.00     0.189 A 
ATOM     19  C   UNL A   1      34.031  28.134  23.705  1.00  0.00     0.008 C 
ATOM     20  C   UNL A   1      33.006  29.060  24.373  1.00  0.00    -0.009 C 
ATOM     21  C   UNL A   1      33.276  29.210  25.893  1.00  0.00     0.010 C 
ATOM     22  C   UNL A   1      31.558  28.579  24.119  1.00  0.00     0.052 C 
ATOM     23  C   UNL A   1      33.079  27.907  26.693  1.00  0.00     0.058 C 
ATOM     24  C   UNL A   1      31.219  27.466  25.047  1.00  0.00     0.030 A 
ATOM     25  C   UNL A   1      31.887  27.150  26.213  1.00  0.00     0.057 A 
ATOM     26  S   UNL A   1      29.943  26.382  24.802  1.00  0.00    -0.101 S 
ATOM     27  N   UNL A   1      31.447  26.001  26.844  1.00  0.00    -0.225 NA
ENDBRANCH  15  18
ENDBRANCH   9  14
ENDBRANCH   6   8
ENDBRANCH   5   6
ENDBRANCH   4   5
ENDBRANCH   3   4
ENDBRANCH   2   3
ENDBRANCH   1   2
BRANCH   1  28
ATOM     28  C   UNL A   1      39.691  21.933  26.065  1.00  0.00     0.188 C 
BRANCH  28  29
ATOM     29  O   UNL A   1      40.239  21.176  27.136  1.00  0.00    -0.376 OA
BRANCH  29  30
ATOM     30  C   UNL A   1      40.977  19.981  26.915  1.00  0.00     0.202 C 
BRANCH  30  31
ATOM     31  C   UNL A   1      42.460  20.048  26.568  1.00  0.00     0.261 C 
BRANCH  31  32
ATOM     32  O   UNL A   1      42.690  19.880  25.179  1.00  0.00    -0.460 OA
BRANCH  32  33
ATOM     33  C   UNL A   1      43.992  19.747  24.861  1.00  0.00     0.338 C 
ATOM     34  O   UNL A   1      44.613  18.712  24.697  1.00  0.00    -0.246 OA
BRANCH  33  35
ATOM     35  C   UNL A   1      44.604  21.080  24.764  1.00  0.00     0.060 A 
ATOM     36  C   UNL A   1      45.660  21.321  25.642  1.00  0.00     0.016 A 
ATOM     37  C   UNL A   1      43.973  22.111  24.052  1.00  0.00     0.016 A 
ATOM     38  C   UNL A   1      45.858  22.612  26.062  1.00  0.00     0.010 A 
ATOM     39  C   UNL A   1      44.178  23.407  24.467  1.00  0.00     0.010 A 
ATOM     40  C   UNL A   1      45.008  23.605  25.567  1.00  0.00    -0.014 A 
BRANCH  40  41
ATOM     41  C   UNL A   1      44.858  24.777  26.402  1.00  0.00     0.031 A 
ATOM     42  C   UNL A   1      45.991  25.711  26.420  1.00  0.00     0.074 A 
ATOM     43  C   UNL A   1      43.743  24.975  27.128  1.00  0.00     0.049 A 
ATOM     44  N   UNL A   1      46.737  26.031  27.423  1.00  0.00    -0.248 NA
ATOM     45  C   UNL A   1      46.381  26.306  25.137  1.00  0.00     0.031 C 
ATOM     46  C   UNL A   1      42.452  24.285  27.010  1.00  0.00     0.029 A 
ATOM     47  N   UNL A   1      43.502  25.935  28.062  1.00  0.00    -0.354 N 
ATOM     48  C   UNL A   1      47.603  27.000  26.939  1.00  0.00     0.074 A 
ATOM     49  C   UNL A   1      47.422  27.047  25.508  1.00  0.00     0.031 C 
ATOM     50  C   UNL A   1      41.511  25.005  27.661  1.00  0.00     0.029 A 
ATOM     51  C   UNL A   1      42.158  26.116  28.339  1.00  0.00     0.049 A 
ATOM     52  H   UNL A   1      44.216  26.451  28.500  1.00  0.00     0.167 HD
ATOM     53  C   UNL A   1      48.256  27.861  27.762  1.00  0.00     0.031 A 
ATOM     54  C   UNL A   1      41.611  27.161  28.999  1.00  0.00     0.031 A 
ATOM     55  C   UNL A   1      48.311  27.407  29.123  1.00  0.00     0.049 A 
ATOM     56  C   UNL A   1      42.678  27.829  29.777  1.00  0.00     0.074 A 
ATOM     57  C   UNL A   1      48.836  26.300  29.760  1.00  0.00     0.029 A 
ATOM     58  N   UNL A   1      47.468  27.997  30.033  1.00  0.00    -0.354 N 
ATOM     59  N   UNL A   1      43.245  27.309  30.828  1.00  0.00    -0.248 NA
ATOM     60  C   UNL A   1      43.401  28.934  29.167  1.00  0.00     0.031 C 
ATOM     61  C   UNL A   1      47.953  26.034  30.846  1.00  0.00     0.029 A 
ATOM     62  C   UNL A   1      46.942  26.997  30.811  1.00  0.00     0.049 A 
ATOM     63  H   UNL A   1      47.276  28.960  30.112  1.00  0.00     0.167 HD
ATOM     64  C   UNL A   1      44.567  27.727  30.766  1.00  0.00     0.074 A 
ATOM     65  C   UNL A   1      44.570  28.825  29.805  1.00  0.00     0.031 C 
ATOM     66  C   UNL A   1      45.574  26.964  31.282  1.00  0.00     0.031 A 
BRANCH  53  67
ATOM     67  C   UNL A   1      48.526  29.281  27.365  1.00  0.00    -0.014 A 
ATOM     68  C   UNL A   1      49.849  29.717  27.210  1.00  0.00     0.009 A 
ATOM     69  C   UNL A   1      47.520  30.270  27.383  1.00  0.00     0.009 A 
ATOM     70  C   UNL A   1      50.148  31.079  27.099  1.00  0.00     0.001 A 
ATOM     71  C   UNL A   1      47.811  31.624  27.226  1.00  0.00     0.001 A 
ATOM     72  C   UNL A   1      49.130  32.031  27.102  1.00  0.00     0.000 A 
ENDBRANCH  53  67
BRANCH  54  73
ATOM     73  C   UNL A   1      40.288  27.771  28.762  1.00  0.00    -0.014 A 
ATOM     74  C   UNL A   1      39.306  27.772  29.762  1.00  0.00     0.009 A 
ATOM     75  C   UNL A   1      40.066  28.570  27.623  1.00  0.00     0.009 A 
ATOM     76  C   UNL A   1      38.156  28.562  29.634  1.00  0.00     0.001 A 
ATOM     77  C   UNL A   1      38.916  29.350  27.490  1.00  0.00     0.001 A 
ATOM     78  C   UNL A   1      37.966  29.356  28.504  1.00  0.00     0.000 A 
ENDBRANCH  54  73
BRANCH  66  79
ATOM     79  C   UNL A   1      45.189  25.794  32.155  1.00  0.00    -0.014 A 
ATOM     80  C   UNL A   1      45.137  25.886  33.557  1.00  0.00     0.009 A 
ATOM     81  C   UNL A   1      44.731  24.614  31.550  1.00  0.00     0.009 A 
ATOM     82  C   UNL A   1      44.679  24.817  34.332  1.00  0.00     0.001 A 
ATOM     83  C   UNL A   1      44.253  23.552  32.324  1.00  0.00     0.001 A 
ATOM     84  C   UNL A   1      44.233  23.651  33.714  1.00  0.00     0.000 A 
ENDBRANCH  66  79
ENDBRANCH  40  41
ENDBRANCH  33  35
ENDBRANCH  32  33
ENDBRANCH  31  32
ENDBRANCH  30  31
ENDBRANCH  29  30
ENDBRANCH  28  29
ENDBRANCH   1  28
TORSDOF 19
ENDMDL
MODEL 2
REMARK VINA RESULT:     -11.0      3.303      7.425
REMARK SMILES C[C@@H]1CCc2nc(NC(=O)[C@H]3CC=CC[C@@H]3C(=O)OCCOCCOCCOC(=O)c3ccc(-c4c5nc(c(-c6ccccc6)c6ccc([nH]6)c(-c6ccccc6)c6nc(c(-c7ccccc7)c7ccc4[nH]7)C=C6)C=C5)cc3)sc2C1
REMARK SMILES IDX 23 1 22 2 21 3 20 4 19 5 17 6 18 7 16 8 11 9 12 10 13 11
REMARK SMILES IDX 15 12 14 13 9 14 8 15 10 17 7 18 1 19 2 20 3 21 81 22 4 23
REMARK SMILES IDX 80 24 5 25 79 26 6 27 24 28 25 29 26 30 27 31 28 32 29 33
REMARK SMILES IDX 30 34 31 35 32 36 78 37 33 38 77 39 34 40 35 41 36 42 71 43
REMARK SMILES IDX 37 44 76 45 70 46 72 47 38 48 75 49 69 50 68 51 39 53 61 54
REMARK SMILES IDX 46 55 60 56 47 57 50 58 59 59 73 60 48 61 49 62 58 64 74 65
REMARK SMILES IDX 51 66 40 67 41 68 45 69 42 70 44 71 43 72 62 73 63 74 67 75
REMARK SMILES IDX 64 76 66 77 65 78 52 79 53 80 57 81 54 82 56 83 55 84
REMARK H PARENT 8 16 72 52 50 63
REMARK Flexibility Score: inf
ROOT
ATOM      1  C   UNL A   1      34.077  30.225  27.389  1.00  0.00     0.188 C 
ENDROOT
BRANCH   1   2
ATOM      2  O   UNL A   1      33.306  30.059  26.210  1.00  0.00    -0.376 OA
BRANCH   2   3
ATOM      3  C   UNL A   1      32.252  29.099  26.317  1.00  0.00     0.202 C 
BRANCH   3   4
ATOM      4  C   UNL A   1      32.710  27.661  26.621  1.00  0.00     0.261 C 
BRANCH   4   5
ATOM      5  O   UNL A   1      32.497  26.734  25.543  1.00  0.00    -0.463 OA
BRANCH   5   6
ATOM      6  C   UNL A   1      31.277  26.139  25.511  1.00  0.00     0.310 C 
ATOM      7  O   UNL A   1      30.563  25.996  26.494  1.00  0.00    -0.252 OA
BRANCH   6   8
ATOM      8  C   UNL A   1      30.890  25.784  24.080  1.00  0.00     0.116 C 
ATOM      9  C   UNL A   1      31.907  26.425  23.110  1.00  0.00     0.097 C 
ATOM     10  C   UNL A   1      31.684  27.948  22.971  1.00  0.00     0.041 C 
ATOM     11  C   UNL A   1      30.274  28.417  23.172  1.00  0.00    -0.030 C 
ATOM     12  C   UNL A   1      29.436  26.162  23.813  1.00  0.00     0.043 C 
ATOM     13  C   UNL A   1      29.261  27.618  23.527  1.00  0.00    -0.030 C 
BRANCH   9  14
ATOM     14  C   UNL A   1      31.955  25.721  21.746  1.00  0.00     0.230 C 
ATOM     15  N   UNL A   1      32.692  24.588  21.538  1.00  0.00    -0.302 N 
ATOM     16  H   UNL A   1      32.764  24.312  20.595  1.00  0.00     0.172 HD
ATOM     17  O   UNL A   1      31.355  26.191  20.774  1.00  0.00    -0.274 OA
BRANCH  15  18
ATOM     18  C   UNL A   1      33.347  23.775  22.423  1.00  0.00     0.189 A 
ATOM     19  C   UNL A   1      34.350  22.826  27.245  1.00  0.00     0.008 C 
ATOM     20  C   UNL A   1      34.932  21.718  26.356  1.00  0.00    -0.009 C 
ATOM     21  C   UNL A   1      36.264  22.156  25.695  1.00  0.00     0.010 C 
ATOM     22  C   UNL A   1      33.915  21.259  25.285  1.00  0.00     0.052 C 
ATOM     23  C   UNL A   1      36.110  23.311  24.685  1.00  0.00     0.058 C 
ATOM     24  C   UNL A   1      33.900  22.219  24.148  1.00  0.00     0.030 A 
ATOM     25  C   UNL A   1      34.879  23.146  23.857  1.00  0.00     0.057 A 
ATOM     26  S   UNL A   1      32.642  22.337  23.022  1.00  0.00    -0.101 S 
ATOM     27  N   UNL A   1      34.581  24.001  22.813  1.00  0.00    -0.225 NA
ENDBRANCH  15  18
ENDBRANCH   9  14
ENDBRANCH   6   8
ENDBRANCH   5   6
ENDBRANCH   4   5
ENDBRANCH   3   4
ENDBRANCH   2   3
ENDBRANCH   1   2
BRANCH   1  28
ATOM     28  C   UNL A   1      34.083  31.644  27.993  1.00  0.00     0.188 C 
BRANCH  28  29
ATOM     29  O   UNL A   1      35.008  32.642  27.580  1.00  0.00    -0.376 OA
BRANCH  29  30
ATOM     30  C   UNL A   1      36.100  33.045  28.398  1.00  0.00     0.202 C 
BRANCH  30  31
ATOM     31  C   UNL A   1      36.264  32.465  29.797  1.00  0.00     0.261 C 
BRANCH  31  32
ATOM     32  O   UNL A   1      37.348  31.554  29.873  1.00  0.00    -0.460 OA
BRANCH  32  33
ATOM     33  C   UNL A   1      36.981  30.311  30.240  1.00  0.00     0.338 C 
ATOM     34  O   UNL A   1      36.208  29.997  31.128  1.00  0.00    -0.246 OA
BRANCH  33  35
ATOM     35  C   UNL A   1      37.696  29.332  29.408  1.00  0.00     0.060 A 
ATOM     36  C   UNL A   1      38.118  28.177  30.066  1.00  0.00     0.016 A 
ATOM     37  C   UNL A   1      38.165  29.680  28.132  1.00  0.00     0.016 A 
ATOM     38  C   UNL A   1      39.250  27.557  29.604  1.00  0.00     0.010 A 
ATOM     39  C   UNL A   1      39.297  29.052  27.663  1.00  0.00     0.010 A 
ATOM     40  C   UNL A   1      39.895  28.105  28.490  1.00  0.00    -0.014 A 
BRANCH  40  41
ATOM     41  C   UNL A   1      41.306  27.813  28.375  1.00  0.00     0.031 A 
ATOM     42  C   UNL A   1      41.656  26.542  27.728  1.00  0.00     0.074 A 
ATOM     43  C   UNL A   1      42.233  28.662  28.855  1.00  0.00     0.049 A 
ATOM     44  N   UNL A   1      42.269  25.532  28.248  1.00  0.00    -0.248 NA
ATOM     45  C   UNL A   1      41.199  26.352  26.348  1.00  0.00     0.031 C 
ATOM     46  C   UNL A   1      42.050  30.057  29.276  1.00  0.00     0.029 A 
ATOM     47  N   UNL A   1      43.577  28.476  28.958  1.00  0.00    -0.354 N 
ATOM     48  C   UNL A   1      42.424  24.626  27.210  1.00  0.00     0.074 A 
ATOM     49  C   UNL A   1      41.649  25.124  26.099  1.00  0.00     0.031 C 
ATOM     50  C   UNL A   1      43.261  30.652  29.353  1.00  0.00     0.029 A 
ATOM     51  C   UNL A   1      44.290  29.652  29.119  1.00  0.00     0.049 A 
ATOM     52  H   UNL A   1      44.003  27.590  28.922  1.00  0.00     0.167 HD
ATOM     53  C   UNL A   1      43.354  23.636  27.248  1.00  0.00     0.031 A 
ATOM     54  C   UNL A   1      45.625  29.805  28.972  1.00  0.00     0.031 A 
ATOM     55  C   UNL A   1      43.827  23.357  28.575  1.00  0.00     0.049 A 
ATOM     56  C   UNL A   1      46.259  28.471  29.080  1.00  0.00     0.074 A 
ATOM     57  C   UNL A   1      43.237  22.933  29.749  1.00  0.00     0.029 A 
ATOM     58  N   UNL A   1      45.069  23.825  28.927  1.00  0.00    -0.354 N 
ATOM     59  N   UNL A   1      46.339  27.792  30.187  1.00  0.00    -0.248 NA
ATOM     60  C   UNL A   1      46.481  27.703  27.864  1.00  0.00     0.031 C 
ATOM     61  C   UNL A   1      43.968  23.572  30.791  1.00  0.00     0.029 A 
ATOM     62  C   UNL A   1      44.965  24.345  30.192  1.00  0.00     0.049 A 
ATOM     63  H   UNL A   1      45.883  23.793  28.374  1.00  0.00     0.167 HD
ATOM     64  C   UNL A   1      46.203  26.465  29.804  1.00  0.00     0.074 A 
ATOM     65  C   UNL A   1      46.428  26.464  28.362  1.00  0.00     0.031 C 
ATOM     66  C   UNL A   1      45.645  25.541  30.641  1.00  0.00     0.031 A 
BRANCH  53  67
ATOM     67  C   UNL A   1      44.075  23.185  26.013  1.00  0.00    -0.014 A 
ATOM     68  C   UNL A   1      43.984  21.846  25.610  1.00  0.00     0.009 A 
ATOM     69  C   UNL A   1      45.048  23.985  25.377  1.00  0.00     0.009 A 
ATOM     70  C   UNL A   1      44.839  21.331  24.629  1.00  0.00     0.001 A 
ATOM     71  C   UNL A   1      45.870  23.486  24.366  1.00  0.00     0.001 A 
ATOM     72  C   UNL A   1      45.777  22.151  24.005  1.00  0.00     0.000 A 
ENDBRANCH  53  67
BRANCH  54  73
ATOM     73  C   UNL A   1      46.336  30.994  28.463  1.00  0.00    -0.014 A 
ATOM     74  C   UNL A   1      46.176  31.418  27.137  1.00  0.00     0.009 A 
ATOM     75  C   UNL A   1      46.999  31.861  29.354  1.00  0.00     0.009 A 
ATOM     76  C   UNL A   1      46.642  32.672  26.726  1.00  0.00     0.001 A 
ATOM     77  C   UNL A   1      47.473  33.109  28.942  1.00  0.00     0.001 A 
ATOM     78  C   UNL A   1      47.281  33.520  27.629  1.00  0.00     0.000 A 
ENDBRANCH  54  73
BRANCH  66  79
ATOM     79  C   UNL A   1      45.430  25.940  32.080  1.00  0.00    -0.014 A 
ATOM     80  C   UNL A   1      44.234  26.532  32.526  1.00  0.00     0.009 A 
ATOM     81  C   UNL A   1      46.392  25.585  33.037  1.00  0.00     0.009 A 
ATOM     82  C   UNL A   1      44.025  26.796  33.883  1.00  0.00     0.001 A 
ATOM     83  C   UNL A   1      46.174  25.830  34.396  1.00  0.00     0.001 A 
ATOM     84  C   UNL A   1      44.994  26.441  34.818  1.00  0.00     0.000 A 
ENDBRANCH  66  79
ENDBRANCH  40  41
ENDBRANCH  33  35
ENDBRANCH  32  33
ENDBRANCH  31  32
ENDBRANCH  30  31
ENDBRANCH  29  30
ENDBRANCH  28  29
ENDBRANCH   1  28
TORSDOF 19
ENDMDL
MODEL 3
REMARK VINA RESULT:     -10.9      5.219     10.036
REMARK SMILES C[C@@H]1CCc2nc(NC(=O)[C@H]3CC=CC[C@@H]3C(=O)OCCOCCOCCOC(=O)c3ccc(-c4c5nc(c(-c6ccccc6)c6ccc([nH]6)c(-c6ccccc6)c6nc(c(-c7ccccc7)c7ccc4[nH]7)C=C6)C=C5)cc3)sc2C1
REMARK SMILES IDX 23 1 22 2 21 3 20 4 19 5 17 6 18 7 16 8 11 9 12 10 13 11
REMARK SMILES IDX 15 12 14 13 9 14 8 15 10 17 7 18 1 19 2 20 3 21 81 22 4 23
REMARK SMILES IDX 80 24 5 25 79 26 6 27 24 28 25 29 26 30 27 31 28 32 29 33
REMARK SMILES IDX 30 34 31 35 32 36 78 37 33 38 77 39 34 40 35 41 36 42 71 43
REMARK SMILES IDX 37 44 76 45 70 46 72 47 38 48 75 49 69 50 68 51 39 53 61 54
REMARK SMILES IDX 46 55 60 56 47 57 50 58 59 59 73 60 48 61 49 62 58 64 74 65
REMARK SMILES IDX 51 66 40 67 41 68 45 69 42 70 44 71 43 72 62 73 63 74 67 75
REMARK SMILES IDX 64 76 66 77 65 78 52 79 53 80 57 81 54 82 56 83 55 84
REMARK H PARENT 8 16 72 52 50 63
REMARK Flexibility Score: inf
ROOT
ATOM      1  C   UNL A   1      33.130  30.712  27.202  1.00  0.00     0.188 C 
ENDROOT
BRANCH   1   2
ATOM      2  O   UNL A   1      33.534  29.713  26.279  1.00  0.00    -0.376 OA
BRANCH   2   3
ATOM      3  C   UNL A   1      34.046  28.520  26.878  1.00  0.00     0.202 C 
BRANCH   3   4
ATOM      4  C   UNL A   1      33.492  27.209  26.291  1.00  0.00     0.261 C 
BRANCH   4   5
ATOM      5  O   UNL A   1      32.429  27.391  25.340  1.00  0.00    -0.463 OA
BRANCH   5   6
ATOM      6  C   UNL A   1      31.429  26.475  25.392  1.00  0.00     0.310 C 
ATOM      7  O   UNL A   1      30.918  26.083  26.434  1.00  0.00    -0.252 OA
BRANCH   6   8
ATOM      8  C   UNL A   1      30.968  26.101  23.989  1.00  0.00     0.116 C 
ATOM      9  C   UNL A   1      32.036  26.558  22.971  1.00  0.00     0.097 C 
ATOM     10  C   UNL A   1      32.004  28.088  22.755  1.00  0.00     0.041 C 
ATOM     11  C   UNL A   1      30.669  28.741  22.952  1.00  0.00    -0.030 C 
ATOM     12  C   UNL A   1      29.568  26.646  23.724  1.00  0.00     0.043 C 
ATOM     13  C   UNL A   1      29.572  28.096  23.365  1.00  0.00    -0.030 C 
BRANCH   9  14
ATOM     14  C   UNL A   1      31.966  25.785  21.645  1.00  0.00     0.230 C 
ATOM     15  N   UNL A   1      32.637  24.610  21.451  1.00  0.00    -0.302 N 
ATOM     16  H   UNL A   1      32.636  24.285  20.522  1.00  0.00     0.172 HD
ATOM     17  O   UNL A   1      31.325  26.234  20.688  1.00  0.00    -0.274 OA
BRANCH  15  18
ATOM     18  C   UNL A   1      33.311  23.812  22.335  1.00  0.00     0.189 A 
ATOM     19  C   UNL A   1      34.386  22.920  27.153  1.00  0.00     0.008 C 
ATOM     20  C   UNL A   1      34.967  21.809  26.267  1.00  0.00    -0.009 C 
ATOM     21  C   UNL A   1      36.287  22.253  25.585  1.00  0.00     0.010 C 
ATOM     22  C   UNL A   1      33.941  21.330  25.214  1.00  0.00     0.052 C 
ATOM     23  C   UNL A   1      36.108  23.397  24.565  1.00  0.00     0.058 C 
ATOM     24  C   UNL A   1      33.902  22.279  24.069  1.00  0.00     0.030 A 
ATOM     25  C   UNL A   1      34.868  23.212  23.756  1.00  0.00     0.057 A 
ATOM     26  S   UNL A   1      32.628  22.373  22.958  1.00  0.00    -0.101 S 
ATOM     27  N   UNL A   1      34.548  24.054  22.707  1.00  0.00    -0.225 NA
ENDBRANCH  15  18
ENDBRANCH   9  14
ENDBRANCH   6   8
ENDBRANCH   5   6
ENDBRANCH   4   5
ENDBRANCH   3   4
ENDBRANCH   2   3
ENDBRANCH   1   2
BRANCH   1  28
ATOM     28  C   UNL A   1      34.270  31.459  27.924  1.00  0.00     0.188 C 
BRANCH  28  29
ATOM     29  O   UNL A   1      34.586  32.816  27.644  1.00  0.00    -0.376 OA
BRANCH  29  30
ATOM     30  C   UNL A   1      33.685  33.877  27.934  1.00  0.00     0.202 C 
BRANCH  30  31
ATOM     31  C   UNL A   1      33.968  34.830  29.089  1.00  0.00     0.261 C 
BRANCH  31  32
ATOM     32  O   UNL A   1      33.338  34.415  30.289  1.00  0.00    -0.460 OA
BRANCH  32  33
ATOM     33  C   UNL A   1      33.653  35.178  31.354  1.00  0.00     0.338 C 
ATOM     34  O   UNL A   1      33.291  36.318  31.583  1.00  0.00    -0.246 OA
BRANCH  33  35
ATOM     35  C   UNL A   1      34.563  34.428  32.232  1.00  0.00     0.060 A 
ATOM     36  C   UNL A   1      35.689  35.125  32.668  1.00  0.00     0.016 A 
ATOM     37  C   UNL A   1      34.447  33.036  32.368  1.00  0.00     0.016 A 
ATOM     38  C   UNL A   1      36.827  34.404  32.924  1.00  0.00     0.010 A 
ATOM     39  C   UNL A   1      35.586  32.311  32.633  1.00  0.00     0.010 A 
ATOM     40  C   UNL A   1      36.781  33.016  32.756  1.00  0.00    -0.014 A 
BRANCH  40  41
ATOM     41  C   UNL A   1      38.047  32.375  32.479  1.00  0.00     0.031 A 
ATOM     42  C   UNL A   1      39.005  32.322  33.590  1.00  0.00     0.074 A 
ATOM     43  C   UNL A   1      38.321  31.874  31.260  1.00  0.00     0.049 A 
ATOM     44  N   UNL A   1      40.169  32.875  33.658  1.00  0.00    -0.248 NA
ATOM     45  C   UNL A   1      38.576  31.622  34.805  1.00  0.00     0.031 C 
ATOM     46  C   UNL A   1      37.387  31.621  30.156  1.00  0.00     0.029 A 
ATOM     47  N   UNL A   1      39.499  31.376  30.796  1.00  0.00    -0.354 N 
ATOM     48  C   UNL A   1      40.701  32.460  34.870  1.00  0.00     0.074 A 
ATOM     49  C   UNL A   1      39.640  31.793  35.586  1.00  0.00     0.031 C 
ATOM     50  C   UNL A   1      37.982  30.804  29.259  1.00  0.00     0.029 A 
ATOM     51  C   UNL A   1      39.363  30.594  29.663  1.00  0.00     0.049 A 
ATOM     52  H   UNL A   1      40.366  31.555  31.226  1.00  0.00     0.167 HD
ATOM     53  C   UNL A   1      42.034  32.494  35.123  1.00  0.00     0.031 A 
ATOM     54  C   UNL A   1      40.295  29.759  29.151  1.00  0.00     0.031 A 
ATOM     55  C   UNL A   1      42.754  33.367  34.239  1.00  0.00     0.049 A 
ATOM     56  C   UNL A   1      41.616  30.150  29.691  1.00  0.00     0.074 A 
ATOM     57  C   UNL A   1      42.711  34.718  33.957  1.00  0.00     0.029 A 
ATOM     58  N   UNL A   1      43.490  32.796  33.229  1.00  0.00    -0.354 N 
ATOM     59  N   UNL A   1      42.242  31.243  29.361  1.00  0.00    -0.248 NA
ATOM     60  C   UNL A   1      42.092  29.508  30.908  1.00  0.00     0.031 C 
ATOM     61  C   UNL A   1      43.036  34.825  32.574  1.00  0.00     0.029 A 
ATOM     62  C   UNL A   1      43.264  33.534  32.094  1.00  0.00     0.049 A 
ATOM     63  H   UNL A   1      44.071  32.005  33.305  1.00  0.00     0.167 HD
ATOM     64  C   UNL A   1      42.891  31.648  30.518  1.00  0.00     0.074 A 
ATOM     65  C   UNL A   1      42.871  30.479  31.391  1.00  0.00     0.031 C 
ATOM     66  C   UNL A   1      43.130  32.969  30.769  1.00  0.00     0.031 A 
BRANCH  53  67
ATOM     67  C   UNL A   1      42.705  31.444  35.957  1.00  0.00    -0.014 A 
ATOM     68  C   UNL A   1      43.492  31.828  37.052  1.00  0.00     0.009 A 
ATOM     69  C   UNL A   1      42.790  30.098  35.544  1.00  0.00     0.009 A 
ATOM     70  C   UNL A   1      44.335  30.910  37.689  1.00  0.00     0.001 A 
ATOM     71  C   UNL A   1      43.594  29.170  36.206  1.00  0.00     0.001 A 
ATOM     72  C   UNL A   1      44.382  29.583  37.269  1.00  0.00     0.000 A 
ENDBRANCH  53  67
BRANCH  54  73
ATOM     73  C   UNL A   1      40.059  28.479  28.454  1.00  0.00    -0.014 A 
ATOM     74  C   UNL A   1      40.600  28.240  27.184  1.00  0.00     0.009 A 
ATOM     75  C   UNL A   1      39.491  27.388  29.142  1.00  0.00     0.009 A 
ATOM     76  C   UNL A   1      40.593  26.952  26.634  1.00  0.00     0.001 A 
ATOM     77  C   UNL A   1      39.475  26.106  28.590  1.00  0.00     0.001 A 
ATOM     78  C   UNL A   1      40.039  25.885  27.340  1.00  0.00     0.000 A 
ENDBRANCH  54  73
BRANCH  66  79
ATOM     79  C   UNL A   1      42.915  33.946  29.638  1.00  0.00    -0.014 A 
ATOM     80  C   UNL A   1      41.717  34.667  29.484  1.00  0.00     0.009 A 
ATOM     81  C   UNL A   1      43.990  34.257  28.792  1.00  0.00     0.009 A 
ATOM     82  C   UNL A   1      41.585  35.638  28.488  1.00  0.00     0.001 A 
ATOM     83  C   UNL A   1      43.865  35.243  27.810  1.00  0.00     0.001 A 
ATOM     84  C   UNL A   1      42.661  35.929  27.653  1.00  0.00     0.000 A 
ENDBRANCH  66  79
ENDBRANCH  40  41
ENDBRANCH  33  35
ENDBRANCH  32  33
ENDBRANCH  31  32
ENDBRANCH  30  31
ENDBRANCH  29  30
ENDBRANCH  28  29
ENDBRANCH   1  28
TORSDOF 19
ENDMDL
