MODEL 1
REMARK VINA RESULT:      -9.7      0.000      0.000
REMARK SMILES O=C(CCn1ccnc1)N[C@H]1C=C[C@H](C(=O)OCCOCCOCCOC(=O)c2ccc(-c3c4nc(c(-c5ccccc5)c5ccc([nH]5)c(-c5ccccc5)c5nc(c(-c6ccccc6)c6ccc3[nH]6)C=C5)C=C4)cc2)C1
REMARK SMILES IDX 21 1 20 2 19 3 18 4 17 5 15 6 16 7 14 8 11 9 12 10 77 11
REMARK SMILES IDX 13 12 10 13 1 14 2 15 3 17 4 18 5 19 6 20 9 21 7 22 8 23
REMARK SMILES IDX 22 24 23 25 24 26 25 27 26 28 27 29 28 30 29 31 30 32 76 33
REMARK SMILES IDX 31 34 75 35 32 36 33 37 34 38 69 39 35 40 74 41 68 42 70 43
REMARK SMILES IDX 36 44 73 45 67 46 66 47 37 49 59 50 44 51 58 52 45 53 48 54
REMARK SMILES IDX 57 55 71 56 46 57 47 58 56 60 72 61 49 62 38 63 39 64 43 65
REMARK SMILES IDX 40 66 42 67 41 68 60 69 61 70 65 71 62 72 64 73 63 74 50 75
REMARK SMILES IDX 51 76 55 77 52 78 54 79 53 80
REMARK H PARENT 10 16 70 48 48 59
REMARK Flexibility Score: inf
ROOT
ATOM      1  C   UNL A   1      33.678  22.356  23.942  1.00  0.00     0.188 C 
ENDROOT
BRANCH   1   2
ATOM      2  O   UNL A   1      33.636  23.478  23.073  1.00  0.00    -0.376 OA
BRANCH   2   3
ATOM      3  C   UNL A   1      33.429  24.750  23.679  1.00  0.00     0.202 C 
BRANCH   3   4
ATOM      4  C   UNL A   1      32.050  25.058  24.301  1.00  0.00     0.261 C 
BRANCH   4   5
ATOM      5  O   UNL A   1      31.819  26.418  24.731  1.00  0.00    -0.463 OA
BRANCH   5   6
ATOM      6  C   UNL A   1      31.405  26.570  26.021  1.00  0.00     0.312 C 
ATOM      7  O   UNL A   1      30.348  26.122  26.457  1.00  0.00    -0.252 OA
BRANCH   6   8
ATOM      8  C   UNL A   1      32.375  27.363  26.908  1.00  0.00     0.124 C 
ATOM      9  C   UNL A   1      33.124  29.713  26.549  1.00  0.00     0.106 C 
ATOM     10  C   UNL A   1      34.104  28.718  26.020  1.00  0.00    -0.006 C 
ATOM     11  C   UNL A   1      32.078  28.830  27.262  1.00  0.00     0.048 C 
ATOM     12  C   UNL A   1      33.711  27.457  26.223  1.00  0.00    -0.014 C 
BRANCH   9  13
ATOM     13  N   UNL A   1      33.861  30.645  27.373  1.00  0.00    -0.350 N 
ATOM     14  O   UNL A   1      32.394  32.398  27.253  1.00  0.00    -0.275 OA
ATOM     15  C   UNL A   1      33.449  31.922  27.659  1.00  0.00     0.222 C 
ATOM     16  H   UNL A   1      34.716  30.343  27.756  1.00  0.00     0.164 HD
BRANCH  15  17
ATOM     17  C   UNL A   1      34.407  32.745  28.502  1.00  0.00     0.122 C 
BRANCH  17  18
ATOM     18  C   UNL A   1      34.217  34.255  28.357  1.00  0.00     0.133 C 
BRANCH  18  19
ATOM     19  N   UNL A   1      33.778  34.893  29.584  1.00  0.00    -0.337 N 
ATOM     20  C   UNL A   1      32.979  35.999  29.676  1.00  0.00     0.107 A 
ATOM     21  C   UNL A   1      34.186  34.572  30.847  1.00  0.00     0.199 A 
ATOM     22  C   UNL A   1      33.008  36.348  31.006  1.00  0.00     0.130 A 
ATOM     23  N   UNL A   1      33.774  35.463  31.720  1.00  0.00    -0.245 NA
ENDBRANCH  18  19
ENDBRANCH  17  18
ENDBRANCH  15  17
ENDBRANCH   9  13
ENDBRANCH   6   8
ENDBRANCH   5   6
ENDBRANCH   4   5
ENDBRANCH   3   4
ENDBRANCH   2   3
ENDBRANCH   1   2
BRANCH   1  24
ATOM     24  C   UNL A   1      35.037  21.963  24.536  1.00  0.00     0.188 C 
BRANCH  24  25
ATOM     25  O   UNL A   1      35.121  20.677  25.142  1.00  0.00    -0.376 OA
BRANCH  25  26
ATOM     26  C   UNL A   1      36.385  20.016  25.025  1.00  0.00     0.202 C 
BRANCH  26  27
ATOM     27  C   UNL A   1      37.573  20.933  24.706  1.00  0.00     0.261 C 
BRANCH  27  28
ATOM     28  O   UNL A   1      38.497  21.098  25.777  1.00  0.00    -0.460 OA
BRANCH  28  29
ATOM     29  C   UNL A   1      39.591  20.306  25.809  1.00  0.00     0.338 C 
ATOM     30  O   UNL A   1      39.696  19.164  25.415  1.00  0.00    -0.246 OA
BRANCH  29  31
ATOM     31  C   UNL A   1      40.679  21.100  26.408  1.00  0.00     0.060 A 
ATOM     32  C   UNL A   1      40.908  20.946  27.774  1.00  0.00     0.016 A 
ATOM     33  C   UNL A   1      41.323  22.098  25.655  1.00  0.00     0.016 A 
ATOM     34  C   UNL A   1      41.542  21.970  28.441  1.00  0.00     0.010 A 
ATOM     35  C   UNL A   1      41.940  23.127  26.318  1.00  0.00     0.010 A 
ATOM     36  C   UNL A   1      41.923  23.098  27.707  1.00  0.00    -0.014 A 
BRANCH  36  37
ATOM     37  C   UNL A   1      42.149  24.326  28.431  1.00  0.00     0.031 A 
ATOM     38  C   UNL A   1      41.198  25.409  28.148  1.00  0.00     0.074 A 
ATOM     39  C   UNL A   1      43.111  24.392  29.370  1.00  0.00     0.049 A 
ATOM     40  N   UNL A   1      41.442  26.538  27.575  1.00  0.00    -0.248 NA
ATOM     41  C   UNL A   1      39.778  25.155  28.430  1.00  0.00     0.031 C 
ATOM     42  C   UNL A   1      43.885  23.282  29.941  1.00  0.00     0.029 A 
ATOM     43  N   UNL A   1      43.508  25.460  30.110  1.00  0.00    -0.354 N 
ATOM     44  C   UNL A   1      40.237  27.224  27.596  1.00  0.00     0.074 A 
ATOM     45  C   UNL A   1      39.221  26.267  27.954  1.00  0.00     0.031 C 
ATOM     46  C   UNL A   1      44.478  23.699  31.082  1.00  0.00     0.029 A 
ATOM     47  C   UNL A   1      44.224  25.121  31.247  1.00  0.00     0.049 A 
ATOM     48  H   UNL A   1      43.307  26.391  29.860  1.00  0.00     0.167 HD
ATOM     49  C   UNL A   1      40.195  28.583  27.593  1.00  0.00     0.031 A 
ATOM     50  C   UNL A   1      44.507  25.936  32.291  1.00  0.00     0.031 A 
ATOM     51  C   UNL A   1      41.444  29.165  27.178  1.00  0.00     0.049 A 
ATOM     52  C   UNL A   1      44.314  27.335  31.839  1.00  0.00     0.074 A 
ATOM     53  C   UNL A   1      42.221  29.091  26.038  1.00  0.00     0.029 A 
ATOM     54  N   UNL A   1      42.254  29.681  28.161  1.00  0.00    -0.354 N 
ATOM     55  N   UNL A   1      45.092  27.932  30.982  1.00  0.00    -0.248 NA
ATOM     56  C   UNL A   1      43.005  27.945  32.017  1.00  0.00     0.031 C 
ATOM     57  C   UNL A   1      43.568  29.147  26.502  1.00  0.00     0.029 A 
ATOM     58  C   UNL A   1      43.540  29.292  27.890  1.00  0.00     0.049 A 
ATOM     59  H   UNL A   1      41.963  30.233  28.923  1.00  0.00     0.167 HD
ATOM     60  C   UNL A   1      44.239  28.710  30.210  1.00  0.00     0.074 A 
ATOM     61  C   UNL A   1      42.994  28.771  30.967  1.00  0.00     0.031 C 
ATOM     62  C   UNL A   1      44.527  28.983  28.903  1.00  0.00     0.031 A 
BRANCH  49  63
ATOM     63  C   UNL A   1      39.166  29.359  28.370  1.00  0.00    -0.014 A 
ATOM     64  C   UNL A   1      39.551  29.979  29.570  1.00  0.00     0.009 A 
ATOM     65  C   UNL A   1      37.782  29.274  28.115  1.00  0.00     0.009 A 
ATOM     66  C   UNL A   1      38.598  30.434  30.488  1.00  0.00     0.001 A 
ATOM     67  C   UNL A   1      36.830  29.770  29.006  1.00  0.00     0.001 A 
ATOM     68  C   UNL A   1      37.239  30.327  30.207  1.00  0.00     0.000 A 
ENDBRANCH  49  63
BRANCH  50  69
ATOM     69  C   UNL A   1      44.657  25.573  33.715  1.00  0.00    -0.014 A 
ATOM     70  C   UNL A   1      43.571  25.071  34.448  1.00  0.00     0.009 A 
ATOM     71  C   UNL A   1      45.936  25.485  34.296  1.00  0.00     0.009 A 
ATOM     72  C   UNL A   1      43.765  24.477  35.703  1.00  0.00     0.001 A 
ATOM     73  C   UNL A   1      46.129  24.900  35.551  1.00  0.00     0.001 A 
ATOM     74  C   UNL A   1      45.045  24.383  36.248  1.00  0.00     0.000 A 
ENDBRANCH  50  69
BRANCH  62  75
ATOM     75  C   UNL A   1      45.915  28.665  28.404  1.00  0.00    -0.014 A 
ATOM     76  C   UNL A   1      46.185  27.603  27.524  1.00  0.00     0.009 A 
ATOM     77  C   UNL A   1      46.952  29.562  28.704  1.00  0.00     0.009 A 
ATOM     78  C   UNL A   1      47.463  27.428  26.983  1.00  0.00     0.001 A 
ATOM     79  C   UNL A   1      48.222  29.401  28.146  1.00  0.00     0.001 A 
ATOM     80  C   UNL A   1      48.479  28.331  27.290  1.00  0.00     0.000 A 
ENDBRANCH  62  75
ENDBRANCH  36  37
ENDBRANCH  29  31
ENDBRANCH  28  29
ENDBRANCH  27  28
ENDBRANCH  26  27
ENDBRANCH  25  26
ENDBRANCH  24  25
ENDBRANCH   1  24
TORSDOF 21
ENDMDL
MODEL 2
REMARK VINA RESULT:      -9.6      3.156      8.911
REMARK SMILES O=C(CCn1ccnc1)N[C@H]1C=C[C@H](C(=O)OCCOCCOCCOC(=O)c2ccc(-c3c4nc(c(-c5ccccc5)c5ccc([nH]5)c(-c5ccccc5)c5nc(c(-c6ccccc6)c6ccc3[nH]6)C=C5)C=C4)cc2)C1
REMARK SMILES IDX 21 1 20 2 19 3 18 4 17 5 15 6 16 7 14 8 11 9 12 10 77 11
REMARK SMILES IDX 13 12 10 13 1 14 2 15 3 17 4 18 5 19 6 20 9 21 7 22 8 23
REMARK SMILES IDX 22 24 23 25 24 26 25 27 26 28 27 29 28 30 29 31 30 32 76 33
REMARK SMILES IDX 31 34 75 35 32 36 33 37 34 38 69 39 35 40 74 41 68 42 70 43
REMARK SMILES IDX 36 44 73 45 67 46 66 47 37 49 59 50 44 51 58 52 45 53 48 54
REMARK SMILES IDX 57 55 71 56 46 57 47 58 56 60 72 61 49 62 38 63 39 64 43 65
REMARK SMILES IDX 40 66 42 67 41 68 60 69 61 70 65 71 62 72 64 73 63 74 50 75
REMARK SMILES IDX 51 76 55 77 52 78 54 79 53 80
REMARK H PARENT 10 16 70 48 48 59
REMARK Flexibility Score: inf
ROOT
ATOM      1  C   UNL A   1      34.364  34.202  30.852  1.00  0.00     0.188 C 
ENDROOT
BRANCH   1   2
ATOM      2  O   UNL A   1      34.280  32.965  30.162  1.00  0.00    -0.376 OA
BRANCH   2   3
ATOM      3  C   UNL A   1      34.159  33.028  28.744  1.00  0.00     0.202 C 
BRANCH   3   4
ATOM      4  C   UNL A   1      34.677  31.842  27.904  1.00  0.00     0.261 C 
BRANCH   4   5
ATOM      5  O   UNL A   1      33.842  30.664  27.857  1.00  0.00    -0.463 OA
BRANCH   5   6
ATOM      6  C   UNL A   1      32.868  30.664  26.902  1.00  0.00     0.312 C 
ATOM      7  O   UNL A   1      31.979  31.509  26.833  1.00  0.00    -0.252 OA
BRANCH   6   8
ATOM      8  C   UNL A   1      32.962  29.503  25.902  1.00  0.00     0.124 C 
ATOM      9  C   UNL A   1      31.847  27.284  26.101  1.00  0.00     0.106 C 
ATOM     10  C   UNL A   1      33.262  27.252  26.577  1.00  0.00    -0.006 C 
ATOM     11  C   UNL A   1      31.703  28.706  25.519  1.00  0.00     0.048 C 
ATOM     12  C   UNL A   1      33.866  28.438  26.459  1.00  0.00    -0.014 C 
BRANCH   9  13
ATOM     13  N   UNL A   1      31.681  26.183  25.177  1.00  0.00    -0.350 N 
ATOM     14  O   UNL A   1      30.879  24.642  26.669  1.00  0.00    -0.275 OA
ATOM     15  C   UNL A   1      31.217  24.940  25.528  1.00  0.00     0.222 C 
ATOM     16  H   UNL A   1      31.915  26.335  24.234  1.00  0.00     0.164 HD
BRANCH  15  17
ATOM     17  C   UNL A   1      31.174  23.918  24.406  1.00  0.00     0.122 C 
BRANCH  17  18
ATOM     18  C   UNL A   1      32.549  23.388  23.999  1.00  0.00     0.133 C 
BRANCH  18  19
ATOM     19  N   UNL A   1      32.709  21.969  24.254  1.00  0.00    -0.337 N 
ATOM     20  C   UNL A   1      32.293  20.951  23.440  1.00  0.00     0.107 A 
ATOM     21  C   UNL A   1      33.192  21.408  25.402  1.00  0.00     0.199 A 
ATOM     22  C   UNL A   1      32.472  19.807  24.183  1.00  0.00     0.130 A 
ATOM     23  N   UNL A   1      33.016  20.106  25.405  1.00  0.00    -0.245 NA
ENDBRANCH  18  19
ENDBRANCH  17  18
ENDBRANCH  15  17
ENDBRANCH   9  13
ENDBRANCH   6   8
ENDBRANCH   5   6
ENDBRANCH   4   5
ENDBRANCH   3   4
ENDBRANCH   2   3
ENDBRANCH   1   2
BRANCH   1  24
ATOM     24  C   UNL A   1      35.456  34.354  31.918  1.00  0.00     0.188 C 
BRANCH  24  25
ATOM     25  O   UNL A   1      36.792  34.077  31.508  1.00  0.00    -0.376 OA
BRANCH  25  26
ATOM     26  C   UNL A   1      37.514  33.149  32.326  1.00  0.00     0.202 C 
BRANCH  26  27
ATOM     27  C   UNL A   1      38.249  32.040  31.561  1.00  0.00     0.261 C 
BRANCH  27  28
ATOM     28  O   UNL A   1      37.534  31.517  30.446  1.00  0.00    -0.460 OA
BRANCH  28  29
ATOM     29  C   UNL A   1      36.923  30.320  30.580  1.00  0.00     0.338 C 
ATOM     30  O   UNL A   1      35.901  30.067  31.183  1.00  0.00    -0.246 OA
BRANCH  29  31
ATOM     31  C   UNL A   1      37.727  29.341  29.826  1.00  0.00     0.060 A 
ATOM     32  C   UNL A   1      38.214  28.237  30.524  1.00  0.00     0.016 A 
ATOM     33  C   UNL A   1      38.127  29.621  28.506  1.00  0.00     0.016 A 
ATOM     34  C   UNL A   1      39.320  27.592  30.017  1.00  0.00     0.010 A 
ATOM     35  C   UNL A   1      39.237  28.992  28.008  1.00  0.00     0.010 A 
ATOM     36  C   UNL A   1      39.882  28.078  28.832  1.00  0.00    -0.014 A 
BRANCH  36  37
ATOM     37  C   UNL A   1      41.255  27.733  28.549  1.00  0.00     0.031 A 
ATOM     38  C   UNL A   1      41.460  26.413  27.941  1.00  0.00     0.074 A 
ATOM     39  C   UNL A   1      42.235  28.636  28.746  1.00  0.00     0.049 A 
ATOM     40  N   UNL A   1      42.060  25.396  28.458  1.00  0.00    -0.248 NA
ATOM     41  C   UNL A   1      40.817  26.156  26.645  1.00  0.00     0.031 C 
ATOM     42  C   UNL A   1      42.090  30.068  29.040  1.00  0.00     0.029 A 
ATOM     43  N   UNL A   1      43.575  28.484  28.593  1.00  0.00    -0.354 N 
ATOM     44  C   UNL A   1      42.039  24.421  27.472  1.00  0.00     0.074 A 
ATOM     45  C   UNL A   1      41.109  24.869  26.466  1.00  0.00     0.031 C 
ATOM     46  C   UNL A   1      43.271  30.686  28.813  1.00  0.00     0.029 A 
ATOM     47  C   UNL A   1      44.267  29.681  28.482  1.00  0.00     0.049 A 
ATOM     48  H   UNL A   1      44.017  27.605  28.565  1.00  0.00     0.167 HD
ATOM     49  C   UNL A   1      42.990  23.452  27.412  1.00  0.00     0.031 A 
ATOM     50  C   UNL A   1      45.545  29.833  28.060  1.00  0.00     0.031 A 
ATOM     51  C   UNL A   1      43.722  23.331  28.646  1.00  0.00     0.049 A 
ATOM     52  C   UNL A   1      46.214  28.513  28.151  1.00  0.00     0.074 A 
ATOM     53  C   UNL A   1      43.382  23.051  29.955  1.00  0.00     0.029 A 
ATOM     54  N   UNL A   1      44.981  23.880  28.686  1.00  0.00    -0.354 N 
ATOM     55  N   UNL A   1      46.509  27.928  29.276  1.00  0.00    -0.248 NA
ATOM     56  C   UNL A   1      46.178  27.639  26.988  1.00  0.00     0.031 C 
ATOM     57  C   UNL A   1      44.260  23.847  30.746  1.00  0.00     0.029 A 
ATOM     58  C   UNL A   1      45.113  24.536  29.882  1.00  0.00     0.049 A 
ATOM     59  H   UNL A   1      45.667  23.812  27.983  1.00  0.00     0.167 HD
ATOM     60  C   UNL A   1      46.272  26.579  29.048  1.00  0.00     0.074 A 
ATOM     61  C   UNL A   1      46.189  26.450  27.597  1.00  0.00     0.031 C 
ATOM     62  C   UNL A   1      45.876  25.753  30.062  1.00  0.00     0.031 A 
BRANCH  49  63
ATOM     63  C   UNL A   1      43.524  22.925  26.107  1.00  0.00    -0.014 A 
ATOM     64  C   UNL A   1      43.590  21.536  25.915  1.00  0.00     0.009 A 
ATOM     65  C   UNL A   1      44.216  23.729  25.178  1.00  0.00     0.009 A 
ATOM     66  C   UNL A   1      44.357  20.984  24.883  1.00  0.00     0.001 A 
ATOM     67  C   UNL A   1      44.941  23.183  24.119  1.00  0.00     0.001 A 
ATOM     68  C   UNL A   1      45.033  21.807  23.987  1.00  0.00     0.000 A 
ENDBRANCH  49  63
BRANCH  50  69
ATOM     69  C   UNL A   1      46.130  30.974  27.326  1.00  0.00    -0.014 A 
ATOM     70  C   UNL A   1      45.318  32.007  26.835  1.00  0.00     0.009 A 
ATOM     71  C   UNL A   1      47.523  31.176  27.319  1.00  0.00     0.009 A 
ATOM     72  C   UNL A   1      45.881  33.209  26.382  1.00  0.00     0.001 A 
ATOM     73  C   UNL A   1      48.085  32.371  26.860  1.00  0.00     0.001 A 
ATOM     74  C   UNL A   1      47.262  33.393  26.405  1.00  0.00     0.000 A 
ENDBRANCH  50  69
BRANCH  62  75
ATOM     75  C   UNL A   1      45.979  26.272  31.475  1.00  0.00    -0.014 A 
ATOM     76  C   UNL A   1      44.963  27.028  32.086  1.00  0.00     0.009 A 
ATOM     77  C   UNL A   1      47.058  25.846  32.264  1.00  0.00     0.009 A 
ATOM     78  C   UNL A   1      45.042  27.373  33.439  1.00  0.00     0.001 A 
ATOM     79  C   UNL A   1      47.126  26.171  33.621  1.00  0.00     0.001 A 
ATOM     80  C   UNL A   1      46.121  26.938  34.207  1.00  0.00     0.000 A 
ENDBRANCH  62  75
ENDBRANCH  36  37
ENDBRANCH  29  31
ENDBRANCH  28  29
ENDBRANCH  27  28
ENDBRANCH  26  27
ENDBRANCH  25  26
ENDBRANCH  24  25
ENDBRANCH   1  24
TORSDOF 21
ENDMDL
MODEL 3
REMARK VINA RESULT:      -9.6      3.126      8.891
REMARK SMILES O=C(CCn1ccnc1)N[C@H]1C=C[C@H](C(=O)OCCOCCOCCOC(=O)c2ccc(-c3c4nc(c(-c5ccccc5)c5ccc([nH]5)c(-c5ccccc5)c5nc(c(-c6ccccc6)c6ccc3[nH]6)C=C5)C=C4)cc2)C1
REMARK SMILES IDX 21 1 20 2 19 3 18 4 17 5 15 6 16 7 14 8 11 9 12 10 77 11
REMARK SMILES IDX 13 12 10 13 1 14 2 15 3 17 4 18 5 19 6 20 9 21 7 22 8 23
REMARK SMILES IDX 22 24 23 25 24 26 25 27 26 28 27 29 28 30 29 31 30 32 76 33
REMARK SMILES IDX 31 34 75 35 32 36 33 37 34 38 69 39 35 40 74 41 68 42 70 43
REMARK SMILES IDX 36 44 73 45 67 46 66 47 37 49 59 50 44 51 58 52 45 53 48 54
REMARK SMILES IDX 57 55 71 56 46 57 47 58 56 60 72 61 49 62 38 63 39 64 43 65
REMARK SMILES IDX 40 66 42 67 41 68 60 69 61 70 65 71 62 72 64 73 63 74 50 75
REMARK SMILES IDX 51 76 55 77 52 78 54 79 53 80
REMARK H PARENT 10 16 70 48 48 59
REMARK Flexibility Score: inf
ROOT
ATOM      1  C   UNL A   1      33.082  36.755  31.806  1.00  0.00     0.188 C 
ENDROOT
BRANCH   1   2
ATOM      2  O   UNL A   1      32.483  35.949  30.803  1.00  0.00    -0.376 OA
BRANCH   2   3
ATOM      3  C   UNL A   1      33.298  35.605  29.687  1.00  0.00     0.202 C 
BRANCH   3   4
ATOM      4  C   UNL A   1      34.576  34.775  29.931  1.00  0.00     0.261 C 
BRANCH   4   5
ATOM      5  O   UNL A   1      34.638  33.475  29.302  1.00  0.00    -0.463 OA
BRANCH   5   6
ATOM      6  C   UNL A   1      35.879  33.063  28.915  1.00  0.00     0.312 C 
ATOM      7  O   UNL A   1      36.924  33.506  29.384  1.00  0.00    -0.252 OA
BRANCH   6   8
ATOM      8  C   UNL A   1      35.875  31.984  27.823  1.00  0.00     0.124 C 
ATOM      9  C   UNL A   1      34.778  29.750  27.952  1.00  0.00     0.106 C 
ATOM     10  C   UNL A   1      36.231  29.689  28.289  1.00  0.00    -0.006 C 
ATOM     11  C   UNL A   1      34.583  31.213  27.500  1.00  0.00     0.048 C 
ATOM     12  C   UNL A   1      36.825  30.883  28.208  1.00  0.00    -0.014 C 
BRANCH   9  13
ATOM     13  N   UNL A   1      34.522  28.724  26.966  1.00  0.00    -0.350 N 
ATOM     14  O   UNL A   1      32.418  28.142  27.657  1.00  0.00    -0.275 OA
ATOM     15  C   UNL A   1      33.366  27.988  26.894  1.00  0.00     0.222 C 
ATOM     16  H   UNL A   1      35.224  28.541  26.301  1.00  0.00     0.164 HD
BRANCH  15  17
ATOM     17  C   UNL A   1      33.334  26.925  25.810  1.00  0.00     0.122 C 
BRANCH  17  18
ATOM     18  C   UNL A   1      33.349  27.490  24.389  1.00  0.00     0.133 C 
BRANCH  18  19
ATOM     19  N   UNL A   1      32.020  27.676  23.838  1.00  0.00    -0.337 N 
ATOM     20  C   UNL A   1      31.608  27.311  22.585  1.00  0.00     0.107 A 
ATOM     21  C   UNL A   1      30.992  28.353  24.429  1.00  0.00     0.199 A 
ATOM     22  C   UNL A   1      30.358  27.866  22.447  1.00  0.00     0.130 A 
ATOM     23  N   UNL A   1      29.993  28.525  23.593  1.00  0.00    -0.245 NA
ENDBRANCH  18  19
ENDBRANCH  17  18
ENDBRANCH  15  17
ENDBRANCH   9  13
ENDBRANCH   6   8
ENDBRANCH   5   6
ENDBRANCH   4   5
ENDBRANCH   3   4
ENDBRANCH   2   3
ENDBRANCH   1   2
BRANCH   1  24
ATOM     24  C   UNL A   1      33.618  36.053  33.061  1.00  0.00     0.188 C 
BRANCH  24  25
ATOM     25  O   UNL A   1      35.034  35.989  33.202  1.00  0.00    -0.376 OA
BRANCH  25  26
ATOM     26  C   UNL A   1      35.567  34.705  33.546  1.00  0.00     0.202 C 
BRANCH  26  27
ATOM     27  C   UNL A   1      34.639  33.517  33.261  1.00  0.00     0.261 C 
BRANCH  27  28
ATOM     28  O   UNL A   1      35.299  32.355  32.770  1.00  0.00    -0.460 OA
BRANCH  28  29
ATOM     29  C   UNL A   1      36.482  32.007  33.322  1.00  0.00     0.338 C 
ATOM     30  O   UNL A   1      36.851  32.180  34.465  1.00  0.00    -0.246 OA
BRANCH  29  31
ATOM     31  C   UNL A   1      37.269  31.341  32.268  1.00  0.00     0.060 A 
ATOM     32  C   UNL A   1      36.950  30.017  31.970  1.00  0.00     0.016 A 
ATOM     33  C   UNL A   1      38.405  31.971  31.728  1.00  0.00     0.016 A 
ATOM     34  C   UNL A   1      37.921  29.238  31.382  1.00  0.00     0.010 A 
ATOM     35  C   UNL A   1      39.379  31.194  31.158  1.00  0.00     0.010 A 
ATOM     36  C   UNL A   1      39.163  29.823  31.114  1.00  0.00    -0.014 A 
BRANCH  36  37
ATOM     37  C   UNL A   1      40.296  28.945  30.944  1.00  0.00     0.031 A 
ATOM     38  C   UNL A   1      41.091  28.702  32.155  1.00  0.00     0.074 A 
ATOM     39  C   UNL A   1      40.507  28.329  29.765  1.00  0.00     0.049 A 
ATOM     40  N   UNL A   1      42.309  29.060  32.378  1.00  0.00    -0.248 NA
ATOM     41  C   UNL A   1      40.409  28.087  33.302  1.00  0.00     0.031 C 
ATOM     42  C   UNL A   1      39.596  28.260  28.614  1.00  0.00     0.029 A 
ATOM     43  N   UNL A   1      41.534  27.521  29.397  1.00  0.00    -0.354 N 
ATOM     44  C   UNL A   1      42.615  28.547  33.630  1.00  0.00     0.074 A 
ATOM     45  C   UNL A   1      41.370  28.130  34.222  1.00  0.00     0.031 C 
ATOM     46  C   UNL A   1      40.008  27.274  27.786  1.00  0.00     0.029 A 
ATOM     47  C   UNL A   1      41.264  26.738  28.286  1.00  0.00     0.049 A 
ATOM     48  H   UNL A   1      42.394  27.494  29.876  1.00  0.00     0.167 HD
ATOM     49  C   UNL A   1      43.894  28.243  33.977  1.00  0.00     0.031 A 
ATOM     50  C   UNL A   1      41.979  25.668  27.864  1.00  0.00     0.031 A 
ATOM     51  C   UNL A   1      44.857  28.861  33.105  1.00  0.00     0.049 A 
ATOM     52  C   UNL A   1      43.313  25.731  28.508  1.00  0.00     0.074 A 
ATOM     53  C   UNL A   1      45.160  30.163  32.758  1.00  0.00     0.029 A 
ATOM     54  N   UNL A   1      45.446  28.064  32.153  1.00  0.00    -0.354 N 
ATOM     55  N   UNL A   1      44.215  26.623  28.219  1.00  0.00    -0.248 NA
ATOM     56  C   UNL A   1      43.495  25.058  29.786  1.00  0.00     0.031 C 
ATOM     57  C   UNL A   1      45.534  30.105  31.384  1.00  0.00     0.029 A 
ATOM     58  C   UNL A   1      45.478  28.769  30.979  1.00  0.00     0.049 A 
ATOM     59  H   UNL A   1      45.785  27.150  32.291  1.00  0.00     0.167 HD
ATOM     60  C   UNL A   1      44.814  26.931  29.433  1.00  0.00     0.074 A 
ATOM     61  C   UNL A   1      44.417  25.854  30.334  1.00  0.00     0.031 C 
ATOM     62  C   UNL A   1      45.330  28.174  29.668  1.00  0.00     0.031 A 
BRANCH  49  63
ATOM     63  C   UNL A   1      44.234  27.054  34.836  1.00  0.00    -0.014 A 
ATOM     64  C   UNL A   1      43.983  25.765  34.337  1.00  0.00     0.009 A 
ATOM     65  C   UNL A   1      44.532  27.156  36.210  1.00  0.00     0.009 A 
ATOM     66  C   UNL A   1      43.972  24.651  35.183  1.00  0.00     0.001 A 
ATOM     67  C   UNL A   1      44.570  26.041  37.047  1.00  0.00     0.001 A 
ATOM     68  C   UNL A   1      44.263  24.789  36.537  1.00  0.00     0.000 A 
ENDBRANCH  49  63
BRANCH  50  69
ATOM     69  C   UNL A   1      41.486  24.461  27.169  1.00  0.00    -0.014 A 
ATOM     70  C   UNL A   1      42.320  23.736  26.305  1.00  0.00     0.009 A 
ATOM     71  C   UNL A   1      40.263  23.873  27.546  1.00  0.00     0.009 A 
ATOM     72  C   UNL A   1      41.954  22.459  25.859  1.00  0.00     0.001 A 
ATOM     73  C   UNL A   1      39.895  22.603  27.095  1.00  0.00     0.001 A 
ATOM     74  C   UNL A   1      40.748  21.889  26.263  1.00  0.00     0.000 A 
ENDBRANCH  50  69
BRANCH  62  75
ATOM     75  C   UNL A   1      45.490  29.106  28.492  1.00  0.00    -0.014 A 
ATOM     76  C   UNL A   1      44.467  29.968  28.057  1.00  0.00     0.009 A 
ATOM     77  C   UNL A   1      46.760  29.233  27.910  1.00  0.00     0.009 A 
ATOM     78  C   UNL A   1      44.704  30.909  27.050  1.00  0.00     0.001 A 
ATOM     79  C   UNL A   1      47.003  30.187  26.920  1.00  0.00     0.001 A 
ATOM     80  C   UNL A   1      45.974  31.022  26.486  1.00  0.00     0.000 A 
ENDBRANCH  62  75
ENDBRANCH  36  37
ENDBRANCH  29  31
ENDBRANCH  28  29
ENDBRANCH  27  28
ENDBRANCH  26  27
ENDBRANCH  25  26
ENDBRANCH  24  25
ENDBRANCH   1  24
TORSDOF 21
ENDMDL
