MODEL 1
REMARK VINA RESULT:      -8.5      0.000      0.000
REMARK SMILES CC[C@](C)([NH2+]CC(=O)NCC(F)(F)F)C(=O)OCCOCCOCCOC(=O)c1ccc(-c2c3nc(c(-c4ccccc4)c4ccc([nH]4)c(-c4ccccc4)c4nc(c(-c5ccccc5)c5ccc2[nH]5)C=C4)C=C3)cc1
REMARK SMILES IDX 20 1 19 2 18 3 17 4 15 5 16 6 3 7 4 8 2 9 1 10 5 11 6 14
REMARK SMILES IDX 7 15 8 16 9 17 10 19 11 20 12 21 13 22 14 23 21 24 22 25
REMARK SMILES IDX 23 26 24 27 25 28 26 29 27 30 28 31 29 32 30 33 76 34 31 35
REMARK SMILES IDX 75 36 32 37 33 38 34 39 69 40 35 41 74 42 68 43 70 44 36 45
REMARK SMILES IDX 73 46 67 47 66 48 37 50 59 51 44 52 58 53 45 54 48 55 57 56
REMARK SMILES IDX 71 57 46 58 47 59 56 61 72 62 49 63 38 64 39 65 43 66 40 67
REMARK SMILES IDX 42 68 41 69 60 70 61 71 65 72 62 73 64 74 63 75 50 76 51 77
REMARK SMILES IDX 55 78 52 79 54 80 53 81
REMARK H PARENT 5 12 5 13 9 18 70 49 48 60
REMARK Flexibility Score: inf
ROOT
ATOM      1  O   UNL A   1      38.938  22.770  25.931  1.00  0.00    -0.376 OA
ENDROOT
BRANCH   1   2
ATOM      2  C   UNL A   1      38.015  21.791  25.494  1.00  0.00     0.202 C 
BRANCH   2   3
ATOM      3  C   UNL A   1      37.104  22.235  24.350  1.00  0.00     0.261 C 
BRANCH   3   4
ATOM      4  O   UNL A   1      35.691  22.214  24.608  1.00  0.00    -0.459 OA
BRANCH   4   5
ATOM      5  C   UNL A   1      35.037  23.388  24.772  1.00  0.00     0.367 C 
ATOM      6  O   UNL A   1      35.539  24.357  25.332  1.00  0.00    -0.245 OA
BRANCH   5   7
ATOM      7  C   UNL A   1      33.575  23.378  24.217  1.00  0.00     0.191 C 
ATOM      8  C   UNL A   1      33.657  22.698  22.826  1.00  0.00     0.092 C 
BRANCH   7   9
ATOM      9  C   UNL A   1      33.044  24.819  24.013  1.00  0.00     0.077 C 
ATOM     10  C   UNL A   1      33.563  25.551  22.776  1.00  0.00     0.011 C 
ENDBRANCH   7   9
BRANCH   7  11
ATOM     11  N   UNL A   1      32.591  22.532  24.947  1.00  0.00    -0.325 N 
ATOM     12  H   UNL A   1      31.668  22.902  24.720  1.00  0.00     0.347 HD
ATOM     13  H   UNL A   1      32.920  22.595  25.911  1.00  0.00     0.347 HD
BRANCH  11  14
ATOM     14  C   UNL A   1      32.520  21.084  24.735  1.00  0.00     0.362 C 
BRANCH  14  15
ATOM     15  C   UNL A   1      33.073  20.284  25.919  1.00  0.00     0.275 C 
ATOM     16  O   UNL A   1      33.653  20.825  26.861  1.00  0.00    -0.269 OA
ATOM     17  N   UNL A   1      32.908  18.929  25.960  1.00  0.00    -0.342 N 
ATOM     18  H   UNL A   1      33.018  18.514  26.847  1.00  0.00     0.164 HD
BRANCH  17  19
ATOM     19  C   UNL A   1      32.590  18.008  24.866  1.00  0.00     0.231 C 
BRANCH  19  20
ATOM     20  C   UNL A   1      33.698  16.980  24.587  1.00  0.00     0.405 C 
ATOM     21  F   UNL A   1      34.078  16.362  25.725  1.00  0.00    -0.169 F 
ATOM     22  F   UNL A   1      33.278  16.030  23.727  1.00  0.00    -0.169 F 
ATOM     23  F   UNL A   1      34.794  17.560  24.047  1.00  0.00    -0.169 F 
ENDBRANCH  19  20
ENDBRANCH  17  19
ENDBRANCH  14  15
ENDBRANCH  11  14
ENDBRANCH   7  11
ENDBRANCH   5   7
ENDBRANCH   4   5
ENDBRANCH   3   4
ENDBRANCH   2   3
ENDBRANCH   1   2
BRANCH   1  24
ATOM     24  C   UNL A   1      39.904  22.343  26.878  1.00  0.00     0.188 C 
BRANCH  24  25
ATOM     25  C   UNL A   1      41.203  21.832  26.221  1.00  0.00     0.188 C 
BRANCH  25  26
ATOM     26  O   UNL A   1      42.091  21.008  26.962  1.00  0.00    -0.376 OA
BRANCH  26  27
ATOM     27  C   UNL A   1      41.926  19.600  26.898  1.00  0.00     0.202 C 
BRANCH  27  28
ATOM     28  C   UNL A   1      42.616  18.837  25.756  1.00  0.00     0.261 C 
BRANCH  28  29
ATOM     29  O   UNL A   1      44.049  19.001  25.678  1.00  0.00    -0.460 OA
BRANCH  29  30
ATOM     30  C   UNL A   1      44.531  19.584  24.548  1.00  0.00     0.338 C 
ATOM     31  O   UNL A   1      44.518  19.119  23.424  1.00  0.00    -0.246 OA
BRANCH  30  32
ATOM     32  C   UNL A   1      44.922  20.995  24.818  1.00  0.00     0.060 A 
ATOM     33  C   UNL A   1      45.351  21.330  26.113  1.00  0.00     0.016 A 
ATOM     34  C   UNL A   1      44.822  21.991  23.845  1.00  0.00     0.016 A 
ATOM     35  C   UNL A   1      45.660  22.653  26.446  1.00  0.00     0.010 A 
ATOM     36  C   UNL A   1      45.095  23.326  24.192  1.00  0.00     0.010 A 
ATOM     37  C   UNL A   1      45.488  23.671  25.499  1.00  0.00    -0.014 A 
BRANCH  37  38
ATOM     38  C   UNL A   1      45.508  25.098  25.925  1.00  0.00     0.031 A 
ATOM     39  C   UNL A   1      46.825  25.833  25.904  1.00  0.00     0.074 A 
ATOM     40  C   UNL A   1      44.398  25.751  26.318  1.00  0.00     0.049 A 
ATOM     41  N   UNL A   1      47.113  27.040  26.322  1.00  0.00    -0.248 NA
ATOM     42  C   UNL A   1      47.970  25.105  25.332  1.00  0.00     0.031 C 
ATOM     43  C   UNL A   1      43.045  25.203  26.325  1.00  0.00     0.029 A 
ATOM     44  N   UNL A   1      44.246  27.029  26.806  1.00  0.00    -0.354 N 
ATOM     45  C   UNL A   1      48.472  27.210  26.080  1.00  0.00     0.074 A 
ATOM     46  C   UNL A   1      48.954  25.977  25.493  1.00  0.00     0.031 C 
ATOM     47  C   UNL A   1      42.202  26.130  26.817  1.00  0.00     0.029 A 
ATOM     48  C   UNL A   1      42.962  27.323  27.196  1.00  0.00     0.049 A 
ATOM     49  H   UNL A   1      44.988  27.673  26.869  1.00  0.00     0.167 HD
ATOM     50  C   UNL A   1      49.254  28.288  26.324  1.00  0.00     0.031 A 
ATOM     51  C   UNL A   1      42.461  28.410  27.818  1.00  0.00     0.031 A 
ATOM     52  C   UNL A   1      48.793  29.513  26.919  1.00  0.00     0.049 A 
ATOM     53  C   UNL A   1      43.375  29.559  28.177  1.00  0.00     0.074 A 
ATOM     54  C   UNL A   1      49.518  30.660  27.196  1.00  0.00     0.029 A 
ATOM     55  N   UNL A   1      47.495  29.749  27.338  1.00  0.00    -0.354 N 
ATOM     56  N   UNL A   1      44.653  29.711  27.931  1.00  0.00    -0.248 NA
ATOM     57  C   UNL A   1      42.768  30.689  28.901  1.00  0.00     0.031 C 
ATOM     58  C   UNL A   1      48.671  31.568  27.840  1.00  0.00     0.029 A 
ATOM     59  C   UNL A   1      47.405  31.012  27.901  1.00  0.00     0.049 A 
ATOM     60  H   UNL A   1      46.748  29.115  27.249  1.00  0.00     0.167 HD
ATOM     61  C   UNL A   1      44.992  30.962  28.437  1.00  0.00     0.074 A 
ATOM     62  C   UNL A   1      43.786  31.534  28.991  1.00  0.00     0.031 C 
ATOM     63  C   UNL A   1      46.199  31.580  28.442  1.00  0.00     0.031 A 
BRANCH  50  64
ATOM     64  C   UNL A   1      50.714  28.176  25.988  1.00  0.00    -0.014 A 
ATOM     65  C   UNL A   1      51.645  27.690  26.920  1.00  0.00     0.009 A 
ATOM     66  C   UNL A   1      51.157  28.513  24.699  1.00  0.00     0.009 A 
ATOM     67  C   UNL A   1      52.992  27.571  26.576  1.00  0.00     0.001 A 
ATOM     68  C   UNL A   1      52.498  28.367  24.348  1.00  0.00     0.001 A 
ATOM     69  C   UNL A   1      53.417  27.903  25.288  1.00  0.00     0.000 A 
ENDBRANCH  50  64
BRANCH  51  70
ATOM     70  C   UNL A   1      41.023  28.468  28.201  1.00  0.00    -0.014 A 
ATOM     71  C   UNL A   1      40.578  27.915  29.412  1.00  0.00     0.009 A 
ATOM     72  C   UNL A   1      40.076  29.018  27.322  1.00  0.00     0.009 A 
ATOM     73  C   UNL A   1      39.214  27.881  29.718  1.00  0.00     0.001 A 
ATOM     74  C   UNL A   1      38.717  29.013  27.645  1.00  0.00     0.001 A 
ATOM     75  C   UNL A   1      38.286  28.432  28.836  1.00  0.00     0.000 A 
ENDBRANCH  51  70
BRANCH  63  76
ATOM     76  C   UNL A   1      46.271  32.970  29.018  1.00  0.00    -0.014 A 
ATOM     77  C   UNL A   1      46.587  33.191  30.366  1.00  0.00     0.009 A 
ATOM     78  C   UNL A   1      46.066  34.079  28.179  1.00  0.00     0.009 A 
ATOM     79  C   UNL A   1      46.663  34.493  30.871  1.00  0.00     0.001 A 
ATOM     80  C   UNL A   1      46.173  35.378  28.678  1.00  0.00     0.001 A 
ATOM     81  C   UNL A   1      46.461  35.584  30.026  1.00  0.00     0.000 A 
ENDBRANCH  63  76
ENDBRANCH  37  38
ENDBRANCH  30  32
ENDBRANCH  29  30
ENDBRANCH  28  29
ENDBRANCH  27  28
ENDBRANCH  26  27
ENDBRANCH  25  26
ENDBRANCH  24  25
ENDBRANCH   1  24
TORSDOF 23
ENDMDL
MODEL 2
REMARK VINA RESULT:      -8.3      4.821      8.329
REMARK SMILES CC[C@](C)([NH2+]CC(=O)NCC(F)(F)F)C(=O)OCCOCCOCCOC(=O)c1ccc(-c2c3nc(c(-c4ccccc4)c4ccc([nH]4)c(-c4ccccc4)c4nc(c(-c5ccccc5)c5ccc2[nH]5)C=C4)C=C3)cc1
REMARK SMILES IDX 20 1 19 2 18 3 17 4 15 5 16 6 3 7 4 8 2 9 1 10 5 11 6 14
REMARK SMILES IDX 7 15 8 16 9 17 10 19 11 20 12 21 13 22 14 23 21 24 22 25
REMARK SMILES IDX 23 26 24 27 25 28 26 29 27 30 28 31 29 32 30 33 76 34 31 35
REMARK SMILES IDX 75 36 32 37 33 38 34 39 69 40 35 41 74 42 68 43 70 44 36 45
REMARK SMILES IDX 73 46 67 47 66 48 37 50 59 51 44 52 58 53 45 54 48 55 57 56
REMARK SMILES IDX 71 57 46 58 47 59 56 61 72 62 49 63 38 64 39 65 43 66 40 67
REMARK SMILES IDX 42 68 41 69 60 70 61 71 65 72 62 73 64 74 63 75 50 76 51 77
REMARK SMILES IDX 55 78 52 79 54 80 53 81
REMARK H PARENT 5 12 5 13 9 18 70 49 48 60
REMARK Flexibility Score: inf
ROOT
ATOM      1  O   UNL A   1      39.901  20.987  27.185  1.00  0.00    -0.376 OA
ENDROOT
BRANCH   1   2
ATOM      2  C   UNL A   1      39.427  21.942  26.255  1.00  0.00     0.202 C 
BRANCH   2   3
ATOM      3  C   UNL A   1      38.277  21.460  25.372  1.00  0.00     0.261 C 
BRANCH   3   4
ATOM      4  O   UNL A   1      36.947  21.712  25.853  1.00  0.00    -0.459 OA
BRANCH   4   5
ATOM      5  C   UNL A   1      36.275  22.792  25.390  1.00  0.00     0.367 C 
ATOM      6  O   UNL A   1      36.822  23.702  24.776  1.00  0.00    -0.245 OA
BRANCH   5   7
ATOM      7  C   UNL A   1      34.752  22.787  25.744  1.00  0.00     0.191 C 
ATOM      8  C   UNL A   1      34.385  24.263  26.046  1.00  0.00     0.092 C 
BRANCH   7   9
ATOM      9  C   UNL A   1      34.477  21.956  27.023  1.00  0.00     0.077 C 
ATOM     10  C   UNL A   1      33.309  22.431  27.886  1.00  0.00     0.011 C 
ENDBRANCH   7   9
BRANCH   7  11
ATOM     11  N   UNL A   1      33.814  22.425  24.645  1.00  0.00    -0.325 N 
ATOM     12  H   UNL A   1      33.993  23.081  23.885  1.00  0.00     0.347 HD
ATOM     13  H   UNL A   1      32.907  22.454  25.113  1.00  0.00     0.347 HD
BRANCH  11  14
ATOM     14  C   UNL A   1      33.815  21.088  24.047  1.00  0.00     0.362 C 
BRANCH  14  15
ATOM     15  C   UNL A   1      32.822  20.136  24.722  1.00  0.00     0.275 C 
ATOM     16  O   UNL A   1      31.784  20.539  25.248  1.00  0.00    -0.269 OA
ATOM     17  N   UNL A   1      33.066  18.793  24.732  1.00  0.00    -0.342 N 
ATOM     18  H   UNL A   1      32.286  18.220  24.912  1.00  0.00     0.164 HD
BRANCH  17  19
ATOM     19  C   UNL A   1      34.332  18.088  24.510  1.00  0.00     0.231 C 
BRANCH  19  20
ATOM     20  C   UNL A   1      34.173  16.774  23.729  1.00  0.00     0.405 C 
ATOM     21  F   UNL A   1      32.904  16.319  23.804  1.00  0.00    -0.169 F 
ATOM     22  F   UNL A   1      34.468  16.943  22.423  1.00  0.00    -0.169 F 
ATOM     23  F   UNL A   1      34.987  15.806  24.206  1.00  0.00    -0.169 F 
ENDBRANCH  19  20
ENDBRANCH  17  19
ENDBRANCH  14  15
ENDBRANCH  11  14
ENDBRANCH   7  11
ENDBRANCH   5   7
ENDBRANCH   4   5
ENDBRANCH   3   4
ENDBRANCH   2   3
ENDBRANCH   1   2
BRANCH   1  24
ATOM     24  C   UNL A   1      41.261  20.606  27.056  1.00  0.00     0.188 C 
BRANCH  24  25
ATOM     25  C   UNL A   1      42.069  21.562  26.152  1.00  0.00     0.188 C 
BRANCH  25  26
ATOM     26  O   UNL A   1      43.030  21.035  25.250  1.00  0.00    -0.376 OA
BRANCH  26  27
ATOM     27  C   UNL A   1      44.276  21.701  25.119  1.00  0.00     0.202 C 
BRANCH  27  28
ATOM     28  C   UNL A   1      44.318  23.018  24.327  1.00  0.00     0.261 C 
BRANCH  28  29
ATOM     29  O   UNL A   1      43.769  24.168  25.006  1.00  0.00    -0.460 OA
BRANCH  29  30
ATOM     30  C   UNL A   1      44.648  25.152  25.337  1.00  0.00     0.338 C 
ATOM     31  O   UNL A   1      45.496  25.646  24.617  1.00  0.00    -0.246 OA
BRANCH  30  32
ATOM     32  C   UNL A   1      44.320  25.713  26.676  1.00  0.00     0.060 A 
ATOM     33  C   UNL A   1      43.379  25.036  27.468  1.00  0.00     0.016 A 
ATOM     34  C   UNL A   1      44.874  26.909  27.134  1.00  0.00     0.016 A 
ATOM     35  C   UNL A   1      42.974  25.555  28.703  1.00  0.00     0.010 A 
ATOM     36  C   UNL A   1      44.438  27.450  28.356  1.00  0.00     0.010 A 
ATOM     37  C   UNL A   1      43.466  26.793  29.135  1.00  0.00    -0.014 A 
BRANCH  37  38
ATOM     38  C   UNL A   1      42.817  27.497  30.276  1.00  0.00     0.031 A 
ATOM     39  C   UNL A   1      41.495  28.183  30.036  1.00  0.00     0.074 A 
ATOM     40  C   UNL A   1      43.362  27.534  31.507  1.00  0.00     0.049 A 
ATOM     41  N   UNL A   1      40.791  28.941  30.839  1.00  0.00    -0.248 NA
ATOM     42  C   UNL A   1      40.888  27.985  28.709  1.00  0.00     0.031 C 
ATOM     43  C   UNL A   1      44.592  26.862  31.914  1.00  0.00     0.029 A 
ATOM     44  N   UNL A   1      42.943  28.189  32.643  1.00  0.00    -0.354 N 
ATOM     45  C   UNL A   1      39.670  29.323  30.111  1.00  0.00     0.074 A 
ATOM     46  C   UNL A   1      39.794  28.726  28.798  1.00  0.00     0.031 C 
ATOM     47  C   UNL A   1      44.843  27.158  33.203  1.00  0.00     0.029 A 
ATOM     48  C   UNL A   1      43.814  28.072  33.701  1.00  0.00     0.049 A 
ATOM     49  H   UNL A   1      42.100  28.694  32.694  1.00  0.00     0.167 HD
ATOM     50  C   UNL A   1      38.629  30.101  30.493  1.00  0.00     0.031 A 
ATOM     51  C   UNL A   1      43.802  28.659  34.915  1.00  0.00     0.031 A 
ATOM     52  C   UNL A   1      38.498  30.712  31.788  1.00  0.00     0.049 A 
ATOM     53  C   UNL A   1      42.685  29.609  35.280  1.00  0.00     0.074 A 
ATOM     54  C   UNL A   1      37.471  31.511  32.262  1.00  0.00     0.029 A 
ATOM     55  N   UNL A   1      39.424  30.602  32.811  1.00  0.00    -0.354 N 
ATOM     56  N   UNL A   1      41.626  29.950  34.589  1.00  0.00    -0.248 NA
ATOM     57  C   UNL A   1      42.766  30.252  36.603  1.00  0.00     0.031 C 
ATOM     58  C   UNL A   1      37.807  31.935  33.552  1.00  0.00     0.029 A 
ATOM     59  C   UNL A   1      39.008  31.345  33.904  1.00  0.00     0.049 A 
ATOM     60  H   UNL A   1      40.254  30.075  32.768  1.00  0.00     0.167 HD
ATOM     61  C   UNL A   1      40.903  30.817  35.402  1.00  0.00     0.074 A 
ATOM     62  C   UNL A   1      41.633  30.938  36.643  1.00  0.00     0.031 C 
ATOM     63  C   UNL A   1      39.735  31.455  35.141  1.00  0.00     0.031 A 
BRANCH  50  64
ATOM     64  C   UNL A   1      37.560  30.379  29.474  1.00  0.00    -0.014 A 
ATOM     65  C   UNL A   1      36.584  29.420  29.158  1.00  0.00     0.009 A 
ATOM     66  C   UNL A   1      37.498  31.640  28.860  1.00  0.00     0.009 A 
ATOM     67  C   UNL A   1      35.585  29.711  28.227  1.00  0.00     0.001 A 
ATOM     68  C   UNL A   1      36.483  31.938  27.952  1.00  0.00     0.001 A 
ATOM     69  C   UNL A   1      35.531  30.971  27.630  1.00  0.00     0.000 A 
ENDBRANCH  50  64
BRANCH  51  70
ATOM     70  C   UNL A   1      44.909  28.420  35.881  1.00  0.00    -0.014 A 
ATOM     71  C   UNL A   1      45.953  29.348  36.025  1.00  0.00     0.009 A 
ATOM     72  C   UNL A   1      44.962  27.226  36.618  1.00  0.00     0.009 A 
ATOM     73  C   UNL A   1      47.041  29.070  36.858  1.00  0.00     0.001 A 
ATOM     74  C   UNL A   1      46.034  26.965  37.476  1.00  0.00     0.001 A 
ATOM     75  C   UNL A   1      47.079  27.881  37.584  1.00  0.00     0.000 A 
ENDBRANCH  51  70
BRANCH  63  76
ATOM     76  C   UNL A   1      39.142  32.304  36.234  1.00  0.00    -0.014 A 
ATOM     77  C   UNL A   1      39.491  33.655  36.387  1.00  0.00     0.009 A 
ATOM     78  C   UNL A   1      38.178  31.752  37.095  1.00  0.00     0.009 A 
ATOM     79  C   UNL A   1      38.913  34.424  37.400  1.00  0.00     0.001 A 
ATOM     80  C   UNL A   1      37.580  32.531  38.087  1.00  0.00     0.001 A 
ATOM     81  C   UNL A   1      37.955  33.864  38.245  1.00  0.00     0.000 A 
ENDBRANCH  63  76
ENDBRANCH  37  38
ENDBRANCH  30  32
ENDBRANCH  29  30
ENDBRANCH  28  29
ENDBRANCH  27  28
ENDBRANCH  26  27
ENDBRANCH  25  26
ENDBRANCH  24  25
ENDBRANCH   1  24
TORSDOF 23
ENDMDL
MODEL 3
REMARK VINA RESULT:      -8.3      5.743      9.624
REMARK SMILES CC[C@](C)([NH2+]CC(=O)NCC(F)(F)F)C(=O)OCCOCCOCCOC(=O)c1ccc(-c2c3nc(c(-c4ccccc4)c4ccc([nH]4)c(-c4ccccc4)c4nc(c(-c5ccccc5)c5ccc2[nH]5)C=C4)C=C3)cc1
REMARK SMILES IDX 20 1 19 2 18 3 17 4 15 5 16 6 3 7 4 8 2 9 1 10 5 11 6 14
REMARK SMILES IDX 7 15 8 16 9 17 10 19 11 20 12 21 13 22 14 23 21 24 22 25
REMARK SMILES IDX 23 26 24 27 25 28 26 29 27 30 28 31 29 32 30 33 76 34 31 35
REMARK SMILES IDX 75 36 32 37 33 38 34 39 69 40 35 41 74 42 68 43 70 44 36 45
REMARK SMILES IDX 73 46 67 47 66 48 37 50 59 51 44 52 58 53 45 54 48 55 57 56
REMARK SMILES IDX 71 57 46 58 47 59 56 61 72 62 49 63 38 64 39 65 43 66 40 67
REMARK SMILES IDX 42 68 41 69 60 70 61 71 65 72 62 73 64 74 63 75 50 76 51 77
REMARK SMILES IDX 55 78 52 79 54 80 53 81
REMARK H PARENT 5 12 5 13 9 18 70 49 48 60
REMARK Flexibility Score: inf
ROOT
ATOM      1  O   UNL A   1      39.974  20.571  26.359  1.00  0.00    -0.376 OA
ENDROOT
BRANCH   1   2
ATOM      2  C   UNL A   1      39.202  21.742  26.178  1.00  0.00     0.202 C 
BRANCH   2   3
ATOM      3  C   UNL A   1      38.154  21.654  25.068  1.00  0.00     0.261 C 
BRANCH   3   4
ATOM      4  O   UNL A   1      37.395  22.844  24.804  1.00  0.00    -0.459 OA
BRANCH   4   5
ATOM      5  C   UNL A   1      36.491  22.836  23.797  1.00  0.00     0.367 C 
ATOM      6  O   UNL A   1      36.808  22.956  22.618  1.00  0.00    -0.245 OA
BRANCH   5   7
ATOM      7  C   UNL A   1      35.010  22.700  24.280  1.00  0.00     0.191 C 
ATOM      8  C   UNL A   1      34.138  23.258  23.126  1.00  0.00     0.092 C 
BRANCH   7   9
ATOM      9  C   UNL A   1      34.748  23.567  25.537  1.00  0.00     0.077 C 
ATOM     10  C   UNL A   1      34.643  22.808  26.859  1.00  0.00     0.011 C 
ENDBRANCH   7   9
BRANCH   7  11
ATOM     11  N   UNL A   1      34.490  21.315  24.454  1.00  0.00    -0.325 N 
ATOM     12  H   UNL A   1      34.474  21.137  25.458  1.00  0.00     0.347 HD
ATOM     13  H   UNL A   1      35.125  20.768  23.871  1.00  0.00     0.347 HD
BRANCH  11  14
ATOM     14  C   UNL A   1      33.176  20.921  23.942  1.00  0.00     0.362 C 
BRANCH  14  15
ATOM     15  C   UNL A   1      32.208  20.501  25.054  1.00  0.00     0.275 C 
ATOM     16  O   UNL A   1      32.045  19.321  25.368  1.00  0.00    -0.269 OA
ATOM     17  N   UNL A   1      31.514  21.451  25.746  1.00  0.00    -0.342 N 
ATOM     18  H   UNL A   1      31.143  21.161  26.612  1.00  0.00     0.164 HD
BRANCH  17  19
ATOM     19  C   UNL A   1      31.245  22.843  25.378  1.00  0.00     0.231 C 
BRANCH  19  20
ATOM     20  C   UNL A   1      30.725  23.697  26.545  1.00  0.00     0.405 C 
ATOM     21  F   UNL A   1      30.133  22.924  27.481  1.00  0.00    -0.169 F 
ATOM     22  F   UNL A   1      31.729  24.368  27.146  1.00  0.00    -0.169 F 
ATOM     23  F   UNL A   1      29.818  24.611  26.131  1.00  0.00    -0.169 F 
ENDBRANCH  19  20
ENDBRANCH  17  19
ENDBRANCH  14  15
ENDBRANCH  11  14
ENDBRANCH   7  11
ENDBRANCH   5   7
ENDBRANCH   4   5
ENDBRANCH   3   4
ENDBRANCH   2   3
ENDBRANCH   1   2
BRANCH   1  24
ATOM     24  C   UNL A   1      41.381  20.732  26.295  1.00  0.00     0.188 C 
BRANCH  24  25
ATOM     25  C   UNL A   1      41.810  22.203  26.115  1.00  0.00     0.188 C 
BRANCH  25  26
ATOM     26  O   UNL A   1      42.665  22.562  25.039  1.00  0.00    -0.376 OA
BRANCH  26  27
ATOM     27  C   UNL A   1      43.786  23.388  25.309  1.00  0.00     0.202 C 
BRANCH  27  28
ATOM     28  C   UNL A   1      43.677  24.890  24.995  1.00  0.00     0.261 C 
BRANCH  28  29
ATOM     29  O   UNL A   1      42.524  25.557  25.553  1.00  0.00    -0.460 OA
BRANCH  29  30
ATOM     30  C   UNL A   1      42.426  26.893  25.318  1.00  0.00     0.338 C 
ATOM     31  O   UNL A   1      42.646  27.468  24.269  1.00  0.00    -0.246 OA
BRANCH  30  32
ATOM     32  C   UNL A   1      41.809  27.582  26.486  1.00  0.00     0.060 A 
ATOM     33  C   UNL A   1      42.280  28.860  26.829  1.00  0.00     0.016 A 
ATOM     34  C   UNL A   1      40.828  26.974  27.270  1.00  0.00     0.016 A 
ATOM     35  C   UNL A   1      41.792  29.524  27.959  1.00  0.00     0.010 A 
ATOM     36  C   UNL A   1      40.367  27.626  28.428  1.00  0.00     0.010 A 
ATOM     37  C   UNL A   1      40.865  28.891  28.796  1.00  0.00    -0.014 A 
BRANCH  37  38
ATOM     38  C   UNL A   1      40.580  29.445  30.149  1.00  0.00     0.031 A 
ATOM     39  C   UNL A   1      39.373  30.334  30.319  1.00  0.00     0.074 A 
ATOM     40  C   UNL A   1      41.353  29.176  31.218  1.00  0.00     0.049 A 
ATOM     41  N   UNL A   1      38.977  31.011  31.367  1.00  0.00    -0.248 NA
ATOM     42  C   UNL A   1      38.494  30.473  29.145  1.00  0.00     0.031 C 
ATOM     43  C   UNL A   1      42.506  28.281  31.231  1.00  0.00     0.029 A 
ATOM     44  N   UNL A   1      41.281  29.652  32.507  1.00  0.00    -0.354 N 
ATOM     45  C   UNL A   1      37.817  31.670  30.976  1.00  0.00     0.074 A 
ATOM     46  C   UNL A   1      37.581  31.322  29.591  1.00  0.00     0.031 C 
ATOM     47  C   UNL A   1      43.051  28.291  32.463  1.00  0.00     0.029 A 
ATOM     48  C   UNL A   1      42.308  29.222  33.314  1.00  0.00     0.049 A 
ATOM     49  H   UNL A   1      40.562  30.245  32.823  1.00  0.00     0.167 HD
ATOM     50  C   UNL A   1      37.018  32.492  31.696  1.00  0.00     0.031 A 
ATOM     51  C   UNL A   1      42.633  29.565  34.577  1.00  0.00     0.031 A 
ATOM     52  C   UNL A   1      37.248  32.858  33.068  1.00  0.00     0.049 A 
ATOM     53  C   UNL A   1      41.786  30.567  35.326  1.00  0.00     0.074 A 
ATOM     54  C   UNL A   1      36.484  33.682  33.878  1.00  0.00     0.029 A 
ATOM     55  N   UNL A   1      38.323  32.434  33.830  1.00  0.00    -0.354 N 
ATOM     56  N   UNL A   1      40.686  31.171  34.949  1.00  0.00    -0.248 NA
ATOM     57  C   UNL A   1      42.232  30.931  36.682  1.00  0.00     0.031 C 
ATOM     58  C   UNL A   1      37.131  33.805  35.112  1.00  0.00     0.029 A 
ATOM     59  C   UNL A   1      38.260  33.005  35.091  1.00  0.00     0.049 A 
ATOM     60  H   UNL A   1      39.027  31.819  33.522  1.00  0.00     0.167 HD
ATOM     61  C   UNL A   1      40.293  31.955  36.029  1.00  0.00     0.074 A 
ATOM     62  C   UNL A   1      41.261  31.741  37.081  1.00  0.00     0.031 C 
ATOM     63  C   UNL A   1      39.223  32.780  36.138  1.00  0.00     0.031 A 
BRANCH  50  64
ATOM     64  C   UNL A   1      35.835  33.097  30.997  1.00  0.00    -0.014 A 
ATOM     65  C   UNL A   1      35.392  34.396  31.297  1.00  0.00     0.009 A 
ATOM     66  C   UNL A   1      35.183  32.375  29.985  1.00  0.00     0.009 A 
ATOM     67  C   UNL A   1      34.306  34.946  30.615  1.00  0.00     0.001 A 
ATOM     68  C   UNL A   1      34.116  32.938  29.285  1.00  0.00     0.001 A 
ATOM     69  C   UNL A   1      33.672  34.220  29.606  1.00  0.00     0.000 A 
ENDBRANCH  50  64
BRANCH  51  70
ATOM     70  C   UNL A   1      43.850  29.002  35.224  1.00  0.00    -0.014 A 
ATOM     71  C   UNL A   1      45.100  29.621  35.069  1.00  0.00     0.009 A 
ATOM     72  C   UNL A   1      43.779  27.799  35.946  1.00  0.00     0.009 A 
ATOM     73  C   UNL A   1      46.255  29.032  35.593  1.00  0.00     0.001 A 
ATOM     74  C   UNL A   1      44.929  27.230  36.497  1.00  0.00     0.001 A 
ATOM     75  C   UNL A   1      46.168  27.839  36.308  1.00  0.00     0.000 A 
ENDBRANCH  51  70
BRANCH  63  76
ATOM     76  C   UNL A   1      39.006  33.478  37.455  1.00  0.00    -0.014 A 
ATOM     77  C   UNL A   1      39.496  34.771  37.691  1.00  0.00     0.009 A 
ATOM     78  C   UNL A   1      38.255  32.844  38.459  1.00  0.00     0.009 A 
ATOM     79  C   UNL A   1      39.268  35.401  38.917  1.00  0.00     0.001 A 
ATOM     80  C   UNL A   1      38.002  33.488  39.672  1.00  0.00     0.001 A 
ATOM     81  C   UNL A   1      38.517  34.762  39.903  1.00  0.00     0.000 A 
ENDBRANCH  63  76
ENDBRANCH  37  38
ENDBRANCH  30  32
ENDBRANCH  29  30
ENDBRANCH  28  29
ENDBRANCH  27  28
ENDBRANCH  26  27
ENDBRANCH  25  26
ENDBRANCH  24  25
ENDBRANCH   1  24
TORSDOF 23
ENDMDL
