MODEL 1
REMARK VINA RESULT:     -11.5      0.000      0.000
REMARK SMILES Cc1nc(NC(=O)[C@H]2[C@@H]3CC[C@@H](C3)[C@@H]2C(=O)OCCOCCOCCOC(=O)c2ccc(-c3c4nc(c(-c5ccccc5)c5ccc([nH]5)c(-c5ccccc5)c5nc(c(-c6ccccc6)c6ccc3[nH]6)C=C5)C=C4)cc2)sc1-c1ccccc1
REMARK SMILES IDX 21 1 20 2 19 3 18 4 17 5 15 6 16 7 14 8 8 9 9 10 10 11 13 12
REMARK SMILES IDX 12 13 11 14 6 15 5 16 7 18 4 19 1 20 2 21 3 22 78 23 77 24
REMARK SMILES IDX 79 25 80 26 84 27 81 28 83 29 82 30 22 31 23 32 24 33 25 34
REMARK SMILES IDX 26 35 27 36 28 37 29 38 30 39 76 40 31 41 75 42 32 43 33 44
REMARK SMILES IDX 34 45 69 46 35 47 74 48 68 49 70 50 36 51 73 52 67 53 66 54
REMARK SMILES IDX 37 56 59 57 44 58 58 59 45 60 48 61 57 62 71 63 46 64 47 65
REMARK SMILES IDX 56 67 72 68 49 69 38 70 39 71 43 72 40 73 42 74 41 75 60 76
REMARK SMILES IDX 61 77 65 78 62 79 64 80 63 81 50 82 51 83 55 84 52 85 54 86
REMARK SMILES IDX 53 87
REMARK H PARENT 5 17 70 55 48 66
REMARK Flexibility Score: inf
ROOT
ATOM      1  C   UNL A   1      34.070  32.331  28.053  1.00  0.00     0.188 C 
ENDROOT
BRANCH   1   2
ATOM      2  O   UNL A   1      33.030  31.608  27.412  1.00  0.00    -0.376 OA
BRANCH   2   3
ATOM      3  C   UNL A   1      33.356  30.313  26.913  1.00  0.00     0.202 C 
BRANCH   3   4
ATOM      4  C   UNL A   1      32.344  29.675  25.950  1.00  0.00     0.261 C 
BRANCH   4   5
ATOM      5  O   UNL A   1      32.880  29.385  24.650  1.00  0.00    -0.463 OA
BRANCH   5   6
ATOM      6  C   UNL A   1      33.015  28.057  24.339  1.00  0.00     0.310 C 
ATOM      7  O   UNL A   1      34.010  27.546  23.848  1.00  0.00    -0.252 OA
BRANCH   6   8
ATOM      8  C   UNL A   1      31.764  27.307  24.779  1.00  0.00     0.115 C 
ATOM      9  C   UNL A   1      31.889  25.772  24.764  1.00  0.00     0.096 C 
ATOM     10  C   UNL A   1      30.886  25.372  23.652  1.00  0.00     0.003 C 
ATOM     11  C   UNL A   1      31.360  25.935  22.288  1.00  0.00     0.005 C 
ATOM     12  C   UNL A   1      29.710  26.291  23.962  1.00  0.00     0.009 C 
ATOM     13  C   UNL A   1      30.555  27.568  23.842  1.00  0.00     0.004 C 
ATOM     14  C   UNL A   1      30.990  27.427  22.374  1.00  0.00     0.005 C 
BRANCH   9  15
ATOM     15  C   UNL A   1      31.671  24.900  26.029  1.00  0.00     0.230 C 
ATOM     16  N   UNL A   1      31.966  23.597  26.271  1.00  0.00    -0.302 N 
ATOM     17  H   UNL A   1      31.815  23.317  27.201  1.00  0.00     0.172 HD
ATOM     18  O   UNL A   1      31.176  25.478  27.017  1.00  0.00    -0.274 OA
BRANCH  16  19
ATOM     19  C   UNL A   1      32.432  22.607  25.459  1.00  0.00     0.190 A 
ATOM     20  C   UNL A   1      31.973  20.805  22.457  1.00  0.00     0.068 C 
ATOM     21  C   UNL A   1      32.484  21.160  23.809  1.00  0.00     0.058 A 
ATOM     22  N   UNL A   1      32.287  22.473  24.180  1.00  0.00    -0.225 NA
ATOM     23  C   UNL A   1      33.034  20.343  24.796  1.00  0.00     0.059 A 
ATOM     24  S   UNL A   1      33.245  21.313  26.223  1.00  0.00    -0.096 S 
BRANCH  23  25
ATOM     25  C   UNL A   1      33.280  18.884  24.768  1.00  0.00    -0.006 A 
ATOM     26  C   UNL A   1      34.447  18.337  24.224  1.00  0.00     0.009 A 
ATOM     27  C   UNL A   1      32.425  18.010  25.456  1.00  0.00     0.009 A 
ATOM     28  C   UNL A   1      34.835  17.021  24.509  1.00  0.00     0.001 A 
ATOM     29  C   UNL A   1      32.801  16.693  25.738  1.00  0.00     0.001 A 
ATOM     30  C   UNL A   1      34.026  16.210  25.295  1.00  0.00     0.000 A 
ENDBRANCH  23  25
ENDBRANCH  16  19
ENDBRANCH   9  15
ENDBRANCH   6   8
ENDBRANCH   5   6
ENDBRANCH   4   5
ENDBRANCH   3   4
ENDBRANCH   2   3
ENDBRANCH   1   2
BRANCH   1  31
ATOM     31  C   UNL A   1      33.760  33.760  28.475  1.00  0.00     0.188 C 
BRANCH  31  32
ATOM     32  O   UNL A   1      34.605  34.323  29.471  1.00  0.00    -0.376 OA
BRANCH  32  33
ATOM     33  C   UNL A   1      33.884  34.889  30.577  1.00  0.00     0.202 C 
BRANCH  33  34
ATOM     34  C   UNL A   1      34.049  34.142  31.920  1.00  0.00     0.261 C 
BRANCH  34  35
ATOM     35  O   UNL A   1      34.510  32.776  31.782  1.00  0.00    -0.460 OA
BRANCH  35  36
ATOM     36  C   UNL A   1      35.522  32.415  32.591  1.00  0.00     0.338 C 
ATOM     37  O   UNL A   1      35.578  32.585  33.802  1.00  0.00    -0.246 OA
BRANCH  36  38
ATOM     38  C   UNL A   1      36.505  31.585  31.881  1.00  0.00     0.060 A 
ATOM     39  C   UNL A   1      37.407  30.830  32.648  1.00  0.00     0.016 A 
ATOM     40  C   UNL A   1      36.621  31.628  30.495  1.00  0.00     0.016 A 
ATOM     41  C   UNL A   1      38.462  30.160  32.041  1.00  0.00     0.010 A 
ATOM     42  C   UNL A   1      37.693  30.970  29.886  1.00  0.00     0.010 A 
ATOM     43  C   UNL A   1      38.639  30.269  30.659  1.00  0.00    -0.014 A 
BRANCH  43  44
ATOM     44  C   UNL A   1      39.897  29.792  30.039  1.00  0.00     0.031 A 
ATOM     45  C   UNL A   1      41.047  30.752  29.907  1.00  0.00     0.074 A 
ATOM     46  C   UNL A   1      40.028  28.522  29.625  1.00  0.00     0.049 A 
ATOM     47  N   UNL A   1      42.171  30.618  29.254  1.00  0.00    -0.248 NA
ATOM     48  C   UNL A   1      40.904  32.040  30.607  1.00  0.00     0.031 C 
ATOM     49  C   UNL A   1      39.028  27.469  29.791  1.00  0.00     0.029 A 
ATOM     50  N   UNL A   1      41.062  27.907  28.966  1.00  0.00    -0.354 N 
ATOM     51  C   UNL A   1      42.848  31.821  29.422  1.00  0.00     0.074 A 
ATOM     52  C   UNL A   1      42.012  32.668  30.244  1.00  0.00     0.031 C 
ATOM     53  C   UNL A   1      39.491  26.339  29.231  1.00  0.00     0.029 A 
ATOM     54  C   UNL A   1      40.788  26.608  28.618  1.00  0.00     0.049 A 
ATOM     55  H   UNL A   1      41.916  28.353  28.763  1.00  0.00     0.167 HD
ATOM     56  C   UNL A   1      44.053  32.187  28.923  1.00  0.00     0.031 A 
ATOM     57  C   UNL A   1      41.483  25.750  27.847  1.00  0.00     0.031 A 
ATOM     58  C   UNL A   1      44.880  31.330  28.116  1.00  0.00     0.049 A 
ATOM     59  C   UNL A   1      42.786  26.196  27.246  1.00  0.00     0.074 A 
ATOM     60  C   UNL A   1      46.117  31.600  27.556  1.00  0.00     0.029 A 
ATOM     61  N   UNL A   1      44.552  30.031  27.757  1.00  0.00    -0.354 N 
ATOM     62  N   UNL A   1      43.400  27.350  27.366  1.00  0.00    -0.248 NA
ATOM     63  C   UNL A   1      43.492  25.224  26.401  1.00  0.00     0.031 C 
ATOM     64  C   UNL A   1      46.513  30.481  26.815  1.00  0.00     0.029 A 
ATOM     65  C   UNL A   1      45.550  29.493  26.963  1.00  0.00     0.049 A 
ATOM     66  H   UNL A   1      43.731  29.561  28.027  1.00  0.00     0.167 HD
ATOM     67  C   UNL A   1      44.569  27.238  26.625  1.00  0.00     0.074 A 
ATOM     68  C   UNL A   1      44.587  25.896  26.076  1.00  0.00     0.031 C 
ATOM     69  C   UNL A   1      45.542  28.160  26.419  1.00  0.00     0.031 A 
BRANCH  56  70
ATOM     70  C   UNL A   1      44.501  33.599  29.174  1.00  0.00    -0.014 A 
ATOM     71  C   UNL A   1      44.124  34.660  28.336  1.00  0.00     0.009 A 
ATOM     72  C   UNL A   1      45.325  33.870  30.280  1.00  0.00     0.009 A 
ATOM     73  C   UNL A   1      44.596  35.953  28.577  1.00  0.00     0.001 A 
ATOM     74  C   UNL A   1      45.771  35.168  30.535  1.00  0.00     0.001 A 
ATOM     75  C   UNL A   1      45.417  36.206  29.676  1.00  0.00     0.000 A 
ENDBRANCH  56  70
BRANCH  57  76
ATOM     76  C   UNL A   1      40.922  24.405  27.555  1.00  0.00    -0.014 A 
ATOM     77  C   UNL A   1      39.841  24.250  26.676  1.00  0.00     0.009 A 
ATOM     78  C   UNL A   1      41.486  23.261  28.145  1.00  0.00     0.009 A 
ATOM     79  C   UNL A   1      39.330  22.978  26.402  1.00  0.00     0.001 A 
ATOM     80  C   UNL A   1      40.993  21.990  27.846  1.00  0.00     0.001 A 
ATOM     81  C   UNL A   1      39.911  21.850  26.980  1.00  0.00     0.000 A 
ENDBRANCH  57  76
BRANCH  69  82
ATOM     82  C   UNL A   1      46.719  27.734  25.588  1.00  0.00    -0.014 A 
ATOM     83  C   UNL A   1      46.729  27.903  24.195  1.00  0.00     0.009 A 
ATOM     84  C   UNL A   1      47.847  27.182  26.216  1.00  0.00     0.009 A 
ATOM     85  C   UNL A   1      47.833  27.497  23.444  1.00  0.00     0.001 A 
ATOM     86  C   UNL A   1      48.960  26.802  25.466  1.00  0.00     0.001 A 
ATOM     87  C   UNL A   1      48.948  26.951  24.079  1.00  0.00     0.000 A 
ENDBRANCH  69  82
ENDBRANCH  43  44
ENDBRANCH  36  38
ENDBRANCH  35  36
ENDBRANCH  34  35
ENDBRANCH  33  34
ENDBRANCH  32  33
ENDBRANCH  31  32
ENDBRANCH   1  31
TORSDOF 20
ENDMDL
MODEL 2
REMARK VINA RESULT:     -11.0      4.160      6.358
REMARK SMILES Cc1nc(NC(=O)[C@H]2[C@@H]3CC[C@@H](C3)[C@@H]2C(=O)OCCOCCOCCOC(=O)c2ccc(-c3c4nc(c(-c5ccccc5)c5ccc([nH]5)c(-c5ccccc5)c5nc(c(-c6ccccc6)c6ccc3[nH]6)C=C5)C=C4)cc2)sc1-c1ccccc1
REMARK SMILES IDX 21 1 20 2 19 3 18 4 17 5 15 6 16 7 14 8 8 9 9 10 10 11 13 12
REMARK SMILES IDX 12 13 11 14 6 15 5 16 7 18 4 19 1 20 2 21 3 22 78 23 77 24
REMARK SMILES IDX 79 25 80 26 84 27 81 28 83 29 82 30 22 31 23 32 24 33 25 34
REMARK SMILES IDX 26 35 27 36 28 37 29 38 30 39 76 40 31 41 75 42 32 43 33 44
REMARK SMILES IDX 34 45 69 46 35 47 74 48 68 49 70 50 36 51 73 52 67 53 66 54
REMARK SMILES IDX 37 56 59 57 44 58 58 59 45 60 48 61 57 62 71 63 46 64 47 65
REMARK SMILES IDX 56 67 72 68 49 69 38 70 39 71 43 72 40 73 42 74 41 75 60 76
REMARK SMILES IDX 61 77 65 78 62 79 64 80 63 81 50 82 51 83 55 84 52 85 54 86
REMARK SMILES IDX 53 87
REMARK H PARENT 5 17 70 55 48 66
REMARK Flexibility Score: inf
ROOT
ATOM      1  C   UNL A   1      34.627  32.731  27.972  1.00  0.00     0.188 C 
ENDROOT
BRANCH   1   2
ATOM      2  O   UNL A   1      34.245  31.415  27.600  1.00  0.00    -0.376 OA
BRANCH   2   3
ATOM      3  C   UNL A   1      35.124  30.358  27.975  1.00  0.00     0.202 C 
BRANCH   3   4
ATOM      4  C   UNL A   1      34.880  28.995  27.309  1.00  0.00     0.261 C 
BRANCH   4   5
ATOM      5  O   UNL A   1      33.492  28.678  27.123  1.00  0.00    -0.463 OA
BRANCH   5   6
ATOM      6  C   UNL A   1      33.225  27.622  26.292  1.00  0.00     0.310 C 
ATOM      7  O   UNL A   1      33.963  26.667  26.106  1.00  0.00    -0.252 OA
BRANCH   6   8
ATOM      8  C   UNL A   1      31.830  27.786  25.700  1.00  0.00     0.115 C 
ATOM      9  C   UNL A   1      31.466  26.768  24.604  1.00  0.00     0.096 C 
ATOM     10  C   UNL A   1      31.339  27.670  23.349  1.00  0.00     0.003 C 
ATOM     11  C   UNL A   1      32.713  28.306  23.017  1.00  0.00     0.005 C 
ATOM     12  C   UNL A   1      30.584  28.867  23.912  1.00  0.00     0.009 C 
ATOM     13  C   UNL A   1      31.645  29.151  24.985  1.00  0.00     0.004 C 
ATOM     14  C   UNL A   1      32.845  29.427  24.065  1.00  0.00     0.005 C 
BRANCH   9  15
ATOM     15  C   UNL A   1      30.244  25.818  24.714  1.00  0.00     0.230 C 
ATOM     16  N   UNL A   1      30.163  24.518  25.096  1.00  0.00    -0.302 N 
ATOM     17  H   UNL A   1      29.243  24.179  25.174  1.00  0.00     0.172 HD
ATOM     18  O   UNL A   1      29.134  26.316  24.445  1.00  0.00    -0.274 OA
BRANCH  16  19
ATOM     19  C   UNL A   1      31.123  23.596  25.389  1.00  0.00     0.190 A 
ATOM     20  C   UNL A   1      33.457  22.440  27.773  1.00  0.00     0.068 C 
ATOM     21  C   UNL A   1      32.762  22.614  26.468  1.00  0.00     0.058 A 
ATOM     22  N   UNL A   1      31.501  23.163  26.549  1.00  0.00    -0.225 NA
ATOM     23  C   UNL A   1      33.235  22.404  25.173  1.00  0.00     0.059 A 
ATOM     24  S   UNL A   1      32.018  22.979  24.071  1.00  0.00    -0.096 S 
BRANCH  23  25
ATOM     25  C   UNL A   1      34.565  21.932  24.731  1.00  0.00    -0.006 A 
ATOM     26  C   UNL A   1      35.506  22.793  24.154  1.00  0.00     0.009 A 
ATOM     27  C   UNL A   1      34.995  20.634  25.046  1.00  0.00     0.009 A 
ATOM     28  C   UNL A   1      36.858  22.437  24.065  1.00  0.00     0.001 A 
ATOM     29  C   UNL A   1      36.342  20.268  24.953  1.00  0.00     0.001 A 
ATOM     30  C   UNL A   1      37.281  21.185  24.497  1.00  0.00     0.000 A 
ENDBRANCH  23  25
ENDBRANCH  16  19
ENDBRANCH   9  15
ENDBRANCH   6   8
ENDBRANCH   5   6
ENDBRANCH   4   5
ENDBRANCH   3   4
ENDBRANCH   2   3
ENDBRANCH   1   2
BRANCH   1  31
ATOM     31  C   UNL A   1      33.513  33.685  28.377  1.00  0.00     0.188 C 
BRANCH  31  32
ATOM     32  O   UNL A   1      33.907  34.855  29.085  1.00  0.00    -0.376 OA
BRANCH  32  33
ATOM     33  C   UNL A   1      32.913  35.892  29.072  1.00  0.00     0.202 C 
BRANCH  33  34
ATOM     34  C   UNL A   1      32.915  36.818  30.309  1.00  0.00     0.261 C 
BRANCH  34  35
ATOM     35  O   UNL A   1      32.233  36.266  31.462  1.00  0.00    -0.460 OA
BRANCH  35  36
ATOM     36  C   UNL A   1      32.937  36.251  32.607  1.00  0.00     0.338 C 
ATOM     37  O   UNL A   1      32.641  36.823  33.648  1.00  0.00    -0.246 OA
BRANCH  36  38
ATOM     38  C   UNL A   1      34.038  35.279  32.546  1.00  0.00     0.060 A 
ATOM     39  C   UNL A   1      33.799  33.981  33.026  1.00  0.00     0.016 A 
ATOM     40  C   UNL A   1      35.313  35.656  32.136  1.00  0.00     0.016 A 
ATOM     41  C   UNL A   1      34.841  33.071  33.150  1.00  0.00     0.010 A 
ATOM     42  C   UNL A   1      36.365  34.747  32.278  1.00  0.00     0.010 A 
ATOM     43  C   UNL A   1      36.141  33.467  32.824  1.00  0.00    -0.014 A 
BRANCH  43  44
ATOM     44  C   UNL A   1      37.288  32.610  33.203  1.00  0.00     0.031 A 
ATOM     45  C   UNL A   1      37.959  32.846  34.528  1.00  0.00     0.074 A 
ATOM     46  C   UNL A   1      37.712  31.623  32.398  1.00  0.00     0.049 A 
ATOM     47  N   UNL A   1      39.072  32.346  34.997  1.00  0.00    -0.248 NA
ATOM     48  C   UNL A   1      37.279  33.774  35.447  1.00  0.00     0.031 C 
ATOM     49  C   UNL A   1      37.082  31.226  31.140  1.00  0.00     0.029 A 
ATOM     50  N   UNL A   1      38.785  30.778  32.522  1.00  0.00    -0.354 N 
ATOM     51  C   UNL A   1      39.253  32.936  36.243  1.00  0.00     0.074 A 
ATOM     52  C   UNL A   1      38.132  33.825  36.459  1.00  0.00     0.031 C 
ATOM     53  C   UNL A   1      37.794  30.225  30.596  1.00  0.00     0.029 A 
ATOM     54  C   UNL A   1      38.956  29.954  31.438  1.00  0.00     0.049 A 
ATOM     55  H   UNL A   1      39.374  30.763  33.311  1.00  0.00     0.167 HD
ATOM     56  C   UNL A   1      40.270  32.760  37.118  1.00  0.00     0.031 A 
ATOM     57  C   UNL A   1      39.964  29.114  31.134  1.00  0.00     0.031 A 
ATOM     58  C   UNL A   1      41.374  31.865  36.897  1.00  0.00     0.049 A 
ATOM     59  C   UNL A   1      41.118  28.982  32.087  1.00  0.00     0.074 A 
ATOM     60  C   UNL A   1      42.460  31.611  37.716  1.00  0.00     0.029 A 
ATOM     61  N   UNL A   1      41.528  31.071  35.769  1.00  0.00    -0.354 N 
ATOM     62  N   UNL A   1      41.311  29.578  33.240  1.00  0.00    -0.248 NA
ATOM     63  C   UNL A   1      42.197  28.065  31.697  1.00  0.00     0.031 C 
ATOM     64  C   UNL A   1      43.297  30.702  37.060  1.00  0.00     0.029 A 
ATOM     65  C   UNL A   1      42.703  30.344  35.859  1.00  0.00     0.049 A 
ATOM     66  H   UNL A   1      40.894  31.031  35.017  1.00  0.00     0.167 HD
ATOM     67  C   UNL A   1      42.522  29.097  33.720  1.00  0.00     0.074 A 
ATOM     68  C   UNL A   1      43.009  28.146  32.740  1.00  0.00     0.031 C 
ATOM     69  C   UNL A   1      43.173  29.412  34.868  1.00  0.00     0.031 A 
BRANCH  56  70
ATOM     70  C   UNL A   1      40.268  33.614  38.356  1.00  0.00    -0.014 A 
ATOM     71  C   UNL A   1      40.745  34.934  38.348  1.00  0.00     0.009 A 
ATOM     72  C   UNL A   1      39.777  33.078  39.558  1.00  0.00     0.009 A 
ATOM     73  C   UNL A   1      40.768  35.684  39.528  1.00  0.00     0.001 A 
ATOM     74  C   UNL A   1      39.775  33.839  40.728  1.00  0.00     0.001 A 
ATOM     75  C   UNL A   1      40.281  35.137  40.715  1.00  0.00     0.000 A 
ENDBRANCH  56  70
BRANCH  57  76
ATOM     76  C   UNL A   1      39.947  28.384  29.841  1.00  0.00    -0.014 A 
ATOM     77  C   UNL A   1      40.495  28.954  28.683  1.00  0.00     0.009 A 
ATOM     78  C   UNL A   1      39.396  27.093  29.766  1.00  0.00     0.009 A 
ATOM     79  C   UNL A   1      40.482  28.251  27.475  1.00  0.00     0.001 A 
ATOM     80  C   UNL A   1      39.411  26.382  28.565  1.00  0.00     0.001 A 
ATOM     81  C   UNL A   1      39.949  26.965  27.419  1.00  0.00     0.000 A 
ENDBRANCH  57  76
BRANCH  69  82
ATOM     82  C   UNL A   1      44.467  28.696  35.135  1.00  0.00    -0.014 A 
ATOM     83  C   UNL A   1      45.689  29.195  34.659  1.00  0.00     0.009 A 
ATOM     84  C   UNL A   1      44.462  27.520  35.903  1.00  0.00     0.009 A 
ATOM     85  C   UNL A   1      46.877  28.510  34.917  1.00  0.00     0.001 A 
ATOM     86  C   UNL A   1      45.654  26.853  36.183  1.00  0.00     0.001 A 
ATOM     87  C   UNL A   1      46.860  27.343  35.682  1.00  0.00     0.000 A 
ENDBRANCH  69  82
ENDBRANCH  43  44
ENDBRANCH  36  38
ENDBRANCH  35  36
ENDBRANCH  34  35
ENDBRANCH  33  34
ENDBRANCH  32  33
ENDBRANCH  31  32
ENDBRANCH   1  31
TORSDOF 20
ENDMDL
MODEL 3
REMARK VINA RESULT:     -10.9      3.965      8.932
REMARK SMILES Cc1nc(NC(=O)[C@H]2[C@@H]3CC[C@@H](C3)[C@@H]2C(=O)OCCOCCOCCOC(=O)c2ccc(-c3c4nc(c(-c5ccccc5)c5ccc([nH]5)c(-c5ccccc5)c5nc(c(-c6ccccc6)c6ccc3[nH]6)C=C5)C=C4)cc2)sc1-c1ccccc1
REMARK SMILES IDX 21 1 20 2 19 3 18 4 17 5 15 6 16 7 14 8 8 9 9 10 10 11 13 12
REMARK SMILES IDX 12 13 11 14 6 15 5 16 7 18 4 19 1 20 2 21 3 22 78 23 77 24
REMARK SMILES IDX 79 25 80 26 84 27 81 28 83 29 82 30 22 31 23 32 24 33 25 34
REMARK SMILES IDX 26 35 27 36 28 37 29 38 30 39 76 40 31 41 75 42 32 43 33 44
REMARK SMILES IDX 34 45 69 46 35 47 74 48 68 49 70 50 36 51 73 52 67 53 66 54
REMARK SMILES IDX 37 56 59 57 44 58 58 59 45 60 48 61 57 62 71 63 46 64 47 65
REMARK SMILES IDX 56 67 72 68 49 69 38 70 39 71 43 72 40 73 42 74 41 75 60 76
REMARK SMILES IDX 61 77 65 78 62 79 64 80 63 81 50 82 51 83 55 84 52 85 54 86
REMARK SMILES IDX 53 87
REMARK H PARENT 5 17 70 55 48 66
REMARK Flexibility Score: inf
ROOT
ATOM      1  C   UNL A   1      38.016  22.107  25.687  1.00  0.00     0.188 C 
ENDROOT
BRANCH   1   2
ATOM      2  O   UNL A   1      37.126  23.048  25.105  1.00  0.00    -0.376 OA
BRANCH   2   3
ATOM      3  C   UNL A   1      36.734  22.817  23.754  1.00  0.00     0.202 C 
BRANCH   3   4
ATOM      4  C   UNL A   1      35.250  23.031  23.425  1.00  0.00     0.261 C 
BRANCH   4   5
ATOM      5  O   UNL A   1      34.893  24.403  23.205  1.00  0.00    -0.463 OA
BRANCH   5   6
ATOM      6  C   UNL A   1      33.555  24.692  23.269  1.00  0.00     0.310 C 
ATOM      7  O   UNL A   1      32.683  24.146  22.612  1.00  0.00    -0.252 OA
BRANCH   6   8
ATOM      8  C   UNL A   1      33.317  25.743  24.348  1.00  0.00     0.115 C 
ATOM      9  C   UNL A   1      31.837  26.031  24.659  1.00  0.00     0.096 C 
ATOM     10  C   UNL A   1      31.683  27.499  24.185  1.00  0.00     0.003 C 
ATOM     11  C   UNL A   1      31.907  27.584  22.653  1.00  0.00     0.005 C 
ATOM     12  C   UNL A   1      32.969  28.123  24.710  1.00  0.00     0.009 C 
ATOM     13  C   UNL A   1      33.869  27.138  23.950  1.00  0.00     0.004 C 
ATOM     14  C   UNL A   1      33.437  27.481  22.515  1.00  0.00     0.005 C 
BRANCH   9  15
ATOM     15  C   UNL A   1      31.227  25.852  26.074  1.00  0.00     0.230 C 
ATOM     16  N   UNL A   1      31.272  24.802  26.934  1.00  0.00    -0.302 N 
ATOM     17  H   UNL A   1      30.883  24.989  27.818  1.00  0.00     0.172 HD
ATOM     18  O   UNL A   1      30.617  26.835  26.538  1.00  0.00    -0.274 OA
BRANCH  16  19
ATOM     19  C   UNL A   1      31.756  23.536  26.796  1.00  0.00     0.190 A 
ATOM     20  C   UNL A   1      34.584  21.431  26.998  1.00  0.00     0.068 C 
ATOM     21  C   UNL A   1      33.213  21.900  26.659  1.00  0.00     0.058 A 
ATOM     22  N   UNL A   1      32.776  22.991  27.378  1.00  0.00    -0.225 NA
ATOM     23  C   UNL A   1      32.348  21.469  25.654  1.00  0.00     0.059 A 
ATOM     24  S   UNL A   1      30.981  22.543  25.641  1.00  0.00    -0.096 S 
BRANCH  23  25
ATOM     25  C   UNL A   1      32.548  20.405  24.645  1.00  0.00    -0.006 A 
ATOM     26  C   UNL A   1      32.743  19.067  25.004  1.00  0.00     0.009 A 
ATOM     27  C   UNL A   1      32.365  20.681  23.281  1.00  0.00     0.009 A 
ATOM     28  C   UNL A   1      32.581  18.033  24.072  1.00  0.00     0.001 A 
ATOM     29  C   UNL A   1      32.209  19.655  22.343  1.00  0.00     0.001 A 
ATOM     30  C   UNL A   1      32.279  18.328  22.747  1.00  0.00     0.000 A 
ENDBRANCH  23  25
ENDBRANCH  16  19
ENDBRANCH   9  15
ENDBRANCH   6   8
ENDBRANCH   5   6
ENDBRANCH   4   5
ENDBRANCH   3   4
ENDBRANCH   2   3
ENDBRANCH   1   2
BRANCH   1  31
ATOM     31  C   UNL A   1      39.196  22.664  26.470  1.00  0.00     0.188 C 
BRANCH  31  32
ATOM     32  O   UNL A   1      40.185  21.726  26.876  1.00  0.00    -0.376 OA
BRANCH  32  33
ATOM     33  C   UNL A   1      41.379  21.775  26.078  1.00  0.00     0.202 C 
BRANCH  33  34
ATOM     34  C   UNL A   1      42.245  23.041  26.268  1.00  0.00     0.261 C 
BRANCH  34  35
ATOM     35  O   UNL A   1      41.767  24.197  25.539  1.00  0.00    -0.460 OA
BRANCH  35  36
ATOM     36  C   UNL A   1      42.505  25.314  25.665  1.00  0.00     0.338 C 
ATOM     37  O   UNL A   1      43.466  25.630  24.974  1.00  0.00    -0.246 OA
BRANCH  36  38
ATOM     38  C   UNL A   1      41.900  26.252  26.621  1.00  0.00     0.060 A 
ATOM     39  C   UNL A   1      42.458  27.536  26.729  1.00  0.00     0.016 A 
ATOM     40  C   UNL A   1      40.880  25.852  27.478  1.00  0.00     0.016 A 
ATOM     41  C   UNL A   1      42.040  28.407  27.728  1.00  0.00     0.010 A 
ATOM     42  C   UNL A   1      40.472  26.720  28.495  1.00  0.00     0.010 A 
ATOM     43  C   UNL A   1      41.079  27.982  28.649  1.00  0.00    -0.014 A 
BRANCH  43  44
ATOM     44  C   UNL A   1      40.823  28.785  29.867  1.00  0.00     0.031 A 
ATOM     45  C   UNL A   1      39.652  29.729  29.877  1.00  0.00     0.074 A 
ATOM     46  C   UNL A   1      41.599  28.662  30.955  1.00  0.00     0.049 A 
ATOM     47  N   UNL A   1      39.332  30.648  30.749  1.00  0.00    -0.248 NA
ATOM     48  C   UNL A   1      38.717  29.618  28.745  1.00  0.00     0.031 C 
ATOM     49  C   UNL A   1      42.698  27.710  31.109  1.00  0.00     0.029 A 
ATOM     50  N   UNL A   1      41.583  29.355  32.138  1.00  0.00    -0.354 N 
ATOM     51  C   UNL A   1      38.189  31.260  30.248  1.00  0.00     0.074 A 
ATOM     52  C   UNL A   1      37.868  30.602  29.000  1.00  0.00     0.031 C 
ATOM     53  C   UNL A   1      43.264  27.892  32.314  1.00  0.00     0.029 A 
ATOM     54  C   UNL A   1      42.606  29.009  32.985  1.00  0.00     0.049 A 
ATOM     55  H   UNL A   1      40.904  30.034  32.359  1.00  0.00     0.167 HD
ATOM     56  C   UNL A   1      37.482  32.286  30.777  1.00  0.00     0.031 A 
ATOM     57  C   UNL A   1      42.999  29.565  34.147  1.00  0.00     0.031 A 
ATOM     58  C   UNL A   1      37.806  32.925  32.025  1.00  0.00     0.049 A 
ATOM     59  C   UNL A   1      42.242  30.747  34.685  1.00  0.00     0.074 A 
ATOM     60  C   UNL A   1      37.158  33.974  32.653  1.00  0.00     0.029 A 
ATOM     61  N   UNL A   1      38.871  32.566  32.838  1.00  0.00    -0.354 N 
ATOM     62  N   UNL A   1      41.192  31.354  34.185  1.00  0.00    -0.248 NA
ATOM     63  C   UNL A   1      42.726  31.323  35.947  1.00  0.00     0.031 C 
ATOM     64  C   UNL A   1      37.864  34.285  33.821  1.00  0.00     0.029 A 
ATOM     65  C   UNL A   1      38.915  33.389  33.950  1.00  0.00     0.049 A 
ATOM     66  H   UNL A   1      39.502  31.834  32.651  1.00  0.00     0.167 HD
ATOM     67  C   UNL A   1      40.880  32.372  35.076  1.00  0.00     0.074 A 
ATOM     68  C   UNL A   1      41.842  32.288  36.158  1.00  0.00     0.031 C 
ATOM     69  C   UNL A   1      39.887  33.293  35.008  1.00  0.00     0.031 A 
BRANCH  56  70
ATOM     70  C   UNL A   1      36.339  32.826  29.963  1.00  0.00    -0.014 A 
ATOM     71  C   UNL A   1      35.047  32.285  30.045  1.00  0.00     0.009 A 
ATOM     72  C   UNL A   1      36.569  33.903  29.090  1.00  0.00     0.009 A 
ATOM     73  C   UNL A   1      34.019  32.785  29.241  1.00  0.00     0.001 A 
ATOM     74  C   UNL A   1      35.534  34.419  28.308  1.00  0.00     0.001 A 
ATOM     75  C   UNL A   1      34.263  33.852  28.375  1.00  0.00     0.000 A 
ENDBRANCH  56  70
BRANCH  57  76
ATOM     76  C   UNL A   1      44.205  29.043  34.840  1.00  0.00    -0.014 A 
ATOM     77  C   UNL A   1      44.103  28.019  35.791  1.00  0.00     0.009 A 
ATOM     78  C   UNL A   1      45.475  29.560  34.533  1.00  0.00     0.009 A 
ATOM     79  C   UNL A   1      45.248  27.529  36.427  1.00  0.00     0.001 A 
ATOM     80  C   UNL A   1      46.619  29.049  35.148  1.00  0.00     0.001 A 
ATOM     81  C   UNL A   1      46.503  28.038  36.100  1.00  0.00     0.000 A 
ENDBRANCH  57  76
BRANCH  69  82
ATOM     82  C   UNL A   1      39.777  34.262  36.152  1.00  0.00    -0.014 A 
ATOM     83  C   UNL A   1      40.402  35.517  36.108  1.00  0.00     0.009 A 
ATOM     84  C   UNL A   1      39.009  33.921  37.277  1.00  0.00     0.009 A 
ATOM     85  C   UNL A   1      40.288  36.398  37.185  1.00  0.00     0.001 A 
ATOM     86  C   UNL A   1      38.874  34.815  38.339  1.00  0.00     0.001 A 
ATOM     87  C   UNL A   1      39.522  36.049  38.297  1.00  0.00     0.000 A 
ENDBRANCH  69  82
ENDBRANCH  43  44
ENDBRANCH  36  38
ENDBRANCH  35  36
ENDBRANCH  34  35
ENDBRANCH  33  34
ENDBRANCH  32  33
ENDBRANCH  31  32
ENDBRANCH   1  31
TORSDOF 20
ENDMDL
