MODEL 1
REMARK VINA RESULT:     -13.2      0.000      0.000
REMARK SMILES Cc1ccc(C(=O)NC2(CC(=O)OCCOCCOCCOC(=O)c3ccc(-c4c5nc(c(-c6ccccc6)c6ccc([nH]6)c(-c6ccccc6)c6nc(c(-c7ccccc7)c7ccc4[nH]7)C=C6)C=C5)cc3)CCC2)cc1
REMARK SMILES IDX 17 1 16 2 15 3 14 4 13 5 11 6 12 7 10 8 9 9 73 10 75 11
REMARK SMILES IDX 74 12 8 13 6 14 7 15 5 17 1 18 2 19 3 20 77 21 4 22 76 23
REMARK SMILES IDX 18 24 19 25 20 26 21 27 22 28 23 29 24 30 25 31 26 32 72 33
REMARK SMILES IDX 27 34 71 35 28 36 29 37 30 38 65 39 31 40 70 41 64 42 66 43
REMARK SMILES IDX 32 44 69 45 63 46 62 47 33 49 55 50 40 51 54 52 41 53 44 54
REMARK SMILES IDX 53 55 67 56 42 57 43 58 52 60 68 61 45 62 34 63 35 64 39 65
REMARK SMILES IDX 36 66 38 67 37 68 56 69 57 70 61 71 58 72 60 73 59 74 46 75
REMARK SMILES IDX 47 76 51 77 48 78 50 79 49 80
REMARK H PARENT 8 16 66 48 44 59
REMARK Flexibility Score: inf
ROOT
ATOM      1  C   UNL A   1      39.137  21.190  25.905  1.00  0.00     0.188 C 
ENDROOT
BRANCH   1   2
ATOM      2  O   UNL A   1      38.141  20.828  24.986  1.00  0.00    -0.376 OA
BRANCH   2   3
ATOM      3  C   UNL A   1      36.827  21.344  25.131  1.00  0.00     0.202 C 
BRANCH   3   4
ATOM      4  C   UNL A   1      35.926  22.256  24.107  1.00  0.00     0.261 C 
BRANCH   4   5
ATOM      5  O   UNL A   1      35.021  23.707  23.977  1.00  0.00    -0.463 OA
BRANCH   5   6
ATOM      6  C   UNL A   1      34.360  24.866  24.513  1.00  0.00     0.308 C 
ATOM      7  O   UNL A   1      34.421  25.377  25.650  1.00  0.00    -0.252 OA
BRANCH   6   8
ATOM      8  C   UNL A   1      33.811  25.852  23.589  1.00  0.00     0.151 C 
BRANCH   8   9
ATOM      9  C   UNL A   1      32.643  25.053  23.145  1.00  0.00     0.051 C 
ATOM     10  C   UNL A   1      32.857  24.329  21.717  1.00  0.00     0.029 C 
ATOM     11  C   UNL A   1      31.724  26.023  22.131  1.00  0.00     0.029 C 
ATOM     12  C   UNL A   1      32.750  25.726  21.028  1.00  0.00     0.005 C 
BRANCH   9  13
ATOM     13  N   UNL A   1      32.101  24.091  24.637  1.00  0.00    -0.346 N 
ATOM     14  C   UNL A   1      31.840  22.399  25.101  1.00  0.00     0.251 C 
ATOM     15  O   UNL A   1      31.130  22.404  26.098  1.00  0.00    -0.269 OA
ATOM     16  H   UNL A   1      31.899  24.695  25.388  1.00  0.00     0.164 HD
BRANCH  14  17
ATOM     17  C   UNL A   1      32.414  20.672  24.508  1.00  0.00     0.039 A 
ATOM     18  C   UNL A   1      33.653  16.114  24.081  1.00  0.00     0.044 C 
ATOM     19  C   UNL A   1      33.171  17.543  24.010  1.00  0.00    -0.051 A 
ATOM     20  C   UNL A   1      32.639  18.411  23.049  1.00  0.00     0.004 A 
ATOM     21  C   UNL A   1      33.241  18.192  25.176  1.00  0.00     0.004 A 
ATOM     22  C   UNL A   1      32.198  19.915  23.321  1.00  0.00     0.014 A 
ATOM     23  C   UNL A   1      33.009  19.624  25.262  1.00  0.00     0.014 A 
ENDBRANCH  14  17
ENDBRANCH   9  13
ENDBRANCH   8   9
ENDBRANCH   6   8
ENDBRANCH   5   6
ENDBRANCH   4   5
ENDBRANCH   3   4
ENDBRANCH   2   3
ENDBRANCH   1   2
BRANCH   1  24
ATOM     24  C   UNL A   1      40.181  20.113  26.118  1.00  0.00     0.188 C 
BRANCH  24  25
ATOM     25  O   UNL A   1      41.293  20.555  26.857  1.00  0.00    -0.376 OA
BRANCH  25  26
ATOM     26  C   UNL A   1      42.598  20.505  26.314  1.00  0.00     0.202 C 
BRANCH  26  27
ATOM     27  C   UNL A   1      42.804  21.921  25.851  1.00  0.00     0.261 C 
BRANCH  27  28
ATOM     28  O   UNL A   1      42.225  22.745  26.937  1.00  0.00    -0.460 OA
BRANCH  28  29
ATOM     29  C   UNL A   1      41.931  24.050  26.617  1.00  0.00     0.338 C 
ATOM     30  O   UNL A   1      42.225  24.545  25.548  1.00  0.00    -0.246 OA
BRANCH  29  31
ATOM     31  C   UNL A   1      41.395  24.902  27.820  1.00  0.00     0.060 A 
ATOM     32  C   UNL A   1      40.030  24.984  27.913  1.00  0.00     0.016 A 
ATOM     33  C   UNL A   1      41.997  25.870  28.650  1.00  0.00     0.016 A 
ATOM     34  C   UNL A   1      39.369  26.073  28.652  1.00  0.00     0.010 A 
ATOM     35  C   UNL A   1      41.229  26.998  29.379  1.00  0.00     0.010 A 
ATOM     36  C   UNL A   1      39.832  27.230  29.271  1.00  0.00    -0.014 A 
BRANCH  36  37
ATOM     37  C   UNL A   1      38.889  28.693  29.522  1.00  0.00     0.031 A 
ATOM     38  C   UNL A   1      38.969  29.182  30.934  1.00  0.00     0.074 A 
ATOM     39  C   UNL A   1      37.723  29.501  29.169  1.00  0.00     0.049 A 
ATOM     40  N   UNL A   1      38.283  30.181  31.421  1.00  0.00    -0.248 NA
ATOM     41  C   UNL A   1      39.920  28.643  31.898  1.00  0.00     0.031 C 
ATOM     42  C   UNL A   1      37.940  30.877  28.604  1.00  0.00     0.029 A 
ATOM     43  N   UNL A   1      36.377  29.414  28.732  1.00  0.00    -0.354 N 
ATOM     44  C   UNL A   1      39.222  30.794  32.185  1.00  0.00     0.074 A 
ATOM     45  C   UNL A   1      39.950  29.676  32.749  1.00  0.00     0.031 C 
ATOM     46  C   UNL A   1      36.897  31.323  27.846  1.00  0.00     0.029 A 
ATOM     47  C   UNL A   1      35.863  30.301  27.771  1.00  0.00     0.049 A 
ATOM     48  H   UNL A   1      35.792  28.717  29.110  1.00  0.00     0.167 HD
ATOM     49  C   UNL A   1      39.609  32.056  31.809  1.00  0.00     0.031 A 
ATOM     50  C   UNL A   1      34.611  30.420  27.180  1.00  0.00     0.031 A 
ATOM     51  C   UNL A   1      38.655  32.817  30.939  1.00  0.00     0.049 A 
ATOM     52  C   UNL A   1      33.998  31.473  28.030  1.00  0.00     0.074 A 
ATOM     53  C   UNL A   1      38.822  33.687  29.861  1.00  0.00     0.029 A 
ATOM     54  N   UNL A   1      37.258  32.617  31.006  1.00  0.00    -0.354 N 
ATOM     55  N   UNL A   1      34.510  31.691  29.207  1.00  0.00    -0.248 NA
ATOM     56  C   UNL A   1      32.970  32.437  27.654  1.00  0.00     0.031 C 
ATOM     57  C   UNL A   1      37.542  34.075  29.365  1.00  0.00     0.029 A 
ATOM     58  C   UNL A   1      36.569  33.454  30.131  1.00  0.00     0.049 A 
ATOM     59  H   UNL A   1      36.823  31.962  31.600  1.00  0.00     0.167 HD
ATOM     60  C   UNL A   1      34.238  32.969  29.520  1.00  0.00     0.074 A 
ATOM     61  C   UNL A   1      33.146  33.354  28.627  1.00  0.00     0.031 C 
ATOM     62  C   UNL A   1      35.126  33.708  30.230  1.00  0.00     0.031 A 
BRANCH  49  63
ATOM     63  C   UNL A   1      41.044  32.519  32.070  1.00  0.00    -0.014 A 
ATOM     64  C   UNL A   1      41.393  33.071  33.311  1.00  0.00     0.009 A 
ATOM     65  C   UNL A   1      42.092  32.482  31.121  1.00  0.00     0.009 A 
ATOM     66  C   UNL A   1      42.702  33.489  33.600  1.00  0.00     0.001 A 
ATOM     67  C   UNL A   1      43.413  32.831  31.419  1.00  0.00     0.001 A 
ATOM     68  C   UNL A   1      43.720  33.331  32.669  1.00  0.00     0.000 A 
ENDBRANCH  49  63
BRANCH  50  69
ATOM     69  C   UNL A   1      33.758  29.395  26.429  1.00  0.00    -0.014 A 
ATOM     70  C   UNL A   1      33.101  28.350  27.133  1.00  0.00     0.009 A 
ATOM     71  C   UNL A   1      33.396  29.519  25.082  1.00  0.00     0.009 A 
ATOM     72  C   UNL A   1      31.976  27.665  26.602  1.00  0.00     0.001 A 
ATOM     73  C   UNL A   1      32.280  28.830  24.544  1.00  0.00     0.001 A 
ATOM     74  C   UNL A   1      31.536  27.946  25.320  1.00  0.00     0.000 A 
ENDBRANCH  50  69
BRANCH  62  75
ATOM     75  C   UNL A   1      34.645  34.649  31.272  1.00  0.00    -0.014 A 
ATOM     76  C   UNL A   1      35.307  34.928  32.468  1.00  0.00     0.009 A 
ATOM     77  C   UNL A   1      33.528  35.442  30.937  1.00  0.00     0.009 A 
ATOM     78  C   UNL A   1      34.868  35.965  33.288  1.00  0.00     0.001 A 
ATOM     79  C   UNL A   1      33.114  36.497  31.728  1.00  0.00     0.001 A 
ATOM     80  C   UNL A   1      33.784  36.755  32.910  1.00  0.00     0.000 A 
ENDBRANCH  62  75
ENDBRANCH  36  37
ENDBRANCH  29  31
ENDBRANCH  28  29
ENDBRANCH  27  28
ENDBRANCH  26  27
ENDBRANCH  25  26
ENDBRANCH  24  25
ENDBRANCH   1  24
TORSDOF 20
ENDMDL
MODEL 2
REMARK VINA RESULT:     -13.0      1.333      3.596
REMARK SMILES Cc1ccc(C(=O)NC2(CC(=O)OCCOCCOCCOC(=O)c3ccc(-c4c5nc(c(-c6ccccc6)c6ccc([nH]6)c(-c6ccccc6)c6nc(c(-c7ccccc7)c7ccc4[nH]7)C=C6)C=C5)cc3)CCC2)cc1
REMARK SMILES IDX 17 1 16 2 15 3 14 4 13 5 11 6 12 7 10 8 9 9 73 10 75 11
REMARK SMILES IDX 74 12 8 13 6 14 7 15 5 17 1 18 2 19 3 20 77 21 4 22 76 23
REMARK SMILES IDX 18 24 19 25 20 26 21 27 22 28 23 29 24 30 25 31 26 32 72 33
REMARK SMILES IDX 27 34 71 35 28 36 29 37 30 38 65 39 31 40 70 41 64 42 66 43
REMARK SMILES IDX 32 44 69 45 63 46 62 47 33 49 55 50 40 51 54 52 41 53 44 54
REMARK SMILES IDX 53 55 67 56 42 57 43 58 52 60 68 61 45 62 34 63 35 64 39 65
REMARK SMILES IDX 36 66 38 67 37 68 56 69 57 70 61 71 58 72 60 73 59 74 46 75
REMARK SMILES IDX 47 76 51 77 48 78 50 79 49 80
REMARK H PARENT 8 16 66 48 44 59
REMARK Flexibility Score: inf
ROOT
ATOM      1  C   UNL A   1      39.480  22.740  26.875  1.00  0.00     0.188 C 
ENDROOT
BRANCH   1   2
ATOM      2  O   UNL A   1      38.649  23.558  26.095  1.00  0.00    -0.376 OA
BRANCH   2   3
ATOM      3  C   UNL A   1      37.457  23.027  25.539  1.00  0.00     0.202 C 
BRANCH   3   4
ATOM      4  C   UNL A   1      35.889  23.282  25.951  1.00  0.00     0.261 C 
BRANCH   4   5
ATOM      5  O   UNL A   1      34.284  22.735  25.695  1.00  0.00    -0.463 OA
BRANCH   5   6
ATOM      6  C   UNL A   1      32.973  22.336  26.131  1.00  0.00     0.308 C 
ATOM      7  O   UNL A   1      32.389  22.532  27.216  1.00  0.00    -0.252 OA
BRANCH   6   8
ATOM      8  C   UNL A   1      31.981  21.968  25.128  1.00  0.00     0.151 C 
BRANCH   8   9
ATOM      9  C   UNL A   1      32.906  21.268  24.205  1.00  0.00     0.051 C 
ATOM     10  C   UNL A   1      32.372  19.820  23.728  1.00  0.00     0.029 C 
ATOM     11  C   UNL A   1      33.854  20.235  25.127  1.00  0.00     0.029 C 
ATOM     12  C   UNL A   1      32.655  19.276  25.164  1.00  0.00     0.005 C 
BRANCH   9  13
ATOM     13  N   UNL A   1      33.444  22.546  22.972  1.00  0.00    -0.346 N 
ATOM     14  C   UNL A   1      32.859  24.089  22.321  1.00  0.00     0.251 C 
ATOM     15  O   UNL A   1      33.454  24.286  21.269  1.00  0.00    -0.269 OA
ATOM     16  H   UNL A   1      34.302  22.295  22.559  1.00  0.00     0.164 HD
BRANCH  14  17
ATOM     17  C   UNL A   1      31.652  25.475  22.854  1.00  0.00     0.039 A 
ATOM     18  C   UNL A   1      29.009  29.393  23.259  1.00  0.00     0.044 C 
ATOM     19  C   UNL A   1      29.672  28.037  23.216  1.00  0.00    -0.051 A 
ATOM     20  C   UNL A   1      29.418  26.743  23.688  1.00  0.00     0.004 A 
ATOM     21  C   UNL A   1      30.819  28.022  22.530  1.00  0.00     0.004 A 
ATOM     22  C   UNL A   1      30.353  25.481  23.439  1.00  0.00     0.014 A 
ATOM     23  C   UNL A   1      31.695  26.862  22.545  1.00  0.00     0.014 A 
ENDBRANCH  14  17
ENDBRANCH   9  13
ENDBRANCH   8   9
ENDBRANCH   6   8
ENDBRANCH   5   6
ENDBRANCH   4   5
ENDBRANCH   3   4
ENDBRANCH   2   3
ENDBRANCH   1   2
BRANCH   1  24
ATOM     24  C   UNL A   1      40.011  21.534  26.128  1.00  0.00     0.188 C 
BRANCH  24  25
ATOM     25  O   UNL A   1      41.405  21.378  26.244  1.00  0.00    -0.376 OA
BRANCH  25  26
ATOM     26  C   UNL A   1      42.296  22.244  25.570  1.00  0.00     0.202 C 
BRANCH  26  27
ATOM     27  C   UNL A   1      43.406  22.401  26.572  1.00  0.00     0.261 C 
BRANCH  27  28
ATOM     28  O   UNL A   1      42.805  23.213  27.655  1.00  0.00    -0.460 OA
BRANCH  28  29
ATOM     29  C   UNL A   1      42.875  24.578  27.500  1.00  0.00     0.338 C 
ATOM     30  O   UNL A   1      43.644  25.111  26.726  1.00  0.00    -0.246 OA
BRANCH  29  31
ATOM     31  C   UNL A   1      42.052  25.390  28.560  1.00  0.00     0.060 A 
ATOM     32  C   UNL A   1      40.694  25.382  28.373  1.00  0.00     0.016 A 
ATOM     33  C   UNL A   1      42.409  26.392  29.485  1.00  0.00     0.016 A 
ATOM     34  C   UNL A   1      39.828  26.424  28.951  1.00  0.00     0.010 A 
ATOM     35  C   UNL A   1      41.437  27.465  30.031  1.00  0.00     0.010 A 
ATOM     36  C   UNL A   1      40.079  27.605  29.640  1.00  0.00    -0.014 A 
BRANCH  36  37
ATOM     37  C   UNL A   1      39.013  29.003  29.679  1.00  0.00     0.031 A 
ATOM     38  C   UNL A   1      39.047  29.703  31.002  1.00  0.00     0.074 A 
ATOM     39  C   UNL A   1      37.782  29.647  29.222  1.00  0.00     0.049 A 
ATOM     40  N   UNL A   1      38.275  30.701  31.341  1.00  0.00    -0.248 NA
ATOM     41  C   UNL A   1      40.037  29.398  32.025  1.00  0.00     0.031 C 
ATOM     42  C   UNL A   1      37.881  30.936  28.456  1.00  0.00     0.029 A 
ATOM     43  N   UNL A   1      36.450  29.379  28.817  1.00  0.00    -0.354 N 
ATOM     44  C   UNL A   1      39.155  31.500  31.996  1.00  0.00     0.074 A 
ATOM     45  C   UNL A   1      39.976  30.545  32.712  1.00  0.00     0.031 C 
ATOM     46  C   UNL A   1      36.805  31.172  27.650  1.00  0.00     0.029 A 
ATOM     47  C   UNL A   1      35.864  30.066  27.739  1.00  0.00     0.049 A 
ATOM     48  H   UNL A   1      35.926  28.699  29.300  1.00  0.00     0.167 HD
ATOM     49  C   UNL A   1      39.433  32.719  31.432  1.00  0.00     0.031 A 
ATOM     50  C   UNL A   1      34.608  29.987  27.150  1.00  0.00     0.031 A 
ATOM     51  C   UNL A   1      38.419  33.257  30.468  1.00  0.00     0.049 A 
ATOM     52  C   UNL A   1      33.904  31.098  27.840  1.00  0.00     0.074 A 
ATOM     53  C   UNL A   1      38.513  33.967  29.271  1.00  0.00     0.029 A 
ATOM     54  N   UNL A   1      37.045  32.950  30.578  1.00  0.00    -0.354 N 
ATOM     55  N   UNL A   1      34.391  31.533  28.966  1.00  0.00    -0.248 NA
ATOM     56  C   UNL A   1      32.797  31.904  27.334  1.00  0.00     0.031 C 
ATOM     57  C   UNL A   1      37.206  34.166  28.735  1.00  0.00     0.029 A 
ATOM     58  C   UNL A   1      36.288  33.584  29.595  1.00  0.00     0.049 A 
ATOM     59  H   UNL A   1      36.666  32.357  31.268  1.00  0.00     0.167 HD
ATOM     60  C   UNL A   1      34.010  32.815  29.087  1.00  0.00     0.074 A 
ATOM     61  C   UNL A   1      32.890  32.967  28.158  1.00  0.00     0.031 C 
ATOM     62  C   UNL A   1      34.828  33.726  29.670  1.00  0.00     0.031 A 
BRANCH  49  63
ATOM     63  C   UNL A   1      40.822  33.338  31.606  1.00  0.00    -0.014 A 
ATOM     64  C   UNL A   1      41.000  34.448  32.444  1.00  0.00     0.009 A 
ATOM     65  C   UNL A   1      41.991  32.905  30.938  1.00  0.00     0.009 A 
ATOM     66  C   UNL A   1      42.259  35.034  32.649  1.00  0.00     0.001 A 
ATOM     67  C   UNL A   1      43.260  33.436  31.186  1.00  0.00     0.001 A 
ATOM     68  C   UNL A   1      43.396  34.502  32.052  1.00  0.00     0.000 A 
ENDBRANCH  49  63
BRANCH  50  69
ATOM     69  C   UNL A   1      33.849  28.792  26.569  1.00  0.00    -0.014 A 
ATOM     70  C   UNL A   1      34.493  27.893  25.677  1.00  0.00     0.009 A 
ATOM     71  C   UNL A   1      32.585  28.380  27.012  1.00  0.00     0.009 A 
ATOM     72  C   UNL A   1      34.028  26.568  25.462  1.00  0.00     0.001 A 
ATOM     73  C   UNL A   1      32.112  27.062  26.792  1.00  0.00     0.001 A 
ATOM     74  C   UNL A   1      32.858  26.139  26.066  1.00  0.00     0.000 A 
ENDBRANCH  50  69
BRANCH  62  75
ATOM     75  C   UNL A   1      34.265  34.767  30.565  1.00  0.00    -0.014 A 
ATOM     76  C   UNL A   1      33.382  35.773  30.169  1.00  0.00     0.009 A 
ATOM     77  C   UNL A   1      34.512  34.612  31.944  1.00  0.00     0.009 A 
ATOM     78  C   UNL A   1      32.768  36.582  31.123  1.00  0.00     0.001 A 
ATOM     79  C   UNL A   1      33.873  35.386  32.895  1.00  0.00     0.001 A 
ATOM     80  C   UNL A   1      33.002  36.377  32.481  1.00  0.00     0.000 A 
ENDBRANCH  62  75
ENDBRANCH  36  37
ENDBRANCH  29  31
ENDBRANCH  28  29
ENDBRANCH  27  28
ENDBRANCH  26  27
ENDBRANCH  25  26
ENDBRANCH  24  25
ENDBRANCH   1  24
TORSDOF 20
ENDMDL
MODEL 3
REMARK VINA RESULT:     -12.0      4.928      9.765
REMARK SMILES Cc1ccc(C(=O)NC2(CC(=O)OCCOCCOCCOC(=O)c3ccc(-c4c5nc(c(-c6ccccc6)c6ccc([nH]6)c(-c6ccccc6)c6nc(c(-c7ccccc7)c7ccc4[nH]7)C=C6)C=C5)cc3)CCC2)cc1
REMARK SMILES IDX 17 1 16 2 15 3 14 4 13 5 11 6 12 7 10 8 9 9 73 10 75 11
REMARK SMILES IDX 74 12 8 13 6 14 7 15 5 17 1 18 2 19 3 20 77 21 4 22 76 23
REMARK SMILES IDX 18 24 19 25 20 26 21 27 22 28 23 29 24 30 25 31 26 32 72 33
REMARK SMILES IDX 27 34 71 35 28 36 29 37 30 38 65 39 31 40 70 41 64 42 66 43
REMARK SMILES IDX 32 44 69 45 63 46 62 47 33 49 55 50 40 51 54 52 41 53 44 54
REMARK SMILES IDX 53 55 67 56 42 57 43 58 52 60 68 61 45 62 34 63 35 64 39 65
REMARK SMILES IDX 36 66 38 67 37 68 56 69 57 70 61 71 58 72 60 73 59 74 46 75
REMARK SMILES IDX 47 76 51 77 48 78 50 79 49 80
REMARK H PARENT 8 16 66 48 44 59
REMARK Flexibility Score: inf
ROOT
ATOM      1  C   UNL A   1      38.939  21.384  25.751  1.00  0.00     0.188 C 
ENDROOT
BRANCH   1   2
ATOM      2  O   UNL A   1      38.443  22.697  25.743  1.00  0.00    -0.376 OA
BRANCH   2   3
ATOM      3  C   UNL A   1      37.099  22.941  25.358  1.00  0.00     0.202 C 
BRANCH   3   4
ATOM      4  C   UNL A   1      36.449  23.181  23.871  1.00  0.00     0.261 C 
BRANCH   4   5
ATOM      5  O   UNL A   1      34.980  23.180  22.985  1.00  0.00    -0.463 OA
BRANCH   5   6
ATOM      6  C   UNL A   1      33.594  23.507  22.788  1.00  0.00     0.308 C 
ATOM      7  O   UNL A   1      33.066  24.516  22.276  1.00  0.00    -0.252 OA
BRANCH   6   8
ATOM      8  C   UNL A   1      32.607  22.434  22.822  1.00  0.00     0.151 C 
BRANCH   8   9
ATOM      9  C   UNL A   1      31.991  22.796  24.122  1.00  0.00     0.051 C 
ATOM     10  C   UNL A   1      33.064  23.021  25.308  1.00  0.00     0.029 C 
ATOM     11  C   UNL A   1      31.818  21.383  25.010  1.00  0.00     0.029 C 
ATOM     12  C   UNL A   1      33.316  21.480  25.330  1.00  0.00     0.005 C 
BRANCH   9  13
ATOM     13  N   UNL A   1      30.713  24.083  23.726  1.00  0.00    -0.346 N 
ATOM     14  C   UNL A   1      30.299  25.736  24.220  1.00  0.00     0.251 C 
ATOM     15  O   UNL A   1      29.138  25.932  23.885  1.00  0.00    -0.269 OA
ATOM     16  H   UNL A   1      30.082  23.752  23.047  1.00  0.00     0.164 HD
BRANCH  14  17
ATOM     17  C   UNL A   1      31.183  27.225  25.035  1.00  0.00     0.039 A 
ATOM     18  C   UNL A   1      34.144  30.176  27.274  1.00  0.00     0.044 C 
ATOM     19  C   UNL A   1      33.159  29.411  26.425  1.00  0.00    -0.051 A 
ATOM     20  C   UNL A   1      32.229  29.686  25.413  1.00  0.00     0.004 A 
ATOM     21  C   UNL A   1      33.150  28.096  26.664  1.00  0.00     0.004 A 
ATOM     22  C   UNL A   1      31.324  28.599  24.685  1.00  0.00     0.014 A 
ATOM     23  C   UNL A   1      32.135  27.228  26.090  1.00  0.00     0.014 A 
ENDBRANCH  14  17
ENDBRANCH   9  13
ENDBRANCH   8   9
ENDBRANCH   6   8
ENDBRANCH   5   6
ENDBRANCH   4   5
ENDBRANCH   3   4
ENDBRANCH   2   3
ENDBRANCH   1   2
BRANCH   1  24
ATOM     24  C   UNL A   1      40.305  21.260  26.394  1.00  0.00     0.188 C 
BRANCH  24  25
ATOM     25  O   UNL A   1      40.845  19.964  26.306  1.00  0.00    -0.376 OA
BRANCH  25  26
ATOM     26  C   UNL A   1      42.069  19.638  26.934  1.00  0.00     0.202 C 
BRANCH  26  27
ATOM     27  C   UNL A   1      42.806  18.918  25.839  1.00  0.00     0.261 C 
BRANCH  27  28
ATOM     28  O   UNL A   1      43.349  20.004  24.992  1.00  0.00    -0.460 OA
BRANCH  28  29
ATOM     29  C   UNL A   1      44.681  19.908  24.663  1.00  0.00     0.338 C 
ATOM     30  O   UNL A   1      45.194  18.869  24.303  1.00  0.00    -0.246 OA
BRANCH  29  31
ATOM     31  C   UNL A   1      45.523  21.187  25.008  1.00  0.00     0.060 A 
ATOM     32  C   UNL A   1      45.269  21.736  26.238  1.00  0.00     0.016 A 
ATOM     33  C   UNL A   1      46.258  22.090  24.214  1.00  0.00     0.016 A 
ATOM     34  C   UNL A   1      45.593  23.142  26.538  1.00  0.00     0.010 A 
ATOM     35  C   UNL A   1      46.539  23.563  24.597  1.00  0.00     0.010 A 
ATOM     36  C   UNL A   1      46.057  24.204  25.769  1.00  0.00    -0.014 A 
BRANCH  36  37
ATOM     37  C   UNL A   1      45.774  25.905  26.113  1.00  0.00     0.031 A 
ATOM     38  C   UNL A   1      44.503  26.402  25.498  1.00  0.00     0.074 A 
ATOM     39  C   UNL A   1      46.325  27.235  26.366  1.00  0.00     0.049 A 
ATOM     40  N   UNL A   1      44.105  27.645  25.502  1.00  0.00    -0.248 NA
ATOM     41  C   UNL A   1      43.515  25.507  24.910  1.00  0.00     0.031 C 
ATOM     42  C   UNL A   1      46.033  27.900  27.682  1.00  0.00     0.029 A 
ATOM     43  N   UNL A   1      47.414  28.086  26.052  1.00  0.00    -0.354 N 
ATOM     44  C   UNL A   1      42.780  27.494  25.753  1.00  0.00     0.074 A 
ATOM     45  C   UNL A   1      42.447  26.311  24.986  1.00  0.00     0.031 C 
ATOM     46  C   UNL A   1      46.964  28.834  28.036  1.00  0.00     0.029 A 
ATOM     47  C   UNL A   1      48.015  28.895  27.032  1.00  0.00     0.049 A 
ATOM     48  H   UNL A   1      47.757  28.110  25.128  1.00  0.00     0.167 HD
ATOM     49  C   UNL A   1      42.306  27.990  26.941  1.00  0.00     0.031 A 
ATOM     50  C   UNL A   1      49.077  29.790  26.986  1.00  0.00     0.031 A 
ATOM     51  C   UNL A   1      43.136  29.051  27.601  1.00  0.00     0.049 A 
ATOM     52  C   UNL A   1      48.354  31.075  26.810  1.00  0.00     0.074 A 
ATOM     53  C   UNL A   1      43.456  29.333  28.929  1.00  0.00     0.029 A 
ATOM     54  N   UNL A   1      43.936  29.946  26.857  1.00  0.00    -0.354 N 
ATOM     55  N   UNL A   1      47.131  31.039  26.364  1.00  0.00    -0.248 NA
ATOM     56  C   UNL A   1      48.781  32.405  27.232  1.00  0.00     0.031 C 
ATOM     57  C   UNL A   1      44.351  30.443  28.975  1.00  0.00     0.029 A 
ATOM     58  C   UNL A   1      44.592  30.862  27.676  1.00  0.00     0.049 A 
ATOM     59  H   UNL A   1      44.022  29.923  25.876  1.00  0.00     0.167 HD
ATOM     60  C   UNL A   1      46.514  32.138  26.828  1.00  0.00     0.074 A 
ATOM     61  C   UNL A   1      47.594  33.045  27.215  1.00  0.00     0.031 C 
ATOM     62  C   UNL A   1      45.203  32.099  27.171  1.00  0.00     0.031 A 
BRANCH  49  63
ATOM     63  C   UNL A   1      41.137  27.296  27.642  1.00  0.00    -0.014 A 
ATOM     64  C   UNL A   1      41.092  25.896  27.721  1.00  0.00     0.009 A 
ATOM     65  C   UNL A   1      40.023  27.957  28.209  1.00  0.00     0.009 A 
ATOM     66  C   UNL A   1      40.051  25.218  28.373  1.00  0.00     0.001 A 
ATOM     67  C   UNL A   1      39.016  27.298  28.920  1.00  0.00     0.001 A 
ATOM     68  C   UNL A   1      39.034  25.920  29.008  1.00  0.00     0.000 A 
ENDBRANCH  49  63
BRANCH  50  69
ATOM     69  C   UNL A   1      50.520  29.607  26.509  1.00  0.00    -0.014 A 
ATOM     70  C   UNL A   1      50.981  28.333  26.081  1.00  0.00     0.009 A 
ATOM     71  C   UNL A   1      51.400  30.668  26.262  1.00  0.00     0.009 A 
ATOM     72  C   UNL A   1      52.109  28.178  25.231  1.00  0.00     0.001 A 
ATOM     73  C   UNL A   1      52.533  30.516  25.423  1.00  0.00     0.001 A 
ATOM     74  C   UNL A   1      52.855  29.284  24.862  1.00  0.00     0.000 A 
ENDBRANCH  50  69
BRANCH  62  75
ATOM     75  C   UNL A   1      44.315  33.245  26.852  1.00  0.00    -0.014 A 
ATOM     76  C   UNL A   1      43.915  34.226  27.759  1.00  0.00     0.009 A 
ATOM     77  C   UNL A   1      44.005  33.440  25.491  1.00  0.00     0.009 A 
ATOM     78  C   UNL A   1      43.237  35.359  27.314  1.00  0.00     0.001 A 
ATOM     79  C   UNL A   1      43.368  34.581  25.040  1.00  0.00     0.001 A 
ATOM     80  C   UNL A   1      42.980  35.541  25.957  1.00  0.00     0.000 A 
ENDBRANCH  62  75
ENDBRANCH  36  37
ENDBRANCH  29  31
ENDBRANCH  28  29
ENDBRANCH  27  28
ENDBRANCH  26  27
ENDBRANCH  25  26
ENDBRANCH  24  25
ENDBRANCH   1  24
TORSDOF 20
ENDMDL
