MODEL 1
REMARK VINA RESULT:     -10.2      0.000      0.000
REMARK SMILES COc1ccccc1C(=O)N1[C@@H](C(=O)OCCOCCOCCOC(=O)c2ccc(-c3c4nc(c(-c5ccccc5)c5ccc([nH]5)c(-c5ccccc5)c5nc(c(-c6ccccc6)c6ccc3[nH]6)C=C5)C=C4)cc2)COC12CC[NH+](Cc1ccccc1)CC2
REMARK SMILES IDX 19 1 18 2 17 3 16 4 15 5 13 6 14 7 12 8 11 9 77 10 75 11
REMARK SMILES IDX 76 12 78 13 89 14 79 15 88 16 80 17 9 19 10 20 8 21 3 22
REMARK SMILES IDX 4 23 5 24 7 25 6 26 2 27 1 28 81 29 82 30 83 31 87 32 84 33
REMARK SMILES IDX 86 34 85 35 20 36 21 37 22 38 23 39 24 40 25 41 26 42 27 43
REMARK SMILES IDX 28 44 74 45 29 46 73 47 30 48 31 49 32 50 67 51 33 52 72 53
REMARK SMILES IDX 66 54 68 55 34 56 71 57 65 58 64 59 35 61 57 62 42 63 56 64
REMARK SMILES IDX 43 65 46 66 55 67 69 68 44 69 45 70 54 72 70 73 47 74 36 75
REMARK SMILES IDX 37 76 41 77 38 78 40 79 39 80 58 81 59 82 63 83 60 84 62 85
REMARK SMILES IDX 61 86 48 87 49 88 53 89 50 90 52 91 51 92
REMARK H PARENT 80 18 68 60 46 71
REMARK Flexibility Score: inf
ROOT
ATOM      1  C   UNL A   1      35.518  20.763  24.969  1.00  0.00     0.188 C 
ENDROOT
BRANCH   1   2
ATOM      2  O   UNL A   1      34.438  19.840  24.932  1.00  0.00    -0.376 OA
BRANCH   2   3
ATOM      3  C   UNL A   1      33.108  20.342  24.804  1.00  0.00     0.202 C 
BRANCH   3   4
ATOM      4  C   UNL A   1      32.636  20.763  23.410  1.00  0.00     0.261 C 
BRANCH   4   5
ATOM      5  O   UNL A   1      33.165  22.040  22.990  1.00  0.00    -0.462 OA
BRANCH   5   6
ATOM      6  C   UNL A   1      32.261  23.031  22.786  1.00  0.00     0.331 C 
ATOM      7  O   UNL A   1      31.051  22.836  22.684  1.00  0.00    -0.250 OA
BRANCH   6   8
ATOM      8  C   UNL A   1      32.874  24.421  22.598  1.00  0.00     0.224 C 
ATOM      9  N   UNL A   1      32.209  25.352  23.478  1.00  0.00    -0.293 N 
ATOM     10  C   UNL A   1      31.902  26.587  22.746  1.00  0.00     0.155 C 
ATOM     11  C   UNL A   1      32.856  25.094  21.244  1.00  0.00     0.200 C 
ATOM     12  O   UNL A   1      31.958  26.203  21.350  1.00  0.00    -0.352 OA
ATOM     13  C   UNL A   1      30.456  27.015  22.973  1.00  0.00     0.120 C 
ATOM     14  C   UNL A   1      32.928  27.719  22.946  1.00  0.00     0.120 C 
ATOM     15  C   UNL A   1      30.136  28.384  22.417  1.00  0.00     0.267 C 
ATOM     16  C   UNL A   1      32.417  29.107  22.540  1.00  0.00     0.267 C 
ATOM     17  N   UNL A   1      31.041  29.405  22.918  1.00  0.00    -0.331 N 
ATOM     18  H   UNL A   1      30.830  30.277  22.433  1.00  0.00     0.348 HD
BRANCH   9  19
ATOM     19  C   UNL A   1      32.631  25.329  24.799  1.00  0.00     0.260 C 
ATOM     20  O   UNL A   1      33.731  25.789  25.110  1.00  0.00    -0.269 OA
BRANCH  19  21
ATOM     21  C   UNL A   1      31.868  24.497  25.788  1.00  0.00     0.082 A 
ATOM     22  C   UNL A   1      32.411  23.559  26.677  1.00  0.00     0.131 A 
ATOM     23  C   UNL A   1      31.570  22.757  27.466  1.00  0.00     0.047 A 
ATOM     24  C   UNL A   1      30.190  22.928  27.430  1.00  0.00     0.004 A 
ATOM     25  C   UNL A   1      30.470  24.670  25.784  1.00  0.00     0.018 A 
ATOM     26  C   UNL A   1      29.639  23.897  26.601  1.00  0.00     0.001 A 
BRANCH  22  27
ATOM     27  O   UNL A   1      33.741  23.265  26.718  1.00  0.00    -0.496 OA
ATOM     28  C   UNL A   1      34.077  22.370  27.774  1.00  0.00     0.278 C 
ENDBRANCH  22  27
ENDBRANCH  19  21
ENDBRANCH   9  19
BRANCH  17  29
ATOM     29  C   UNL A   1      30.775  29.893  24.282  1.00  0.00     0.299 C 
BRANCH  29  30
ATOM     30  C   UNL A   1      31.643  29.430  25.436  1.00  0.00     0.006 A 
ATOM     31  C   UNL A   1      32.845  30.078  25.759  1.00  0.00     0.009 A 
ATOM     32  C   UNL A   1      31.275  28.307  26.196  1.00  0.00     0.009 A 
ATOM     33  C   UNL A   1      33.617  29.658  26.847  1.00  0.00     0.001 A 
ATOM     34  C   UNL A   1      32.026  27.911  27.304  1.00  0.00     0.001 A 
ATOM     35  C   UNL A   1      33.195  28.589  27.633  1.00  0.00     0.000 A 
ENDBRANCH  29  30
ENDBRANCH  17  29
ENDBRANCH   6   8
ENDBRANCH   5   6
ENDBRANCH   4   5
ENDBRANCH   3   4
ENDBRANCH   2   3
ENDBRANCH   1   2
BRANCH   1  36
ATOM     36  C   UNL A   1      36.943  20.201  24.964  1.00  0.00     0.188 C 
BRANCH  36  37
ATOM     37  O   UNL A   1      37.966  21.173  25.028  1.00  0.00    -0.376 OA
BRANCH  37  38
ATOM     38  C   UNL A   1      39.097  20.871  25.839  1.00  0.00     0.202 C 
BRANCH  38  39
ATOM     39  C   UNL A   1      39.752  19.498  25.615  1.00  0.00     0.261 C 
BRANCH  39  40
ATOM     40  O   UNL A   1      40.925  19.244  26.412  1.00  0.00    -0.460 OA
BRANCH  40  41
ATOM     41  C   UNL A   1      42.112  19.698  25.945  1.00  0.00     0.338 C 
ATOM     42  O   UNL A   1      42.783  19.215  25.049  1.00  0.00    -0.246 OA
BRANCH  41  43
ATOM     43  C   UNL A   1      42.303  21.064  26.498  1.00  0.00     0.060 A 
ATOM     44  C   UNL A   1      42.563  22.120  25.607  1.00  0.00     0.016 A 
ATOM     45  C   UNL A   1      42.124  21.321  27.858  1.00  0.00     0.016 A 
ATOM     46  C   UNL A   1      42.670  23.429  26.082  1.00  0.00     0.010 A 
ATOM     47  C   UNL A   1      42.260  22.625  28.337  1.00  0.00     0.010 A 
ATOM     48  C   UNL A   1      42.568  23.678  27.457  1.00  0.00    -0.014 A 
BRANCH  48  49
ATOM     49  C   UNL A   1      43.054  24.965  28.010  1.00  0.00     0.031 A 
ATOM     50  C   UNL A   1      42.020  26.016  28.317  1.00  0.00     0.074 A 
ATOM     51  C   UNL A   1      44.356  25.214  28.231  1.00  0.00     0.049 A 
ATOM     52  N   UNL A   1      42.180  27.242  28.743  1.00  0.00    -0.248 NA
ATOM     53  C   UNL A   1      40.615  25.625  28.112  1.00  0.00     0.031 C 
ATOM     54  C   UNL A   1      45.454  24.273  28.025  1.00  0.00     0.029 A 
ATOM     55  N   UNL A   1      44.971  26.359  28.675  1.00  0.00    -0.354 N 
ATOM     56  C   UNL A   1      40.898  27.767  28.848  1.00  0.00     0.074 A 
ATOM     57  C   UNL A   1      39.975  26.741  28.422  1.00  0.00     0.031 C 
ATOM     58  C   UNL A   1      46.613  24.885  28.332  1.00  0.00     0.029 A 
ATOM     59  C   UNL A   1      46.341  26.267  28.723  1.00  0.00     0.049 A 
ATOM     60  H   UNL A   1      44.476  27.170  28.936  1.00  0.00     0.167 HD
ATOM     61  C   UNL A   1      40.518  28.996  29.266  1.00  0.00     0.031 A 
ATOM     62  C   UNL A   1      47.264  27.201  29.026  1.00  0.00     0.031 A 
ATOM     63  C   UNL A   1      41.427  30.033  29.663  1.00  0.00     0.049 A 
ATOM     64  C   UNL A   1      46.820  28.593  29.401  1.00  0.00     0.074 A 
ATOM     65  C   UNL A   1      41.137  31.313  30.100  1.00  0.00     0.029 A 
ATOM     66  N   UNL A   1      42.807  29.909  29.660  1.00  0.00    -0.354 N 
ATOM     67  N   UNL A   1      45.606  29.074  29.519  1.00  0.00    -0.248 NA
ATOM     68  C   UNL A   1      47.881  29.572  29.687  1.00  0.00     0.031 C 
ATOM     69  C   UNL A   1      42.346  31.983  30.312  1.00  0.00     0.029 A 
ATOM     70  C   UNL A   1      43.385  31.100  30.063  1.00  0.00     0.049 A 
ATOM     71  H   UNL A   1      43.302  29.096  29.409  1.00  0.00     0.167 HD
ATOM     72  C   UNL A   1      45.756  30.396  29.922  1.00  0.00     0.074 A 
ATOM     73  C   UNL A   1      47.178  30.641  30.038  1.00  0.00     0.031 C 
ATOM     74  C   UNL A   1      44.802  31.324  30.177  1.00  0.00     0.031 A 
BRANCH  61  75
ATOM     75  C   UNL A   1      39.045  29.290  29.265  1.00  0.00    -0.014 A 
ATOM     76  C   UNL A   1      38.399  29.762  28.113  1.00  0.00     0.009 A 
ATOM     77  C   UNL A   1      38.296  29.088  30.433  1.00  0.00     0.009 A 
ATOM     78  C   UNL A   1      37.035  30.058  28.140  1.00  0.00     0.001 A 
ATOM     79  C   UNL A   1      36.928  29.359  30.452  1.00  0.00     0.001 A 
ATOM     80  C   UNL A   1      36.301  29.852  29.308  1.00  0.00     0.000 A 
ENDBRANCH  61  75
BRANCH  62  81
ATOM     81  C   UNL A   1      48.714  26.872  28.966  1.00  0.00    -0.014 A 
ATOM     82  C   UNL A   1      49.382  26.373  30.095  1.00  0.00     0.009 A 
ATOM     83  C   UNL A   1      49.445  27.096  27.790  1.00  0.00     0.009 A 
ATOM     84  C   UNL A   1      50.759  26.132  30.054  1.00  0.00     0.001 A 
ATOM     85  C   UNL A   1      50.815  26.827  27.744  1.00  0.00     0.001 A 
ATOM     86  C   UNL A   1      51.472  26.355  28.879  1.00  0.00     0.000 A 
ENDBRANCH  62  81
BRANCH  74  87
ATOM     87  C   UNL A   1      45.257  32.678  30.647  1.00  0.00    -0.014 A 
ATOM     88  C   UNL A   1      45.492  33.726  29.744  1.00  0.00     0.009 A 
ATOM     89  C   UNL A   1      45.396  32.922  32.024  1.00  0.00     0.009 A 
ATOM     90  C   UNL A   1      45.887  34.982  30.209  1.00  0.00     0.001 A 
ATOM     91  C   UNL A   1      45.763  34.186  32.486  1.00  0.00     0.001 A 
ATOM     92  C   UNL A   1      46.017  35.212  31.579  1.00  0.00     0.000 A 
ENDBRANCH  74  87
ENDBRANCH  48  49
ENDBRANCH  41  43
ENDBRANCH  40  41
ENDBRANCH  39  40
ENDBRANCH  38  39
ENDBRANCH  37  38
ENDBRANCH  36  37
ENDBRANCH   1  36
TORSDOF 22
ENDMDL
MODEL 2
REMARK VINA RESULT:      -9.7      0.661      5.511
REMARK SMILES COc1ccccc1C(=O)N1[C@@H](C(=O)OCCOCCOCCOC(=O)c2ccc(-c3c4nc(c(-c5ccccc5)c5ccc([nH]5)c(-c5ccccc5)c5nc(c(-c6ccccc6)c6ccc3[nH]6)C=C5)C=C4)cc2)COC12CC[NH+](Cc1ccccc1)CC2
REMARK SMILES IDX 19 1 18 2 17 3 16 4 15 5 13 6 14 7 12 8 11 9 77 10 75 11
REMARK SMILES IDX 76 12 78 13 89 14 79 15 88 16 80 17 9 19 10 20 8 21 3 22
REMARK SMILES IDX 4 23 5 24 7 25 6 26 2 27 1 28 81 29 82 30 83 31 87 32 84 33
REMARK SMILES IDX 86 34 85 35 20 36 21 37 22 38 23 39 24 40 25 41 26 42 27 43
REMARK SMILES IDX 28 44 74 45 29 46 73 47 30 48 31 49 32 50 67 51 33 52 72 53
REMARK SMILES IDX 66 54 68 55 34 56 71 57 65 58 64 59 35 61 57 62 42 63 56 64
REMARK SMILES IDX 43 65 46 66 55 67 69 68 44 69 45 70 54 72 70 73 47 74 36 75
REMARK SMILES IDX 37 76 41 77 38 78 40 79 39 80 58 81 59 82 63 83 60 84 62 85
REMARK SMILES IDX 61 86 48 87 49 88 53 89 50 90 52 91 51 92
REMARK H PARENT 80 18 68 60 46 71
REMARK Flexibility Score: inf
ROOT
ATOM      1  C   UNL A   1      36.082  20.943  24.993  1.00  0.00     0.188 C 
ENDROOT
BRANCH   1   2
ATOM      2  O   UNL A   1      35.090  19.948  24.784  1.00  0.00    -0.376 OA
BRANCH   2   3
ATOM      3  C   UNL A   1      33.715  20.322  24.855  1.00  0.00     0.202 C 
BRANCH   3   4
ATOM      4  C   UNL A   1      33.055  20.862  23.584  1.00  0.00     0.261 C 
BRANCH   4   5
ATOM      5  O   UNL A   1      33.439  22.221  23.276  1.00  0.00    -0.462 OA
BRANCH   5   6
ATOM      6  C   UNL A   1      32.442  23.058  22.892  1.00  0.00     0.331 C 
ATOM      7  O   UNL A   1      31.269  22.707  22.771  1.00  0.00    -0.250 OA
BRANCH   6   8
ATOM      8  C   UNL A   1      32.904  24.472  22.530  1.00  0.00     0.224 C 
ATOM      9  N   UNL A   1      32.359  25.405  23.486  1.00  0.00    -0.293 N 
ATOM     10  C   UNL A   1      31.826  26.577  22.781  1.00  0.00     0.155 C 
ATOM     11  C   UNL A   1      32.572  25.068  21.181  1.00  0.00     0.200 C 
ATOM     12  O   UNL A   1      31.634  26.122  21.418  1.00  0.00    -0.352 OA
ATOM     13  C   UNL A   1      30.425  26.925  23.274  1.00  0.00     0.120 C 
ATOM     14  C   UNL A   1      32.787  27.781  22.726  1.00  0.00     0.120 C 
ATOM     15  C   UNL A   1      29.904  28.239  22.738  1.00  0.00     0.267 C 
ATOM     16  C   UNL A   1      32.106  29.109  22.375  1.00  0.00     0.267 C 
ATOM     17  N   UNL A   1      30.814  29.341  23.007  1.00  0.00    -0.331 N 
ATOM     18  H   UNL A   1      30.449  30.170  22.538  1.00  0.00     0.348 HD
BRANCH   9  19
ATOM     19  C   UNL A   1      33.033  25.481  24.696  1.00  0.00     0.260 C 
ATOM     20  O   UNL A   1      33.950  26.288  24.850  1.00  0.00    -0.269 OA
BRANCH  19  21
ATOM     21  C   UNL A   1      32.824  24.393  25.710  1.00  0.00     0.082 A 
ATOM     22  C   UNL A   1      31.593  23.856  26.109  1.00  0.00     0.131 A 
ATOM     23  C   UNL A   1      31.529  22.926  27.160  1.00  0.00     0.047 A 
ATOM     24  C   UNL A   1      32.691  22.472  27.775  1.00  0.00     0.004 A 
ATOM     25  C   UNL A   1      33.989  23.902  26.330  1.00  0.00     0.018 A 
ATOM     26  C   UNL A   1      33.925  22.946  27.348  1.00  0.00     0.001 A 
BRANCH  22  27
ATOM     27  O   UNL A   1      30.400  24.303  25.624  1.00  0.00    -0.496 OA
ATOM     28  C   UNL A   1      29.756  25.222  26.501  1.00  0.00     0.278 C 
ENDBRANCH  22  27
ENDBRANCH  19  21
ENDBRANCH   9  19
BRANCH  17  29
ATOM     29  C   UNL A   1      30.785  29.884  24.375  1.00  0.00     0.299 C 
BRANCH  29  30
ATOM     30  C   UNL A   1      31.791  29.403  25.403  1.00  0.00     0.006 A 
ATOM     31  C   UNL A   1      33.093  29.924  25.457  1.00  0.00     0.009 A 
ATOM     32  C   UNL A   1      31.449  28.389  26.313  1.00  0.00     0.009 A 
ATOM     33  C   UNL A   1      33.998  29.493  26.433  1.00  0.00     0.001 A 
ATOM     34  C   UNL A   1      32.339  27.985  27.310  1.00  0.00     0.001 A 
ATOM     35  C   UNL A   1      33.613  28.540  27.373  1.00  0.00     0.000 A 
ENDBRANCH  29  30
ENDBRANCH  17  29
ENDBRANCH   6   8
ENDBRANCH   5   6
ENDBRANCH   4   5
ENDBRANCH   3   4
ENDBRANCH   2   3
ENDBRANCH   1   2
BRANCH   1  36
ATOM     36  C   UNL A   1      37.547  20.498  25.038  1.00  0.00     0.188 C 
BRANCH  36  37
ATOM     37  O   UNL A   1      38.446  21.461  25.549  1.00  0.00    -0.376 OA
BRANCH  37  38
ATOM     38  C   UNL A   1      39.630  20.975  26.174  1.00  0.00     0.202 C 
BRANCH  38  39
ATOM     39  C   UNL A   1      40.101  19.573  25.751  1.00  0.00     0.261 C 
BRANCH  39  40
ATOM     40  O   UNL A   1      41.358  19.154  26.318  1.00  0.00    -0.460 OA
BRANCH  40  41
ATOM     41  C   UNL A   1      42.484  19.745  25.852  1.00  0.00     0.338 C 
ATOM     42  O   UNL A   1      43.240  19.316  24.998  1.00  0.00    -0.246 OA
BRANCH  41  43
ATOM     43  C   UNL A   1      42.471  21.149  26.337  1.00  0.00     0.060 A 
ATOM     44  C   UNL A   1      42.548  22.187  25.393  1.00  0.00     0.016 A 
ATOM     45  C   UNL A   1      42.279  21.442  27.689  1.00  0.00     0.016 A 
ATOM     46  C   UNL A   1      42.459  23.519  25.805  1.00  0.00     0.010 A 
ATOM     47  C   UNL A   1      42.220  22.774  28.104  1.00  0.00     0.010 A 
ATOM     48  C   UNL A   1      42.344  23.817  27.169  1.00  0.00    -0.014 A 
BRANCH  48  49
ATOM     49  C   UNL A   1      42.635  25.189  27.650  1.00  0.00     0.031 A 
ATOM     50  C   UNL A   1      44.082  25.560  27.838  1.00  0.00     0.074 A 
ATOM     51  C   UNL A   1      41.668  26.082  27.922  1.00  0.00     0.049 A 
ATOM     52  N   UNL A   1      44.605  26.663  28.305  1.00  0.00    -0.248 NA
ATOM     53  C   UNL A   1      45.071  24.542  27.444  1.00  0.00     0.031 C 
ATOM     54  C   UNL A   1      40.234  25.873  27.739  1.00  0.00     0.029 A 
ATOM     55  N   UNL A   1      41.763  27.357  28.426  1.00  0.00    -0.354 N 
ATOM     56  C   UNL A   1      45.980  26.466  28.268  1.00  0.00     0.074 A 
ATOM     57  C   UNL A   1      46.211  25.135  27.756  1.00  0.00     0.031 C 
ATOM     58  C   UNL A   1      39.580  26.981  28.138  1.00  0.00     0.029 A 
ATOM     59  C   UNL A   1      40.546  27.960  28.633  1.00  0.00     0.049 A 
ATOM     60  H   UNL A   1      42.622  27.797  28.619  1.00  0.00     0.167 HD
ATOM     61  C   UNL A   1      46.968  27.318  28.625  1.00  0.00     0.031 A 
ATOM     62  C   UNL A   1      40.252  29.155  29.181  1.00  0.00     0.031 A 
ATOM     63  C   UNL A   1      46.749  28.630  29.163  1.00  0.00     0.049 A 
ATOM     64  C   UNL A   1      41.368  30.052  29.658  1.00  0.00     0.074 A 
ATOM     65  C   UNL A   1      47.688  29.568  29.556  1.00  0.00     0.029 A 
ATOM     66  N   UNL A   1      45.501  29.186  29.392  1.00  0.00    -0.354 N 
ATOM     67  N   UNL A   1      42.664  29.866  29.598  1.00  0.00    -0.248 NA
ATOM     68  C   UNL A   1      40.974  31.327  30.277  1.00  0.00     0.031 C 
ATOM     69  C   UNL A   1      47.005  30.673  30.074  1.00  0.00     0.029 A 
ATOM     70  C   UNL A   1      45.643  30.445  29.947  1.00  0.00     0.049 A 
ATOM     71  H   UNL A   1      44.642  28.750  29.190  1.00  0.00     0.167 HD
ATOM     72  C   UNL A   1      43.239  31.010  30.140  1.00  0.00     0.074 A 
ATOM     73  C   UNL A   1      42.152  31.889  30.515  1.00  0.00     0.031 C 
ATOM     74  C   UNL A   1      44.551  31.308  30.310  1.00  0.00     0.031 A 
BRANCH  61  75
ATOM     75  C   UNL A   1      48.378  26.822  28.484  1.00  0.00    -0.014 A 
ATOM     76  C   UNL A   1      48.994  26.079  29.503  1.00  0.00     0.009 A 
ATOM     77  C   UNL A   1      49.098  27.102  27.313  1.00  0.00     0.009 A 
ATOM     78  C   UNL A   1      50.316  25.654  29.365  1.00  0.00     0.001 A 
ATOM     79  C   UNL A   1      50.411  26.652  27.166  1.00  0.00     0.001 A 
ATOM     80  C   UNL A   1      51.021  25.936  28.195  1.00  0.00     0.000 A 
ENDBRANCH  61  75
BRANCH  62  81
ATOM     81  C   UNL A   1      38.835  29.580  29.342  1.00  0.00    -0.014 A 
ATOM     82  C   UNL A   1      38.083  29.161  30.451  1.00  0.00     0.009 A 
ATOM     83  C   UNL A   1      38.215  30.372  28.364  1.00  0.00     0.009 A 
ATOM     84  C   UNL A   1      36.733  29.505  30.562  1.00  0.00     0.001 A 
ATOM     85  C   UNL A   1      36.873  30.738  28.492  1.00  0.00     0.001 A 
ATOM     86  C   UNL A   1      36.131  30.295  29.586  1.00  0.00     0.000 A 
ENDBRANCH  62  81
BRANCH  74  87
ATOM     87  C   UNL A   1      44.889  32.655  30.888  1.00  0.00    -0.014 A 
ATOM     88  C   UNL A   1      45.054  33.782  30.068  1.00  0.00     0.009 A 
ATOM     89  C   UNL A   1      44.987  32.805  32.281  1.00  0.00     0.009 A 
ATOM     90  C   UNL A   1      45.340  35.027  30.632  1.00  0.00     0.001 A 
ATOM     91  C   UNL A   1      45.245  34.056  32.842  1.00  0.00     0.001 A 
ATOM     92  C   UNL A   1      45.430  35.164  32.017  1.00  0.00     0.000 A 
ENDBRANCH  74  87
ENDBRANCH  48  49
ENDBRANCH  41  43
ENDBRANCH  40  41
ENDBRANCH  39  40
ENDBRANCH  38  39
ENDBRANCH  37  38
ENDBRANCH  36  37
ENDBRANCH   1  36
TORSDOF 22
ENDMDL
MODEL 3
REMARK VINA RESULT:      -9.1      3.974      6.179
REMARK SMILES COc1ccccc1C(=O)N1[C@@H](C(=O)OCCOCCOCCOC(=O)c2ccc(-c3c4nc(c(-c5ccccc5)c5ccc([nH]5)c(-c5ccccc5)c5nc(c(-c6ccccc6)c6ccc3[nH]6)C=C5)C=C4)cc2)COC12CC[NH+](Cc1ccccc1)CC2
REMARK SMILES IDX 19 1 18 2 17 3 16 4 15 5 13 6 14 7 12 8 11 9 77 10 75 11
REMARK SMILES IDX 76 12 78 13 89 14 79 15 88 16 80 17 9 19 10 20 8 21 3 22
REMARK SMILES IDX 4 23 5 24 7 25 6 26 2 27 1 28 81 29 82 30 83 31 87 32 84 33
REMARK SMILES IDX 86 34 85 35 20 36 21 37 22 38 23 39 24 40 25 41 26 42 27 43
REMARK SMILES IDX 28 44 74 45 29 46 73 47 30 48 31 49 32 50 67 51 33 52 72 53
REMARK SMILES IDX 66 54 68 55 34 56 71 57 65 58 64 59 35 61 57 62 42 63 56 64
REMARK SMILES IDX 43 65 46 66 55 67 69 68 44 69 45 70 54 72 70 73 47 74 36 75
REMARK SMILES IDX 37 76 41 77 38 78 40 79 39 80 58 81 59 82 63 83 60 84 62 85
REMARK SMILES IDX 61 86 48 87 49 88 53 89 50 90 52 91 51 92
REMARK H PARENT 80 18 68 60 46 71
REMARK Flexibility Score: inf
ROOT
ATOM      1  C   UNL A   1      40.324  20.463  26.225  1.00  0.00     0.188 C 
ENDROOT
BRANCH   1   2
ATOM      2  O   UNL A   1      39.732  21.692  25.827  1.00  0.00    -0.376 OA
BRANCH   2   3
ATOM      3  C   UNL A   1      39.379  22.643  26.830  1.00  0.00     0.202 C 
BRANCH   3   4
ATOM      4  C   UNL A   1      38.712  23.944  26.376  1.00  0.00     0.261 C 
BRANCH   4   5
ATOM      5  O   UNL A   1      37.269  23.894  26.431  1.00  0.00    -0.462 OA
BRANCH   5   6
ATOM      6  C   UNL A   1      36.648  23.217  25.431  1.00  0.00     0.331 C 
ATOM      7  O   UNL A   1      37.183  22.954  24.356  1.00  0.00    -0.250 OA
BRANCH   6   8
ATOM      8  C   UNL A   1      35.182  22.878  25.710  1.00  0.00     0.224 C 
ATOM      9  N   UNL A   1      34.348  23.588  24.770  1.00  0.00    -0.293 N 
ATOM     10  C   UNL A   1      33.208  24.185  25.477  1.00  0.00     0.155 C 
ATOM     11  C   UNL A   1      34.568  23.167  27.060  1.00  0.00     0.200 C 
ATOM     12  O   UNL A   1      33.624  24.224  26.864  1.00  0.00    -0.352 OA
ATOM     13  C   UNL A   1      33.023  25.647  25.085  1.00  0.00     0.120 C 
ATOM     14  C   UNL A   1      31.912  23.353  25.415  1.00  0.00     0.120 C 
ATOM     15  C   UNL A   1      31.748  26.260  25.618  1.00  0.00     0.267 C 
ATOM     16  C   UNL A   1      30.646  24.138  25.777  1.00  0.00     0.267 C 
ATOM     17  N   UNL A   1      30.572  25.492  25.242  1.00  0.00    -0.331 N 
ATOM     18  H   UNL A   1      29.766  25.905  25.711  1.00  0.00     0.348 HD
BRANCH   9  19
ATOM     19  C   UNL A   1      34.254  23.019  23.508  1.00  0.00     0.260 C 
ATOM     20  O   UNL A   1      34.596  23.655  22.510  1.00  0.00    -0.269 OA
BRANCH  19  21
ATOM     21  C   UNL A   1      33.479  21.744  23.345  1.00  0.00     0.082 A 
ATOM     22  C   UNL A   1      33.714  20.538  24.019  1.00  0.00     0.131 A 
ATOM     23  C   UNL A   1      32.992  19.381  23.681  1.00  0.00     0.047 A 
ATOM     24  C   UNL A   1      31.985  19.429  22.722  1.00  0.00     0.004 A 
ATOM     25  C   UNL A   1      32.441  21.776  22.394  1.00  0.00     0.018 A 
ATOM     26  C   UNL A   1      31.696  20.632  22.090  1.00  0.00     0.001 A 
BRANCH  22  27
ATOM     27  O   UNL A   1      34.734  20.376  24.909  1.00  0.00    -0.496 OA
ATOM     28  C   UNL A   1      35.343  19.092  24.825  1.00  0.00     0.278 C 
ENDBRANCH  22  27
ENDBRANCH  19  21
ENDBRANCH   9  19
BRANCH  17  29
ATOM     29  C   UNL A   1      30.090  25.680  23.863  1.00  0.00     0.299 C 
BRANCH  29  30
ATOM     30  C   UNL A   1      29.718  27.066  23.372  1.00  0.00     0.006 A 
ATOM     31  C   UNL A   1      30.675  27.932  22.820  1.00  0.00     0.009 A 
ATOM     32  C   UNL A   1      28.399  27.532  23.491  1.00  0.00     0.009 A 
ATOM     33  C   UNL A   1      30.309  29.194  22.342  1.00  0.00     0.001 A 
ATOM     34  C   UNL A   1      28.026  28.777  22.980  1.00  0.00     0.001 A 
ATOM     35  C   UNL A   1      28.980  29.607  22.401  1.00  0.00     0.000 A 
ENDBRANCH  29  30
ENDBRANCH  17  29
ENDBRANCH   6   8
ENDBRANCH   5   6
ENDBRANCH   4   5
ENDBRANCH   3   4
ENDBRANCH   2   3
ENDBRANCH   1   2
BRANCH   1  36
ATOM     36  C   UNL A   1      41.851  20.353  26.179  1.00  0.00     0.188 C 
BRANCH  36  37
ATOM     37  O   UNL A   1      42.517  21.500  25.692  1.00  0.00    -0.376 OA
BRANCH  37  38
ATOM     38  C   UNL A   1      43.554  22.041  26.504  1.00  0.00     0.202 C 
BRANCH  38  39
ATOM     39  C   UNL A   1      43.640  23.575  26.570  1.00  0.00     0.261 C 
BRANCH  39  40
ATOM     40  O   UNL A   1      42.389  24.266  26.379  1.00  0.00    -0.460 OA
BRANCH  40  41
ATOM     41  C   UNL A   1      42.438  25.531  25.899  1.00  0.00     0.338 C 
ATOM     42  O   UNL A   1      42.580  25.873  24.738  1.00  0.00    -0.246 OA
BRANCH  41  43
ATOM     43  C   UNL A   1      41.975  26.427  26.990  1.00  0.00     0.060 A 
ATOM     44  C   UNL A   1      42.468  27.742  27.036  1.00  0.00     0.016 A 
ATOM     45  C   UNL A   1      40.992  26.014  27.892  1.00  0.00     0.016 A 
ATOM     46  C   UNL A   1      41.997  28.636  28.000  1.00  0.00     0.010 A 
ATOM     47  C   UNL A   1      40.543  26.898  28.875  1.00  0.00     0.010 A 
ATOM     48  C   UNL A   1      41.068  28.201  28.954  1.00  0.00    -0.014 A 
BRANCH  48  49
ATOM     49  C   UNL A   1      40.855  28.993  30.189  1.00  0.00     0.031 A 
ATOM     50  C   UNL A   1      39.731  29.995  30.178  1.00  0.00     0.074 A 
ATOM     51  C   UNL A   1      41.621  28.849  31.284  1.00  0.00     0.049 A 
ATOM     52  N   UNL A   1      39.373  30.855  31.096  1.00  0.00    -0.248 NA
ATOM     53  C   UNL A   1      38.902  30.028  28.962  1.00  0.00     0.031 C 
ATOM     54  C   UNL A   1      42.707  27.886  31.448  1.00  0.00     0.029 A 
ATOM     55  N   UNL A   1      41.596  29.537  32.473  1.00  0.00    -0.354 N 
ATOM     56  C   UNL A   1      38.285  31.534  30.563  1.00  0.00     0.074 A 
ATOM     57  C   UNL A   1      38.054  31.005  29.238  1.00  0.00     0.031 C 
ATOM     58  C   UNL A   1      43.255  28.054  32.667  1.00  0.00     0.029 A 
ATOM     59  C   UNL A   1      42.580  29.155  33.352  1.00  0.00     0.049 A 
ATOM     60  H   UNL A   1      40.935  30.238  32.676  1.00  0.00     0.167 HD
ATOM     61  C   UNL A   1      37.537  32.511  31.125  1.00  0.00     0.031 A 
ATOM     62  C   UNL A   1      42.907  29.655  34.560  1.00  0.00     0.031 A 
ATOM     63  C   UNL A   1      37.776  33.063  32.427  1.00  0.00     0.049 A 
ATOM     64  C   UNL A   1      42.117  30.808  35.129  1.00  0.00     0.074 A 
ATOM     65  C   UNL A   1      37.074  34.059  33.083  1.00  0.00     0.029 A 
ATOM     66  N   UNL A   1      38.806  32.674  33.268  1.00  0.00    -0.354 N 
ATOM     67  N   UNL A   1      41.076  31.427  34.627  1.00  0.00    -0.248 NA
ATOM     68  C   UNL A   1      42.549  31.327  36.436  1.00  0.00     0.031 C 
ATOM     69  C   UNL A   1      37.712  34.308  34.303  1.00  0.00     0.029 A 
ATOM     70  C   UNL A   1      38.775  33.427  34.428  1.00  0.00     0.049 A 
ATOM     71  H   UNL A   1      39.462  31.967  33.070  1.00  0.00     0.167 HD
ATOM     72  C   UNL A   1      40.711  32.384  35.568  1.00  0.00     0.074 A 
ATOM     73  C   UNL A   1      41.635  32.258  36.675  1.00  0.00     0.031 C 
ATOM     74  C   UNL A   1      39.699  33.285  35.521  1.00  0.00     0.031 A 
BRANCH  61  75
ATOM     75  C   UNL A   1      36.416  33.071  30.298  1.00  0.00    -0.014 A 
ATOM     76  C   UNL A   1      36.667  33.942  29.227  1.00  0.00     0.009 A 
ATOM     77  C   UNL A   1      35.091  32.719  30.596  1.00  0.00     0.009 A 
ATOM     78  C   UNL A   1      35.609  34.476  28.490  1.00  0.00     0.001 A 
ATOM     79  C   UNL A   1      34.037  33.233  29.840  1.00  0.00     0.001 A 
ATOM     80  C   UNL A   1      34.296  34.117  28.794  1.00  0.00     0.000 A 
ENDBRANCH  61  75
BRANCH  62  81
ATOM     81  C   UNL A   1      44.058  29.095  35.319  1.00  0.00    -0.014 A 
ATOM     82  C   UNL A   1      43.867  28.065  36.253  1.00  0.00     0.009 A 
ATOM     83  C   UNL A   1      45.347  29.619  35.143  1.00  0.00     0.009 A 
ATOM     84  C   UNL A   1      44.940  27.590  37.013  1.00  0.00     0.001 A 
ATOM     85  C   UNL A   1      46.423  29.123  35.885  1.00  0.00     0.001 A 
ATOM     86  C   UNL A   1      46.216  28.117  36.826  1.00  0.00     0.000 A 
ENDBRANCH  62  81
BRANCH  74  87
ATOM     87  C   UNL A   1      39.508  34.178  36.716  1.00  0.00    -0.014 A 
ATOM     88  C   UNL A   1      38.828  33.734  37.860  1.00  0.00     0.009 A 
ATOM     89  C   UNL A   1      40.068  35.466  36.714  1.00  0.00     0.009 A 
ATOM     90  C   UNL A   1      38.688  34.574  38.967  1.00  0.00     0.001 A 
ATOM     91  C   UNL A   1      39.951  36.292  37.832  1.00  0.00     0.001 A 
ATOM     92  C   UNL A   1      39.253  35.849  38.954  1.00  0.00     0.000 A 
ENDBRANCH  74  87
ENDBRANCH  48  49
ENDBRANCH  41  43
ENDBRANCH  40  41
ENDBRANCH  39  40
ENDBRANCH  38  39
ENDBRANCH  37  38
ENDBRANCH  36  37
ENDBRANCH   1  36
TORSDOF 22
ENDMDL
