MODEL 1
REMARK VINA RESULT:     -10.4      0.000      0.000
REMARK SMILES C[C@@H]1[C@H](C(=O)OCCOCCOCCOC(=O)c2ccc(-c3c4nc(c(-c5ccccc5)c5ccc([nH]5)c(-c5ccccc5)c5nc(c(-c6ccccc6)c6ccc3[nH]6)C=C5)C=C4)cc2)CCN1S(=O)(=O)c1cc(F)cc(F)c1
REMARK SMILES IDX 10 1 9 2 8 3 7 4 6 5 4 6 5 7 3 8 1 9 2 10 68 11 66 12 67 13
REMARK SMILES IDX 69 14 70 15 71 16 72 17 73 18 79 19 74 20 77 21 75 22 76 23
REMARK SMILES IDX 78 24 11 25 12 26 13 27 14 28 15 29 16 30 17 31 18 32 19 33
REMARK SMILES IDX 65 34 20 35 64 36 21 37 22 38 23 39 58 40 24 41 63 42 57 43
REMARK SMILES IDX 59 44 25 45 62 46 56 47 55 48 26 50 48 51 33 52 47 53 34 54
REMARK SMILES IDX 37 55 46 56 60 57 35 58 36 59 45 61 61 62 38 63 27 64 28 65
REMARK SMILES IDX 32 66 29 67 31 68 30 69 49 70 50 71 54 72 51 73 53 74 52 75
REMARK SMILES IDX 39 76 40 77 44 78 41 79 43 80 42 81
REMARK H PARENT 59 49 37 60
REMARK Flexibility Score: inf
ROOT
ATOM      1  C   UNL A   1      34.285  33.375  28.133  1.00  0.00     0.188 C 
ENDROOT
BRANCH   1   2
ATOM      2  O   UNL A   1      33.863  32.031  28.272  1.00  0.00    -0.376 OA
BRANCH   2   3
ATOM      3  C   UNL A   1      34.643  31.033  27.609  1.00  0.00     0.202 C 
BRANCH   3   4
ATOM      4  C   UNL A   1      33.989  29.670  27.358  1.00  0.00     0.261 C 
BRANCH   4   5
ATOM      5  O   UNL A   1      34.393  29.168  26.068  1.00  0.00    -0.463 OA
BRANCH   5   6
ATOM      6  C   UNL A   1      33.398  28.932  25.182  1.00  0.00     0.310 C 
ATOM      7  O   UNL A   1      32.338  29.545  25.160  1.00  0.00    -0.252 OA
BRANCH   6   8
ATOM      8  C   UNL A   1      33.800  27.935  24.116  1.00  0.00     0.118 C 
ATOM      9  C   UNL A   1      32.593  25.978  25.301  1.00  0.00     0.027 C 
ATOM     10  C   UNL A   1      33.749  26.424  24.415  1.00  0.00     0.084 C 
ATOM     11  N   UNL A   1      33.742  25.804  23.039  1.00  0.00    -0.194 NA
ATOM     12  C   UNL A   1      32.901  28.060  22.901  1.00  0.00     0.034 C 
ATOM     13  C   UNL A   1      33.257  26.844  22.072  1.00  0.00     0.104 C 
BRANCH  11  14
ATOM     14  S   UNL A   1      33.178  24.248  22.658  1.00  0.00     0.243 S 
ATOM     15  O   UNL A   1      31.803  24.134  23.088  1.00  0.00    -0.207 OA
ATOM     16  O   UNL A   1      33.521  24.046  21.263  1.00  0.00    -0.207 OA
BRANCH  14  17
ATOM     17  C   UNL A   1      34.112  23.028  23.546  1.00  0.00     0.088 A 
ATOM     18  C   UNL A   1      33.393  22.217  24.441  1.00  0.00     0.061 A 
ATOM     19  C   UNL A   1      35.491  22.870  23.434  1.00  0.00     0.061 A 
ATOM     20  C   UNL A   1      34.063  21.281  25.220  1.00  0.00     0.127 A 
ATOM     21  C   UNL A   1      36.135  21.922  24.229  1.00  0.00     0.127 A 
ATOM     22  F   UNL A   1      33.372  20.531  26.087  1.00  0.00    -0.207 F 
ATOM     23  C   UNL A   1      35.436  21.126  25.126  1.00  0.00     0.078 A 
ATOM     24  F   UNL A   1      37.465  21.796  24.141  1.00  0.00    -0.207 F 
ENDBRANCH  14  17
ENDBRANCH  11  14
ENDBRANCH   6   8
ENDBRANCH   5   6
ENDBRANCH   4   5
ENDBRANCH   3   4
ENDBRANCH   2   3
ENDBRANCH   1   2
BRANCH   1  25
ATOM     25  C   UNL A   1      34.248  34.272  29.370  1.00  0.00     0.188 C 
BRANCH  25  26
ATOM     26  O   UNL A   1      33.894  33.765  30.636  1.00  0.00    -0.376 OA
BRANCH  26  27
ATOM     27  C   UNL A   1      34.523  34.202  31.838  1.00  0.00     0.202 C 
BRANCH  27  28
ATOM     28  C   UNL A   1      34.782  33.364  33.112  1.00  0.00     0.261 C 
BRANCH  28  29
ATOM     29  O   UNL A   1      35.543  32.168  32.994  1.00  0.00    -0.460 OA
BRANCH  29  30
ATOM     30  C   UNL A   1      36.741  32.164  33.630  1.00  0.00     0.338 C 
ATOM     31  O   UNL A   1      36.952  32.320  34.815  1.00  0.00    -0.246 OA
BRANCH  30  32
ATOM     32  C   UNL A   1      37.733  31.652  32.654  1.00  0.00     0.060 A 
ATOM     33  C   UNL A   1      38.787  30.866  33.141  1.00  0.00     0.016 A 
ATOM     34  C   UNL A   1      37.564  31.842  31.279  1.00  0.00     0.016 A 
ATOM     35  C   UNL A   1      39.692  30.286  32.254  1.00  0.00     0.010 A 
ATOM     36  C   UNL A   1      38.484  31.280  30.393  1.00  0.00     0.010 A 
ATOM     37  C   UNL A   1      39.566  30.524  30.879  1.00  0.00    -0.014 A 
BRANCH  37  38
ATOM     38  C   UNL A   1      40.683  30.186  29.968  1.00  0.00     0.031 A 
ATOM     39  C   UNL A   1      40.649  28.843  29.294  1.00  0.00     0.074 A 
ATOM     40  C   UNL A   1      41.697  31.037  29.735  1.00  0.00     0.049 A 
ATOM     41  N   UNL A   1      41.534  28.283  28.511  1.00  0.00    -0.248 NA
ATOM     42  C   UNL A   1      39.451  28.021  29.539  1.00  0.00     0.031 C 
ATOM     43  C   UNL A   1      41.821  32.388  30.280  1.00  0.00     0.029 A 
ATOM     44  N   UNL A   1      42.828  30.874  28.974  1.00  0.00    -0.354 N 
ATOM     45  C   UNL A   1      41.002  27.046  28.174  1.00  0.00     0.074 A 
ATOM     46  C   UNL A   1      39.733  26.923  28.856  1.00  0.00     0.031 C 
ATOM     47  C   UNL A   1      42.972  32.929  29.841  1.00  0.00     0.029 A 
ATOM     48  C   UNL A   1      43.679  31.951  29.016  1.00  0.00     0.049 A 
ATOM     49  H   UNL A   1      43.010  30.063  28.447  1.00  0.00     0.167 HD
ATOM     50  C   UNL A   1      41.518  26.094  27.363  1.00  0.00     0.031 A 
ATOM     51  C   UNL A   1      44.901  32.112  28.470  1.00  0.00     0.031 A 
ATOM     52  C   UNL A   1      42.791  26.198  26.706  1.00  0.00     0.049 A 
ATOM     53  C   UNL A   1      45.504  30.992  27.659  1.00  0.00     0.074 A 
ATOM     54  C   UNL A   1      43.408  25.281  25.874  1.00  0.00     0.029 A 
ATOM     55  N   UNL A   1      43.644  27.283  26.815  1.00  0.00    -0.354 N 
ATOM     56  N   UNL A   1      44.989  29.830  27.337  1.00  0.00    -0.248 NA
ATOM     57  C   UNL A   1      46.862  31.211  27.137  1.00  0.00     0.031 C 
ATOM     58  C   UNL A   1      44.660  25.793  25.518  1.00  0.00     0.029 A 
ATOM     59  C   UNL A   1      44.795  27.051  26.083  1.00  0.00     0.049 A 
ATOM     60  H   UNL A   1      43.460  28.099  27.334  1.00  0.00     0.167 HD
ATOM     61  C   UNL A   1      45.943  29.197  26.549  1.00  0.00     0.074 A 
ATOM     62  C   UNL A   1      47.063  30.107  26.432  1.00  0.00     0.031 C 
ATOM     63  C   UNL A   1      45.896  27.972  25.969  1.00  0.00     0.031 A 
BRANCH  50  64
ATOM     64  C   UNL A   1      40.713  24.842  27.179  1.00  0.00    -0.014 A 
ATOM     65  C   UNL A   1      39.497  24.858  26.477  1.00  0.00     0.009 A 
ATOM     66  C   UNL A   1      41.182  23.629  27.704  1.00  0.00     0.009 A 
ATOM     67  C   UNL A   1      38.753  23.686  26.330  1.00  0.00     0.001 A 
ATOM     68  C   UNL A   1      40.449  22.454  27.532  1.00  0.00     0.001 A 
ATOM     69  C   UNL A   1      39.231  22.485  26.852  1.00  0.00     0.000 A 
ENDBRANCH  50  64
BRANCH  51  70
ATOM     70  C   UNL A   1      45.664  33.371  28.685  1.00  0.00    -0.014 A 
ATOM     71  C   UNL A   1      45.568  34.430  27.770  1.00  0.00     0.009 A 
ATOM     72  C   UNL A   1      46.535  33.496  29.779  1.00  0.00     0.009 A 
ATOM     73  C   UNL A   1      46.350  35.577  27.929  1.00  0.00     0.001 A 
ATOM     74  C   UNL A   1      47.294  34.657  29.950  1.00  0.00     0.001 A 
ATOM     75  C   UNL A   1      47.210  35.691  29.021  1.00  0.00     0.000 A 
ENDBRANCH  51  70
BRANCH  63  76
ATOM     76  C   UNL A   1      47.064  27.562  25.118  1.00  0.00    -0.014 A 
ATOM     77  C   UNL A   1      48.101  26.768  25.631  1.00  0.00     0.009 A 
ATOM     78  C   UNL A   1      47.097  27.933  23.764  1.00  0.00     0.009 A 
ATOM     79  C   UNL A   1      49.163  26.381  24.811  1.00  0.00     0.001 A 
ATOM     80  C   UNL A   1      48.145  27.520  22.941  1.00  0.00     0.001 A 
ATOM     81  C   UNL A   1      49.181  26.752  23.467  1.00  0.00     0.000 A 
ENDBRANCH  63  76
ENDBRANCH  37  38
ENDBRANCH  30  32
ENDBRANCH  29  30
ENDBRANCH  28  29
ENDBRANCH  27  28
ENDBRANCH  26  27
ENDBRANCH  25  26
ENDBRANCH   1  25
TORSDOF 19
ENDMDL
MODEL 2
REMARK VINA RESULT:     -10.1      0.893      5.832
REMARK SMILES C[C@@H]1[C@H](C(=O)OCCOCCOCCOC(=O)c2ccc(-c3c4nc(c(-c5ccccc5)c5ccc([nH]5)c(-c5ccccc5)c5nc(c(-c6ccccc6)c6ccc3[nH]6)C=C5)C=C4)cc2)CCN1S(=O)(=O)c1cc(F)cc(F)c1
REMARK SMILES IDX 10 1 9 2 8 3 7 4 6 5 4 6 5 7 3 8 1 9 2 10 68 11 66 12 67 13
REMARK SMILES IDX 69 14 70 15 71 16 72 17 73 18 79 19 74 20 77 21 75 22 76 23
REMARK SMILES IDX 78 24 11 25 12 26 13 27 14 28 15 29 16 30 17 31 18 32 19 33
REMARK SMILES IDX 65 34 20 35 64 36 21 37 22 38 23 39 58 40 24 41 63 42 57 43
REMARK SMILES IDX 59 44 25 45 62 46 56 47 55 48 26 50 48 51 33 52 47 53 34 54
REMARK SMILES IDX 37 55 46 56 60 57 35 58 36 59 45 61 61 62 38 63 27 64 28 65
REMARK SMILES IDX 32 66 29 67 31 68 30 69 49 70 50 71 54 72 51 73 53 74 52 75
REMARK SMILES IDX 39 76 40 77 44 78 41 79 43 80 42 81
REMARK H PARENT 59 49 37 60
REMARK Flexibility Score: inf
ROOT
ATOM      1  C   UNL A   1      34.248  32.369  28.747  1.00  0.00     0.188 C 
ENDROOT
BRANCH   1   2
ATOM      2  O   UNL A   1      33.876  31.914  27.460  1.00  0.00    -0.376 OA
BRANCH   2   3
ATOM      3  C   UNL A   1      32.493  31.616  27.250  1.00  0.00     0.202 C 
BRANCH   3   4
ATOM      4  C   UNL A   1      32.133  30.199  26.791  1.00  0.00     0.261 C 
BRANCH   4   5
ATOM      5  O   UNL A   1      32.861  29.879  25.588  1.00  0.00    -0.463 OA
BRANCH   5   6
ATOM      6  C   UNL A   1      33.900  29.024  25.729  1.00  0.00     0.310 C 
ATOM      7  O   UNL A   1      34.529  28.873  26.770  1.00  0.00    -0.252 OA
BRANCH   6   8
ATOM      8  C   UNL A   1      34.098  28.151  24.508  1.00  0.00     0.118 C 
ATOM      9  C   UNL A   1      32.435  26.358  25.354  1.00  0.00     0.027 C 
ATOM     10  C   UNL A   1      33.692  26.664  24.549  1.00  0.00     0.084 C 
ATOM     11  N   UNL A   1      33.589  26.299  23.088  1.00  0.00    -0.194 NA
ATOM     12  C   UNL A   1      33.293  28.679  23.336  1.00  0.00     0.034 C 
ATOM     13  C   UNL A   1      33.388  27.568  22.312  1.00  0.00     0.104 C 
BRANCH  11  14
ATOM     14  S   UNL A   1      32.697  25.001  22.454  1.00  0.00     0.243 S 
ATOM     15  O   UNL A   1      31.288  25.299  22.580  1.00  0.00    -0.207 OA
ATOM     16  O   UNL A   1      33.269  24.744  21.146  1.00  0.00    -0.207 OA
BRANCH  14  17
ATOM     17  C   UNL A   1      33.010  23.529  23.395  1.00  0.00     0.088 A 
ATOM     18  C   UNL A   1      31.932  23.016  24.134  1.00  0.00     0.061 A 
ATOM     19  C   UNL A   1      34.251  22.902  23.469  1.00  0.00     0.061 A 
ATOM     20  C   UNL A   1      32.114  21.903  24.946  1.00  0.00     0.127 A 
ATOM     21  C   UNL A   1      34.404  21.787  24.292  1.00  0.00     0.127 A 
ATOM     22  F   UNL A   1      31.085  21.436  25.665  1.00  0.00    -0.207 F 
ATOM     23  C   UNL A   1      33.348  21.280  25.037  1.00  0.00     0.078 A 
ATOM     24  F   UNL A   1      35.608  21.207  24.385  1.00  0.00    -0.207 F 
ENDBRANCH  14  17
ENDBRANCH  11  14
ENDBRANCH   6   8
ENDBRANCH   5   6
ENDBRANCH   4   5
ENDBRANCH   3   4
ENDBRANCH   2   3
ENDBRANCH   1   2
BRANCH   1  25
ATOM     25  C   UNL A   1      34.118  33.863  29.047  1.00  0.00     0.188 C 
BRANCH  25  26
ATOM     26  O   UNL A   1      33.325  34.333  30.112  1.00  0.00    -0.376 OA
BRANCH  26  27
ATOM     27  C   UNL A   1      33.881  34.992  31.247  1.00  0.00     0.202 C 
BRANCH  27  28
ATOM     28  C   UNL A   1      34.934  34.428  32.229  1.00  0.00     0.261 C 
BRANCH  28  29
ATOM     29  O   UNL A   1      35.180  33.026  32.228  1.00  0.00    -0.460 OA
BRANCH  29  30
ATOM     30  C   UNL A   1      36.152  32.595  33.070  1.00  0.00     0.338 C 
ATOM     31  O   UNL A   1      36.131  32.586  34.283  1.00  0.00    -0.246 OA
BRANCH  30  32
ATOM     32  C   UNL A   1      37.143  31.875  32.235  1.00  0.00     0.060 A 
ATOM     33  C   UNL A   1      38.116  31.106  32.889  1.00  0.00     0.016 A 
ATOM     34  C   UNL A   1      37.045  31.861  30.840  1.00  0.00     0.016 A 
ATOM     35  C   UNL A   1      39.011  30.337  32.147  1.00  0.00     0.010 A 
ATOM     36  C   UNL A   1      37.956  31.110  30.097  1.00  0.00     0.010 A 
ATOM     37  C   UNL A   1      38.959  30.367  30.748  1.00  0.00    -0.014 A 
BRANCH  37  38
ATOM     38  C   UNL A   1      40.084  29.820  29.957  1.00  0.00     0.031 A 
ATOM     39  C   UNL A   1      41.289  30.697  29.762  1.00  0.00     0.074 A 
ATOM     40  C   UNL A   1      40.051  28.585  29.427  1.00  0.00     0.049 A 
ATOM     41  N   UNL A   1      42.369  30.482  29.057  1.00  0.00    -0.248 NA
ATOM     42  C   UNL A   1      41.269  31.995  30.460  1.00  0.00     0.031 C 
ATOM     43  C   UNL A   1      38.969  27.615  29.588  1.00  0.00     0.029 A 
ATOM     44  N   UNL A   1      40.966  27.941  28.632  1.00  0.00    -0.354 N 
ATOM     45  C   UNL A   1      43.153  31.615  29.225  1.00  0.00     0.074 A 
ATOM     46  C   UNL A   1      42.417  32.527  30.072  1.00  0.00     0.031 C 
ATOM     47  C   UNL A   1      39.280  26.500  28.903  1.00  0.00     0.029 A 
ATOM     48  C   UNL A   1      40.563  26.692  28.229  1.00  0.00     0.049 A 
ATOM     49  H   UNL A   1      41.830  28.338  28.376  1.00  0.00     0.167 HD
ATOM     50  C   UNL A   1      44.382  31.876  28.723  1.00  0.00     0.031 A 
ATOM     51  C   UNL A   1      41.156  25.819  27.390  1.00  0.00     0.031 A 
ATOM     52  C   UNL A   1      45.106  30.987  27.858  1.00  0.00     0.049 A 
ATOM     53  C   UNL A   1      42.475  26.179  26.755  1.00  0.00     0.074 A 
ATOM     54  C   UNL A   1      46.353  31.167  27.286  1.00  0.00     0.029 A 
ATOM     55  N   UNL A   1      44.641  29.754  27.433  1.00  0.00    -0.354 N 
ATOM     56  N   UNL A   1      43.215  27.248  26.927  1.00  0.00    -0.248 NA
ATOM     57  C   UNL A   1      43.041  25.205  25.808  1.00  0.00     0.031 C 
ATOM     58  C   UNL A   1      46.621  30.060  26.474  1.00  0.00     0.029 A 
ATOM     59  C   UNL A   1      45.566  29.168  26.587  1.00  0.00     0.049 A 
ATOM     60  H   UNL A   1      43.781  29.352  27.694  1.00  0.00     0.167 HD
ATOM     61  C   UNL A   1      44.344  27.060  26.139  1.00  0.00     0.074 A 
ATOM     62  C   UNL A   1      44.199  25.771  25.497  1.00  0.00     0.031 C 
ATOM     63  C   UNL A   1      45.410  27.880  25.965  1.00  0.00     0.031 A 
BRANCH  50  64
ATOM     64  C   UNL A   1      44.997  33.198  29.074  1.00  0.00    -0.014 A 
ATOM     65  C   UNL A   1      44.708  34.353  28.331  1.00  0.00     0.009 A 
ATOM     66  C   UNL A   1      45.868  33.293  30.170  1.00  0.00     0.009 A 
ATOM     67  C   UNL A   1      45.303  35.572  28.662  1.00  0.00     0.001 A 
ATOM     68  C   UNL A   1      46.440  34.517  30.515  1.00  0.00     0.001 A 
ATOM     69  C   UNL A   1      46.163  35.655  29.756  1.00  0.00     0.000 A 
ENDBRANCH  50  64
BRANCH  51  70
ATOM     70  C   UNL A   1      40.504  24.521  27.067  1.00  0.00    -0.014 A 
ATOM     71  C   UNL A   1      39.300  24.485  26.346  1.00  0.00     0.009 A 
ATOM     72  C   UNL A   1      41.054  23.315  27.528  1.00  0.00     0.009 A 
ATOM     73  C   UNL A   1      38.647  23.272  26.118  1.00  0.00     0.001 A 
ATOM     74  C   UNL A   1      40.413  22.100  27.273  1.00  0.00     0.001 A 
ATOM     75  C   UNL A   1      39.205  22.080  26.579  1.00  0.00     0.000 A 
ENDBRANCH  51  70
BRANCH  63  76
ATOM     76  C   UNL A   1      46.525  27.391  25.084  1.00  0.00    -0.014 A 
ATOM     77  C   UNL A   1      46.764  27.957  23.823  1.00  0.00     0.009 A 
ATOM     78  C   UNL A   1      47.383  26.382  25.550  1.00  0.00     0.009 A 
ATOM     79  C   UNL A   1      47.822  27.500  23.034  1.00  0.00     0.001 A 
ATOM     80  C   UNL A   1      48.456  25.947  24.773  1.00  0.00     0.001 A 
ATOM     81  C   UNL A   1      48.669  26.500  23.511  1.00  0.00     0.000 A 
ENDBRANCH  63  76
ENDBRANCH  37  38
ENDBRANCH  30  32
ENDBRANCH  29  30
ENDBRANCH  28  29
ENDBRANCH  27  28
ENDBRANCH  26  27
ENDBRANCH  25  26
ENDBRANCH   1  25
TORSDOF 19
ENDMDL
MODEL 3
REMARK VINA RESULT:      -9.8      4.278      8.004
REMARK SMILES C[C@@H]1[C@H](C(=O)OCCOCCOCCOC(=O)c2ccc(-c3c4nc(c(-c5ccccc5)c5ccc([nH]5)c(-c5ccccc5)c5nc(c(-c6ccccc6)c6ccc3[nH]6)C=C5)C=C4)cc2)CCN1S(=O)(=O)c1cc(F)cc(F)c1
REMARK SMILES IDX 10 1 9 2 8 3 7 4 6 5 4 6 5 7 3 8 1 9 2 10 68 11 66 12 67 13
REMARK SMILES IDX 69 14 70 15 71 16 72 17 73 18 79 19 74 20 77 21 75 22 76 23
REMARK SMILES IDX 78 24 11 25 12 26 13 27 14 28 15 29 16 30 17 31 18 32 19 33
REMARK SMILES IDX 65 34 20 35 64 36 21 37 22 38 23 39 58 40 24 41 63 42 57 43
REMARK SMILES IDX 59 44 25 45 62 46 56 47 55 48 26 50 48 51 33 52 47 53 34 54
REMARK SMILES IDX 37 55 46 56 60 57 35 58 36 59 45 61 61 62 38 63 27 64 28 65
REMARK SMILES IDX 32 66 29 67 31 68 30 69 49 70 50 71 54 72 51 73 53 74 52 75
REMARK SMILES IDX 39 76 40 77 44 78 41 79 43 80 42 81
REMARK H PARENT 59 49 37 60
REMARK Flexibility Score: inf
ROOT
ATOM      1  C   UNL A   1      34.785  33.029  28.967  1.00  0.00     0.188 C 
ENDROOT
BRANCH   1   2
ATOM      2  O   UNL A   1      34.899  31.867  28.167  1.00  0.00    -0.376 OA
BRANCH   2   3
ATOM      3  C   UNL A   1      33.685  31.301  27.665  1.00  0.00     0.202 C 
BRANCH   3   4
ATOM      4  C   UNL A   1      33.684  29.807  27.328  1.00  0.00     0.261 C 
BRANCH   4   5
ATOM      5  O   UNL A   1      32.348  29.388  26.984  1.00  0.00    -0.463 OA
BRANCH   5   6
ATOM      6  C   UNL A   1      31.987  29.548  25.690  1.00  0.00     0.310 C 
ATOM      7  O   UNL A   1      31.196  30.398  25.298  1.00  0.00    -0.252 OA
BRANCH   6   8
ATOM      8  C   UNL A   1      32.790  28.670  24.754  1.00  0.00     0.118 C 
ATOM      9  C   UNL A   1      31.082  26.731  24.893  1.00  0.00     0.027 C 
ATOM     10  C   UNL A   1      32.536  27.149  24.716  1.00  0.00     0.084 C 
ATOM     11  N   UNL A   1      33.136  26.736  23.395  1.00  0.00    -0.194 NA
ATOM     12  C   UNL A   1      32.561  29.076  23.311  1.00  0.00     0.034 C 
ATOM     13  C   UNL A   1      33.202  27.955  22.521  1.00  0.00     0.104 C 
BRANCH  11  14
ATOM     14  S   UNL A   1      32.741  25.333  22.525  1.00  0.00     0.243 S 
ATOM     15  O   UNL A   1      31.313  25.310  22.303  1.00  0.00    -0.207 OA
ATOM     16  O   UNL A   1      33.651  25.312  21.395  1.00  0.00    -0.207 OA
BRANCH  14  17
ATOM     17  C   UNL A   1      33.150  23.891  23.476  1.00  0.00     0.088 A 
ATOM     18  C   UNL A   1      34.490  23.471  23.432  1.00  0.00     0.061 A 
ATOM     19  C   UNL A   1      32.223  23.152  24.206  1.00  0.00     0.061 A 
ATOM     20  C   UNL A   1      34.876  22.314  24.099  1.00  0.00     0.127 A 
ATOM     21  C   UNL A   1      32.640  21.995  24.865  1.00  0.00     0.127 A 
ATOM     22  F   UNL A   1      36.151  21.909  24.031  1.00  0.00    -0.207 F 
ATOM     23  C   UNL A   1      33.959  21.564  24.817  1.00  0.00     0.078 A 
ATOM     24  F   UNL A   1      31.739  21.271  25.539  1.00  0.00    -0.207 F 
ENDBRANCH  14  17
ENDBRANCH  11  14
ENDBRANCH   6   8
ENDBRANCH   5   6
ENDBRANCH   4   5
ENDBRANCH   3   4
ENDBRANCH   2   3
ENDBRANCH   1   2
BRANCH   1  25
ATOM     25  C   UNL A   1      35.314  34.347  28.402  1.00  0.00     0.188 C 
BRANCH  25  26
ATOM     26  O   UNL A   1      34.496  35.491  28.313  1.00  0.00    -0.376 OA
BRANCH  26  27
ATOM     27  C   UNL A   1      33.243  35.589  28.984  1.00  0.00     0.202 C 
BRANCH  27  28
ATOM     28  C   UNL A   1      32.828  36.649  30.031  1.00  0.00     0.261 C 
BRANCH  28  29
ATOM     29  O   UNL A   1      33.403  36.580  31.330  1.00  0.00    -0.460 OA
BRANCH  29  30
ATOM     30  C   UNL A   1      32.966  35.566  32.118  1.00  0.00     0.338 C 
ATOM     31  O   UNL A   1      31.821  35.201  32.290  1.00  0.00    -0.246 OA
BRANCH  30  32
ATOM     32  C   UNL A   1      34.169  34.797  32.519  1.00  0.00     0.060 A 
ATOM     33  C   UNL A   1      35.425  35.346  32.224  1.00  0.00     0.016 A 
ATOM     34  C   UNL A   1      34.065  33.624  33.271  1.00  0.00     0.016 A 
ATOM     35  C   UNL A   1      36.585  34.708  32.662  1.00  0.00     0.010 A 
ATOM     36  C   UNL A   1      35.226  32.973  33.689  1.00  0.00     0.010 A 
ATOM     37  C   UNL A   1      36.490  33.498  33.362  1.00  0.00    -0.014 A 
BRANCH  37  38
ATOM     38  C   UNL A   1      37.695  32.660  33.550  1.00  0.00     0.031 A 
ATOM     39  C   UNL A   1      38.505  32.876  34.797  1.00  0.00     0.074 A 
ATOM     40  C   UNL A   1      38.066  31.730  32.653  1.00  0.00     0.049 A 
ATOM     41  N   UNL A   1      39.633  32.325  35.163  1.00  0.00    -0.248 NA
ATOM     42  C   UNL A   1      37.966  33.850  35.763  1.00  0.00     0.031 C 
ATOM     43  C   UNL A   1      37.339  31.383  31.433  1.00  0.00     0.029 A 
ATOM     44  N   UNL A   1      39.166  30.910  32.637  1.00  0.00    -0.354 N 
ATOM     45  C   UNL A   1      39.938  32.886  36.396  1.00  0.00     0.074 A 
ATOM     46  C   UNL A   1      38.896  33.839  36.705  1.00  0.00     0.031 C 
ATOM     47  C   UNL A   1      38.020  30.423  30.781  1.00  0.00     0.029 A 
ATOM     48  C   UNL A   1      39.245  30.117  31.518  1.00  0.00     0.049 A 
ATOM     49  H   UNL A   1      39.834  30.891  33.359  1.00  0.00     0.167 HD
ATOM     50  C   UNL A   1      40.991  32.629  37.205  1.00  0.00     0.031 A 
ATOM     51  C   UNL A   1      40.212  29.264  31.127  1.00  0.00     0.031 A 
ATOM     52  C   UNL A   1      42.044  31.705  36.891  1.00  0.00     0.049 A 
ATOM     53  C   UNL A   1      41.431  29.075  31.995  1.00  0.00     0.074 A 
ATOM     54  C   UNL A   1      43.161  31.384  37.641  1.00  0.00     0.029 A 
ATOM     55  N   UNL A   1      42.113  30.959  35.725  1.00  0.00    -0.354 N 
ATOM     56  N   UNL A   1      41.706  29.602  33.165  1.00  0.00    -0.248 NA
ATOM     57  C   UNL A   1      42.473  28.171  31.485  1.00  0.00     0.031 C 
ATOM     58  C   UNL A   1      43.933  30.479  36.905  1.00  0.00     0.029 A 
ATOM     59  C   UNL A   1      43.266  30.195  35.724  1.00  0.00     0.049 A 
ATOM     60  H   UNL A   1      41.441  30.971  35.006  1.00  0.00     0.167 HD
ATOM     61  C   UNL A   1      42.932  29.067  33.543  1.00  0.00     0.074 A 
ATOM     62  C   UNL A   1      43.343  28.168  32.485  1.00  0.00     0.031 C 
ATOM     63  C   UNL A   1      43.654  29.298  34.668  1.00  0.00     0.031 A 
BRANCH  50  64
ATOM     64  C   UNL A   1      41.065  33.393  38.494  1.00  0.00    -0.014 A 
ATOM     65  C   UNL A   1      41.531  34.717  38.526  1.00  0.00     0.009 A 
ATOM     66  C   UNL A   1      40.651  32.786  39.689  1.00  0.00     0.009 A 
ATOM     67  C   UNL A   1      41.609  35.407  39.737  1.00  0.00     0.001 A 
ATOM     68  C   UNL A   1      40.705  33.488  40.894  1.00  0.00     0.001 A 
ATOM     69  C   UNL A   1      41.191  34.795  40.918  1.00  0.00     0.000 A 
ENDBRANCH  50  64
BRANCH  51  70
ATOM     70  C   UNL A   1      40.097  28.531  29.837  1.00  0.00    -0.014 A 
ATOM     71  C   UNL A   1      39.499  27.263  29.787  1.00  0.00     0.009 A 
ATOM     72  C   UNL A   1      40.634  29.075  28.660  1.00  0.00     0.009 A 
ATOM     73  C   UNL A   1      39.467  26.542  28.590  1.00  0.00     0.001 A 
ATOM     74  C   UNL A   1      40.575  28.364  27.459  1.00  0.00     0.001 A 
ATOM     75  C   UNL A   1      40.003  27.094  27.427  1.00  0.00     0.000 A 
ENDBRANCH  51  70
BRANCH  63  76
ATOM     76  C   UNL A   1      44.936  28.532  34.838  1.00  0.00    -0.014 A 
ATOM     77  C   UNL A   1      44.957  27.266  35.443  1.00  0.00     0.009 A 
ATOM     78  C   UNL A   1      46.132  29.066  34.335  1.00  0.00     0.009 A 
ATOM     79  C   UNL A   1      46.158  26.564  35.567  1.00  0.00     0.001 A 
ATOM     80  C   UNL A   1      47.326  28.350  34.435  1.00  0.00     0.001 A 
ATOM     81  C   UNL A   1      47.339  27.104  35.059  1.00  0.00     0.000 A 
ENDBRANCH  63  76
ENDBRANCH  37  38
ENDBRANCH  30  32
ENDBRANCH  29  30
ENDBRANCH  28  29
ENDBRANCH  27  28
ENDBRANCH  26  27
ENDBRANCH  25  26
ENDBRANCH   1  25
TORSDOF 19
ENDMDL
