MODEL 1
REMARK VINA RESULT:     -11.1      0.000      0.000
REMARK SMILES Cc1ccc(NC(=O)c2cnn3c2NC2=C(C(=O)CCC2)[C@H]3c2ccc(C(=O)OCCOCCOCCOC(=O)c3ccc(-c4c5nc(c(-c6ccccc6)c6ccc([nH]6)c(-c6ccccc6)c6nc(c(-c7ccccc7)c7ccc4[nH]7)C=C6)C=C5)cc3)cc2)cc1
REMARK SMILES IDX 33 1 32 2 31 3 30 4 29 5 27 6 28 7 26 8 23 9 24 10 90 11
REMARK SMILES IDX 25 12 89 13 22 14 9 15 10 16 13 17 11 18 12 19 14 20 15 21
REMARK SMILES IDX 16 23 21 24 17 25 20 26 18 27 19 28 7 29 6 30 8 32 5 33 1 34
REMARK SMILES IDX 2 35 3 36 92 37 4 38 91 39 34 40 35 41 36 42 37 43 38 44
REMARK SMILES IDX 39 45 40 46 41 47 42 48 88 49 43 50 87 51 44 52 45 53 46 54
REMARK SMILES IDX 81 55 47 56 86 57 80 58 82 59 48 60 85 61 79 62 78 63 49 65
REMARK SMILES IDX 71 66 56 67 70 68 57 69 60 70 69 71 83 72 58 73 59 74 68 76
REMARK SMILES IDX 84 77 61 78 50 79 51 80 55 81 52 82 54 83 53 84 72 85 73 86
REMARK SMILES IDX 77 87 74 88 76 89 75 90 62 91 63 92 67 93 64 94 66 95 65 96
REMARK H PARENT 14 22 6 31 82 64 60 75
REMARK Flexibility Score: inf
ROOT
ATOM      1  C   UNL A   1      43.203  21.828  26.957  1.00  0.00     0.188 C 
ENDROOT
BRANCH   1   2
ATOM      2  O   UNL A   1      42.731  20.480  26.721  1.00  0.00    -0.376 OA
BRANCH   2   3
ATOM      3  C   UNL A   1      41.391  20.252  27.197  1.00  0.00     0.202 C 
BRANCH   3   4
ATOM      4  C   UNL A   1      40.173  20.500  26.206  1.00  0.00     0.261 C 
BRANCH   4   5
ATOM      5  O   UNL A   1      38.913  21.303  26.449  1.00  0.00    -0.460 OA
BRANCH   5   6
ATOM      6  C   UNL A   1      37.885  21.265  25.561  1.00  0.00     0.338 C 
ATOM      7  O   UNL A   1      37.508  20.173  25.171  1.00  0.00    -0.246 OA
BRANCH   6   8
ATOM      8  C   UNL A   1      37.273  22.560  24.886  1.00  0.00     0.060 A 
ATOM      9  C   UNL A   1      34.931  24.137  23.838  1.00  0.00    -0.019 A 
ATOM     10  C   UNL A   1      35.511  23.092  23.149  1.00  0.00     0.007 A 
ATOM     11  C   UNL A   1      35.516  24.344  25.114  1.00  0.00     0.007 A 
ATOM     12  C   UNL A   1      36.686  22.445  23.609  1.00  0.00     0.016 A 
ATOM     13  C   UNL A   1      36.636  23.552  25.637  1.00  0.00     0.016 A 
BRANCH   9  14
ATOM     14  C   UNL A   1      33.940  25.133  23.085  1.00  0.00     0.175 C 
ATOM     15  C   UNL A   1      31.375  23.999  25.142  1.00  0.00     0.102 A 
ATOM     16  C   UNL A   1      30.884  23.655  23.844  1.00  0.00     0.151 A 
ATOM     17  C   UNL A   1      32.253  25.026  24.879  1.00  0.00     0.142 A 
ATOM     18  N   UNL A   1      31.668  24.116  22.861  1.00  0.00    -0.178 NA
ATOM     19  N   UNL A   1      32.605  24.763  23.564  1.00  0.00    -0.237 N 
ATOM     20  N   UNL A   1      32.931  26.025  25.528  1.00  0.00    -0.343 N 
ATOM     21  C   UNL A   1      33.657  26.962  24.769  1.00  0.00     0.026 C 
ATOM     22  H   UNL A   1      32.911  26.087  26.511  1.00  0.00     0.168 HD
ATOM     23  C   UNL A   1      33.986  26.622  23.493  1.00  0.00     0.044 C 
ATOM     24  C   UNL A   1      33.764  28.398  25.212  1.00  0.00     0.055 C 
ATOM     25  C   UNL A   1      33.357  27.625  22.556  1.00  0.00     0.163 C 
ATOM     26  C   UNL A   1      32.836  29.291  24.392  1.00  0.00     0.014 C 
ATOM     27  O   UNL A   1      33.565  27.569  21.346  1.00  0.00    -0.294 OA
ATOM     28  C   UNL A   1      32.300  28.570  23.158  1.00  0.00     0.081 C 
BRANCH  15  29
ATOM     29  C   UNL A   1      31.071  23.389  26.411  1.00  0.00     0.261 C 
ATOM     30  N   UNL A   1      31.391  22.051  26.599  1.00  0.00    -0.322 N 
ATOM     31  H   UNL A   1      30.921  21.629  27.355  1.00  0.00     0.170 HD
ATOM     32  O   UNL A   1      30.527  24.016  27.319  1.00  0.00    -0.269 OA
BRANCH  30  33
ATOM     33  C   UNL A   1      32.268  21.176  25.906  1.00  0.00     0.041 A 
ATOM     34  C   UNL A   1      34.997  18.426  23.944  1.00  0.00     0.044 C 
ATOM     35  C   UNL A   1      34.082  19.402  24.622  1.00  0.00    -0.051 A 
ATOM     36  C   UNL A   1      32.783  19.548  24.157  1.00  0.00     0.005 A 
ATOM     37  C   UNL A   1      34.479  20.168  25.721  1.00  0.00     0.005 A 
ATOM     38  C   UNL A   1      31.912  20.452  24.773  1.00  0.00     0.026 A 
ATOM     39  C   UNL A   1      33.583  21.051  26.352  1.00  0.00     0.026 A 
ENDBRANCH  30  33
ENDBRANCH  15  29
ENDBRANCH   9  14
ENDBRANCH   6   8
ENDBRANCH   5   6
ENDBRANCH   4   5
ENDBRANCH   3   4
ENDBRANCH   2   3
ENDBRANCH   1   2
BRANCH   1  40
ATOM     40  C   UNL A   1      43.525  22.629  25.681  1.00  0.00     0.188 C 
BRANCH  40  41
ATOM     41  O   UNL A   1      44.559  23.569  25.920  1.00  0.00    -0.376 OA
BRANCH  41  42
ATOM     42  C   UNL A   1      44.352  24.911  25.527  1.00  0.00     0.202 C 
BRANCH  42  43
ATOM     43  C   UNL A   1      42.982  25.209  24.903  1.00  0.00     0.261 C 
BRANCH  43  44
ATOM     44  O   UNL A   1      42.302  26.214  25.671  1.00  0.00    -0.460 OA
BRANCH  44  45
ATOM     45  C   UNL A   1      41.381  25.741  26.593  1.00  0.00     0.338 C 
ATOM     46  O   UNL A   1      40.241  25.516  26.381  1.00  0.00    -0.246 OA
BRANCH  45  47
ATOM     47  C   UNL A   1      41.990  25.879  27.963  1.00  0.00     0.060 A 
ATOM     48  C   UNL A   1      42.344  27.131  28.456  1.00  0.00     0.016 A 
ATOM     49  C   UNL A   1      42.504  24.810  28.646  1.00  0.00     0.016 A 
ATOM     50  C   UNL A   1      43.445  27.264  29.360  1.00  0.00     0.010 A 
ATOM     51  C   UNL A   1      43.577  25.022  29.546  1.00  0.00     0.010 A 
ATOM     52  C   UNL A   1      44.265  26.205  29.766  1.00  0.00    -0.014 A 
BRANCH  52  53
ATOM     53  C   UNL A   1      45.804  26.373  30.093  1.00  0.00     0.031 A 
ATOM     54  C   UNL A   1      47.128  26.180  29.298  1.00  0.00     0.074 A 
ATOM     55  C   UNL A   1      46.135  26.929  31.281  1.00  0.00     0.049 A 
ATOM     56  N   UNL A   1      48.021  25.211  29.279  1.00  0.00    -0.248 NA
ATOM     57  C   UNL A   1      47.616  27.305  28.492  1.00  0.00     0.031 C 
ATOM     58  C   UNL A   1      47.450  27.372  31.744  1.00  0.00     0.029 A 
ATOM     59  N   UNL A   1      45.355  27.016  32.415  1.00  0.00    -0.354 N 
ATOM     60  C   UNL A   1      49.101  25.646  28.448  1.00  0.00     0.074 A 
ATOM     61  C   UNL A   1      48.615  26.814  27.758  1.00  0.00     0.031 C 
ATOM     62  C   UNL A   1      47.440  27.400  33.085  1.00  0.00     0.029 A 
ATOM     63  C   UNL A   1      46.166  26.866  33.530  1.00  0.00     0.049 A 
ATOM     64  H   UNL A   1      44.382  27.160  32.430  1.00  0.00     0.167 HD
ATOM     65  C   UNL A   1      50.452  25.632  28.723  1.00  0.00     0.031 A 
ATOM     66  C   UNL A   1      45.978  25.795  34.358  1.00  0.00     0.031 A 
ATOM     67  C   UNL A   1      50.681  25.628  30.143  1.00  0.00     0.049 A 
ATOM     68  C   UNL A   1      47.169  24.865  34.435  1.00  0.00     0.074 A 
ATOM     69  C   UNL A   1      51.014  26.641  31.028  1.00  0.00     0.029 A 
ATOM     70  N   UNL A   1      50.342  24.532  30.881  1.00  0.00    -0.354 N 
ATOM     71  N   UNL A   1      48.228  24.978  33.684  1.00  0.00    -0.248 NA
ATOM     72  C   UNL A   1      47.263  23.709  35.326  1.00  0.00     0.031 C 
ATOM     73  C   UNL A   1      50.869  26.134  32.336  1.00  0.00     0.029 A 
ATOM     74  C   UNL A   1      50.464  24.820  32.219  1.00  0.00     0.049 A 
ATOM     75  H   UNL A   1      50.054  23.666  30.511  1.00  0.00     0.167 HD
ATOM     76  C   UNL A   1      49.079  23.929  33.911  1.00  0.00     0.074 A 
ATOM     77  C   UNL A   1      48.454  23.184  34.979  1.00  0.00     0.031 C 
ATOM     78  C   UNL A   1      50.195  23.752  33.151  1.00  0.00     0.031 A 
BRANCH  65  79
ATOM     79  C   UNL A   1      51.535  26.186  27.769  1.00  0.00    -0.014 A 
ATOM     80  C   UNL A   1      51.814  25.561  26.531  1.00  0.00     0.009 A 
ATOM     81  C   UNL A   1      52.295  27.340  28.046  1.00  0.00     0.009 A 
ATOM     82  C   UNL A   1      52.869  25.964  25.696  1.00  0.00     0.001 A 
ATOM     83  C   UNL A   1      53.364  27.742  27.218  1.00  0.00     0.001 A 
ATOM     84  C   UNL A   1      53.667  27.039  26.056  1.00  0.00     0.000 A 
ENDBRANCH  65  79
BRANCH  66  85
ATOM     85  C   UNL A   1      44.537  25.422  34.518  1.00  0.00    -0.014 A 
ATOM     86  C   UNL A   1      44.169  24.125  34.089  1.00  0.00     0.009 A 
ATOM     87  C   UNL A   1      43.659  26.104  35.376  1.00  0.00     0.009 A 
ATOM     88  C   UNL A   1      43.038  23.482  34.597  1.00  0.00     0.001 A 
ATOM     89  C   UNL A   1      42.501  25.462  35.861  1.00  0.00     0.001 A 
ATOM     90  C   UNL A   1      42.213  24.143  35.499  1.00  0.00     0.000 A 
ENDBRANCH  66  85
BRANCH  78  91
ATOM     91  C   UNL A   1      51.119  22.561  33.078  1.00  0.00    -0.014 A 
ATOM     92  C   UNL A   1      52.500  22.658  32.910  1.00  0.00     0.009 A 
ATOM     93  C   UNL A   1      50.604  21.284  33.427  1.00  0.00     0.009 A 
ATOM     94  C   UNL A   1      53.326  21.539  33.090  1.00  0.00     0.001 A 
ATOM     95  C   UNL A   1      51.427  20.182  33.658  1.00  0.00     0.001 A 
ATOM     96  C   UNL A   1      52.795  20.311  33.485  1.00  0.00     0.000 A 
ENDBRANCH  78  91
ENDBRANCH  52  53
ENDBRANCH  45  47
ENDBRANCH  44  45
ENDBRANCH  43  44
ENDBRANCH  42  43
ENDBRANCH  41  42
ENDBRANCH  40  41
ENDBRANCH   1  40
TORSDOF 20
ENDMDL
MODEL 2
REMARK VINA RESULT:     -11.0      4.862      9.657
REMARK SMILES Cc1ccc(NC(=O)c2cnn3c2NC2=C(C(=O)CCC2)[C@H]3c2ccc(C(=O)OCCOCCOCCOC(=O)c3ccc(-c4c5nc(c(-c6ccccc6)c6ccc([nH]6)c(-c6ccccc6)c6nc(c(-c7ccccc7)c7ccc4[nH]7)C=C6)C=C5)cc3)cc2)cc1
REMARK SMILES IDX 33 1 32 2 31 3 30 4 29 5 27 6 28 7 26 8 23 9 24 10 90 11
REMARK SMILES IDX 25 12 89 13 22 14 9 15 10 16 13 17 11 18 12 19 14 20 15 21
REMARK SMILES IDX 16 23 21 24 17 25 20 26 18 27 19 28 7 29 6 30 8 32 5 33 1 34
REMARK SMILES IDX 2 35 3 36 92 37 4 38 91 39 34 40 35 41 36 42 37 43 38 44
REMARK SMILES IDX 39 45 40 46 41 47 42 48 88 49 43 50 87 51 44 52 45 53 46 54
REMARK SMILES IDX 81 55 47 56 86 57 80 58 82 59 48 60 85 61 79 62 78 63 49 65
REMARK SMILES IDX 71 66 56 67 70 68 57 69 60 70 69 71 83 72 58 73 59 74 68 76
REMARK SMILES IDX 84 77 61 78 50 79 51 80 55 81 52 82 54 83 53 84 72 85 73 86
REMARK SMILES IDX 77 87 74 88 76 89 75 90 62 91 63 92 67 93 64 94 66 95 65 96
REMARK H PARENT 14 22 6 31 82 64 60 75
REMARK Flexibility Score: inf
ROOT
ATOM      1  C   UNL A   1      33.736  24.910  23.302  1.00  0.00     0.188 C 
ENDROOT
BRANCH   1   2
ATOM      2  O   UNL A   1      33.422  26.007  24.194  1.00  0.00    -0.376 OA
BRANCH   2   3
ATOM      3  C   UNL A   1      32.029  26.372  24.183  1.00  0.00     0.202 C 
BRANCH   3   4
ATOM      4  C   UNL A   1      31.614  27.832  24.654  1.00  0.00     0.261 C 
BRANCH   4   5
ATOM      5  O   UNL A   1      31.491  28.363  26.065  1.00  0.00    -0.460 OA
BRANCH   5   6
ATOM      6  C   UNL A   1      31.940  29.608  26.379  1.00  0.00     0.338 C 
ATOM      7  O   UNL A   1      31.429  30.559  25.814  1.00  0.00    -0.246 OA
BRANCH   6   8
ATOM      8  C   UNL A   1      33.199  29.868  27.304  1.00  0.00     0.060 A 
ATOM      9  C   UNL A   1      36.124  30.481  27.675  1.00  0.00    -0.019 A 
ATOM     10  C   UNL A   1      35.649  29.232  27.331  1.00  0.00     0.007 A 
ATOM     11  C   UNL A   1      35.094  31.452  27.772  1.00  0.00     0.007 A 
ATOM     12  C   UNL A   1      34.261  28.942  27.280  1.00  0.00     0.016 A 
ATOM     13  C   UNL A   1      33.672  31.159  27.558  1.00  0.00     0.016 A 
BRANCH   9  14
ATOM     14  C   UNL A   1      37.625  30.646  28.186  1.00  0.00     0.175 C 
ATOM     15  C   UNL A   1      36.412  32.450  30.901  1.00  0.00     0.102 A 
ATOM     16  C   UNL A   1      37.268  33.407  30.272  1.00  0.00     0.151 A 
ATOM     17  C   UNL A   1      36.924  31.246  30.472  1.00  0.00     0.142 A 
ATOM     18  N   UNL A   1      37.956  32.885  29.248  1.00  0.00    -0.178 NA
ATOM     19  N   UNL A   1      37.540  31.612  29.284  1.00  0.00    -0.237 N 
ATOM     20  N   UNL A   1      36.860  29.909  30.765  1.00  0.00    -0.343 N 
ATOM     21  C   UNL A   1      37.713  29.020  30.085  1.00  0.00     0.026 C 
ATOM     22  H   UNL A   1      36.228  29.575  31.442  1.00  0.00     0.168 HD
ATOM     23  C   UNL A   1      38.262  29.442  28.914  1.00  0.00     0.044 C 
ATOM     24  C   UNL A   1      38.270  27.802  30.777  1.00  0.00     0.055 C 
ATOM     25  C   UNL A   1      39.765  29.427  29.060  1.00  0.00     0.163 C 
ATOM     26  C   UNL A   1      39.730  28.020  31.167  1.00  0.00     0.014 C 
ATOM     27  O   UNL A   1      40.490  29.707  28.109  1.00  0.00    -0.294 OA
ATOM     28  C   UNL A   1      40.321  29.252  30.486  1.00  0.00     0.081 C 
BRANCH  15  29
ATOM     29  C   UNL A   1      35.262  32.683  31.736  1.00  0.00     0.261 C 
ATOM     30  N   UNL A   1      35.410  32.580  33.114  1.00  0.00    -0.322 N 
ATOM     31  H   UNL A   1      34.560  32.475  33.600  1.00  0.00     0.170 HD
ATOM     32  O   UNL A   1      34.160  32.956  31.263  1.00  0.00    -0.269 OA
BRANCH  30  33
ATOM     33  C   UNL A   1      36.555  32.597  33.951  1.00  0.00     0.041 A 
ATOM     34  C   UNL A   1      39.955  32.704  36.652  1.00  0.00     0.044 C 
ATOM     35  C   UNL A   1      38.790  32.702  35.708  1.00  0.00    -0.051 A 
ATOM     36  C   UNL A   1      38.554  31.580  34.925  1.00  0.00     0.005 A 
ATOM     37  C   UNL A   1      37.914  33.784  35.590  1.00  0.00     0.005 A 
ATOM     38  C   UNL A   1      37.474  31.555  34.037  1.00  0.00     0.026 A 
ATOM     39  C   UNL A   1      36.811  33.734  34.715  1.00  0.00     0.026 A 
ENDBRANCH  30  33
ENDBRANCH  15  29
ENDBRANCH   9  14
ENDBRANCH   6   8
ENDBRANCH   5   6
ENDBRANCH   4   5
ENDBRANCH   3   4
ENDBRANCH   2   3
ENDBRANCH   1   2
BRANCH   1  40
ATOM     40  C   UNL A   1      33.570  23.510  23.923  1.00  0.00     0.188 C 
BRANCH  40  41
ATOM     41  O   UNL A   1      34.402  23.360  25.061  1.00  0.00    -0.376 OA
BRANCH  41  42
ATOM     42  C   UNL A   1      35.645  22.704  24.906  1.00  0.00     0.202 C 
BRANCH  42  43
ATOM     43  C   UNL A   1      36.615  22.848  26.086  1.00  0.00     0.261 C 
BRANCH  43  44
ATOM     44  O   UNL A   1      37.830  23.476  25.647  1.00  0.00    -0.460 OA
BRANCH  44  45
ATOM     45  C   UNL A   1      38.946  23.238  26.436  1.00  0.00     0.338 C 
ATOM     46  O   UNL A   1      39.302  22.183  26.830  1.00  0.00    -0.246 OA
BRANCH  45  47
ATOM     47  C   UNL A   1      39.422  24.562  26.969  1.00  0.00     0.060 A 
ATOM     48  C   UNL A   1      39.725  25.606  26.101  1.00  0.00     0.016 A 
ATOM     49  C   UNL A   1      39.870  24.714  28.253  1.00  0.00     0.016 A 
ATOM     50  C   UNL A   1      40.735  26.560  26.445  1.00  0.00     0.010 A 
ATOM     51  C   UNL A   1      40.853  25.698  28.524  1.00  0.00     0.010 A 
ATOM     52  C   UNL A   1      41.515  26.498  27.606  1.00  0.00    -0.014 A 
BRANCH  52  53
ATOM     53  C   UNL A   1      43.016  26.995  27.672  1.00  0.00     0.031 A 
ATOM     54  C   UNL A   1      43.736  28.357  27.457  1.00  0.00     0.074 A 
ATOM     55  C   UNL A   1      43.943  26.126  28.136  1.00  0.00     0.049 A 
ATOM     56  N   UNL A   1      44.420  28.852  26.444  1.00  0.00    -0.248 NA
ATOM     57  C   UNL A   1      43.834  29.270  28.601  1.00  0.00     0.031 C 
ATOM     58  C   UNL A   1      45.341  26.386  28.480  1.00  0.00     0.029 A 
ATOM     59  N   UNL A   1      43.853  24.752  28.196  1.00  0.00    -0.354 N 
ATOM     60  C   UNL A   1      44.961  30.106  26.871  1.00  0.00     0.074 A 
ATOM     61  C   UNL A   1      44.284  30.423  28.103  1.00  0.00     0.031 C 
ATOM     62  C   UNL A   1      46.013  25.226  28.427  1.00  0.00     0.029 A 
ATOM     63  C   UNL A   1      45.102  24.208  27.936  1.00  0.00     0.049 A 
ATOM     64  H   UNL A   1      43.035  24.240  28.390  1.00  0.00     0.167 HD
ATOM     65  C   UNL A   1      46.260  30.556  26.768  1.00  0.00     0.031 A 
ATOM     66  C   UNL A   1      45.277  23.427  26.828  1.00  0.00     0.031 A 
ATOM     67  C   UNL A   1      47.174  29.451  26.666  1.00  0.00     0.049 A 
ATOM     68  C   UNL A   1      46.268  23.991  25.832  1.00  0.00     0.074 A 
ATOM     69  C   UNL A   1      47.986  28.834  27.605  1.00  0.00     0.029 A 
ATOM     70  N   UNL A   1      47.172  28.671  25.547  1.00  0.00    -0.354 N 
ATOM     71  N   UNL A   1      46.807  25.172  25.934  1.00  0.00    -0.248 NA
ATOM     72  C   UNL A   1      46.711  23.301  24.621  1.00  0.00     0.031 C 
ATOM     73  C   UNL A   1      48.484  27.647  27.028  1.00  0.00     0.029 A 
ATOM     74  C   UNL A   1      47.976  27.574  25.746  1.00  0.00     0.049 A 
ATOM     75  H   UNL A   1      46.671  28.865  24.721  1.00  0.00     0.167 HD
ATOM     76  C   UNL A   1      47.572  25.437  24.830  1.00  0.00     0.074 A 
ATOM     77  C   UNL A   1      47.519  24.218  24.056  1.00  0.00     0.031 C 
ATOM     78  C   UNL A   1      48.134  26.663  24.640  1.00  0.00     0.031 A 
BRANCH  65  79
ATOM     79  C   UNL A   1      46.751  31.915  27.321  1.00  0.00    -0.014 A 
ATOM     80  C   UNL A   1      46.228  33.136  26.838  1.00  0.00     0.009 A 
ATOM     81  C   UNL A   1      47.719  32.033  28.337  1.00  0.00     0.009 A 
ATOM     82  C   UNL A   1      46.733  34.387  27.229  1.00  0.00     0.001 A 
ATOM     83  C   UNL A   1      48.240  33.286  28.724  1.00  0.00     0.001 A 
ATOM     84  C   UNL A   1      47.764  34.462  28.152  1.00  0.00     0.000 A 
ENDBRANCH  65  79
BRANCH  66  85
ATOM     85  C   UNL A   1      44.091  22.566  26.522  1.00  0.00    -0.014 A 
ATOM     86  C   UNL A   1      44.278  21.554  25.553  1.00  0.00     0.009 A 
ATOM     87  C   UNL A   1      42.980  22.462  27.374  1.00  0.00     0.009 A 
ATOM     88  C   UNL A   1      43.467  20.417  25.518  1.00  0.00     0.001 A 
ATOM     89  C   UNL A   1      42.144  21.328  27.314  1.00  0.00     0.001 A 
ATOM     90  C   UNL A   1      42.410  20.294  26.412  1.00  0.00     0.000 A 
ENDBRANCH  66  85
BRANCH  78  91
ATOM     91  C   UNL A   1      48.800  27.225  23.408  1.00  0.00    -0.014 A 
ATOM     92  C   UNL A   1      50.167  27.127  23.150  1.00  0.00     0.009 A 
ATOM     93  C   UNL A   1      47.977  27.676  22.341  1.00  0.00     0.009 A 
ATOM     94  C   UNL A   1      50.685  27.453  21.888  1.00  0.00     0.001 A 
ATOM     95  C   UNL A   1      48.482  27.951  21.071  1.00  0.00     0.001 A 
ATOM     96  C   UNL A   1      49.844  27.842  20.845  1.00  0.00     0.000 A 
ENDBRANCH  78  91
ENDBRANCH  52  53
ENDBRANCH  45  47
ENDBRANCH  44  45
ENDBRANCH  43  44
ENDBRANCH  42  43
ENDBRANCH  41  42
ENDBRANCH  40  41
ENDBRANCH   1  40
TORSDOF 20
ENDMDL
MODEL 3
REMARK VINA RESULT:     -10.9      5.743     11.938
REMARK SMILES Cc1ccc(NC(=O)c2cnn3c2NC2=C(C(=O)CCC2)[C@H]3c2ccc(C(=O)OCCOCCOCCOC(=O)c3ccc(-c4c5nc(c(-c6ccccc6)c6ccc([nH]6)c(-c6ccccc6)c6nc(c(-c7ccccc7)c7ccc4[nH]7)C=C6)C=C5)cc3)cc2)cc1
REMARK SMILES IDX 33 1 32 2 31 3 30 4 29 5 27 6 28 7 26 8 23 9 24 10 90 11
REMARK SMILES IDX 25 12 89 13 22 14 9 15 10 16 13 17 11 18 12 19 14 20 15 21
REMARK SMILES IDX 16 23 21 24 17 25 20 26 18 27 19 28 7 29 6 30 8 32 5 33 1 34
REMARK SMILES IDX 2 35 3 36 92 37 4 38 91 39 34 40 35 41 36 42 37 43 38 44
REMARK SMILES IDX 39 45 40 46 41 47 42 48 88 49 43 50 87 51 44 52 45 53 46 54
REMARK SMILES IDX 81 55 47 56 86 57 80 58 82 59 48 60 85 61 79 62 78 63 49 65
REMARK SMILES IDX 71 66 56 67 70 68 57 69 60 70 69 71 83 72 58 73 59 74 68 76
REMARK SMILES IDX 84 77 61 78 50 79 51 80 55 81 52 82 54 83 53 84 72 85 73 86
REMARK SMILES IDX 77 87 74 88 76 89 75 90 62 91 63 92 67 93 64 94 66 95 65 96
REMARK H PARENT 14 22 6 31 82 64 60 75
REMARK Flexibility Score: inf
ROOT
ATOM      1  C   UNL A   1      32.747  25.581  24.432  1.00  0.00     0.188 C 
ENDROOT
BRANCH   1   2
ATOM      2  O   UNL A   1      33.677  24.552  24.019  1.00  0.00    -0.376 OA
BRANCH   2   3
ATOM      3  C   UNL A   1      34.242  23.817  25.122  1.00  0.00     0.202 C 
BRANCH   3   4
ATOM      4  C   UNL A   1      34.685  22.308  24.891  1.00  0.00     0.261 C 
BRANCH   4   5
ATOM      5  O   UNL A   1      35.746  21.519  25.627  1.00  0.00    -0.460 OA
BRANCH   5   6
ATOM      6  C   UNL A   1      37.007  21.419  25.128  1.00  0.00     0.338 C 
ATOM      7  O   UNL A   1      37.265  20.463  24.416  1.00  0.00    -0.246 OA
BRANCH   6   8
ATOM      8  C   UNL A   1      38.190  22.379  25.559  1.00  0.00     0.060 A 
ATOM      9  C   UNL A   1      39.632  24.033  27.621  1.00  0.00    -0.019 A 
ATOM     10  C   UNL A   1      38.476  24.446  26.990  1.00  0.00     0.007 A 
ATOM     11  C   UNL A   1      40.027  22.726  27.239  1.00  0.00     0.007 A 
ATOM     12  C   UNL A   1      37.884  23.702  25.938  1.00  0.00     0.016 A 
ATOM     13  C   UNL A   1      39.304  21.907  26.258  1.00  0.00     0.016 A 
BRANCH   9  14
ATOM     14  C   UNL A   1      40.516  25.086  28.428  1.00  0.00     0.175 C 
ATOM     15  C   UNL A   1      43.256  24.121  26.518  1.00  0.00     0.102 A 
ATOM     16  C   UNL A   1      43.695  23.804  27.841  1.00  0.00     0.151 A 
ATOM     17  C   UNL A   1      42.303  25.091  26.731  1.00  0.00     0.142 A 
ATOM     18  N   UNL A   1      42.831  24.211  28.780  1.00  0.00    -0.178 NA
ATOM     19  N   UNL A   1      41.895  24.801  28.025  1.00  0.00    -0.237 N 
ATOM     20  N   UNL A   1      41.601  26.048  26.045  1.00  0.00    -0.343 N 
ATOM     21  C   UNL A   1      40.777  26.935  26.763  1.00  0.00     0.026 C 
ATOM     22  H   UNL A   1      41.673  26.114  25.066  1.00  0.00     0.168 HD
ATOM     23  C   UNL A   1      40.400  26.571  28.019  1.00  0.00     0.044 C 
ATOM     24  C   UNL A   1      40.605  28.363  26.315  1.00  0.00     0.055 C 
ATOM     25  C   UNL A   1      40.911  27.607  28.990  1.00  0.00     0.163 C 
ATOM     26  C   UNL A   1      41.429  29.309  27.185  1.00  0.00     0.014 C 
ATOM     27  O   UNL A   1      40.640  27.534  30.185  1.00  0.00    -0.294 OA
ATOM     28  C   UNL A   1      41.940  28.618  28.447  1.00  0.00     0.081 C 
BRANCH  15  29
ATOM     29  C   UNL A   1      43.669  23.536  25.269  1.00  0.00     0.261 C 
ATOM     30  N   UNL A   1      44.758  24.086  24.604  1.00  0.00    -0.322 N 
ATOM     31  H   UNL A   1      44.817  23.833  23.654  1.00  0.00     0.170 HD
ATOM     32  O   UNL A   1      43.078  22.577  24.773  1.00  0.00    -0.269 OA
BRANCH  30  33
ATOM     33  C   UNL A   1      45.802  24.944  25.038  1.00  0.00     0.041 A 
ATOM     34  C   UNL A   1      48.875  27.659  26.470  1.00  0.00     0.044 C 
ATOM     35  C   UNL A   1      47.808  26.744  25.945  1.00  0.00    -0.051 A 
ATOM     36  C   UNL A   1      48.027  25.374  25.955  1.00  0.00     0.005 A 
ATOM     37  C   UNL A   1      46.587  27.214  25.456  1.00  0.00     0.005 A 
ATOM     38  C   UNL A   1      47.047  24.501  25.470  1.00  0.00     0.026 A 
ATOM     39  C   UNL A   1      45.596  26.323  25.000  1.00  0.00     0.026 A 
ENDBRANCH  30  33
ENDBRANCH  15  29
ENDBRANCH   9  14
ENDBRANCH   6   8
ENDBRANCH   5   6
ENDBRANCH   4   5
ENDBRANCH   3   4
ENDBRANCH   2   3
ENDBRANCH   1   2
BRANCH   1  40
ATOM     40  C   UNL A   1      32.685  26.804  23.496  1.00  0.00     0.188 C 
BRANCH  40  41
ATOM     41  O   UNL A   1      32.950  28.000  24.209  1.00  0.00    -0.376 OA
BRANCH  41  42
ATOM     42  C   UNL A   1      33.014  27.943  25.620  1.00  0.00     0.202 C 
BRANCH  42  43
ATOM     43  C   UNL A   1      34.345  28.398  26.235  1.00  0.00     0.261 C 
BRANCH  43  44
ATOM     44  O   UNL A   1      34.108  29.024  27.506  1.00  0.00    -0.460 OA
BRANCH  44  45
ATOM     45  C   UNL A   1      34.766  30.227  27.713  1.00  0.00     0.338 C 
ATOM     46  O   UNL A   1      34.397  31.290  27.352  1.00  0.00    -0.246 OA
BRANCH  45  47
ATOM     47  C   UNL A   1      36.165  29.911  28.170  1.00  0.00     0.060 A 
ATOM     48  C   UNL A   1      36.386  28.972  29.172  1.00  0.00     0.016 A 
ATOM     49  C   UNL A   1      37.231  30.717  27.872  1.00  0.00     0.016 A 
ATOM     50  C   UNL A   1      37.507  29.106  30.052  1.00  0.00     0.010 A 
ATOM     51  C   UNL A   1      38.318  30.779  28.779  1.00  0.00     0.010 A 
ATOM     52  C   UNL A   1      38.407  30.177  30.024  1.00  0.00    -0.014 A 
BRANCH  52  53
ATOM     53  C   UNL A   1      39.120  30.747  31.317  1.00  0.00     0.031 A 
ATOM     54  C   UNL A   1      39.969  30.136  32.468  1.00  0.00     0.074 A 
ATOM     55  C   UNL A   1      39.153  32.091  31.472  1.00  0.00     0.049 A 
ATOM     56  N   UNL A   1      39.677  29.801  33.709  1.00  0.00    -0.248 NA
ATOM     57  C   UNL A   1      41.414  29.997  32.256  1.00  0.00     0.031 C 
ATOM     58  C   UNL A   1      39.903  32.875  32.453  1.00  0.00     0.029 A 
ATOM     59  N   UNL A   1      38.329  33.027  30.884  1.00  0.00    -0.354 N 
ATOM     60  C   UNL A   1      40.898  29.408  34.341  1.00  0.00     0.074 A 
ATOM     61  C   UNL A   1      41.858  29.261  33.276  1.00  0.00     0.031 C 
ATOM     62  C   UNL A   1      39.308  34.070  32.586  1.00  0.00     0.029 A 
ATOM     63  C   UNL A   1      38.096  34.052  31.788  1.00  0.00     0.049 A 
ATOM     64  H   UNL A   1      37.965  32.975  29.971  1.00  0.00     0.167 HD
ATOM     65  C   UNL A   1      41.408  29.826  35.553  1.00  0.00     0.031 A 
ATOM     66  C   UNL A   1      36.824  34.275  32.237  1.00  0.00     0.031 A 
ATOM     67  C   UNL A   1      40.867  31.107  35.916  1.00  0.00     0.049 A 
ATOM     68  C   UNL A   1      36.659  34.082  33.729  1.00  0.00     0.074 A 
ATOM     69  C   UNL A   1      41.384  32.390  35.818  1.00  0.00     0.029 A 
ATOM     70  N   UNL A   1      39.545  31.219  36.236  1.00  0.00    -0.354 N 
ATOM     71  N   UNL A   1      37.593  33.612  34.507  1.00  0.00    -0.248 NA
ATOM     72  C   UNL A   1      35.430  34.360  34.471  1.00  0.00     0.031 C 
ATOM     73  C   UNL A   1      40.337  33.296  36.088  1.00  0.00     0.029 A 
ATOM     74  C   UNL A   1      39.210  32.546  36.357  1.00  0.00     0.049 A 
ATOM     75  H   UNL A   1      38.926  30.464  36.362  1.00  0.00     0.167 HD
ATOM     76  C   UNL A   1      37.108  33.453  35.778  1.00  0.00     0.074 A 
ATOM     77  C   UNL A   1      35.763  33.977  35.718  1.00  0.00     0.031 C 
ATOM     78  C   UNL A   1      37.855  32.852  36.746  1.00  0.00     0.031 A 
BRANCH  65  79
ATOM     79  C   UNL A   1      42.776  29.378  36.115  1.00  0.00    -0.014 A 
ATOM     80  C   UNL A   1      43.783  30.318  36.433  1.00  0.00     0.009 A 
ATOM     81  C   UNL A   1      43.108  28.032  36.365  1.00  0.00     0.009 A 
ATOM     82  C   UNL A   1      45.077  29.942  36.831  1.00  0.00     0.001 A 
ATOM     83  C   UNL A   1      44.409  27.647  36.753  1.00  0.00     0.001 A 
ATOM     84  C   UNL A   1      45.400  28.601  36.962  1.00  0.00     0.000 A 
ENDBRANCH  65  79
BRANCH  66  85
ATOM     85  C   UNL A   1      35.782  34.055  31.185  1.00  0.00    -0.014 A 
ATOM     86  C   UNL A   1      34.522  34.656  31.408  1.00  0.00     0.009 A 
ATOM     87  C   UNL A   1      36.087  33.634  29.880  1.00  0.00     0.009 A 
ATOM     88  C   UNL A   1      33.654  34.946  30.353  1.00  0.00     0.001 A 
ATOM     89  C   UNL A   1      35.193  33.899  28.823  1.00  0.00     0.001 A 
ATOM     90  C   UNL A   1      33.997  34.584  29.056  1.00  0.00     0.000 A 
ENDBRANCH  66  85
BRANCH  78  91
ATOM     91  C   UNL A   1      37.435  32.375  38.114  1.00  0.00    -0.014 A 
ATOM     92  C   UNL A   1      37.204  33.224  39.196  1.00  0.00     0.009 A 
ATOM     93  C   UNL A   1      37.029  31.021  38.263  1.00  0.00     0.009 A 
ATOM     94  C   UNL A   1      36.589  32.748  40.364  1.00  0.00     0.001 A 
ATOM     95  C   UNL A   1      36.371  30.558  39.402  1.00  0.00     0.001 A 
ATOM     96  C   UNL A   1      36.153  31.426  40.459  1.00  0.00     0.000 A 
ENDBRANCH  78  91
ENDBRANCH  52  53
ENDBRANCH  45  47
ENDBRANCH  44  45
ENDBRANCH  43  44
ENDBRANCH  42  43
ENDBRANCH  41  42
ENDBRANCH  40  41
ENDBRANCH   1  40
TORSDOF 20
ENDMDL
