MODEL 1
REMARK VINA RESULT:      -8.9      0.000      0.000
REMARK SMILES CC(C)N(CC1CC1)C(=O)N[C@@H]1C=C[C@H](C(=O)OCCOCCOCCOC(=O)c2ccc(-c3c4nc(c(-c5ccccc5)c5ccc([nH]5)c(-c5ccccc5)c5nc(c(-c6ccccc6)c6ccc3[nH]6)C=C5)C=C4)cc2)C1
REMARK SMILES IDX 22 1 21 2 20 3 19 4 18 5 16 6 17 7 15 8 12 9 13 10 78 11
REMARK SMILES IDX 14 12 11 13 9 14 10 15 4 17 2 18 1 19 3 20 5 21 6 22 7 23
REMARK SMILES IDX 8 24 23 25 24 26 25 27 26 28 27 29 28 30 29 31 30 32 31 33
REMARK SMILES IDX 77 34 32 35 76 36 33 37 34 38 35 39 70 40 36 41 75 42 69 43
REMARK SMILES IDX 71 44 37 45 74 46 68 47 67 48 38 50 60 51 45 52 59 53 46 54
REMARK SMILES IDX 49 55 58 56 72 57 47 58 48 59 57 61 73 62 50 63 39 64 40 65
REMARK SMILES IDX 44 66 41 67 43 68 42 69 61 70 62 71 66 72 63 73 65 74 64 75
REMARK SMILES IDX 51 76 52 77 56 78 53 79 55 80 54 81
REMARK H PARENT 11 16 71 49 49 60
REMARK Flexibility Score: inf
ROOT
ATOM      1  C   UNL A   1      33.615  28.332  25.238  1.00  0.00     0.188 C 
ENDROOT
BRANCH   1   2
ATOM      2  O   UNL A   1      33.988  27.628  24.070  1.00  0.00    -0.376 OA
BRANCH   2   3
ATOM      3  C   UNL A   1      32.987  27.049  23.239  1.00  0.00     0.202 C 
BRANCH   3   4
ATOM      4  C   UNL A   1      33.010  25.576  22.803  1.00  0.00     0.261 C 
BRANCH   4   5
ATOM      5  O   UNL A   1      34.304  24.967  22.871  1.00  0.00    -0.463 OA
BRANCH   5   6
ATOM      6  C   UNL A   1      34.552  24.263  24.016  1.00  0.00     0.312 C 
ATOM      7  O   UNL A   1      33.762  24.129  24.942  1.00  0.00    -0.252 OA
BRANCH   6   8
ATOM      8  C   UNL A   1      35.903  23.567  23.931  1.00  0.00     0.124 C 
ATOM      9  C   UNL A   1      36.038  21.384  25.092  1.00  0.00     0.107 C 
ATOM     10  C   UNL A   1      36.698  22.484  25.859  1.00  0.00    -0.006 C 
ATOM     11  C   UNL A   1      35.716  22.051  23.745  1.00  0.00     0.048 C 
ATOM     12  C   UNL A   1      36.642  23.662  25.227  1.00  0.00    -0.014 C 
BRANCH   9  13
ATOM     13  N   UNL A   1      34.843  20.987  25.807  1.00  0.00    -0.332 N 
ATOM     14  C   UNL A   1      33.787  20.169  25.665  1.00  0.00     0.318 C 
ATOM     15  O   UNL A   1      32.974  20.259  26.593  1.00  0.00    -0.249 OA
ATOM     16  H   UNL A   1      34.789  21.465  26.665  1.00  0.00     0.165 HD
BRANCH  14  17
ATOM     17  N   UNL A   1      33.587  19.303  24.622  1.00  0.00    -0.322 N 
BRANCH  17  18
ATOM     18  C   UNL A   1      32.441  19.559  23.706  1.00  0.00     0.080 C 
ATOM     19  C   UNL A   1      32.360  21.021  23.251  1.00  0.00     0.031 C 
ATOM     20  C   UNL A   1      32.367  18.586  22.528  1.00  0.00     0.031 C 
ENDBRANCH  17  18
BRANCH  17  21
ATOM     21  C   UNL A   1      34.365  18.121  24.274  1.00  0.00     0.125 C 
BRANCH  21  22
ATOM     22  C   UNL A   1      34.104  16.982  25.220  1.00  0.00     0.009 C 
ATOM     23  C   UNL A   1      32.716  16.590  25.673  1.00  0.00     0.006 C 
ATOM     24  C   UNL A   1      33.472  15.699  24.730  1.00  0.00     0.006 C 
ENDBRANCH  21  22
ENDBRANCH  17  21
ENDBRANCH  14  17
ENDBRANCH   9  13
ENDBRANCH   6   8
ENDBRANCH   5   6
ENDBRANCH   4   5
ENDBRANCH   3   4
ENDBRANCH   2   3
ENDBRANCH   1   2
BRANCH   1  25
ATOM     25  C   UNL A   1      32.432  29.319  25.158  1.00  0.00     0.188 C 
BRANCH  25  26
ATOM     26  O   UNL A   1      31.769  29.773  26.319  1.00  0.00    -0.376 OA
BRANCH  26  27
ATOM     27  C   UNL A   1      31.743  31.158  26.627  1.00  0.00     0.202 C 
BRANCH  27  28
ATOM     28  C   UNL A   1      32.788  31.851  27.520  1.00  0.00     0.261 C 
BRANCH  28  29
ATOM     29  O   UNL A   1      33.041  33.234  27.251  1.00  0.00    -0.460 OA
BRANCH  29  30
ATOM     30  C   UNL A   1      33.258  33.993  28.351  1.00  0.00     0.338 C 
ATOM     31  O   UNL A   1      32.494  34.779  28.879  1.00  0.00    -0.246 OA
BRANCH  30  32
ATOM     32  C   UNL A   1      34.542  33.606  28.961  1.00  0.00     0.060 A 
ATOM     33  C   UNL A   1      35.714  33.828  28.227  1.00  0.00     0.016 A 
ATOM     34  C   UNL A   1      34.583  32.963  30.198  1.00  0.00     0.016 A 
ATOM     35  C   UNL A   1      36.938  33.383  28.720  1.00  0.00     0.010 A 
ATOM     36  C   UNL A   1      35.808  32.496  30.680  1.00  0.00     0.010 A 
ATOM     37  C   UNL A   1      36.984  32.678  29.929  1.00  0.00    -0.014 A 
BRANCH  37  38
ATOM     38  C   UNL A   1      38.231  31.985  30.324  1.00  0.00     0.031 A 
ATOM     39  C   UNL A   1      39.123  32.631  31.348  1.00  0.00     0.074 A 
ATOM     40  C   UNL A   1      38.558  30.795  29.795  1.00  0.00     0.049 A 
ATOM     41  N   UNL A   1      40.273  32.224  31.820  1.00  0.00    -0.248 NA
ATOM     42  C   UNL A   1      38.654  33.906  31.914  1.00  0.00     0.031 C 
ATOM     43  C   UNL A   1      37.752  30.043  28.835  1.00  0.00     0.029 A 
ATOM     44  N   UNL A   1      39.664  30.010  29.998  1.00  0.00    -0.354 N 
ATOM     45  C   UNL A   1      40.673  33.198  32.726  1.00  0.00     0.074 A 
ATOM     46  C   UNL A   1      39.652  34.224  32.725  1.00  0.00     0.031 C 
ATOM     47  C   UNL A   1      38.394  28.901  28.530  1.00  0.00     0.029 A 
ATOM     48  C   UNL A   1      39.670  28.864  29.243  1.00  0.00     0.049 A 
ATOM     49  H   UNL A   1      40.385  30.246  30.625  1.00  0.00     0.167 HD
ATOM     50  C   UNL A   1      41.790  33.236  33.489  1.00  0.00     0.031 A 
ATOM     51  C   UNL A   1      40.611  27.907  29.126  1.00  0.00     0.031 A 
ATOM     52  C   UNL A   1      42.812  32.226  33.479  1.00  0.00     0.049 A 
ATOM     53  C   UNL A   1      41.887  28.020  29.917  1.00  0.00     0.074 A 
ATOM     54  C   UNL A   1      43.969  32.163  34.237  1.00  0.00     0.029 A 
ATOM     55  N   UNL A   1      42.808  31.109  32.660  1.00  0.00    -0.354 N 
ATOM     56  N   UNL A   1      42.239  28.928  30.796  1.00  0.00    -0.248 NA
ATOM     57  C   UNL A   1      42.896  26.973  29.697  1.00  0.00     0.031 C 
ATOM     58  C   UNL A   1      44.694  31.037  33.833  1.00  0.00     0.029 A 
ATOM     59  C   UNL A   1      43.959  30.367  32.867  1.00  0.00     0.049 A 
ATOM     60  H   UNL A   1      42.093  30.877  32.025  1.00  0.00     0.167 HD
ATOM     61  C   UNL A   1      43.493  28.543  31.258  1.00  0.00     0.074 A 
ATOM     62  C   UNL A   1      43.835  27.317  30.567  1.00  0.00     0.031 C 
ATOM     63  C   UNL A   1      44.286  29.148  32.175  1.00  0.00     0.031 A 
BRANCH  50  64
ATOM     64  C   UNL A   1      41.982  34.441  34.365  1.00  0.00    -0.014 A 
ATOM     65  C   UNL A   1      42.273  35.703  33.825  1.00  0.00     0.009 A 
ATOM     66  C   UNL A   1      41.850  34.313  35.757  1.00  0.00     0.009 A 
ATOM     67  C   UNL A   1      42.462  36.804  34.663  1.00  0.00     0.001 A 
ATOM     68  C   UNL A   1      42.013  35.419  36.590  1.00  0.00     0.001 A 
ATOM     69  C   UNL A   1      42.328  36.663  36.044  1.00  0.00     0.000 A 
ENDBRANCH  50  64
BRANCH  51  70
ATOM     70  C   UNL A   1      40.394  26.758  28.209  1.00  0.00    -0.014 A 
ATOM     71  C   UNL A   1      40.844  26.811  26.881  1.00  0.00     0.009 A 
ATOM     72  C   UNL A   1      39.714  25.612  28.650  1.00  0.00     0.009 A 
ATOM     73  C   UNL A   1      40.597  25.750  26.008  1.00  0.00     0.001 A 
ATOM     74  C   UNL A   1      39.493  24.541  27.782  1.00  0.00     0.001 A 
ATOM     75  C   UNL A   1      39.926  24.615  26.459  1.00  0.00     0.000 A 
ENDBRANCH  51  70
BRANCH  63  76
ATOM     76  C   UNL A   1      45.583  28.471  32.522  1.00  0.00    -0.014 A 
ATOM     77  C   UNL A   1      45.654  27.497  33.530  1.00  0.00     0.009 A 
ATOM     78  C   UNL A   1      46.743  28.782  31.794  1.00  0.00     0.009 A 
ATOM     79  C   UNL A   1      46.869  26.873  33.823  1.00  0.00     0.001 A 
ATOM     80  C   UNL A   1      47.949  28.136  32.070  1.00  0.00     0.001 A 
ATOM     81  C   UNL A   1      48.013  27.189  33.091  1.00  0.00     0.000 A 
ENDBRANCH  63  76
ENDBRANCH  37  38
ENDBRANCH  30  32
ENDBRANCH  29  30
ENDBRANCH  28  29
ENDBRANCH  27  28
ENDBRANCH  26  27
ENDBRANCH  25  26
ENDBRANCH   1  25
TORSDOF 22
ENDMDL
MODEL 2
REMARK VINA RESULT:      -8.8      1.723      2.973
REMARK SMILES CC(C)N(CC1CC1)C(=O)N[C@@H]1C=C[C@H](C(=O)OCCOCCOCCOC(=O)c2ccc(-c3c4nc(c(-c5ccccc5)c5ccc([nH]5)c(-c5ccccc5)c5nc(c(-c6ccccc6)c6ccc3[nH]6)C=C5)C=C4)cc2)C1
REMARK SMILES IDX 22 1 21 2 20 3 19 4 18 5 16 6 17 7 15 8 12 9 13 10 78 11
REMARK SMILES IDX 14 12 11 13 9 14 10 15 4 17 2 18 1 19 3 20 5 21 6 22 7 23
REMARK SMILES IDX 8 24 23 25 24 26 25 27 26 28 27 29 28 30 29 31 30 32 31 33
REMARK SMILES IDX 77 34 32 35 76 36 33 37 34 38 35 39 70 40 36 41 75 42 69 43
REMARK SMILES IDX 71 44 37 45 74 46 68 47 67 48 38 50 60 51 45 52 59 53 46 54
REMARK SMILES IDX 49 55 58 56 72 57 47 58 48 59 57 61 73 62 50 63 39 64 40 65
REMARK SMILES IDX 44 66 41 67 43 68 42 69 61 70 62 71 66 72 63 73 65 74 64 75
REMARK SMILES IDX 51 76 52 77 56 78 53 79 55 80 54 81
REMARK H PARENT 11 16 71 49 49 60
REMARK Flexibility Score: inf
ROOT
ATOM      1  C   UNL A   1      32.801  28.785  25.055  1.00  0.00     0.188 C 
ENDROOT
BRANCH   1   2
ATOM      2  O   UNL A   1      32.626  27.448  25.477  1.00  0.00    -0.376 OA
BRANCH   2   3
ATOM      3  C   UNL A   1      31.530  27.107  26.320  1.00  0.00     0.202 C 
BRANCH   3   4
ATOM      4  C   UNL A   1      30.714  25.816  26.152  1.00  0.00     0.261 C 
BRANCH   4   5
ATOM      5  O   UNL A   1      30.960  25.126  24.922  1.00  0.00    -0.463 OA
BRANCH   5   6
ATOM      6  C   UNL A   1      30.332  25.653  23.828  1.00  0.00     0.312 C 
ATOM      7  O   UNL A   1      29.364  26.401  23.867  1.00  0.00    -0.252 OA
BRANCH   6   8
ATOM      8  C   UNL A   1      31.078  25.277  22.555  1.00  0.00     0.124 C 
ATOM      9  C   UNL A   1      33.505  24.875  22.836  1.00  0.00     0.107 C 
ATOM     10  C   UNL A   1      33.212  26.206  22.225  1.00  0.00    -0.006 C 
ATOM     11  C   UNL A   1      32.128  24.191  22.847  1.00  0.00     0.048 C 
ATOM     12  C   UNL A   1      31.902  26.421  22.055  1.00  0.00    -0.014 C 
BRANCH   9  13
ATOM     13  N   UNL A   1      34.019  25.093  24.172  1.00  0.00    -0.332 N 
ATOM     14  C   UNL A   1      34.599  24.410  25.172  1.00  0.00     0.318 C 
ATOM     15  O   UNL A   1      34.792  25.096  26.183  1.00  0.00    -0.249 OA
ATOM     16  H   UNL A   1      33.911  26.037  24.425  1.00  0.00     0.165 HD
BRANCH  14  17
ATOM     17  N   UNL A   1      34.963  23.089  25.126  1.00  0.00    -0.322 N 
BRANCH  17  18
ATOM     18  C   UNL A   1      36.330  22.753  24.641  1.00  0.00     0.080 C 
ATOM     19  C   UNL A   1      36.486  22.944  23.128  1.00  0.00     0.031 C 
ATOM     20  C   UNL A   1      37.447  23.444  25.425  1.00  0.00     0.031 C 
ENDBRANCH  17  18
BRANCH  17  21
ATOM     21  C   UNL A   1      34.167  21.925  25.495  1.00  0.00     0.125 C 
BRANCH  21  22
ATOM     22  C   UNL A   1      33.572  21.251  24.290  1.00  0.00     0.009 C 
ATOM     23  C   UNL A   1      33.322  19.762  24.219  1.00  0.00     0.006 C 
ATOM     24  C   UNL A   1      32.161  20.708  24.326  1.00  0.00     0.006 C 
ENDBRANCH  21  22
ENDBRANCH  17  21
ENDBRANCH  14  17
ENDBRANCH   9  13
ENDBRANCH   6   8
ENDBRANCH   5   6
ENDBRANCH   4   5
ENDBRANCH   3   4
ENDBRANCH   2   3
ENDBRANCH   1   2
BRANCH   1  25
ATOM     25  C   UNL A   1      31.637  29.779  25.249  1.00  0.00     0.188 C 
BRANCH  25  26
ATOM     26  O   UNL A   1      31.402  30.408  26.491  1.00  0.00    -0.376 OA
BRANCH  26  27
ATOM     27  C   UNL A   1      31.800  31.755  26.693  1.00  0.00     0.202 C 
BRANCH  27  28
ATOM     28  C   UNL A   1      33.048  32.163  27.494  1.00  0.00     0.261 C 
BRANCH  28  29
ATOM     29  O   UNL A   1      33.373  33.557  27.504  1.00  0.00    -0.460 OA
BRANCH  29  30
ATOM     30  C   UNL A   1      33.399  34.123  28.734  1.00  0.00     0.338 C 
ATOM     31  O   UNL A   1      32.552  34.826  29.251  1.00  0.00    -0.246 OA
BRANCH  30  32
ATOM     32  C   UNL A   1      34.568  33.616  29.475  1.00  0.00     0.060 A 
ATOM     33  C   UNL A   1      35.843  33.948  29.001  1.00  0.00     0.016 A 
ATOM     34  C   UNL A   1      34.410  32.766  30.569  1.00  0.00     0.016 A 
ATOM     35  C   UNL A   1      36.973  33.407  29.608  1.00  0.00     0.010 A 
ATOM     36  C   UNL A   1      35.543  32.204  31.162  1.00  0.00     0.010 A 
ATOM     37  C   UNL A   1      36.826  32.499  30.664  1.00  0.00    -0.014 A 
BRANCH  37  38
ATOM     38  C   UNL A   1      38.000  31.731  31.136  1.00  0.00     0.031 A 
ATOM     39  C   UNL A   1      38.634  32.112  32.445  1.00  0.00     0.074 A 
ATOM     40  C   UNL A   1      38.484  30.701  30.423  1.00  0.00     0.049 A 
ATOM     41  N   UNL A   1      39.683  31.602  33.038  1.00  0.00    -0.248 NA
ATOM     42  C   UNL A   1      37.998  33.215  33.185  1.00  0.00     0.031 C 
ATOM     43  C   UNL A   1      37.927  30.202  29.167  1.00  0.00     0.029 A 
ATOM     44  N   UNL A   1      39.563  29.889  30.663  1.00  0.00    -0.354 N 
ATOM     45  C   UNL A   1      39.843  32.331  34.209  1.00  0.00     0.074 A 
ATOM     46  C   UNL A   1      38.795  33.328  34.237  1.00  0.00     0.031 C 
ATOM     47  C   UNL A   1      38.673  29.165  28.744  1.00  0.00     0.029 A 
ATOM     48  C   UNL A   1      39.778  28.957  29.678  1.00  0.00     0.049 A 
ATOM     49  H   UNL A   1      40.130  29.968  31.463  1.00  0.00     0.167 HD
ATOM     50  C   UNL A   1      40.779  32.184  35.176  1.00  0.00     0.031 A 
ATOM     51  C   UNL A   1      40.768  28.055  29.538  1.00  0.00     0.031 A 
ATOM     52  C   UNL A   1      41.831  31.205  35.143  1.00  0.00     0.049 A 
ATOM     53  C   UNL A   1      41.851  27.974  30.581  1.00  0.00     0.074 A 
ATOM     54  C   UNL A   1      42.812  30.961  36.088  1.00  0.00     0.029 A 
ATOM     55  N   UNL A   1      42.047  30.316  34.102  1.00  0.00    -0.354 N 
ATOM     56  N   UNL A   1      41.974  28.645  31.702  1.00  0.00    -0.248 NA
ATOM     57  C   UNL A   1      42.934  27.009  30.337  1.00  0.00     0.031 C 
ATOM     58  C   UNL A   1      43.658  29.963  35.591  1.00  0.00     0.029 A 
ATOM     59  C   UNL A   1      43.167  29.545  34.364  1.00  0.00     0.049 A 
ATOM     60  H   UNL A   1      41.487  30.243  33.295  1.00  0.00     0.167 HD
ATOM     61  C   UNL A   1      43.125  28.159  32.311  1.00  0.00     0.074 A 
ATOM     62  C   UNL A   1      43.659  27.134  31.440  1.00  0.00     0.031 C 
ATOM     63  C   UNL A   1      43.686  28.526  33.489  1.00  0.00     0.031 A 
BRANCH  50  64
ATOM     64  C   UNL A   1      40.732  33.144  36.330  1.00  0.00    -0.014 A 
ATOM     65  C   UNL A   1      40.026  32.844  37.506  1.00  0.00     0.009 A 
ATOM     66  C   UNL A   1      41.423  34.363  36.246  1.00  0.00     0.009 A 
ATOM     67  C   UNL A   1      39.985  33.761  38.559  1.00  0.00     0.001 A 
ATOM     68  C   UNL A   1      41.403  35.265  37.309  1.00  0.00     0.001 A 
ATOM     69  C   UNL A   1      40.676  34.968  38.462  1.00  0.00     0.000 A 
ENDBRANCH  50  64
BRANCH  51  70
ATOM     70  C   UNL A   1      40.798  27.159  28.353  1.00  0.00    -0.014 A 
ATOM     71  C   UNL A   1      41.426  27.568  27.167  1.00  0.00     0.009 A 
ATOM     72  C   UNL A   1      40.176  25.901  28.394  1.00  0.00     0.009 A 
ATOM     73  C   UNL A   1      41.411  26.744  26.039  1.00  0.00     0.001 A 
ATOM     74  C   UNL A   1      40.187  25.068  27.274  1.00  0.00     0.001 A 
ATOM     75  C   UNL A   1      40.796  25.494  26.094  1.00  0.00     0.000 A 
ENDBRANCH  51  70
BRANCH  63  76
ATOM     76  C   UNL A   1      44.918  27.784  33.930  1.00  0.00    -0.014 A 
ATOM     77  C   UNL A   1      46.204  28.249  33.616  1.00  0.00     0.009 A 
ATOM     78  C   UNL A   1      44.785  26.625  34.712  1.00  0.00     0.009 A 
ATOM     79  C   UNL A   1      47.332  27.548  34.049  1.00  0.00     0.001 A 
ATOM     80  C   UNL A   1      45.914  25.943  35.167  1.00  0.00     0.001 A 
ATOM     81  C   UNL A   1      47.186  26.400  34.828  1.00  0.00     0.000 A 
ENDBRANCH  63  76
ENDBRANCH  37  38
ENDBRANCH  30  32
ENDBRANCH  29  30
ENDBRANCH  28  29
ENDBRANCH  27  28
ENDBRANCH  26  27
ENDBRANCH  25  26
ENDBRANCH   1  25
TORSDOF 22
ENDMDL
MODEL 3
REMARK VINA RESULT:      -8.8      0.968      5.857
REMARK SMILES CC(C)N(CC1CC1)C(=O)N[C@@H]1C=C[C@H](C(=O)OCCOCCOCCOC(=O)c2ccc(-c3c4nc(c(-c5ccccc5)c5ccc([nH]5)c(-c5ccccc5)c5nc(c(-c6ccccc6)c6ccc3[nH]6)C=C5)C=C4)cc2)C1
REMARK SMILES IDX 22 1 21 2 20 3 19 4 18 5 16 6 17 7 15 8 12 9 13 10 78 11
REMARK SMILES IDX 14 12 11 13 9 14 10 15 4 17 2 18 1 19 3 20 5 21 6 22 7 23
REMARK SMILES IDX 8 24 23 25 24 26 25 27 26 28 27 29 28 30 29 31 30 32 31 33
REMARK SMILES IDX 77 34 32 35 76 36 33 37 34 38 35 39 70 40 36 41 75 42 69 43
REMARK SMILES IDX 71 44 37 45 74 46 68 47 67 48 38 50 60 51 45 52 59 53 46 54
REMARK SMILES IDX 49 55 58 56 72 57 47 58 48 59 57 61 73 62 50 63 39 64 40 65
REMARK SMILES IDX 44 66 41 67 43 68 42 69 61 70 62 71 66 72 63 73 65 74 64 75
REMARK SMILES IDX 51 76 52 77 56 78 53 79 55 80 54 81
REMARK H PARENT 11 16 71 49 49 60
REMARK Flexibility Score: inf
ROOT
ATOM      1  C   UNL A   1      33.626  28.281  25.993  1.00  0.00     0.188 C 
ENDROOT
BRANCH   1   2
ATOM      2  O   UNL A   1      34.035  27.445  24.930  1.00  0.00    -0.376 OA
BRANCH   2   3
ATOM      3  C   UNL A   1      33.727  27.803  23.586  1.00  0.00     0.202 C 
BRANCH   3   4
ATOM      4  C   UNL A   1      33.140  26.812  22.570  1.00  0.00     0.261 C 
BRANCH   4   5
ATOM      5  O   UNL A   1      33.957  25.659  22.339  1.00  0.00    -0.463 OA
BRANCH   5   6
ATOM      6  C   UNL A   1      33.762  24.627  23.214  1.00  0.00     0.312 C 
ATOM      7  O   UNL A   1      32.670  24.175  23.533  1.00  0.00    -0.252 OA
BRANCH   6   8
ATOM      8  C   UNL A   1      35.098  24.036  23.646  1.00  0.00     0.124 C 
ATOM      9  C   UNL A   1      34.945  21.986  25.025  1.00  0.00     0.107 C 
ATOM     10  C   UNL A   1      35.265  23.200  25.836  1.00  0.00    -0.006 C 
ATOM     11  C   UNL A   1      35.052  22.500  23.581  1.00  0.00     0.048 C 
ATOM     12  C   UNL A   1      35.365  24.307  25.091  1.00  0.00    -0.014 C 
BRANCH   9  13
ATOM     13  N   UNL A   1      33.602  21.561  25.358  1.00  0.00    -0.332 N 
ATOM     14  C   UNL A   1      32.720  20.600  25.036  1.00  0.00     0.318 C 
ATOM     15  O   UNL A   1      31.625  20.736  25.595  1.00  0.00    -0.249 OA
ATOM     16  H   UNL A   1      33.214  22.165  26.031  1.00  0.00     0.165 HD
BRANCH  14  17
ATOM     17  N   UNL A   1      32.962  19.553  24.186  1.00  0.00    -0.322 N 
BRANCH  17  18
ATOM     18  C   UNL A   1      32.102  19.415  22.978  1.00  0.00     0.080 C 
ATOM     19  C   UNL A   1      31.979  20.721  22.185  1.00  0.00     0.031 C 
ATOM     20  C   UNL A   1      32.483  18.234  22.083  1.00  0.00     0.031 C 
ENDBRANCH  17  18
BRANCH  17  21
ATOM     21  C   UNL A   1      33.978  18.514  24.306  1.00  0.00     0.125 C 
BRANCH  21  22
ATOM     22  C   UNL A   1      33.624  17.507  25.364  1.00  0.00     0.009 C 
ATOM     23  C   UNL A   1      32.364  16.673  25.319  1.00  0.00     0.006 C 
ATOM     24  C   UNL A   1      33.695  16.024  25.074  1.00  0.00     0.006 C 
ENDBRANCH  21  22
ENDBRANCH  17  21
ENDBRANCH  14  17
ENDBRANCH   9  13
ENDBRANCH   6   8
ENDBRANCH   5   6
ENDBRANCH   4   5
ENDBRANCH   3   4
ENDBRANCH   2   3
ENDBRANCH   1   2
BRANCH   1  25
ATOM     25  C   UNL A   1      32.864  29.581  25.659  1.00  0.00     0.188 C 
BRANCH  25  26
ATOM     26  O   UNL A   1      31.873  30.099  26.521  1.00  0.00    -0.376 OA
BRANCH  26  27
ATOM     27  C   UNL A   1      31.959  31.440  26.977  1.00  0.00     0.202 C 
BRANCH  27  28
ATOM     28  C   UNL A   1      33.154  31.994  27.771  1.00  0.00     0.261 C 
BRANCH  28  29
ATOM     29  O   UNL A   1      33.449  33.384  27.595  1.00  0.00    -0.460 OA
BRANCH  29  30
ATOM     30  C   UNL A   1      33.506  34.100  28.743  1.00  0.00     0.338 C 
ATOM     31  O   UNL A   1      32.631  34.782  29.242  1.00  0.00    -0.246 OA
BRANCH  30  32
ATOM     32  C   UNL A   1      34.770  33.801  29.438  1.00  0.00     0.060 A 
ATOM     33  C   UNL A   1      35.971  34.093  28.777  1.00  0.00     0.016 A 
ATOM     34  C   UNL A   1      34.773  33.172  30.682  1.00  0.00     0.016 A 
ATOM     35  C   UNL A   1      37.186  33.731  29.353  1.00  0.00     0.010 A 
ATOM     36  C   UNL A   1      35.992  32.789  31.247  1.00  0.00     0.010 A 
ATOM     37  C   UNL A   1      37.199  33.040  30.570  1.00  0.00    -0.014 A 
BRANCH  37  38
ATOM     38  C   UNL A   1      38.460  32.432  31.051  1.00  0.00     0.031 A 
ATOM     39  C   UNL A   1      38.950  31.170  30.397  1.00  0.00     0.074 A 
ATOM     40  C   UNL A   1      39.169  33.001  32.040  1.00  0.00     0.049 A 
ATOM     41  N   UNL A   1      40.006  30.449  30.673  1.00  0.00    -0.248 NA
ATOM     42  C   UNL A   1      38.138  30.653  29.283  1.00  0.00     0.031 C 
ATOM     43  C   UNL A   1      38.828  34.250  32.719  1.00  0.00     0.029 A 
ATOM     44  N   UNL A   1      40.330  32.592  32.646  1.00  0.00    -0.354 N 
ATOM     45  C   UNL A   1      39.979  29.387  29.778  1.00  0.00     0.074 A 
ATOM     46  C   UNL A   1      38.794  29.547  28.964  1.00  0.00     0.031 C 
ATOM     47  C   UNL A   1      39.763  34.507  33.651  1.00  0.00     0.029 A 
ATOM     48  C   UNL A   1      40.741  33.421  33.660  1.00  0.00     0.049 A 
ATOM     49  H   UNL A   1      40.820  31.782  32.379  1.00  0.00     0.167 HD
ATOM     50  C   UNL A   1      40.860  28.368  29.647  1.00  0.00     0.031 A 
ATOM     51  C   UNL A   1      41.778  33.301  34.511  1.00  0.00     0.031 A 
ATOM     52  C   UNL A   1      42.029  28.199  30.466  1.00  0.00     0.049 A 
ATOM     53  C   UNL A   1      42.691  32.109  34.405  1.00  0.00     0.074 A 
ATOM     54  C   UNL A   1      42.998  27.212  30.393  1.00  0.00     0.029 A 
ATOM     55  N   UNL A   1      42.381  29.028  31.518  1.00  0.00    -0.354 N 
ATOM     56  N   UNL A   1      42.676  31.128  33.534  1.00  0.00    -0.248 NA
ATOM     57  C   UNL A   1      43.767  32.009  35.403  1.00  0.00     0.031 C 
ATOM     58  C   UNL A   1      43.904  27.412  31.440  1.00  0.00     0.029 A 
ATOM     59  C   UNL A   1      43.533  28.558  32.126  1.00  0.00     0.049 A 
ATOM     60  H   UNL A   1      41.886  29.834  31.793  1.00  0.00     0.167 HD
ATOM     61  C   UNL A   1      43.757  30.316  33.857  1.00  0.00     0.074 A 
ATOM     62  C   UNL A   1      44.410  30.922  34.999  1.00  0.00     0.031 C 
ATOM     63  C   UNL A   1      44.174  29.173  33.260  1.00  0.00     0.031 A 
BRANCH  50  64
ATOM     64  C   UNL A   1      40.560  27.329  28.605  1.00  0.00    -0.014 A 
ATOM     65  C   UNL A   1      41.041  27.447  27.292  1.00  0.00     0.009 A 
ATOM     66  C   UNL A   1      39.799  26.201  28.950  1.00  0.00     0.009 A 
ATOM     67  C   UNL A   1      40.734  26.474  26.337  1.00  0.00     0.001 A 
ATOM     68  C   UNL A   1      39.517  25.218  28.003  1.00  0.00     0.001 A 
ATOM     69  C   UNL A   1      39.977  25.360  26.694  1.00  0.00     0.000 A 
ENDBRANCH  50  64
BRANCH  51  70
ATOM     70  C   UNL A   1      42.005  34.331  35.558  1.00  0.00    -0.014 A 
ATOM     71  C   UNL A   1      41.489  34.159  36.850  1.00  0.00     0.009 A 
ATOM     72  C   UNL A   1      42.718  35.504  35.261  1.00  0.00     0.009 A 
ATOM     73  C   UNL A   1      41.663  35.151  37.818  1.00  0.00     0.001 A 
ATOM     74  C   UNL A   1      42.914  36.481  36.239  1.00  0.00     0.001 A 
ATOM     75  C   UNL A   1      42.378  36.308  37.514  1.00  0.00     0.000 A 
ENDBRANCH  51  70
BRANCH  63  76
ATOM     76  C   UNL A   1      45.420  28.526  33.797  1.00  0.00    -0.014 A 
ATOM     77  C   UNL A   1      45.359  27.499  34.751  1.00  0.00     0.009 A 
ATOM     78  C   UNL A   1      46.674  28.923  33.304  1.00  0.00     0.009 A 
ATOM     79  C   UNL A   1      46.532  26.905  35.224  1.00  0.00     0.001 A 
ATOM     80  C   UNL A   1      47.841  28.307  33.757  1.00  0.00     0.001 A 
ATOM     81  C   UNL A   1      47.770  27.306  34.723  1.00  0.00     0.000 A 
ENDBRANCH  63  76
ENDBRANCH  37  38
ENDBRANCH  30  32
ENDBRANCH  29  30
ENDBRANCH  28  29
ENDBRANCH  27  28
ENDBRANCH  26  27
ENDBRANCH  25  26
ENDBRANCH   1  25
TORSDOF 22
ENDMDL
