MODEL 1
REMARK VINA RESULT:     -10.1      0.000      0.000
REMARK SMILES O=C(OCCOCCOCCOC(=O)c1cc(-c2cc(Cl)ccc2Cl)cc([N+](=O)[O-])c1)c1ccc(-c2c3nc(c(-c4ccccc4)c4ccc([nH]4)c(-c4ccccc4)c4nc(c(-c5ccccc5)c5ccc2[nH]5)C=C4)C=C3)cc1
REMARK SMILES IDX 7 1 6 2 5 3 4 4 3 5 2 6 1 7 32 8 33 9 79 10 34 11 78 12
REMARK SMILES IDX 35 13 36 14 37 15 72 16 38 17 77 18 71 19 73 20 39 21 76 22
REMARK SMILES IDX 70 23 69 24 40 26 62 27 47 28 61 29 48 30 51 31 60 32 74 33
REMARK SMILES IDX 49 34 50 35 59 37 75 38 52 39 41 40 42 41 46 42 43 43 45 44
REMARK SMILES IDX 44 45 63 46 64 47 68 48 65 49 67 50 66 51 53 52 54 53 58 54
REMARK SMILES IDX 55 55 57 56 56 57 8 58 9 59 10 60 11 61 12 62 13 63 14 64
REMARK SMILES IDX 15 65 16 66 31 67 17 68 27 69 26 70 18 71 19 72 24 73 20 74
REMARK SMILES IDX 23 75 25 76 21 77 22 78 28 79 29 80 30 81
REMARK H PARENT 73 25 51 36
REMARK Flexibility Score: inf
ROOT
ATOM      1  C   UNL A   1      33.908  34.932  28.856  1.00  0.00     0.188 C 
ENDROOT
BRANCH   1   2
ATOM      2  O   UNL A   1      33.081  34.554  29.969  1.00  0.00    -0.376 OA
BRANCH   2   3
ATOM      3  C   UNL A   1      33.215  35.423  31.097  1.00  0.00     0.202 C 
BRANCH   3   4
ATOM      4  C   UNL A   1      34.331  35.002  32.059  1.00  0.00     0.261 C 
BRANCH   4   5
ATOM      5  O   UNL A   1      34.692  33.624  31.872  1.00  0.00    -0.460 OA
BRANCH   5   6
ATOM      6  C   UNL A   1      35.588  32.903  32.591  1.00  0.00     0.338 C 
ATOM      7  O   UNL A   1      35.377  32.708  33.787  1.00  0.00    -0.246 OA
BRANCH   6   8
ATOM      8  C   UNL A   1      36.789  32.256  31.987  1.00  0.00     0.060 A 
ATOM      9  C   UNL A   1      37.702  31.458  32.680  1.00  0.00     0.016 A 
ATOM     10  C   UNL A   1      36.954  32.394  30.598  1.00  0.00     0.016 A 
ATOM     11  C   UNL A   1      38.807  30.903  32.036  1.00  0.00     0.010 A 
ATOM     12  C   UNL A   1      38.024  31.783  29.934  1.00  0.00     0.010 A 
ATOM     13  C   UNL A   1      38.975  31.053  30.657  1.00  0.00    -0.014 A 
BRANCH  13  14
ATOM     14  C   UNL A   1      40.158  30.462  29.990  1.00  0.00     0.031 A 
ATOM     15  C   UNL A   1      41.416  31.267  29.845  1.00  0.00     0.074 A 
ATOM     16  C   UNL A   1      40.123  29.188  29.558  1.00  0.00     0.049 A 
ATOM     17  N   UNL A   1      42.535  30.944  29.245  1.00  0.00    -0.248 NA
ATOM     18  C   UNL A   1      41.427  32.599  30.468  1.00  0.00     0.031 C 
ATOM     19  C   UNL A   1      38.990  28.271  29.700  1.00  0.00     0.029 A 
ATOM     20  N   UNL A   1      41.077  28.444  28.911  1.00  0.00    -0.354 N 
ATOM     21  C   UNL A   1      43.380  32.031  29.418  1.00  0.00     0.074 A 
ATOM     22  C   UNL A   1      42.640  33.032  30.158  1.00  0.00     0.031 C 
ATOM     23  C   UNL A   1      39.316  27.092  29.146  1.00  0.00     0.029 A 
ATOM     24  C   UNL A   1      40.647  27.188  28.564  1.00  0.00     0.049 A 
ATOM     25  H   UNL A   1      41.982  28.778  28.715  1.00  0.00     0.167 HD
ATOM     26  C   UNL A   1      44.660  32.180  29.005  1.00  0.00     0.031 A 
ATOM     27  C   UNL A   1      41.233  26.234  27.821  1.00  0.00     0.031 A 
ATOM     28  C   UNL A   1      45.398  31.197  28.262  1.00  0.00     0.049 A 
ATOM     29  C   UNL A   1      42.599  26.475  27.261  1.00  0.00     0.074 A 
ATOM     30  C   UNL A   1      46.704  31.257  27.807  1.00  0.00     0.029 A 
ATOM     31  N   UNL A   1      44.887  29.977  27.854  1.00  0.00    -0.354 N 
ATOM     32  N   UNL A   1      43.379  27.515  27.417  1.00  0.00    -0.248 NA
ATOM     33  C   UNL A   1      43.162  25.412  26.416  1.00  0.00     0.031 C 
ATOM     34  C   UNL A   1      46.968  30.088  27.083  1.00  0.00     0.029 A 
ATOM     35  C   UNL A   1      45.837  29.289  27.120  1.00  0.00     0.049 A 
ATOM     36  H   UNL A   1      43.981  29.648  28.054  1.00  0.00     0.167 HD
ATOM     37  C   UNL A   1      44.525  27.234  26.690  1.00  0.00     0.074 A 
ATOM     38  C   UNL A   1      44.346  25.920  26.107  1.00  0.00     0.031 C 
ATOM     39  C   UNL A   1      45.629  27.998  26.521  1.00  0.00     0.031 A 
BRANCH  26  40
ATOM     40  C   UNL A   1      45.328  33.484  29.328  1.00  0.00    -0.014 A 
ATOM     41  C   UNL A   1      45.949  33.691  30.569  1.00  0.00     0.009 A 
ATOM     42  C   UNL A   1      45.342  34.512  28.374  1.00  0.00     0.009 A 
ATOM     43  C   UNL A   1      46.549  34.919  30.858  1.00  0.00     0.001 A 
ATOM     44  C   UNL A   1      45.956  35.731  28.661  1.00  0.00     0.001 A 
ATOM     45  C   UNL A   1      46.552  35.936  29.904  1.00  0.00     0.000 A 
ENDBRANCH  26  40
BRANCH  27  46
ATOM     46  C   UNL A   1      40.490  25.004  27.461  1.00  0.00    -0.014 A 
ATOM     47  C   UNL A   1      40.931  23.741  27.876  1.00  0.00     0.009 A 
ATOM     48  C   UNL A   1      39.353  25.100  26.642  1.00  0.00     0.009 A 
ATOM     49  C   UNL A   1      40.258  22.591  27.459  1.00  0.00     0.001 A 
ATOM     50  C   UNL A   1      38.679  23.950  26.235  1.00  0.00     0.001 A 
ATOM     51  C   UNL A   1      39.134  22.697  26.639  1.00  0.00     0.000 A 
ENDBRANCH  27  46
BRANCH  39  52
ATOM     52  C   UNL A   1      46.715  27.422  25.666  1.00  0.00    -0.014 A 
ATOM     53  C   UNL A   1      46.933  27.904  24.366  1.00  0.00     0.009 A 
ATOM     54  C   UNL A   1      47.523  26.389  26.162  1.00  0.00     0.009 A 
ATOM     55  C   UNL A   1      47.928  27.339  23.568  1.00  0.00     0.001 A 
ATOM     56  C   UNL A   1      48.529  25.841  25.367  1.00  0.00     0.001 A 
ATOM     57  C   UNL A   1      48.726  26.311  24.070  1.00  0.00     0.000 A 
ENDBRANCH  39  52
ENDBRANCH  13  14
ENDBRANCH   6   8
ENDBRANCH   5   6
ENDBRANCH   4   5
ENDBRANCH   3   4
ENDBRANCH   2   3
ENDBRANCH   1   2
BRANCH   1  58
ATOM     58  C   UNL A   1      34.147  33.719  27.954  1.00  0.00     0.188 C 
BRANCH  58  59
ATOM     59  O   UNL A   1      34.127  32.461  28.638  1.00  0.00    -0.376 OA
BRANCH  59  60
ATOM     60  C   UNL A   1      34.456  31.306  27.874  1.00  0.00     0.202 C 
BRANCH  60  61
ATOM     61  C   UNL A   1      33.276  30.487  27.342  1.00  0.00     0.261 C 
BRANCH  61  62
ATOM     62  O   UNL A   1      33.493  29.069  27.255  1.00  0.00    -0.460 OA
BRANCH  62  63
ATOM     63  C   UNL A   1      33.657  28.626  25.988  1.00  0.00     0.338 C 
ATOM     64  O   UNL A   1      34.277  29.158  25.080  1.00  0.00    -0.246 OA
BRANCH  63  65
ATOM     65  C   UNL A   1      32.809  27.457  25.738  1.00  0.00     0.067 A 
ATOM     66  C   UNL A   1      33.317  26.150  25.816  1.00  0.00     0.025 A 
ATOM     67  C   UNL A   1      31.563  27.715  25.168  1.00  0.00     0.101 A 
ATOM     68  C   UNL A   1      32.572  25.069  25.306  1.00  0.00    -0.009 A 
ATOM     69  C   UNL A   1      30.831  26.646  24.662  1.00  0.00     0.270 A 
ATOM     70  C   UNL A   1      31.304  25.332  24.752  1.00  0.00     0.094 A 
BRANCH  68  71
ATOM     71  C   UNL A   1      33.133  23.702  25.247  1.00  0.00     0.002 A 
ATOM     72  C   UNL A   1      34.399  23.485  24.670  1.00  0.00     0.030 A 
ATOM     73  C   UNL A   1      32.448  22.578  25.765  1.00  0.00     0.048 A 
ATOM     74  C   UNL A   1      34.958  22.204  24.632  1.00  0.00     0.041 A 
ATOM     75  C   UNL A   1      33.018  21.301  25.731  1.00  0.00     0.023 A 
ATOM     76  Cl  UNL A   1      30.855  22.696  26.439  1.00  0.00    -0.084 Cl
ATOM     77  Cl  UNL A   1      36.511  21.967  23.929  1.00  0.00    -0.084 Cl
ATOM     78  C   UNL A   1      34.276  21.112  25.164  1.00  0.00     0.022 A 
ENDBRANCH  68  71
BRANCH  69  79
ATOM     79  N   UNL A   1      29.598  26.924  23.934  1.00  0.00     0.062 N 
ATOM     80  O   UNL A   1      28.750  26.023  23.892  1.00  0.00    -0.258 OA
ATOM     81  O   UNL A   1      29.503  28.030  23.387  1.00  0.00    -0.258 OA
ENDBRANCH  69  79
ENDBRANCH  63  65
ENDBRANCH  62  63
ENDBRANCH  61  62
ENDBRANCH  60  61
ENDBRANCH  59  60
ENDBRANCH  58  59
ENDBRANCH   1  58
TORSDOF 19
ENDMDL
MODEL 2
REMARK VINA RESULT:     -10.0      4.617     10.153
REMARK SMILES O=C(OCCOCCOCCOC(=O)c1cc(-c2cc(Cl)ccc2Cl)cc([N+](=O)[O-])c1)c1ccc(-c2c3nc(c(-c4ccccc4)c4ccc([nH]4)c(-c4ccccc4)c4nc(c(-c5ccccc5)c5ccc2[nH]5)C=C4)C=C3)cc1
REMARK SMILES IDX 7 1 6 2 5 3 4 4 3 5 2 6 1 7 32 8 33 9 79 10 34 11 78 12
REMARK SMILES IDX 35 13 36 14 37 15 72 16 38 17 77 18 71 19 73 20 39 21 76 22
REMARK SMILES IDX 70 23 69 24 40 26 62 27 47 28 61 29 48 30 51 31 60 32 74 33
REMARK SMILES IDX 49 34 50 35 59 37 75 38 52 39 41 40 42 41 46 42 43 43 45 44
REMARK SMILES IDX 44 45 63 46 64 47 68 48 65 49 67 50 66 51 53 52 54 53 58 54
REMARK SMILES IDX 55 55 57 56 56 57 8 58 9 59 10 60 11 61 12 62 13 63 14 64
REMARK SMILES IDX 15 65 16 66 31 67 17 68 27 69 26 70 18 71 19 72 24 73 20 74
REMARK SMILES IDX 23 75 25 76 21 77 22 78 28 79 29 80 30 81
REMARK H PARENT 73 25 51 36
REMARK Flexibility Score: inf
ROOT
ATOM      1  C   UNL A   1      40.982  20.929  26.367  1.00  0.00     0.188 C 
ENDROOT
BRANCH   1   2
ATOM      2  O   UNL A   1      41.879  21.910  26.911  1.00  0.00    -0.376 OA
BRANCH   2   3
ATOM      3  C   UNL A   1      41.949  23.109  26.135  1.00  0.00     0.202 C 
BRANCH   3   4
ATOM      4  C   UNL A   1      43.383  23.542  25.813  1.00  0.00     0.261 C 
BRANCH   4   5
ATOM      5  O   UNL A   1      43.529  24.970  25.891  1.00  0.00    -0.460 OA
BRANCH   5   6
ATOM      6  C   UNL A   1      42.542  25.900  25.871  1.00  0.00     0.338 C 
ATOM      7  O   UNL A   1      41.828  25.993  24.875  1.00  0.00    -0.246 OA
BRANCH   6   8
ATOM      8  C   UNL A   1      42.220  26.774  27.037  1.00  0.00     0.060 A 
ATOM      9  C   UNL A   1      42.690  28.077  27.213  1.00  0.00     0.016 A 
ATOM     10  C   UNL A   1      41.303  26.269  27.975  1.00  0.00     0.016 A 
ATOM     11  C   UNL A   1      42.348  28.819  28.344  1.00  0.00     0.010 A 
ATOM     12  C   UNL A   1      40.903  27.035  29.075  1.00  0.00     0.010 A 
ATOM     13  C   UNL A   1      41.445  28.309  29.281  1.00  0.00    -0.014 A 
BRANCH  13  14
ATOM     14  C   UNL A   1      41.097  29.107  30.479  1.00  0.00     0.031 A 
ATOM     15  C   UNL A   1      39.953  30.077  30.427  1.00  0.00     0.074 A 
ATOM     16  C   UNL A   1      41.774  28.930  31.629  1.00  0.00     0.049 A 
ATOM     17  N   UNL A   1      39.531  30.903  31.352  1.00  0.00    -0.248 NA
ATOM     18  C   UNL A   1      39.170  30.112  29.182  1.00  0.00     0.031 C 
ATOM     19  C   UNL A   1      42.861  27.970  31.839  1.00  0.00     0.029 A 
ATOM     20  N   UNL A   1      41.641  29.555  32.843  1.00  0.00    -0.354 N 
ATOM     21  C   UNL A   1      38.437  31.554  30.802  1.00  0.00     0.074 A 
ATOM     22  C   UNL A   1      38.272  31.046  29.455  1.00  0.00     0.031 C 
ATOM     23  C   UNL A   1      43.297  28.081  33.103  1.00  0.00     0.029 A 
ATOM     24  C   UNL A   1      42.568  29.150  33.770  1.00  0.00     0.049 A 
ATOM     25  H   UNL A   1      40.948  30.228  33.030  1.00  0.00     0.167 HD
ATOM     26  C   UNL A   1      37.635  32.486  31.368  1.00  0.00     0.031 A 
ATOM     27  C   UNL A   1      42.837  29.615  35.001  1.00  0.00     0.031 A 
ATOM     28  C   UNL A   1      37.798  33.002  32.698  1.00  0.00     0.049 A 
ATOM     29  C   UNL A   1      42.021  30.739  35.557  1.00  0.00     0.074 A 
ATOM     30  C   UNL A   1      37.028  33.943  33.362  1.00  0.00     0.029 A 
ATOM     31  N   UNL A   1      38.809  32.628  33.566  1.00  0.00    -0.354 N 
ATOM     32  N   UNL A   1      41.002  31.358  35.018  1.00  0.00    -0.248 NA
ATOM     33  C   UNL A   1      42.400  31.233  36.889  1.00  0.00     0.031 C 
ATOM     34  C   UNL A   1      37.604  34.171  34.617  1.00  0.00     0.029 A 
ATOM     35  C   UNL A   1      38.708  33.345  34.746  1.00  0.00     0.049 A 
ATOM     36  H   UNL A   1      39.500  31.953  33.373  1.00  0.00     0.167 HD
ATOM     37  C   UNL A   1      40.615  32.316  35.943  1.00  0.00     0.074 A 
ATOM     38  C   UNL A   1      41.499  32.184  37.084  1.00  0.00     0.031 C 
ATOM     39  C   UNL A   1      39.616  33.224  35.855  1.00  0.00     0.031 A 
BRANCH  26  40
ATOM     40  C   UNL A   1      36.523  33.029  30.520  1.00  0.00    -0.014 A 
ATOM     41  C   UNL A   1      36.785  33.910  29.460  1.00  0.00     0.009 A 
ATOM     42  C   UNL A   1      35.200  32.646  30.782  1.00  0.00     0.009 A 
ATOM     43  C   UNL A   1      35.735  34.420  28.695  1.00  0.00     0.001 A 
ATOM     44  C   UNL A   1      34.155  33.145  30.005  1.00  0.00     0.001 A 
ATOM     45  C   UNL A   1      34.422  34.037  28.967  1.00  0.00     0.000 A 
ENDBRANCH  26  40
BRANCH  27  46
ATOM     46  C   UNL A   1      44.003  29.100  35.757  1.00  0.00    -0.014 A 
ATOM     47  C   UNL A   1      45.281  29.647  35.582  1.00  0.00     0.009 A 
ATOM     48  C   UNL A   1      43.835  28.009  36.625  1.00  0.00     0.009 A 
ATOM     49  C   UNL A   1      46.377  29.095  36.248  1.00  0.00     0.001 A 
ATOM     50  C   UNL A   1      44.932  27.466  37.294  1.00  0.00     0.001 A 
ATOM     51  C   UNL A   1      46.201  28.005  37.101  1.00  0.00     0.000 A 
ENDBRANCH  27  46
BRANCH  39  52
ATOM     52  C   UNL A   1      39.442  34.141  37.025  1.00  0.00    -0.014 A 
ATOM     53  C   UNL A   1      39.948  35.449  36.990  1.00  0.00     0.009 A 
ATOM     54  C   UNL A   1      38.771  33.693  38.172  1.00  0.00     0.009 A 
ATOM     55  C   UNL A   1      39.807  36.285  38.098  1.00  0.00     0.001 A 
ATOM     56  C   UNL A   1      38.615  34.539  39.269  1.00  0.00     0.001 A 
ATOM     57  C   UNL A   1      39.139  35.830  39.234  1.00  0.00     0.000 A 
ENDBRANCH  39  52
ENDBRANCH  13  14
ENDBRANCH   6   8
ENDBRANCH   5   6
ENDBRANCH   4   5
ENDBRANCH   3   4
ENDBRANCH   2   3
ENDBRANCH   1   2
BRANCH   1  58
ATOM     58  C   UNL A   1      39.569  21.511  26.282  1.00  0.00     0.188 C 
BRANCH  58  59
ATOM     59  O   UNL A   1      38.645  20.710  25.538  1.00  0.00    -0.376 OA
BRANCH  59  60
ATOM     60  C   UNL A   1      37.650  21.400  24.789  1.00  0.00     0.202 C 
BRANCH  60  61
ATOM     61  C   UNL A   1      36.195  21.122  25.177  1.00  0.00     0.261 C 
BRANCH  61  62
ATOM     62  O   UNL A   1      35.252  22.148  24.828  1.00  0.00    -0.460 OA
BRANCH  62  63
ATOM     63  C   UNL A   1      35.347  23.253  25.602  1.00  0.00     0.338 C 
ATOM     64  O   UNL A   1      36.259  23.572  26.349  1.00  0.00    -0.246 OA
BRANCH  63  65
ATOM     65  C   UNL A   1      34.081  23.993  25.600  1.00  0.00     0.067 A 
ATOM     66  C   UNL A   1      34.051  25.397  25.611  1.00  0.00     0.025 A 
ATOM     67  C   UNL A   1      32.933  23.244  25.851  1.00  0.00     0.101 A 
ATOM     68  C   UNL A   1      32.849  26.078  25.888  1.00  0.00    -0.009 A 
ATOM     69  C   UNL A   1      31.748  23.918  26.129  1.00  0.00     0.270 A 
ATOM     70  C   UNL A   1      31.687  25.316  26.119  1.00  0.00     0.094 A 
BRANCH  68  71
ATOM     71  C   UNL A   1      32.810  27.547  26.043  1.00  0.00     0.002 A 
ATOM     72  C   UNL A   1      33.778  28.198  26.832  1.00  0.00     0.030 A 
ATOM     73  C   UNL A   1      31.831  28.351  25.413  1.00  0.00     0.048 A 
ATOM     74  C   UNL A   1      33.775  29.591  26.966  1.00  0.00     0.041 A 
ATOM     75  C   UNL A   1      31.840  29.744  25.545  1.00  0.00     0.023 A 
ATOM     76  Cl  UNL A   1      30.544  27.671  24.471  1.00  0.00    -0.084 Cl
ATOM     77  Cl  UNL A   1      34.975  30.362  27.928  1.00  0.00    -0.084 Cl
ATOM     78  C   UNL A   1      32.813  30.366  26.322  1.00  0.00     0.022 A 
ENDBRANCH  68  71
BRANCH  69  79
ATOM     79  N   UNL A   1      30.581  23.144  26.537  1.00  0.00     0.062 N 
ATOM     80  O   UNL A   1      29.834  23.651  27.384  1.00  0.00    -0.258 OA
ATOM     81  O   UNL A   1      30.440  22.024  26.029  1.00  0.00    -0.258 OA
ENDBRANCH  69  79
ENDBRANCH  63  65
ENDBRANCH  62  63
ENDBRANCH  61  62
ENDBRANCH  60  61
ENDBRANCH  59  60
ENDBRANCH  58  59
ENDBRANCH   1  58
TORSDOF 19
ENDMDL
MODEL 3
REMARK VINA RESULT:     -10.0      1.990      6.388
REMARK SMILES O=C(OCCOCCOCCOC(=O)c1cc(-c2cc(Cl)ccc2Cl)cc([N+](=O)[O-])c1)c1ccc(-c2c3nc(c(-c4ccccc4)c4ccc([nH]4)c(-c4ccccc4)c4nc(c(-c5ccccc5)c5ccc2[nH]5)C=C4)C=C3)cc1
REMARK SMILES IDX 7 1 6 2 5 3 4 4 3 5 2 6 1 7 32 8 33 9 79 10 34 11 78 12
REMARK SMILES IDX 35 13 36 14 37 15 72 16 38 17 77 18 71 19 73 20 39 21 76 22
REMARK SMILES IDX 70 23 69 24 40 26 62 27 47 28 61 29 48 30 51 31 60 32 74 33
REMARK SMILES IDX 49 34 50 35 59 37 75 38 52 39 41 40 42 41 46 42 43 43 45 44
REMARK SMILES IDX 44 45 63 46 64 47 68 48 65 49 67 50 66 51 53 52 54 53 58 54
REMARK SMILES IDX 55 55 57 56 56 57 8 58 9 59 10 60 11 61 12 62 13 63 14 64
REMARK SMILES IDX 15 65 16 66 31 67 17 68 27 69 26 70 18 71 19 72 24 73 20 74
REMARK SMILES IDX 23 75 25 76 21 77 22 78 28 79 29 80 30 81
REMARK H PARENT 73 25 51 36
REMARK Flexibility Score: inf
ROOT
ATOM      1  C   UNL A   1      33.189  31.710  27.535  1.00  0.00     0.188 C 
ENDROOT
BRANCH   1   2
ATOM      2  O   UNL A   1      34.612  31.518  27.496  1.00  0.00    -0.376 OA
BRANCH   2   3
ATOM      3  C   UNL A   1      35.348  32.598  28.075  1.00  0.00     0.202 C 
BRANCH   3   4
ATOM      4  C   UNL A   1      35.283  32.627  29.605  1.00  0.00     0.261 C 
BRANCH   4   5
ATOM      5  O   UNL A   1      35.465  31.315  30.162  1.00  0.00    -0.460 OA
BRANCH   5   6
ATOM      6  C   UNL A   1      36.433  30.913  31.023  1.00  0.00     0.338 C 
ATOM      7  O   UNL A   1      36.185  30.875  32.227  1.00  0.00    -0.246 OA
BRANCH   6   8
ATOM      8  C   UNL A   1      37.773  30.431  30.578  1.00  0.00     0.060 A 
ATOM      9  C   UNL A   1      38.789  29.992  31.430  1.00  0.00     0.016 A 
ATOM     10  C   UNL A   1      37.984  30.330  29.192  1.00  0.00     0.016 A 
ATOM     11  C   UNL A   1      40.019  29.569  30.927  1.00  0.00     0.010 A 
ATOM     12  C   UNL A   1      39.191  29.843  28.680  1.00  0.00     0.010 A 
ATOM     13  C   UNL A   1      40.229  29.483  29.548  1.00  0.00    -0.014 A 
BRANCH  13  14
ATOM     14  C   UNL A   1      41.544  29.038  29.030  1.00  0.00     0.031 A 
ATOM     15  C   UNL A   1      41.741  27.610  28.615  1.00  0.00     0.074 A 
ATOM     16  C   UNL A   1      42.547  29.923  28.885  1.00  0.00     0.049 A 
ATOM     17  N   UNL A   1      42.830  27.019  28.190  1.00  0.00    -0.248 NA
ATOM     18  C   UNL A   1      40.559  26.735  28.666  1.00  0.00     0.031 C 
ATOM     19  C   UNL A   1      42.470  31.356  29.183  1.00  0.00     0.029 A 
ATOM     20  N   UNL A   1      43.834  29.742  28.446  1.00  0.00    -0.354 N 
ATOM     21  C   UNL A   1      42.465  25.707  27.924  1.00  0.00     0.074 A 
ATOM     22  C   UNL A   1      41.062  25.580  28.257  1.00  0.00     0.031 C 
ATOM     23  C   UNL A   1      43.662  31.916  28.924  1.00  0.00     0.029 A 
ATOM     24  C   UNL A   1      44.596  30.882  28.503  1.00  0.00     0.049 A 
ATOM     25  H   UNL A   1      44.178  28.879  28.121  1.00  0.00     0.167 HD
ATOM     26  C   UNL A   1      43.228  24.699  27.440  1.00  0.00     0.031 A 
ATOM     27  C   UNL A   1      45.908  31.071  28.287  1.00  0.00     0.031 A 
ATOM     28  C   UNL A   1      44.623  24.814  27.118  1.00  0.00     0.049 A 
ATOM     29  C   UNL A   1      46.761  29.911  27.881  1.00  0.00     0.074 A 
ATOM     30  C   UNL A   1      45.477  23.848  26.613  1.00  0.00     0.029 A 
ATOM     31  N   UNL A   1      45.373  25.966  27.281  1.00  0.00    -0.354 N 
ATOM     32  N   UNL A   1      46.406  28.672  27.652  1.00  0.00    -0.248 NA
ATOM     33  C   UNL A   1      48.197  30.176  27.710  1.00  0.00     0.031 C 
ATOM     34  C   UNL A   1      46.757  24.406  26.513  1.00  0.00     0.029 A 
ATOM     35  C   UNL A   1      46.688  25.728  26.922  1.00  0.00     0.049 A 
ATOM     36  H   UNL A   1      45.024  26.827  27.605  1.00  0.00     0.167 HD
ATOM     37  C   UNL A   1      47.574  28.007  27.311  1.00  0.00     0.074 A 
ATOM     38  C   UNL A   1      48.644  28.983  27.346  1.00  0.00     0.031 C 
ATOM     39  C   UNL A   1      47.744  26.702  26.995  1.00  0.00     0.031 A 
BRANCH  26  40
ATOM     40  C   UNL A   1      42.560  23.368  27.265  1.00  0.00    -0.014 A 
ATOM     41  C   UNL A   1      42.286  22.544  28.367  1.00  0.00     0.009 A 
ATOM     42  C   UNL A   1      42.193  22.939  25.981  1.00  0.00     0.009 A 
ATOM     43  C   UNL A   1      41.681  21.299  28.180  1.00  0.00     0.001 A 
ATOM     44  C   UNL A   1      41.574  21.702  25.800  1.00  0.00     0.001 A 
ATOM     45  C   UNL A   1      41.326  20.881  26.899  1.00  0.00     0.000 A 
ENDBRANCH  26  40
BRANCH  27  46
ATOM     46  C   UNL A   1      46.530  32.388  28.562  1.00  0.00    -0.014 A 
ATOM     47  C   UNL A   1      46.803  33.293  27.528  1.00  0.00     0.009 A 
ATOM     48  C   UNL A   1      46.903  32.713  29.877  1.00  0.00     0.009 A 
ATOM     49  C   UNL A   1      47.459  34.494  27.803  1.00  0.00     0.001 A 
ATOM     50  C   UNL A   1      47.550  33.918  30.148  1.00  0.00     0.001 A 
ATOM     51  C   UNL A   1      47.833  34.804  29.111  1.00  0.00     0.000 A 
ENDBRANCH  27  46
BRANCH  39  52
ATOM     52  C   UNL A   1      49.140  26.270  26.673  1.00  0.00    -0.014 A 
ATOM     53  C   UNL A   1      49.683  26.494  25.399  1.00  0.00     0.009 A 
ATOM     54  C   UNL A   1      49.918  25.631  27.650  1.00  0.00     0.009 A 
ATOM     55  C   UNL A   1      50.975  26.061  25.100  1.00  0.00     0.001 A 
ATOM     56  C   UNL A   1      51.216  25.216  27.353  1.00  0.00     0.001 A 
ATOM     57  C   UNL A   1      51.740  25.425  26.078  1.00  0.00     0.000 A 
ENDBRANCH  39  52
ENDBRANCH  13  14
ENDBRANCH   6   8
ENDBRANCH   5   6
ENDBRANCH   4   5
ENDBRANCH   3   4
ENDBRANCH   2   3
ENDBRANCH   1   2
BRANCH   1  58
ATOM     58  C   UNL A   1      32.484  30.479  26.959  1.00  0.00     0.188 C 
BRANCH  58  59
ATOM     59  O   UNL A   1      32.772  29.258  27.648  1.00  0.00    -0.376 OA
BRANCH  59  60
ATOM     60  C   UNL A   1      32.969  28.097  26.849  1.00  0.00     0.202 C 
BRANCH  60  61
ATOM     61  C   UNL A   1      32.408  28.150  25.425  1.00  0.00     0.261 C 
BRANCH  61  62
ATOM     62  O   UNL A   1      31.101  27.579  25.250  1.00  0.00    -0.460 OA
BRANCH  62  63
ATOM     63  C   UNL A   1      31.022  26.287  25.642  1.00  0.00     0.338 C 
ATOM     64  O   UNL A   1      30.565  25.844  26.685  1.00  0.00    -0.246 OA
BRANCH  63  65
ATOM     65  C   UNL A   1      31.755  25.421  24.712  1.00  0.00     0.067 A 
ATOM     66  C   UNL A   1      32.762  24.551  25.158  1.00  0.00     0.025 A 
ATOM     67  C   UNL A   1      31.585  25.697  23.357  1.00  0.00     0.101 A 
ATOM     68  C   UNL A   1      33.633  23.943  24.233  1.00  0.00    -0.009 A 
ATOM     69  C   UNL A   1      32.448  25.098  22.445  1.00  0.00     0.270 A 
ATOM     70  C   UNL A   1      33.444  24.207  22.862  1.00  0.00     0.094 A 
BRANCH  68  71
ATOM     71  C   UNL A   1      34.788  23.133  24.675  1.00  0.00     0.002 A 
ATOM     72  C   UNL A   1      35.970  23.766  25.105  1.00  0.00     0.030 A 
ATOM     73  C   UNL A   1      34.758  21.718  24.698  1.00  0.00     0.048 A 
ATOM     74  C   UNL A   1      37.061  23.016  25.554  1.00  0.00     0.041 A 
ATOM     75  C   UNL A   1      35.851  20.976  25.157  1.00  0.00     0.023 A 
ATOM     76  Cl  UNL A   1      33.391  20.814  24.131  1.00  0.00    -0.084 Cl
ATOM     77  Cl  UNL A   1      38.491  23.815  26.083  1.00  0.00    -0.084 Cl
ATOM     78  C   UNL A   1      37.005  21.625  25.587  1.00  0.00     0.022 A 
ENDBRANCH  68  71
BRANCH  69  79
ATOM     79  N   UNL A   1      32.372  25.495  21.043  1.00  0.00     0.062 N 
ATOM     80  O   UNL A   1      31.395  26.171  20.698  1.00  0.00    -0.258 OA
ATOM     81  O   UNL A   1      33.276  25.099  20.296  1.00  0.00    -0.258 OA
ENDBRANCH  69  79
ENDBRANCH  63  65
ENDBRANCH  62  63
ENDBRANCH  61  62
ENDBRANCH  60  61
ENDBRANCH  59  60
ENDBRANCH  58  59
ENDBRANCH   1  58
TORSDOF 19
ENDMDL
