MODEL 1
REMARK VINA RESULT:     -10.1      0.000      0.000
REMARK SMILES Cc1cc2c(c(C)c1Br)C=C(C(=O)OCCOCCOCCOC(=O)c1ccc(-c3c4nc(c(-c5ccccc5)c5ccc([nH]5)c(-c5ccccc5)c5nc(c(-c6ccccc6)c6ccc3[nH]6)C=C5)C=C4)cc1)[C@@H](C(F)(F)F)O2
REMARK SMILES IDX 19 1 18 2 17 3 16 4 15 5 14 6 12 7 13 8 11 9 1 10 2 11 3 12
REMARK SMILES IDX 8 13 4 14 6 15 9 16 5 17 79 18 7 19 10 20 74 21 75 22 76 23
REMARK SMILES IDX 77 24 78 25 20 26 21 27 22 28 23 29 24 30 25 31 26 32 27 33
REMARK SMILES IDX 73 34 28 35 72 36 29 37 30 38 31 39 66 40 32 41 71 42 65 43
REMARK SMILES IDX 67 44 33 45 70 46 64 47 63 48 34 50 56 51 41 52 55 53 42 54
REMARK SMILES IDX 45 55 54 56 68 57 43 58 44 59 53 61 69 62 46 63 35 64 36 65
REMARK SMILES IDX 40 66 37 67 39 68 38 69 57 70 58 71 62 72 59 73 61 74 60 75
REMARK SMILES IDX 47 76 48 77 52 78 49 79 51 80 50 81
REMARK H PARENT 67 49 45 60
REMARK Flexibility Score: inf
ROOT
ATOM      1  C   UNL A   1      41.435  19.930  27.143  1.00  0.00     0.188 C 
ENDROOT
BRANCH   1   2
ATOM      2  C   UNL A   1      40.188  20.219  26.283  1.00  0.00     0.188 C 
BRANCH   2   3
ATOM      3  O   UNL A   1      39.476  21.422  26.461  1.00  0.00    -0.376 OA
BRANCH   3   4
ATOM      4  C   UNL A   1      38.559  21.886  25.485  1.00  0.00     0.202 C 
BRANCH   4   5
ATOM      5  C   UNL A   1      37.032  21.934  25.672  1.00  0.00     0.261 C 
BRANCH   5   6
ATOM      6  O   UNL A   1      36.383  23.160  25.322  1.00  0.00    -0.460 OA
BRANCH   6   7
ATOM      7  C   UNL A   1      35.143  23.324  25.842  1.00  0.00     0.338 C 
ATOM      8  O   UNL A   1      34.727  22.877  26.898  1.00  0.00    -0.246 OA
BRANCH   7   9
ATOM      9  C   UNL A   1      34.385  24.282  25.011  1.00  0.00     0.087 C 
ATOM     10  C   UNL A   1      30.389  28.800  22.708  1.00  0.00     0.046 C 
ATOM     11  C   UNL A   1      31.491  28.070  23.429  1.00  0.00    -0.033 A 
ATOM     12  C   UNL A   1      31.925  26.852  22.890  1.00  0.00     0.051 A 
ATOM     13  C   UNL A   1      32.040  28.504  24.655  1.00  0.00     0.024 A 
ATOM     14  C   UNL A   1      32.836  26.048  23.570  1.00  0.00     0.128 A 
ATOM     15  C   UNL A   1      33.007  27.724  25.336  1.00  0.00    -0.026 A 
ATOM     16  Br  UNL A   1      31.406  30.145  25.410  1.00  0.00    -0.050 Br
ATOM     17  C   UNL A   1      33.351  26.452  24.805  1.00  0.00     0.021 A 
ATOM     18  O   UNL A   1      33.150  24.876  22.941  1.00  0.00    -0.475 OA
ATOM     19  C   UNL A   1      33.671  28.193  26.612  1.00  0.00     0.046 C 
ATOM     20  C   UNL A   1      34.173  25.493  25.541  1.00  0.00     0.027 C 
ATOM     21  C   UNL A   1      33.910  23.865  23.650  1.00  0.00     0.316 C 
BRANCH  21  22
ATOM     22  C   UNL A   1      33.085  22.573  23.690  1.00  0.00     0.430 C 
ATOM     23  F   UNL A   1      32.412  22.382  22.529  1.00  0.00    -0.167 F 
ATOM     24  F   UNL A   1      33.867  21.483  23.868  1.00  0.00    -0.167 F 
ATOM     25  F   UNL A   1      32.174  22.585  24.689  1.00  0.00    -0.167 F 
ENDBRANCH  21  22
ENDBRANCH   7   9
ENDBRANCH   6   7
ENDBRANCH   5   6
ENDBRANCH   4   5
ENDBRANCH   3   4
ENDBRANCH   2   3
ENDBRANCH   1   2
BRANCH   1  26
ATOM     26  O   UNL A   1      42.717  20.046  26.572  1.00  0.00    -0.376 OA
BRANCH  26  27
ATOM     27  C   UNL A   1      43.068  21.214  25.848  1.00  0.00     0.202 C 
BRANCH  27  28
ATOM     28  C   UNL A   1      44.490  21.806  25.758  1.00  0.00     0.261 C 
BRANCH  28  29
ATOM     29  O   UNL A   1      44.707  23.103  26.324  1.00  0.00    -0.460 OA
BRANCH  29  30
ATOM     30  C   UNL A   1      44.176  24.141  25.625  1.00  0.00     0.338 C 
ATOM     31  O   UNL A   1      44.129  24.276  24.419  1.00  0.00    -0.246 OA
BRANCH  30  32
ATOM     32  C   UNL A   1      43.462  25.026  26.567  1.00  0.00     0.060 A 
ATOM     33  C   UNL A   1      43.777  26.392  26.578  1.00  0.00     0.016 A 
ATOM     34  C   UNL A   1      42.506  24.510  27.441  1.00  0.00     0.016 A 
ATOM     35  C   UNL A   1      43.127  27.251  27.464  1.00  0.00     0.010 A 
ATOM     36  C   UNL A   1      41.878  25.367  28.350  1.00  0.00     0.010 A 
ATOM     37  C   UNL A   1      42.197  26.738  28.377  1.00  0.00    -0.014 A 
BRANCH  37  38
ATOM     38  C   UNL A   1      41.682  27.604  29.464  1.00  0.00     0.031 A 
ATOM     39  C   UNL A   1      42.385  27.585  30.792  1.00  0.00     0.074 A 
ATOM     40  C   UNL A   1      40.631  28.421  29.268  1.00  0.00     0.049 A 
ATOM     41  N   UNL A   1      42.100  28.237  31.889  1.00  0.00    -0.248 NA
ATOM     42  C   UNL A   1      43.575  26.722  30.895  1.00  0.00     0.031 C 
ATOM     43  C   UNL A   1      39.904  28.580  28.010  1.00  0.00     0.029 A 
ATOM     44  N   UNL A   1      39.997  29.276  30.135  1.00  0.00    -0.354 N 
ATOM     45  C   UNL A   1      43.074  27.869  32.808  1.00  0.00     0.074 A 
ATOM     46  C   UNL A   1      43.937  26.910  32.155  1.00  0.00     0.031 C 
ATOM     47  C   UNL A   1      38.922  29.482  28.187  1.00  0.00     0.029 A 
ATOM     48  C   UNL A   1      38.928  29.935  29.577  1.00  0.00     0.049 A 
ATOM     49  H   UNL A   1      40.282  29.405  31.069  1.00  0.00     0.167 HD
ATOM     50  C   UNL A   1      43.243  28.300  34.079  1.00  0.00     0.031 A 
ATOM     51  C   UNL A   1      38.048  30.792  30.131  1.00  0.00     0.031 A 
ATOM     52  C   UNL A   1      42.374  29.237  34.739  1.00  0.00     0.049 A 
ATOM     53  C   UNL A   1      38.186  31.164  31.587  1.00  0.00     0.074 A 
ATOM     54  C   UNL A   1      42.460  29.723  36.032  1.00  0.00     0.029 A 
ATOM     55  N   UNL A   1      41.261  29.826  34.160  1.00  0.00    -0.354 N 
ATOM     56  N   UNL A   1      39.115  30.815  32.443  1.00  0.00    -0.248 NA
ATOM     57  C   UNL A   1      37.156  32.050  32.150  1.00  0.00     0.031 C 
ATOM     58  C   UNL A   1      41.365  30.560  36.256  1.00  0.00     0.029 A 
ATOM     59  C   UNL A   1      40.637  30.651  35.080  1.00  0.00     0.049 A 
ATOM     60  H   UNL A   1      40.960  29.680  33.235  1.00  0.00     0.167 HD
ATOM     61  C   UNL A   1      38.802  31.466  33.632  1.00  0.00     0.074 A 
ATOM     62  C   UNL A   1      37.604  32.238  33.384  1.00  0.00     0.031 C 
ATOM     63  C   UNL A   1      39.452  31.427  34.820  1.00  0.00     0.031 A 
BRANCH  50  64
ATOM     64  C   UNL A   1      44.407  27.754  34.855  1.00  0.00    -0.014 A 
ATOM     65  C   UNL A   1      45.642  28.416  34.867  1.00  0.00     0.009 A 
ATOM     66  C   UNL A   1      44.241  26.606  35.646  1.00  0.00     0.009 A 
ATOM     67  C   UNL A   1      46.696  27.933  35.646  1.00  0.00     0.001 A 
ATOM     68  C   UNL A   1      45.286  26.141  36.446  1.00  0.00     0.001 A 
ATOM     69  C   UNL A   1      46.514  26.802  36.442  1.00  0.00     0.000 A 
ENDBRANCH  50  64
BRANCH  51  70
ATOM     70  C   UNL A   1      36.943  31.364  29.314  1.00  0.00    -0.014 A 
ATOM     71  C   UNL A   1      35.784  30.615  29.059  1.00  0.00     0.009 A 
ATOM     72  C   UNL A   1      37.048  32.653  28.767  1.00  0.00     0.009 A 
ATOM     73  C   UNL A   1      34.764  31.137  28.257  1.00  0.00     0.001 A 
ATOM     74  C   UNL A   1      36.015  33.184  27.992  1.00  0.00     0.001 A 
ATOM     75  C   UNL A   1      34.877  32.422  27.730  1.00  0.00     0.000 A 
ENDBRANCH  51  70
BRANCH  63  76
ATOM     76  C   UNL A   1      38.920  32.268  35.947  1.00  0.00    -0.014 A 
ATOM     77  C   UNL A   1      38.027  31.741  36.893  1.00  0.00     0.009 A 
ATOM     78  C   UNL A   1      39.401  33.576  36.123  1.00  0.00     0.009 A 
ATOM     79  C   UNL A   1      37.615  32.514  37.982  1.00  0.00     0.001 A 
ATOM     80  C   UNL A   1      39.012  34.335  37.228  1.00  0.00     0.001 A 
ATOM     81  C   UNL A   1      38.115  33.804  38.154  1.00  0.00     0.000 A 
ENDBRANCH  63  76
ENDBRANCH  37  38
ENDBRANCH  30  32
ENDBRANCH  29  30
ENDBRANCH  28  29
ENDBRANCH  27  28
ENDBRANCH  26  27
ENDBRANCH   1  26
TORSDOF 18
ENDMDL
MODEL 2
REMARK VINA RESULT:      -9.9      4.803      6.129
REMARK SMILES Cc1cc2c(c(C)c1Br)C=C(C(=O)OCCOCCOCCOC(=O)c1ccc(-c3c4nc(c(-c5ccccc5)c5ccc([nH]5)c(-c5ccccc5)c5nc(c(-c6ccccc6)c6ccc3[nH]6)C=C5)C=C4)cc1)[C@@H](C(F)(F)F)O2
REMARK SMILES IDX 19 1 18 2 17 3 16 4 15 5 14 6 12 7 13 8 11 9 1 10 2 11 3 12
REMARK SMILES IDX 8 13 4 14 6 15 9 16 5 17 79 18 7 19 10 20 74 21 75 22 76 23
REMARK SMILES IDX 77 24 78 25 20 26 21 27 22 28 23 29 24 30 25 31 26 32 27 33
REMARK SMILES IDX 73 34 28 35 72 36 29 37 30 38 31 39 66 40 32 41 71 42 65 43
REMARK SMILES IDX 67 44 33 45 70 46 64 47 63 48 34 50 56 51 41 52 55 53 42 54
REMARK SMILES IDX 45 55 54 56 68 57 43 58 44 59 53 61 69 62 46 63 35 64 36 65
REMARK SMILES IDX 40 66 37 67 39 68 38 69 57 70 58 71 62 72 59 73 61 74 60 75
REMARK SMILES IDX 47 76 48 77 52 78 49 79 51 80 50 81
REMARK H PARENT 67 49 45 60
REMARK Flexibility Score: inf
ROOT
ATOM      1  C   UNL A   1      43.151  21.480  25.592  1.00  0.00     0.188 C 
ENDROOT
BRANCH   1   2
ATOM      2  C   UNL A   1      42.175  21.164  26.743  1.00  0.00     0.188 C 
BRANCH   2   3
ATOM      3  O   UNL A   1      42.346  21.782  27.998  1.00  0.00    -0.376 OA
BRANCH   3   4
ATOM      4  C   UNL A   1      41.703  23.007  28.309  1.00  0.00     0.202 C 
BRANCH   4   5
ATOM      5  C   UNL A   1      42.147  24.384  27.787  1.00  0.00     0.261 C 
BRANCH   5   6
ATOM      6  O   UNL A   1      41.799  25.516  28.590  1.00  0.00    -0.460 OA
BRANCH   6   7
ATOM      7  C   UNL A   1      40.541  25.986  28.410  1.00  0.00     0.338 C 
ATOM      8  O   UNL A   1      39.570  25.352  28.032  1.00  0.00    -0.246 OA
BRANCH   7   9
ATOM      9  C   UNL A   1      40.462  27.376  28.901  1.00  0.00     0.087 C 
ATOM     10  C   UNL A   1      38.644  33.100  31.273  1.00  0.00     0.046 C 
ATOM     11  C   UNL A   1      38.997  31.645  31.105  1.00  0.00    -0.033 A 
ATOM     12  C   UNL A   1      39.884  31.306  30.075  1.00  0.00     0.051 A 
ATOM     13  C   UNL A   1      38.415  30.611  31.868  1.00  0.00     0.024 A 
ATOM     14  C   UNL A   1      40.149  29.976  29.762  1.00  0.00     0.128 A 
ATOM     15  C   UNL A   1      38.713  29.252  31.599  1.00  0.00    -0.026 A 
ATOM     16  Br  UNL A   1      37.165  31.079  33.241  1.00  0.00    -0.050 Br
ATOM     17  C   UNL A   1      39.543  28.946  30.486  1.00  0.00     0.021 A 
ATOM     18  O   UNL A   1      41.011  29.791  28.719  1.00  0.00    -0.475 OA
ATOM     19  C   UNL A   1      38.166  28.121  32.443  1.00  0.00     0.046 C 
ATOM     20  C   UNL A   1      39.733  27.578  30.005  1.00  0.00     0.027 C 
ATOM     21  C   UNL A   1      41.188  28.463  28.164  1.00  0.00     0.316 C 
BRANCH  21  22
ATOM     22  C   UNL A   1      40.822  28.504  26.675  1.00  0.00     0.430 C 
ATOM     23  F   UNL A   1      41.663  29.309  25.982  1.00  0.00    -0.167 F 
ATOM     24  F   UNL A   1      40.900  27.279  26.105  1.00  0.00    -0.167 F 
ATOM     25  F   UNL A   1      39.565  28.963  26.476  1.00  0.00    -0.167 F 
ENDBRANCH  21  22
ENDBRANCH   7   9
ENDBRANCH   6   7
ENDBRANCH   5   6
ENDBRANCH   4   5
ENDBRANCH   3   4
ENDBRANCH   2   3
ENDBRANCH   1   2
BRANCH   1  26
ATOM     26  O   UNL A   1      44.533  21.288  25.778  1.00  0.00    -0.376 OA
BRANCH  26  27
ATOM     27  C   UNL A   1      45.436  21.559  24.717  1.00  0.00     0.202 C 
BRANCH  27  28
ATOM     28  C   UNL A   1      46.010  22.950  24.377  1.00  0.00     0.261 C 
BRANCH  28  29
ATOM     29  O   UNL A   1      46.254  23.851  25.463  1.00  0.00    -0.460 OA
BRANCH  29  30
ATOM     30  C   UNL A   1      46.796  25.048  25.118  1.00  0.00     0.338 C 
ATOM     31  O   UNL A   1      47.524  25.289  24.175  1.00  0.00    -0.246 OA
BRANCH  30  32
ATOM     32  C   UNL A   1      46.200  26.097  25.969  1.00  0.00     0.060 A 
ATOM     33  C   UNL A   1      47.031  26.804  26.848  1.00  0.00     0.016 A 
ATOM     34  C   UNL A   1      44.834  26.367  25.911  1.00  0.00     0.016 A 
ATOM     35  C   UNL A   1      46.495  27.793  27.672  1.00  0.00     0.010 A 
ATOM     36  C   UNL A   1      44.292  27.338  26.760  1.00  0.00     0.010 A 
ATOM     37  C   UNL A   1      45.117  28.044  27.655  1.00  0.00    -0.014 A 
BRANCH  37  38
ATOM     38  C   UNL A   1      44.519  28.925  28.686  1.00  0.00     0.031 A 
ATOM     39  C   UNL A   1      44.082  28.314  29.988  1.00  0.00     0.074 A 
ATOM     40  C   UNL A   1      44.397  30.250  28.487  1.00  0.00     0.049 A 
ATOM     41  N   UNL A   1      43.516  28.882  31.020  1.00  0.00    -0.248 NA
ATOM     42  C   UNL A   1      44.326  26.870  30.151  1.00  0.00     0.031 C 
ATOM     43  C   UNL A   1      44.841  30.974  27.297  1.00  0.00     0.029 A 
ATOM     44  N   UNL A   1      43.863  31.224  29.295  1.00  0.00    -0.354 N 
ATOM     45  C   UNL A   1      43.340  27.870  31.955  1.00  0.00     0.074 A 
ATOM     46  C   UNL A   1      43.826  26.647  31.357  1.00  0.00     0.031 C 
ATOM     47  C   UNL A   1      44.562  32.280  27.454  1.00  0.00     0.029 A 
ATOM     48  C   UNL A   1      43.888  32.479  28.737  1.00  0.00     0.049 A 
ATOM     49  H   UNL A   1      43.497  31.039  30.190  1.00  0.00     0.167 HD
ATOM     50  C   UNL A   1      42.830  27.955  33.206  1.00  0.00     0.031 A 
ATOM     51  C   UNL A   1      43.407  33.649  29.202  1.00  0.00     0.031 A 
ATOM     52  C   UNL A   1      42.326  29.166  33.795  1.00  0.00     0.049 A 
ATOM     53  C   UNL A   1      42.733  33.692  30.551  1.00  0.00     0.074 A 
ATOM     54  C   UNL A   1      41.779  29.344  35.054  1.00  0.00     0.029 A 
ATOM     55  N   UNL A   1      42.305  30.401  33.168  1.00  0.00    -0.354 N 
ATOM     56  N   UNL A   1      42.579  32.731  31.428  1.00  0.00    -0.248 NA
ATOM     57  C   UNL A   1      42.169  34.984  30.974  1.00  0.00     0.031 C 
ATOM     58  C   UNL A   1      41.371  30.675  35.166  1.00  0.00     0.029 A 
ATOM     59  C   UNL A   1      41.729  31.341  34.005  1.00  0.00     0.049 A 
ATOM     60  H   UNL A   1      42.647  30.582  32.263  1.00  0.00     0.167 HD
ATOM     61  C   UNL A   1      41.936  33.309  32.518  1.00  0.00     0.074 A 
ATOM     62  C   UNL A   1      41.737  34.705  32.196  1.00  0.00     0.031 C 
ATOM     63  C   UNL A   1      41.547  32.732  33.681  1.00  0.00     0.031 A 
BRANCH  50  64
ATOM     64  C   UNL A   1      42.776  26.698  34.026  1.00  0.00    -0.014 A 
ATOM     65  C   UNL A   1      43.931  25.937  34.259  1.00  0.00     0.009 A 
ATOM     66  C   UNL A   1      41.572  26.314  34.637  1.00  0.00     0.009 A 
ATOM     67  C   UNL A   1      43.879  24.808  35.078  1.00  0.00     0.001 A 
ATOM     68  C   UNL A   1      41.529  25.201  35.479  1.00  0.00     0.001 A 
ATOM     69  C   UNL A   1      42.681  24.446  35.695  1.00  0.00     0.000 A 
ENDBRANCH  50  64
BRANCH  51  70
ATOM     70  C   UNL A   1      43.536  34.888  28.388  1.00  0.00    -0.014 A 
ATOM     71  C   UNL A   1      44.657  35.720  28.527  1.00  0.00     0.009 A 
ATOM     72  C   UNL A   1      42.529  35.258  27.481  1.00  0.00     0.009 A 
ATOM     73  C   UNL A   1      44.758  36.905  27.793  1.00  0.00     0.001 A 
ATOM     74  C   UNL A   1      42.647  36.427  26.725  1.00  0.00     0.001 A 
ATOM     75  C   UNL A   1      43.757  37.255  26.888  1.00  0.00     0.000 A 
ENDBRANCH  51  70
BRANCH  63  76
ATOM     76  C   UNL A   1      40.901  33.603  34.723  1.00  0.00    -0.014 A 
ATOM     77  C   UNL A   1      41.669  34.379  35.604  1.00  0.00     0.009 A 
ATOM     78  C   UNL A   1      39.502  33.726  34.752  1.00  0.00     0.009 A 
ATOM     79  C   UNL A   1      41.047  35.248  36.504  1.00  0.00     0.001 A 
ATOM     80  C   UNL A   1      38.884  34.618  35.631  1.00  0.00     0.001 A 
ATOM     81  C   UNL A   1      39.658  35.374  36.510  1.00  0.00     0.000 A 
ENDBRANCH  63  76
ENDBRANCH  37  38
ENDBRANCH  30  32
ENDBRANCH  29  30
ENDBRANCH  28  29
ENDBRANCH  27  28
ENDBRANCH  26  27
ENDBRANCH   1  26
TORSDOF 18
ENDMDL
MODEL 3
REMARK VINA RESULT:      -9.9      4.599      6.818
REMARK SMILES Cc1cc2c(c(C)c1Br)C=C(C(=O)OCCOCCOCCOC(=O)c1ccc(-c3c4nc(c(-c5ccccc5)c5ccc([nH]5)c(-c5ccccc5)c5nc(c(-c6ccccc6)c6ccc3[nH]6)C=C5)C=C4)cc1)[C@@H](C(F)(F)F)O2
REMARK SMILES IDX 19 1 18 2 17 3 16 4 15 5 14 6 12 7 13 8 11 9 1 10 2 11 3 12
REMARK SMILES IDX 8 13 4 14 6 15 9 16 5 17 79 18 7 19 10 20 74 21 75 22 76 23
REMARK SMILES IDX 77 24 78 25 20 26 21 27 22 28 23 29 24 30 25 31 26 32 27 33
REMARK SMILES IDX 73 34 28 35 72 36 29 37 30 38 31 39 66 40 32 41 71 42 65 43
REMARK SMILES IDX 67 44 33 45 70 46 64 47 63 48 34 50 56 51 41 52 55 53 42 54
REMARK SMILES IDX 45 55 54 56 68 57 43 58 44 59 53 61 69 62 46 63 35 64 36 65
REMARK SMILES IDX 40 66 37 67 39 68 38 69 57 70 58 71 62 72 59 73 61 74 60 75
REMARK SMILES IDX 47 76 48 77 52 78 49 79 51 80 50 81
REMARK H PARENT 67 49 45 60
REMARK Flexibility Score: inf
ROOT
ATOM      1  C   UNL A   1      41.923  21.560  27.055  1.00  0.00     0.188 C 
ENDROOT
BRANCH   1   2
ATOM      2  C   UNL A   1      41.119  22.542  27.930  1.00  0.00     0.188 C 
BRANCH   2   3
ATOM      3  O   UNL A   1      39.807  22.901  27.558  1.00  0.00    -0.376 OA
BRANCH   3   4
ATOM      4  C   UNL A   1      39.341  22.715  26.232  1.00  0.00     0.202 C 
BRANCH   4   5
ATOM      5  C   UNL A   1      38.249  21.712  25.821  1.00  0.00     0.261 C 
BRANCH   5   6
ATOM      6  O   UNL A   1      36.911  22.215  25.754  1.00  0.00    -0.460 OA
BRANCH   6   7
ATOM      7  C   UNL A   1      36.438  22.427  24.503  1.00  0.00     0.338 C 
ATOM      8  O   UNL A   1      37.003  22.169  23.453  1.00  0.00    -0.246 OA
BRANCH   7   9
ATOM      9  C   UNL A   1      35.033  22.877  24.579  1.00  0.00     0.087 C 
ATOM     10  C   UNL A   1      29.366  25.504  26.211  1.00  0.00     0.046 C 
ATOM     11  C   UNL A   1      30.790  25.284  25.775  1.00  0.00    -0.033 A 
ATOM     12  C   UNL A   1      31.108  24.050  25.193  1.00  0.00     0.051 A 
ATOM     13  C   UNL A   1      31.826  26.215  26.002  1.00  0.00     0.024 A 
ATOM     14  C   UNL A   1      32.426  23.713  24.895  1.00  0.00     0.128 A 
ATOM     15  C   UNL A   1      33.167  25.911  25.657  1.00  0.00    -0.026 A 
ATOM     16  Br  UNL A   1      31.391  27.880  26.843  1.00  0.00    -0.050 Br
ATOM     17  C   UNL A   1      33.462  24.615  25.157  1.00  0.00     0.021 A 
ATOM     18  O   UNL A   1      32.594  22.470  24.357  1.00  0.00    -0.475 OA
ATOM     19  C   UNL A   1      34.290  26.913  25.818  1.00  0.00     0.046 C 
ATOM     20  C   UNL A   1      34.833  24.141  24.975  1.00  0.00     0.027 C 
ATOM     21  C   UNL A   1      33.931  21.927  24.212  1.00  0.00     0.316 C 
BRANCH  21  22
ATOM     22  C   UNL A   1      34.011  20.611  24.995  1.00  0.00     0.430 C 
ATOM     23  F   UNL A   1      34.794  19.706  24.360  1.00  0.00    -0.167 F 
ATOM     24  F   UNL A   1      34.546  20.790  26.225  1.00  0.00    -0.167 F 
ATOM     25  F   UNL A   1      32.793  20.048  25.163  1.00  0.00    -0.167 F 
ENDBRANCH  21  22
ENDBRANCH   7   9
ENDBRANCH   6   7
ENDBRANCH   5   6
ENDBRANCH   4   5
ENDBRANCH   3   4
ENDBRANCH   2   3
ENDBRANCH   1   2
BRANCH   1  26
ATOM     26  O   UNL A   1      42.113  20.234  27.489  1.00  0.00    -0.376 OA
BRANCH  26  27
ATOM     27  C   UNL A   1      42.004  19.162  26.566  1.00  0.00     0.202 C 
BRANCH  27  28
ATOM     28  C   UNL A   1      43.133  18.682  25.630  1.00  0.00     0.261 C 
BRANCH  28  29
ATOM     29  O   UNL A   1      43.432  19.486  24.483  1.00  0.00    -0.460 OA
BRANCH  29  30
ATOM     30  C   UNL A   1      44.750  19.743  24.279  1.00  0.00     0.338 C 
ATOM     31  O   UNL A   1      45.563  19.043  23.707  1.00  0.00    -0.246 OA
BRANCH  30  32
ATOM     32  C   UNL A   1      45.029  21.133  24.692  1.00  0.00     0.060 A 
ATOM     33  C   UNL A   1      45.454  21.373  26.006  1.00  0.00     0.016 A 
ATOM     34  C   UNL A   1      44.854  22.189  23.799  1.00  0.00     0.016 A 
ATOM     35  C   UNL A   1      45.714  22.676  26.429  1.00  0.00     0.010 A 
ATOM     36  C   UNL A   1      45.085  23.498  24.233  1.00  0.00     0.010 A 
ATOM     37  C   UNL A   1      45.500  23.749  25.554  1.00  0.00    -0.014 A 
BRANCH  37  38
ATOM     38  C   UNL A   1      45.553  25.137  26.070  1.00  0.00     0.031 A 
ATOM     39  C   UNL A   1      46.873  25.856  26.064  1.00  0.00     0.074 A 
ATOM     40  C   UNL A   1      44.445  25.764  26.503  1.00  0.00     0.049 A 
ATOM     41  N   UNL A   1      47.162  27.060  26.486  1.00  0.00    -0.248 NA
ATOM     42  C   UNL A   1      48.019  25.123  25.498  1.00  0.00     0.031 C 
ATOM     43  C   UNL A   1      43.096  25.201  26.500  1.00  0.00     0.029 A 
ATOM     44  N   UNL A   1      44.284  27.023  27.028  1.00  0.00    -0.354 N 
ATOM     45  C   UNL A   1      48.517  27.230  26.233  1.00  0.00     0.074 A 
ATOM     46  C   UNL A   1      49.002  25.997  25.655  1.00  0.00     0.031 C 
ATOM     47  C   UNL A   1      42.243  26.114  26.999  1.00  0.00     0.029 A 
ATOM     48  C   UNL A   1      42.990  27.309  27.389  1.00  0.00     0.049 A 
ATOM     49  H   UNL A   1      45.027  27.661  27.135  1.00  0.00     0.167 HD
ATOM     50  C   UNL A   1      49.286  28.322  26.451  1.00  0.00     0.031 A 
ATOM     51  C   UNL A   1      42.472  28.404  27.981  1.00  0.00     0.031 A 
ATOM     52  C   UNL A   1      48.812  29.542  27.045  1.00  0.00     0.049 A 
ATOM     53  C   UNL A   1      43.377  29.561  28.326  1.00  0.00     0.074 A 
ATOM     54  C   UNL A   1      49.524  30.697  27.316  1.00  0.00     0.029 A 
ATOM     55  N   UNL A   1      47.510  29.764  27.462  1.00  0.00    -0.354 N 
ATOM     56  N   UNL A   1      44.654  29.714  28.075  1.00  0.00    -0.248 NA
ATOM     57  C   UNL A   1      42.766  30.699  29.031  1.00  0.00     0.031 C 
ATOM     58  C   UNL A   1      48.666  31.597  27.953  1.00  0.00     0.029 A 
ATOM     59  C   UNL A   1      47.404  31.030  28.013  1.00  0.00     0.049 A 
ATOM     60  H   UNL A   1      46.771  29.119  27.379  1.00  0.00     0.167 HD
ATOM     61  C   UNL A   1      44.990  30.974  28.558  1.00  0.00     0.074 A 
ATOM     62  C   UNL A   1      43.781  31.549  29.107  1.00  0.00     0.031 C 
ATOM     63  C   UNL A   1      46.193  31.598  28.545  1.00  0.00     0.031 A 
BRANCH  50  64
ATOM     64  C   UNL A   1      50.734  28.247  26.057  1.00  0.00    -0.014 A 
ATOM     65  C   UNL A   1      51.714  27.851  26.979  1.00  0.00     0.009 A 
ATOM     66  C   UNL A   1      51.110  28.499  24.729  1.00  0.00     0.009 A 
ATOM     67  C   UNL A   1      53.046  27.722  26.582  1.00  0.00     0.001 A 
ATOM     68  C   UNL A   1      52.438  28.341  24.327  1.00  0.00     0.001 A 
ATOM     69  C   UNL A   1      53.405  27.958  25.254  1.00  0.00     0.000 A 
ENDBRANCH  50  64
BRANCH  51  70
ATOM     70  C   UNL A   1      41.019  28.468  28.299  1.00  0.00    -0.014 A 
ATOM     71  C   UNL A   1      40.526  27.921  29.494  1.00  0.00     0.009 A 
ATOM     72  C   UNL A   1      40.114  29.058  27.402  1.00  0.00     0.009 A 
ATOM     73  C   UNL A   1      39.157  27.945  29.773  1.00  0.00     0.001 A 
ATOM     74  C   UNL A   1      38.750  29.107  27.697  1.00  0.00     0.001 A 
ATOM     75  C   UNL A   1      38.271  28.543  28.879  1.00  0.00     0.000 A 
ENDBRANCH  51  70
BRANCH  63  76
ATOM     76  C   UNL A   1      46.274  32.992  29.102  1.00  0.00    -0.014 A 
ATOM     77  C   UNL A   1      46.635  33.225  30.437  1.00  0.00     0.009 A 
ATOM     78  C   UNL A   1      46.087  34.092  28.247  1.00  0.00     0.009 A 
ATOM     79  C   UNL A   1      46.791  34.531  30.909  1.00  0.00     0.001 A 
ATOM     80  C   UNL A   1      46.273  35.395  28.713  1.00  0.00     0.001 A 
ATOM     81  C   UNL A   1      46.620  35.613  30.045  1.00  0.00     0.000 A 
ENDBRANCH  63  76
ENDBRANCH  37  38
ENDBRANCH  30  32
ENDBRANCH  29  30
ENDBRANCH  28  29
ENDBRANCH  27  28
ENDBRANCH  26  27
ENDBRANCH   1  26
TORSDOF 18
ENDMDL
