MODEL 1
REMARK VINA RESULT:     -10.0      0.000      0.000
REMARK SMILES CC(C)(C)OC(=O)N1CCC[C@@](CC2CCC2)(C(=O)OCCOCCOCCOC(=O)c2ccc(-c3c4nc(c(-c5ccccc5)c5ccc([nH]5)c(-c5ccccc5)c5nc(c(-c6ccccc6)c6ccc3[nH]6)C=C5)C=C4)cc2)C1
REMARK SMILES IDX 24 1 23 2 22 3 21 4 20 5 18 6 19 7 12 8 8 9 9 10 80 11 10 12
REMARK SMILES IDX 11 13 6 14 7 15 5 16 2 17 1 18 3 19 4 20 13 21 14 22 15 23
REMARK SMILES IDX 17 24 16 25 25 26 26 27 27 28 28 29 29 30 30 31 31 32 32 33
REMARK SMILES IDX 33 34 79 35 34 36 78 37 35 38 36 39 37 40 72 41 38 42 77 43
REMARK SMILES IDX 71 44 73 45 39 46 76 47 70 48 69 49 40 51 62 52 47 53 61 54
REMARK SMILES IDX 48 55 51 56 60 57 74 58 49 59 50 60 59 62 75 63 52 64 41 65
REMARK SMILES IDX 42 66 46 67 43 68 45 69 44 70 63 71 64 72 68 73 65 74 67 75
REMARK SMILES IDX 66 76 53 77 54 78 58 79 55 80 57 81 56 82
REMARK H PARENT 73 50 51 61
REMARK Flexibility Score: inf
ROOT
ATOM      1  C   UNL A   1      34.163  20.687  25.464  1.00  0.00     0.188 C 
ENDROOT
BRANCH   1   2
ATOM      2  O   UNL A   1      33.222  21.005  26.477  1.00  0.00    -0.376 OA
BRANCH   2   3
ATOM      3  C   UNL A   1      32.273  22.027  26.171  1.00  0.00     0.202 C 
BRANCH   3   4
ATOM      4  C   UNL A   1      32.462  23.404  26.830  1.00  0.00     0.261 C 
BRANCH   4   5
ATOM      5  O   UNL A   1      32.635  24.537  25.931  1.00  0.00    -0.463 OA
BRANCH   5   6
ATOM      6  C   UNL A   1      31.715  25.526  26.052  1.00  0.00     0.313 C 
ATOM      7  O   UNL A   1      30.593  25.338  26.520  1.00  0.00    -0.252 OA
BRANCH   6   8
ATOM      8  C   UNL A   1      32.116  26.898  25.489  1.00  0.00     0.086 C 
ATOM      9  N   UNL A   1      30.849  28.764  24.307  1.00  0.00    -0.307 N 
ATOM     10  C   UNL A   1      31.439  29.817  25.109  1.00  0.00     0.123 C 
ATOM     11  C   UNL A   1      30.756  27.428  24.890  1.00  0.00     0.141 C 
ATOM     12  C   UNL A   1      32.763  29.380  25.700  1.00  0.00     0.023 C 
ATOM     13  C   UNL A   1      32.607  28.033  26.428  1.00  0.00     0.022 C 
BRANCH   9  14
ATOM     14  C   UNL A   1      30.268  29.106  23.102  1.00  0.00     0.410 C 
ATOM     15  O   UNL A   1      30.454  28.459  22.077  1.00  0.00    -0.224 OA
BRANCH  14  16
ATOM     16  O   UNL A   1      29.548  30.254  23.182  1.00  0.00    -0.444 OA
BRANCH  16  17
ATOM     17  C   UNL A   1      28.178  30.320  22.702  1.00  0.00     0.106 C 
ATOM     18  C   UNL A   1      27.532  31.508  23.434  1.00  0.00     0.056 C 
ATOM     19  C   UNL A   1      27.483  29.023  23.120  1.00  0.00     0.056 C 
ATOM     20  C   UNL A   1      28.031  30.580  21.193  1.00  0.00     0.056 C 
ENDBRANCH  16  17
ENDBRANCH  14  16
ENDBRANCH   9  14
BRANCH   8  21
ATOM     21  C   UNL A   1      33.157  26.574  24.376  1.00  0.00     0.024 C 
BRANCH  21  22
ATOM     22  C   UNL A   1      32.628  25.900  23.084  1.00  0.00    -0.010 C 
ATOM     23  C   UNL A   1      32.839  26.406  21.624  1.00  0.00     0.003 C 
ATOM     24  C   UNL A   1      33.213  24.538  22.614  1.00  0.00     0.003 C 
ATOM     25  C   UNL A   1      32.926  24.951  21.158  1.00  0.00     0.001 C 
ENDBRANCH  21  22
ENDBRANCH   8  21
ENDBRANCH   6   8
ENDBRANCH   5   6
ENDBRANCH   4   5
ENDBRANCH   3   4
ENDBRANCH   2   3
ENDBRANCH   1   2
BRANCH   1  26
ATOM     26  C   UNL A   1      34.747  21.871  24.690  1.00  0.00     0.188 C 
BRANCH  26  27
ATOM     27  O   UNL A   1      36.147  21.842  24.511  1.00  0.00    -0.376 OA
BRANCH  27  28
ATOM     28  C   UNL A   1      36.844  20.601  24.506  1.00  0.00     0.202 C 
BRANCH  28  29
ATOM     29  C   UNL A   1      38.067  20.415  25.434  1.00  0.00     0.261 C 
BRANCH  29  30
ATOM     30  O   UNL A   1      39.023  21.493  25.493  1.00  0.00    -0.460 OA
BRANCH  30  31
ATOM     31  C   UNL A   1      40.085  21.347  26.321  1.00  0.00     0.338 C 
ATOM     32  O   UNL A   1      40.866  20.412  26.333  1.00  0.00    -0.246 OA
BRANCH  31  33
ATOM     33  C   UNL A   1      40.328  22.649  27.015  1.00  0.00     0.060 A 
ATOM     34  C   UNL A   1      39.412  23.690  26.790  1.00  0.00     0.016 A 
ATOM     35  C   UNL A   1      41.358  22.831  27.946  1.00  0.00     0.016 A 
ATOM     36  C   UNL A   1      39.576  24.932  27.412  1.00  0.00     0.010 A 
ATOM     37  C   UNL A   1      41.530  24.080  28.563  1.00  0.00     0.010 A 
ATOM     38  C   UNL A   1      40.678  25.154  28.246  1.00  0.00    -0.014 A 
BRANCH  38  39
ATOM     39  C   UNL A   1      41.127  26.554  28.492  1.00  0.00     0.031 A 
ATOM     40  C   UNL A   1      42.440  26.973  27.875  1.00  0.00     0.074 A 
ATOM     41  C   UNL A   1      40.401  27.457  29.175  1.00  0.00     0.049 A 
ATOM     42  N   UNL A   1      43.058  28.127  27.917  1.00  0.00    -0.248 NA
ATOM     43  C   UNL A   1      43.151  25.938  27.105  1.00  0.00     0.031 C 
ATOM     44  C   UNL A   1      39.087  27.227  29.768  1.00  0.00     0.029 A 
ATOM     45  N   UNL A   1      40.681  28.771  29.471  1.00  0.00    -0.354 N 
ATOM     46  C   UNL A   1      44.228  27.950  27.186  1.00  0.00     0.074 A 
ATOM     47  C   UNL A   1      44.259  26.570  26.760  1.00  0.00     0.031 C 
ATOM     48  C   UNL A   1      38.668  28.367  30.350  1.00  0.00     0.029 A 
ATOM     49  C   UNL A   1      39.697  29.396  30.197  1.00  0.00     0.049 A 
ATOM     50  H   UNL A   1      41.510  29.220  29.190  1.00  0.00     0.167 HD
ATOM     51  C   UNL A   1      45.191  28.850  26.877  1.00  0.00     0.031 A 
ATOM     52  C   UNL A   1      39.638  30.654  30.683  1.00  0.00     0.031 A 
ATOM     53  C   UNL A   1      45.191  30.217  27.319  1.00  0.00     0.049 A 
ATOM     54  C   UNL A   1      40.777  31.612  30.432  1.00  0.00     0.074 A 
ATOM     55  C   UNL A   1      46.125  31.206  27.068  1.00  0.00     0.029 A 
ATOM     56  N   UNL A   1      44.211  30.784  28.119  1.00  0.00    -0.354 N 
ATOM     57  N   UNL A   1      41.870  31.438  29.729  1.00  0.00    -0.248 NA
ATOM     58  C   UNL A   1      40.659  32.949  31.034  1.00  0.00     0.031 C 
ATOM     59  C   UNL A   1      45.744  32.354  27.770  1.00  0.00     0.029 A 
ATOM     60  C   UNL A   1      44.532  32.103  28.393  1.00  0.00     0.049 A 
ATOM     61  H   UNL A   1      43.407  30.319  28.444  1.00  0.00     0.167 HD
ATOM     62  C   UNL A   1      42.545  32.656  29.764  1.00  0.00     0.074 A 
ATOM     63  C   UNL A   1      41.736  33.558  30.557  1.00  0.00     0.031 C 
ATOM     64  C   UNL A   1      43.721  32.998  29.181  1.00  0.00     0.031 A 
BRANCH  51  65
ATOM     65  C   UNL A   1      46.351  28.346  26.060  1.00  0.00    -0.014 A 
ATOM     66  C   UNL A   1      46.234  28.120  24.678  1.00  0.00     0.009 A 
ATOM     67  C   UNL A   1      47.571  28.057  26.692  1.00  0.00     0.009 A 
ATOM     68  C   UNL A   1      47.291  27.556  23.960  1.00  0.00     0.001 A 
ATOM     69  C   UNL A   1      48.638  27.531  25.964  1.00  0.00     0.001 A 
ATOM     70  C   UNL A   1      48.492  27.264  24.604  1.00  0.00     0.000 A 
ENDBRANCH  51  65
BRANCH  52  71
ATOM     71  C   UNL A   1      38.444  31.102  31.452  1.00  0.00    -0.014 A 
ATOM     72  C   UNL A   1      37.352  31.687  30.792  1.00  0.00     0.009 A 
ATOM     73  C   UNL A   1      38.399  30.975  32.848  1.00  0.00     0.009 A 
ATOM     74  C   UNL A   1      36.250  32.152  31.515  1.00  0.00     0.001 A 
ATOM     75  C   UNL A   1      37.284  31.414  33.567  1.00  0.00     0.001 A 
ATOM     76  C   UNL A   1      36.215  32.010  32.901  1.00  0.00     0.000 A 
ENDBRANCH  52  71
BRANCH  64  77
ATOM     77  C   UNL A   1      44.179  34.427  29.315  1.00  0.00    -0.014 A 
ATOM     78  C   UNL A   1      43.970  35.374  28.300  1.00  0.00     0.009 A 
ATOM     79  C   UNL A   1      44.801  34.840  30.506  1.00  0.00     0.009 A 
ATOM     80  C   UNL A   1      44.413  36.690  28.459  1.00  0.00     0.001 A 
ATOM     81  C   UNL A   1      45.210  36.163  30.675  1.00  0.00     0.001 A 
ATOM     82  C   UNL A   1      45.028  37.084  29.647  1.00  0.00     0.000 A 
ENDBRANCH  64  77
ENDBRANCH  38  39
ENDBRANCH  31  33
ENDBRANCH  30  31
ENDBRANCH  29  30
ENDBRANCH  28  29
ENDBRANCH  27  28
ENDBRANCH  26  27
ENDBRANCH   1  26
TORSDOF 22
ENDMDL
MODEL 2
REMARK VINA RESULT:      -9.9      2.695      4.889
REMARK SMILES CC(C)(C)OC(=O)N1CCC[C@@](CC2CCC2)(C(=O)OCCOCCOCCOC(=O)c2ccc(-c3c4nc(c(-c5ccccc5)c5ccc([nH]5)c(-c5ccccc5)c5nc(c(-c6ccccc6)c6ccc3[nH]6)C=C5)C=C4)cc2)C1
REMARK SMILES IDX 24 1 23 2 22 3 21 4 20 5 18 6 19 7 12 8 8 9 9 10 80 11 10 12
REMARK SMILES IDX 11 13 6 14 7 15 5 16 2 17 1 18 3 19 4 20 13 21 14 22 15 23
REMARK SMILES IDX 17 24 16 25 25 26 26 27 27 28 28 29 29 30 30 31 31 32 32 33
REMARK SMILES IDX 33 34 79 35 34 36 78 37 35 38 36 39 37 40 72 41 38 42 77 43
REMARK SMILES IDX 71 44 73 45 39 46 76 47 70 48 69 49 40 51 62 52 47 53 61 54
REMARK SMILES IDX 48 55 51 56 60 57 74 58 49 59 50 60 59 62 75 63 52 64 41 65
REMARK SMILES IDX 42 66 46 67 43 68 45 69 44 70 63 71 64 72 68 73 65 74 67 75
REMARK SMILES IDX 66 76 53 77 54 78 58 79 55 80 57 81 56 82
REMARK H PARENT 73 50 51 61
REMARK Flexibility Score: inf
ROOT
ATOM      1  C   UNL A   1      39.057  22.047  26.212  1.00  0.00     0.188 C 
ENDROOT
BRANCH   1   2
ATOM      2  O   UNL A   1      37.697  21.800  25.893  1.00  0.00    -0.376 OA
BRANCH   2   3
ATOM      3  C   UNL A   1      37.348  21.835  24.510  1.00  0.00     0.202 C 
BRANCH   3   4
ATOM      4  C   UNL A   1      36.893  23.181  23.917  1.00  0.00     0.261 C 
BRANCH   4   5
ATOM      5  O   UNL A   1      35.548  23.621  24.263  1.00  0.00    -0.463 OA
BRANCH   5   6
ATOM      6  C   UNL A   1      34.619  23.492  23.284  1.00  0.00     0.313 C 
ATOM      7  O   UNL A   1      34.914  23.432  22.090  1.00  0.00    -0.252 OA
BRANCH   6   8
ATOM      8  C   UNL A   1      33.151  23.510  23.734  1.00  0.00     0.086 C 
ATOM      9  N   UNL A   1      31.686  25.217  24.928  1.00  0.00    -0.307 N 
ATOM     10  C   UNL A   1      30.569  25.051  24.020  1.00  0.00     0.123 C 
ATOM     11  C   UNL A   1      33.027  24.922  24.427  1.00  0.00     0.141 C 
ATOM     12  C   UNL A   1      30.615  23.703  23.333  1.00  0.00     0.023 C 
ATOM     13  C   UNL A   1      31.997  23.473  22.694  1.00  0.00     0.022 C 
BRANCH   9  14
ATOM     14  C   UNL A   1      31.450  25.791  26.160  1.00  0.00     0.410 C 
ATOM     15  O   UNL A   1      30.382  25.661  26.751  1.00  0.00    -0.224 OA
BRANCH  14  16
ATOM     16  O   UNL A   1      32.489  26.553  26.586  1.00  0.00    -0.444 OA
BRANCH  16  17
ATOM     17  C   UNL A   1      32.429  28.005  26.538  1.00  0.00     0.106 C 
ATOM     18  C   UNL A   1      31.582  28.431  27.750  1.00  0.00     0.056 C 
ATOM     19  C   UNL A   1      31.706  28.391  25.248  1.00  0.00     0.056 C 
ATOM     20  C   UNL A   1      33.787  28.714  26.661  1.00  0.00     0.056 C 
ENDBRANCH  16  17
ENDBRANCH  14  16
ENDBRANCH   9  14
BRANCH   8  21
ATOM     21  C   UNL A   1      33.043  22.344  24.761  1.00  0.00     0.024 C 
BRANCH  21  22
ATOM     22  C   UNL A   1      33.378  20.918  24.253  1.00  0.00    -0.010 C 
ATOM     23  C   UNL A   1      34.338  19.895  24.934  1.00  0.00     0.003 C 
ATOM     24  C   UNL A   1      32.295  19.802  24.281  1.00  0.00     0.003 C 
ATOM     25  C   UNL A   1      33.414  18.762  24.481  1.00  0.00     0.001 C 
ENDBRANCH  21  22
ENDBRANCH   8  21
ENDBRANCH   6   8
ENDBRANCH   5   6
ENDBRANCH   4   5
ENDBRANCH   3   4
ENDBRANCH   2   3
ENDBRANCH   1   2
BRANCH   1  26
ATOM     26  C   UNL A   1      39.996  20.840  26.148  1.00  0.00     0.188 C 
BRANCH  26  27
ATOM     27  O   UNL A   1      40.719  20.575  27.332  1.00  0.00    -0.376 OA
BRANCH  27  28
ATOM     28  C   UNL A   1      42.023  20.010  27.262  1.00  0.00     0.202 C 
BRANCH  28  29
ATOM     29  C   UNL A   1      42.363  19.025  26.119  1.00  0.00     0.261 C 
BRANCH  29  30
ATOM     30  O   UNL A   1      42.814  19.590  24.870  1.00  0.00    -0.460 OA
BRANCH  30  31
ATOM     31  C   UNL A   1      44.150  19.682  24.668  1.00  0.00     0.338 C 
ATOM     32  O   UNL A   1      44.856  18.850  24.127  1.00  0.00    -0.246 OA
BRANCH  31  33
ATOM     33  C   UNL A   1      44.575  21.090  24.941  1.00  0.00     0.060 A 
ATOM     34  C   UNL A   1      45.331  21.331  26.100  1.00  0.00     0.016 A 
ATOM     35  C   UNL A   1      44.342  22.139  24.043  1.00  0.00     0.016 A 
ATOM     36  C   UNL A   1      45.767  22.623  26.412  1.00  0.00     0.010 A 
ATOM     37  C   UNL A   1      44.770  23.438  24.360  1.00  0.00     0.010 A 
ATOM     38  C   UNL A   1      45.425  23.694  25.579  1.00  0.00    -0.014 A 
BRANCH  38  39
ATOM     39  C   UNL A   1      45.438  25.076  26.137  1.00  0.00     0.031 A 
ATOM     40  C   UNL A   1      46.752  25.819  26.100  1.00  0.00     0.074 A 
ATOM     41  C   UNL A   1      44.342  25.697  26.608  1.00  0.00     0.049 A 
ATOM     42  N   UNL A   1      47.045  27.031  26.503  1.00  0.00    -0.248 NA
ATOM     43  C   UNL A   1      47.894  25.085  25.528  1.00  0.00     0.031 C 
ATOM     44  C   UNL A   1      42.993  25.142  26.646  1.00  0.00     0.029 A 
ATOM     45  N   UNL A   1      44.203  26.958  27.140  1.00  0.00    -0.354 N 
ATOM     46  C   UNL A   1      48.399  27.196  26.237  1.00  0.00     0.074 A 
ATOM     47  C   UNL A   1      48.881  25.947  25.691  1.00  0.00     0.031 C 
ATOM     48  C   UNL A   1      42.158  26.062  27.164  1.00  0.00     0.029 A 
ATOM     49  C   UNL A   1      42.919  27.259  27.523  1.00  0.00     0.049 A 
ATOM     50  H   UNL A   1      44.955  27.585  27.239  1.00  0.00     0.167 HD
ATOM     51  C   UNL A   1      49.182  28.286  26.413  1.00  0.00     0.031 A 
ATOM     52  C   UNL A   1      42.420  28.372  28.099  1.00  0.00     0.031 A 
ATOM     53  C   UNL A   1      48.726  29.524  26.983  1.00  0.00     0.049 A 
ATOM     54  C   UNL A   1      43.331  29.538  28.400  1.00  0.00     0.074 A 
ATOM     55  C   UNL A   1      49.443  30.685  27.212  1.00  0.00     0.029 A 
ATOM     56  N   UNL A   1      47.435  29.755  27.429  1.00  0.00    -0.354 N 
ATOM     57  N   UNL A   1      44.606  29.687  28.132  1.00  0.00    -0.248 NA
ATOM     58  C   UNL A   1      42.720  30.696  29.071  1.00  0.00     0.031 C 
ATOM     59  C   UNL A   1      48.601  31.597  27.857  1.00  0.00     0.029 A 
ATOM     60  C   UNL A   1      47.339  31.032  27.956  1.00  0.00     0.049 A 
ATOM     61  H   UNL A   1      46.694  29.108  27.377  1.00  0.00     0.167 HD
ATOM     62  C   UNL A   1      44.938  30.971  28.557  1.00  0.00     0.074 A 
ATOM     63  C   UNL A   1      43.729  31.557  29.098  1.00  0.00     0.031 C 
ATOM     64  C   UNL A   1      46.132  31.611  28.491  1.00  0.00     0.031 A 
BRANCH  51  65
ATOM     65  C   UNL A   1      50.630  28.149  26.025  1.00  0.00    -0.014 A 
ATOM     66  C   UNL A   1      51.609  27.772  26.961  1.00  0.00     0.009 A 
ATOM     67  C   UNL A   1      51.027  28.438  24.710  1.00  0.00     0.009 A 
ATOM     68  C   UNL A   1      52.959  27.751  26.604  1.00  0.00     0.001 A 
ATOM     69  C   UNL A   1      52.373  28.376  24.346  1.00  0.00     0.001 A 
ATOM     70  C   UNL A   1      53.339  28.051  25.296  1.00  0.00     0.000 A 
ENDBRANCH  51  65
BRANCH  52  71
ATOM     71  C   UNL A   1      40.969  28.459  28.423  1.00  0.00    -0.014 A 
ATOM     72  C   UNL A   1      40.477  27.934  29.628  1.00  0.00     0.009 A 
ATOM     73  C   UNL A   1      40.065  29.041  27.521  1.00  0.00     0.009 A 
ATOM     74  C   UNL A   1      39.109  27.971  29.914  1.00  0.00     0.001 A 
ATOM     75  C   UNL A   1      38.702  29.104  27.822  1.00  0.00     0.001 A 
ATOM     76  C   UNL A   1      38.225  28.562  29.014  1.00  0.00     0.000 A 
ENDBRANCH  52  71
BRANCH  64  77
ATOM     77  C   UNL A   1      46.185  33.044  28.953  1.00  0.00    -0.014 A 
ATOM     78  C   UNL A   1      45.909  34.115  28.090  1.00  0.00     0.009 A 
ATOM     79  C   UNL A   1      46.482  33.321  30.299  1.00  0.00     0.009 A 
ATOM     80  C   UNL A   1      45.971  35.432  28.553  1.00  0.00     0.001 A 
ATOM     81  C   UNL A   1      46.510  34.636  30.767  1.00  0.00     0.001 A 
ATOM     82  C   UNL A   1      46.267  35.691  29.891  1.00  0.00     0.000 A 
ENDBRANCH  64  77
ENDBRANCH  38  39
ENDBRANCH  31  33
ENDBRANCH  30  31
ENDBRANCH  29  30
ENDBRANCH  28  29
ENDBRANCH  27  28
ENDBRANCH  26  27
ENDBRANCH   1  26
TORSDOF 22
ENDMDL
MODEL 3
REMARK VINA RESULT:      -9.7      3.537      7.033
REMARK SMILES CC(C)(C)OC(=O)N1CCC[C@@](CC2CCC2)(C(=O)OCCOCCOCCOC(=O)c2ccc(-c3c4nc(c(-c5ccccc5)c5ccc([nH]5)c(-c5ccccc5)c5nc(c(-c6ccccc6)c6ccc3[nH]6)C=C5)C=C4)cc2)C1
REMARK SMILES IDX 24 1 23 2 22 3 21 4 20 5 18 6 19 7 12 8 8 9 9 10 80 11 10 12
REMARK SMILES IDX 11 13 6 14 7 15 5 16 2 17 1 18 3 19 4 20 13 21 14 22 15 23
REMARK SMILES IDX 17 24 16 25 25 26 26 27 27 28 28 29 29 30 30 31 31 32 32 33
REMARK SMILES IDX 33 34 79 35 34 36 78 37 35 38 36 39 37 40 72 41 38 42 77 43
REMARK SMILES IDX 71 44 73 45 39 46 76 47 70 48 69 49 40 51 62 52 47 53 61 54
REMARK SMILES IDX 48 55 51 56 60 57 74 58 49 59 50 60 59 62 75 63 52 64 41 65
REMARK SMILES IDX 42 66 46 67 43 68 45 69 44 70 63 71 64 72 68 73 65 74 67 75
REMARK SMILES IDX 66 76 53 77 54 78 58 79 55 80 57 81 56 82
REMARK H PARENT 73 50 51 61
REMARK Flexibility Score: inf
ROOT
ATOM      1  C   UNL A   1      39.438  22.827  26.709  1.00  0.00     0.188 C 
ENDROOT
BRANCH   1   2
ATOM      2  O   UNL A   1      38.118  23.310  26.520  1.00  0.00    -0.376 OA
BRANCH   2   3
ATOM      3  C   UNL A   1      37.387  22.762  25.423  1.00  0.00     0.202 C 
BRANCH   3   4
ATOM      4  C   UNL A   1      35.855  22.900  25.439  1.00  0.00     0.261 C 
BRANCH   4   5
ATOM      5  O   UNL A   1      35.314  24.184  25.015  1.00  0.00    -0.463 OA
BRANCH   5   6
ATOM      6  C   UNL A   1      34.624  24.171  23.847  1.00  0.00     0.313 C 
ATOM      7  O   UNL A   1      35.083  23.701  22.807  1.00  0.00    -0.252 OA
BRANCH   6   8
ATOM      8  C   UNL A   1      33.251  24.860  23.862  1.00  0.00     0.086 C 
ATOM      9  N   UNL A   1      32.452  27.226  23.364  1.00  0.00    -0.307 N 
ATOM     10  C   UNL A   1      31.330  26.791  22.557  1.00  0.00     0.123 C 
ATOM     11  C   UNL A   1      33.612  26.343  23.460  1.00  0.00     0.141 C 
ATOM     12  C   UNL A   1      30.917  25.377  22.907  1.00  0.00     0.023 C 
ATOM     13  C   UNL A   1      32.135  24.437  22.868  1.00  0.00     0.022 C 
BRANCH   9  14
ATOM     14  C   UNL A   1      32.437  28.510  23.870  1.00  0.00     0.410 C 
ATOM     15  O   UNL A   1      33.118  29.412  23.395  1.00  0.00    -0.224 OA
BRANCH  14  16
ATOM     16  O   UNL A   1      31.653  28.622  24.973  1.00  0.00    -0.444 OA
BRANCH  16  17
ATOM     17  C   UNL A   1      32.212  29.005  26.260  1.00  0.00     0.106 C 
ATOM     18  C   UNL A   1      31.911  30.505  26.420  1.00  0.00     0.056 C 
ATOM     19  C   UNL A   1      33.724  28.792  26.184  1.00  0.00     0.056 C 
ATOM     20  C   UNL A   1      31.598  28.285  27.472  1.00  0.00     0.056 C 
ENDBRANCH  16  17
ENDBRANCH  14  16
ENDBRANCH   9  14
BRANCH   8  21
ATOM     21  C   UNL A   1      32.778  24.756  25.343  1.00  0.00     0.024 C 
BRANCH  21  22
ATOM     22  C   UNL A   1      31.557  23.846  25.635  1.00  0.00    -0.010 C 
ATOM     23  C   UNL A   1      31.513  22.651  26.635  1.00  0.00     0.003 C 
ATOM     24  C   UNL A   1      30.317  24.415  26.381  1.00  0.00     0.003 C 
ATOM     25  C   UNL A   1      30.064  23.014  26.968  1.00  0.00     0.001 C 
ENDBRANCH  21  22
ENDBRANCH   8  21
ENDBRANCH   6   8
ENDBRANCH   5   6
ENDBRANCH   4   5
ENDBRANCH   3   4
ENDBRANCH   2   3
ENDBRANCH   1   2
BRANCH   1  26
ATOM     26  C   UNL A   1      39.809  21.558  25.939  1.00  0.00     0.188 C 
BRANCH  26  27
ATOM     27  O   UNL A   1      40.844  20.785  26.512  1.00  0.00    -0.376 OA
BRANCH  27  28
ATOM     28  C   UNL A   1      42.112  21.373  26.778  1.00  0.00     0.202 C 
BRANCH  28  29
ATOM     29  C   UNL A   1      42.895  22.043  25.624  1.00  0.00     0.261 C 
BRANCH  29  30
ATOM     30  O   UNL A   1      42.597  23.425  25.338  1.00  0.00    -0.460 OA
BRANCH  30  31
ATOM     31  C   UNL A   1      43.517  24.353  25.693  1.00  0.00     0.338 C 
ATOM     32  O   UNL A   1      44.600  24.533  25.164  1.00  0.00    -0.246 OA
BRANCH  31  33
ATOM     33  C   UNL A   1      42.877  25.319  26.637  1.00  0.00     0.060 A 
ATOM     34  C   UNL A   1      43.358  26.639  26.647  1.00  0.00     0.016 A 
ATOM     35  C   UNL A   1      41.765  24.989  27.421  1.00  0.00     0.016 A 
ATOM     36  C   UNL A   1      42.800  27.596  27.501  1.00  0.00     0.010 A 
ATOM     37  C   UNL A   1      41.210  25.945  28.286  1.00  0.00     0.010 A 
ATOM     38  C   UNL A   1      41.770  27.233  28.378  1.00  0.00    -0.014 A 
BRANCH  38  39
ATOM     39  C   UNL A   1      41.530  28.061  29.592  1.00  0.00     0.031 A 
ATOM     40  C   UNL A   1      40.354  29.007  29.557  1.00  0.00     0.074 A 
ATOM     41  C   UNL A   1      42.264  27.963  30.715  1.00  0.00     0.049 A 
ATOM     42  N   UNL A   1      39.909  29.831  30.473  1.00  0.00    -0.248 NA
ATOM     43  C   UNL A   1      39.575  29.023  28.307  1.00  0.00     0.031 C 
ATOM     44  C   UNL A   1      43.383  27.051  30.930  1.00  0.00     0.029 A 
ATOM     45  N   UNL A   1      42.155  28.650  31.902  1.00  0.00    -0.354 N 
ATOM     46  C   UNL A   1      38.807  30.460  29.906  1.00  0.00     0.074 A 
ATOM     47  C   UNL A   1      38.683  29.966  28.554  1.00  0.00     0.031 C 
ATOM     48  C   UNL A   1      43.853  27.226  32.180  1.00  0.00     0.029 A 
ATOM     49  C   UNL A   1      43.088  28.283  32.841  1.00  0.00     0.049 A 
ATOM     50  H   UNL A   1      41.473  29.340  32.063  1.00  0.00     0.167 HD
ATOM     51  C   UNL A   1      37.956  31.360  30.454  1.00  0.00     0.031 A 
ATOM     52  C   UNL A   1      43.300  28.752  34.089  1.00  0.00     0.031 A 
ATOM     53  C   UNL A   1      38.083  31.886  31.785  1.00  0.00     0.049 A 
ATOM     54  C   UNL A   1      42.416  29.843  34.643  1.00  0.00     0.074 A 
ATOM     55  C   UNL A   1      37.279  32.808  32.430  1.00  0.00     0.029 A 
ATOM     56  N   UNL A   1      39.092  31.543  32.672  1.00  0.00    -0.354 N 
ATOM     57  N   UNL A   1      41.370  30.421  34.103  1.00  0.00    -0.248 NA
ATOM     58  C   UNL A   1      42.741  30.333  35.993  1.00  0.00     0.031 C 
ATOM     59  C   UNL A   1      37.838  33.072  33.685  1.00  0.00     0.029 A 
ATOM     60  C   UNL A   1      38.945  32.255  33.850  1.00  0.00     0.049 A 
ATOM     61  H   UNL A   1      39.806  30.889  32.491  1.00  0.00     0.167 HD
ATOM     62  C   UNL A   1      40.884  31.304  35.063  1.00  0.00     0.074 A 
ATOM     63  C   UNL A   1      41.749  31.184  36.217  1.00  0.00     0.031 C 
ATOM     64  C   UNL A   1      39.809  32.130  34.998  1.00  0.00     0.031 A 
BRANCH  51  65
ATOM     65  C   UNL A   1      36.845  31.865  29.571  1.00  0.00    -0.014 A 
ATOM     66  C   UNL A   1      35.640  31.156  29.429  1.00  0.00     0.009 A 
ATOM     67  C   UNL A   1      37.023  33.050  28.842  1.00  0.00     0.009 A 
ATOM     68  C   UNL A   1      34.665  31.590  28.528  1.00  0.00     0.001 A 
ATOM     69  C   UNL A   1      36.030  33.502  27.972  1.00  0.00     0.001 A 
ATOM     70  C   UNL A   1      34.861  32.763  27.802  1.00  0.00     0.000 A 
ENDBRANCH  51  65
BRANCH  52  71
ATOM     71  C   UNL A   1      44.393  28.183  34.925  1.00  0.00    -0.014 A 
ATOM     72  C   UNL A   1      45.688  28.723  34.866  1.00  0.00     0.009 A 
ATOM     73  C   UNL A   1      44.158  27.083  35.763  1.00  0.00     0.009 A 
ATOM     74  C   UNL A   1      46.726  28.161  35.614  1.00  0.00     0.001 A 
ATOM     75  C   UNL A   1      45.191  26.542  36.532  1.00  0.00     0.001 A 
ATOM     76  C   UNL A   1      46.476  27.076  36.451  1.00  0.00     0.000 A 
ENDBRANCH  52  71
BRANCH  64  77
ATOM     77  C   UNL A   1      39.460  32.922  36.230  1.00  0.00    -0.014 A 
ATOM     78  C   UNL A   1      39.925  34.231  36.430  1.00  0.00     0.009 A 
ATOM     79  C   UNL A   1      38.611  32.353  37.196  1.00  0.00     0.009 A 
ATOM     80  C   UNL A   1      39.583  34.935  37.588  1.00  0.00     0.001 A 
ATOM     81  C   UNL A   1      38.244  33.071  38.334  1.00  0.00     0.001 A 
ATOM     82  C   UNL A   1      38.740  34.356  38.536  1.00  0.00     0.000 A 
ENDBRANCH  64  77
ENDBRANCH  38  39
ENDBRANCH  31  33
ENDBRANCH  30  31
ENDBRANCH  29  30
ENDBRANCH  28  29
ENDBRANCH  27  28
ENDBRANCH  26  27
ENDBRANCH   1  26
TORSDOF 22
ENDMDL
